@<TRIPOS>MOLECULE
NONAME
51 54 1 0 0 
SMALL
USER_CHARGES


@<TRIPOS>ATOM
  1 O       -0.3350     0.2270    -0.2260 O.2   1 <1>  -0.5700 
  2 C       -1.3470     0.7910     0.1460 C.2   1 <1>   0.7160 
  3 N       -2.5090     0.0600     0.2570 N.am  1 <1>  -0.6600 
  4 C       -1.3110     2.2020     0.4400 C.2   1 <1>  -0.0860 
  5 C       -3.8730     0.6430     0.1700 C.3   1 <1>   0.1400 
  6 C       -2.5490    -1.3950    -0.0400 C.3   1 <1>   0.1400 
  7 C       -2.0050     2.8690     1.4520 C.2   1 <1>   0.1390 
  8 C       -0.6080     3.2050    -0.1550 C.2   1 <1>  -0.3020 
  9 C       -4.7530    -0.4870    -0.3650 C.3   1 <1>   0.2000 
 10 C       -4.0300    -1.7770     0.0110 C.3   1 <1>  -0.0800 
 11 N       -1.7800     4.1440     1.4710 N.2   1 <1>  -0.7070 
 12 N       -0.9030     4.3560     0.4720 N.pl3 1 <1>   0.3140 
 13 O       -6.0160    -0.4650     0.2060 O.3   1 <1>  -0.6800 
 14 C       -4.4020    -2.9560    -0.9040 C.3   1 <1>  -0.0170 
 15 C       -0.3690     5.7140     0.1750 C.3   1 <1>   0.1760 
 16 C       -3.6840    -4.2280    -0.4860 C.ar  1 <1>   0.1670 
 17 C       -0.7540     6.1530    -1.2440 C.3   1 <1>  -0.2400 
 18 C        1.1540     5.7520     0.3690 C.3   1 <1>  -0.2400 
 19 N       -2.4920    -4.4240    -0.9610 N.ar  1 <1>  -0.6200 
 20 C       -4.3280    -5.1170     0.3900 C.ar  1 <1>  -0.1500 
 21 C       -1.8370    -5.5510    -0.5820 C.ar  1 <1>   0.3100 
 22 C       -3.6950    -6.2560     0.7850 C.ar  1 <1>  -0.1500 
 23 C       -2.4010    -6.5020     0.2960 C.ar  1 <1>   0.0000 
 24 C       -0.5430    -5.7830    -1.0760 C.ar  1 <1>  -0.1500 
 25 C       -1.6520    -7.6450     0.6410 C.ar  1 <1>  -0.1500 
 26 C        0.1690    -6.9000    -0.7280 C.ar  1 <1>  -0.1500 
 27 C       -0.3930    -7.8410     0.1410 C.ar  1 <1>  -0.1500 
 28 H       -4.1950     0.9390     1.1520 H     1 <1>   0.0800 
 29 H       -3.8870     1.4870    -0.4990 H     1 <1>   0.0800 
 30 H       -2.1420    -1.5670    -1.0240 H     1 <1>   0.0800 
 31 H       -1.9700    -1.9500     0.6790 H     1 <1>   0.0800 
 32 H       -2.6570     2.3800     2.1550 H     1 <1>   0.1500 
 33 H        0.0760     3.1350    -0.9800 H     1 <1>   0.1500 
 34 H       -4.8590    -0.3930    -1.4320 H     1 <1>   0.0800 
 35 H       -4.2560    -2.0320     1.0310 H     1 <1>   0.0800 
 36 H       -5.9560    -0.5730     1.1750 H     1 <1>   0.4000 
 37 H       -4.1420    -2.7260    -1.9220 H     1 <1>   0.0800 
 38 H       -5.4650    -3.1150    -0.8700 H     1 <1>   0.0800 
 39 H       -0.8210     6.3910     0.8790 H     1 <1>   0.0800 
 40 H       -0.3090     5.5050    -1.9790 H     1 <1>   0.0800 
 41 H       -0.4140     7.1570    -1.4230 H     1 <1>   0.0800 
 42 H       -1.8240     6.1330    -1.3560 H     1 <1>   0.0800 
 43 H        1.6450     5.0960    -0.3280 H     1 <1>   0.0800 
 44 H        1.4020     5.4520     1.3720 H     1 <1>   0.0800 
 45 H        1.5190     6.7510     0.2150 H     1 <1>   0.0800 
 46 H       -5.3170    -4.8870     0.7400 H     1 <1>   0.1500 
 47 H       -4.1550    -6.9610     1.4540 H     1 <1>   0.1500 
 48 H       -0.1290    -5.0470    -1.7410 H     1 <1>   0.1500 
 49 H       -2.0900    -8.3640     1.3100 H     1 <1>   0.1500 
 50 H        1.1600    -7.0650    -1.1140 H     1 <1>   0.1500 
 51 H        0.1770    -8.7140     0.4060 H     1 <1>   0.1500 
@<TRIPOS>BOND
  1   1   2  2   
  2   2   3  am  
  3   2   4  1   
  4   3   5  1   
  5   3   6  1   
  6   4   7  1   
  7   4   8  2   
  8   5   9  1   
  9   5  28  1   
 10   5  29  1   
 11   6  10  1   
 12   6  30  1   
 13   6  31  1   
 14   7  11  2   
 15   7  32  1   
 16   8  12  1   
 17   8  33  1   
 18   9  10  1   
 19   9  13  1   
 20   9  34  1   
 21  10  14  1   
 22  10  35  1   
 23  11  12  1   
 24  12  15  1   
 25  13  36  1   
 26  14  16  1   
 27  14  37  1   
 28  14  38  1   
 29  15  17  1   
 30  15  18  1   
 31  15  39  1   
 32  16  19  ar  
 33  16  20  ar  
 34  17  40  1   
 35  17  41  1   
 36  17  42  1   
 37  18  43  1   
 38  18  44  1   
 39  18  45  1   
 40  19  21  ar  
 41  20  22  ar  
 42  20  46  1   
 43  21  23  ar  
 44  21  24  ar  
 45  22  23  ar  
 46  22  47  1   
 47  23  25  ar  
 48  24  26  ar  
 49  24  48  1   
 50  25  27  ar  
 51  25  49  1   
 52  26  27  ar  
 53  26  50  1   
 54  27  51  1   
@<TRIPOS>SUBSTRUCTURE
  1 ****   6 GROUP 4 **** **** 0

# MOE 2024.06 (io_trps.svl 2023.06)
