@<TRIPOS>MOLECULE
NONAME
48 50 1 0 0 
SMALL
USER_CHARGES


@<TRIPOS>ATOM
  1 F        0.7560    -0.0010    -0.8740 F     1 <1>  -0.1900 
  2 C        1.5480    -0.9310    -0.3840 C.ar  1 <1>   0.1900 
  3 C        1.0430    -2.2000    -0.1040 C.ar  1 <1>   0.4100 
  4 C        2.8730    -0.6630    -0.1460 C.ar  1 <1>   0.1660 
  5 N        1.8350    -3.1360     0.4000 N.ar  1 <1>  -0.6200 
  6 N       -0.2860    -2.5470    -0.2970 N.pl3 1 <1>  -0.8380 
  7 N        3.6630    -1.6010     0.3520 N.ar  1 <1>  -0.6200 
  8 C        3.5050     0.6940    -0.4290 C.3   1 <1>  -0.0170 
  9 C        3.0960    -2.7710     0.5900 C.ar  1 <1>   0.4700 
 10 C       -0.6240    -3.9080    -0.7690 C.3   1 <1>   0.2090 
 11 C       -1.2600    -1.9780     0.6660 C.3   1 <1>   0.2090 
 12 C        4.2710     0.6890    -1.7580 C.3   1 <1>  -0.2400 
 13 C       -1.3880    -4.6070     0.3790 C.3   1 <1>   0.4230 
 14 C       -2.6320    -2.7200     0.6420 C.3   1 <1>  -0.1600 
 15 N       -0.8850    -6.0130     0.6490 N.4   1 <1>  -0.9590 
 16 C       -2.9460    -4.2680     0.2460 C.3   1 <1>   0.0000 
 17 C       -1.0450    -6.8820    -0.5330 C.3   1 <1>   0.3430 
 18 C        0.5270    -6.0060     1.1490 C.3   1 <1>   0.2630 
 19 C       -3.3280    -5.7760    -0.2100 C.3   1 <1>  -0.1600 
 20 C       -4.5020    -3.8860     0.1940 C.3   1 <1>   0.1200 
 21 C       -2.3890    -6.5550    -1.1630 C.3   1 <1>  -0.1600 
 22 O       -4.8790    -3.5770    -1.1130 O.3   1 <1>  -0.6800 
 23 H        2.7510     1.4610    -0.4560 H     1 <1>   0.0800 
 24 H        4.1820     0.9360     0.3720 H     1 <1>   0.0800 
 25 H        3.7510    -3.5260     0.9940 H     1 <1>   0.1500 
 26 H       -1.2510    -3.8250    -1.6400 H     1 <1>   0.0800 
 27 H        0.2670    -4.4390    -1.0490 H     1 <1>   0.0800 
 28 H       -0.8380    -2.0370     1.6560 H     1 <1>   0.0800 
 29 H       -1.4060    -0.9320     0.4450 H     1 <1>   0.0800 
 30 H        3.6040     0.4650    -2.5710 H     1 <1>   0.0800 
 31 H        5.0490    -0.0540    -1.7330 H     1 <1>   0.0800 
 32 H        4.7190     1.6510    -1.9310 H     1 <1>   0.0800 
 33 H       -1.0670    -4.1080     1.2760 H     1 <1>   0.0800 
 34 H       -3.0250    -2.5390     1.6310 H     1 <1>   0.0800 
 35 H       -3.1660    -2.0600    -0.0260 H     1 <1>   0.0800 
 36 H       -1.4900    -6.3920     1.3890 H     1 <1>   0.4500 
 37 H       -0.2560    -6.7080    -1.2470 H     1 <1>   0.0800 
 38 H       -1.0170    -7.9180    -0.2330 H     1 <1>   0.0800 
 39 H        1.1950    -5.6350     0.3880 H     1 <1>   0.0800 
 40 H        0.8350    -7.0020     1.4230 H     1 <1>   0.0800 
 41 H        0.6150    -5.3660     2.0130 H     1 <1>   0.0800 
 42 H       -3.4880    -6.3670     0.6780 H     1 <1>   0.0800 
 43 H       -4.2510    -5.8840    -0.7640 H     1 <1>   0.0800 
 44 H       -4.8290    -3.0590     0.8070 H     1 <1>   0.0800 
 45 H       -5.1550    -4.6720     0.5440 H     1 <1>   0.0800 
 46 H       -2.2380    -5.9880    -2.0650 H     1 <1>   0.0800 
 47 H       -2.8550    -7.4790    -1.4590 H     1 <1>   0.0800 
 48 H       -4.5340    -2.7070    -1.3970 H     1 <1>   0.4000 
@<TRIPOS>BOND
  1   1   2  1   
  2   2   3  ar  
  3   2   4  ar  
  4   3   5  ar  
  5   3   6  1   
  6   4   7  ar  
  7   4   8  1   
  8   5   9  ar  
  9   6  10  1   
 10   6  11  1   
 11   7   9  ar  
 12   8  12  1   
 13   8  23  1   
 14   8  24  1   
 15   9  25  1   
 16  10  13  1   
 17  10  26  1   
 18  10  27  1   
 19  11  14  1   
 20  11  28  1   
 21  11  29  1   
 22  12  30  1   
 23  12  31  1   
 24  12  32  1   
 25  13  15  1   
 26  13  16  1   
 27  13  33  1   
 28  14  16  1   
 29  14  34  1   
 30  14  35  1   
 31  15  17  1   
 32  15  18  1   
 33  15  36  1   
 34  16  19  1   
 35  16  20  1   
 36  17  21  1   
 37  17  37  1   
 38  17  38  1   
 39  18  39  1   
 40  18  40  1   
 41  18  41  1   
 42  19  21  1   
 43  19  42  1   
 44  19  43  1   
 45  20  22  1   
 46  20  44  1   
 47  20  45  1   
 48  21  46  1   
 49  21  47  1   
 50  22  48  1   
@<TRIPOS>SUBSTRUCTURE
  1 ****   6 GROUP 4 **** **** 0

# MOE 2024.06 (io_trps.svl 2023.06)
