@<TRIPOS>MOLECULE
NONAME
44 46 1 0 0 
SMALL
USER_CHARGES


@<TRIPOS>ATOM
  1 N       -1.2950    -0.0850     0.1740 N.ar  1 <1>  -0.6200 
  2 C       -2.1130     0.9070    -0.1300 C.ar  1 <1>   0.4100 
  3 C       -0.0650     0.2550     0.4930 C.ar  1 <1>   0.4760 
  4 N       -3.4160     0.5890    -0.4580 N.3   1 <1>  -0.5900 
  5 C       -1.6840     2.2300    -0.1110 C.ar  1 <1>  -0.1440 
  6 N        0.4530     1.4650     0.5450 N.ar  1 <1>  -0.6200 
  7 C        0.8720    -0.8770     0.8390 C.3   1 <1>  -0.0970 
  8 C       -4.3460     0.1170     0.6300 C.3   1 <1>   0.2450 
  9 C       -3.7490    -0.6580    -1.2370 C.3   1 <1>   0.2450 
 10 C       -0.3730     2.4440     0.2390 C.ar  1 <1>   0.1600 
 11 C       -2.6640     3.3530    -0.4690 C.3   1 <1>  -0.0160 
 12 C       -4.2050    -1.3160     0.0760 C.3   1 <1>   0.0850 
 13 C       -2.0760     4.7720    -0.4430 C.3   1 <1>  -0.1600 
 14 N       -5.4740    -2.0510    -0.0850 N.pl3 1 <1>   0.4850 
 15 C       -3.1290     5.8180    -0.8240 C.3   1 <1>  -0.2400 
 16 N       -6.6410    -1.6450     0.4610 N.2   1 <1>  -0.7070 
 17 C       -5.6370    -3.2230    -0.7490 C.2   1 <1>  -0.3320 
 18 C       -7.5050    -2.5490     0.1260 C.2   1 <1>   0.1080 
 19 C       -6.9380    -3.5640    -0.6320 C.2   1 <1>  -0.1500 
 20 C       -4.5330    -3.9830    -1.4690 C.3   1 <1>  -0.0600 
 21 C       -8.9560    -2.4710     0.5380 C.3   1 <1>  -0.0590 
 22 H        0.3140    -1.7510     1.1230 H     1 <1>   0.0800 
 23 H        1.5070    -0.5890     1.6560 H     1 <1>   0.0800 
 24 H        1.4780    -1.1080    -0.0160 H     1 <1>   0.0800 
 25 H       -5.3150     0.5690     0.5100 H     1 <1>   0.0000 
 26 H       -3.9180     0.2460     1.6080 H     1 <1>   0.0000 
 27 H       -2.8810    -1.1150    -1.6780 H     1 <1>   0.0000 
 28 H       -4.5460    -0.4680    -1.9360 H     1 <1>   0.0000 
 29 H        0.0340     3.4380     0.2770 H     1 <1>   0.1500 
 30 H       -3.4930     3.3090     0.2170 H     1 <1>   0.0800 
 31 H       -3.0530     3.1580    -1.4540 H     1 <1>   0.0800 
 32 H       -3.4420    -1.9000     0.5600 H     1 <1>   0.0000 
 33 H       -1.2560     4.8360    -1.1380 H     1 <1>   0.0800 
 34 H       -1.7080     4.9930     0.5440 H     1 <1>   0.0800 
 35 H       -3.5030     5.6340    -1.8160 H     1 <1>   0.0800 
 36 H       -2.6960     6.8030    -0.8000 H     1 <1>   0.0800 
 37 H       -3.9540     5.7920    -0.1330 H     1 <1>   0.0800 
 38 H       -7.4500    -4.4240    -1.0240 H     1 <1>   0.1500 
 39 H       -3.7290    -4.2050    -0.7900 H     1 <1>   0.0800 
 40 H       -4.1510    -3.4030    -2.2900 H     1 <1>   0.0800 
 41 H       -4.9160    -4.9100    -1.8580 H     1 <1>   0.0800 
 42 H       -9.3890    -1.5670     0.1530 H     1 <1>   0.0800 
 43 H       -9.0240    -2.4610     1.6100 H     1 <1>   0.0800 
 44 H       -9.5020    -3.3150     0.1580 H     1 <1>   0.0800 
@<TRIPOS>BOND
  1   1   2  ar  
  2   1   3  ar  
  3   2   4  1   
  4   2   5  ar  
  5   3   6  ar  
  6   3   7  1   
  7   4   8  1   
  8   4   9  1   
  9   5  10  ar  
 10   5  11  1   
 11   6  10  ar  
 12   7  22  1   
 13   7  23  1   
 14   7  24  1   
 15   8  12  1   
 16   8  25  1   
 17   8  26  1   
 18   9  12  1   
 19   9  27  1   
 20   9  28  1   
 21  10  29  1   
 22  11  13  1   
 23  11  30  1   
 24  11  31  1   
 25  12  14  1   
 26  12  32  1   
 27  13  15  1   
 28  13  33  1   
 29  13  34  1   
 30  14  16  1   
 31  14  17  1   
 32  15  35  1   
 33  15  36  1   
 34  15  37  1   
 35  16  18  2   
 36  17  19  2   
 37  17  20  1   
 38  18  19  1   
 39  18  21  1   
 40  19  38  1   
 41  20  39  1   
 42  20  40  1   
 43  20  41  1   
 44  21  42  1   
 45  21  43  1   
 46  21  44  1   
@<TRIPOS>SUBSTRUCTURE
  1 ****   4 GROUP 4 **** **** 0

# MOE 2024.06 (io_trps.svl 2023.06)
