@<TRIPOS>MOLECULE
NONAME
36 38 1 0 0 
SMALL
USER_CHARGES


@<TRIPOS>ATOM
  1 O       -0.4980     0.2980    -0.2980 O.2   1 <1>  -0.5700 
  2 C       -1.5450     0.8720    -0.0520 C.2   1 <1>   0.7160 
  3 N       -2.6630     0.1020     0.2010 N.am  1 <1>  -0.6600 
  4 C       -1.6150     2.3210    -0.0100 C.2   1 <1>   0.1410 
  5 C       -4.0570     0.6040     0.1130 C.3   1 <1>   0.1400 
  6 C       -2.6360    -1.3810     0.1330 C.3   1 <1>   0.1400 
  7 N       -1.1500     3.1200    -0.9970 N.2   1 <1>  -0.2270 
  8 C       -2.1380     3.1250     0.9480 C.2   1 <1>  -0.3020 
  9 C       -4.8850    -0.6170    -0.2840 C.3   1 <1>   0.2000 
 10 C       -4.0980    -1.8190     0.2290 C.3   1 <1>  -0.0800 
 11 N       -1.3690     4.3460    -0.6800 N.2   1 <1>  -0.4180 
 12 N       -1.9660     4.3670     0.5100 N.pl3 1 <1>   0.3000 
 13 O       -6.1460    -0.5850     0.2880 O.3   1 <1>  -0.6800 
 14 C       -4.4030    -3.1150    -0.5360 C.3   1 <1>   0.0210 
 15 C       -3.5300    -4.2530    -0.0440 C.2   1 <1>   0.1080 
 16 N       -3.5630    -4.6860     1.1780 N.2   1 <1>  -0.7070 
 17 C       -2.6050    -4.9420    -0.8210 C.2   1 <1>  -0.1500 
 18 N       -2.6530    -5.6780     1.2120 N.pl3 1 <1>   0.3000 
 19 C       -2.0570    -5.8500     0.0130 C.2   1 <1>  -0.3320 
 20 C       -0.9850    -6.8870    -0.2650 C.3   1 <1>  -0.0600 
 21 H       -4.3610     0.9720     1.0770 H     1 <1>   0.0800 
 22 H       -4.1430     1.3790    -0.6300 H     1 <1>   0.0800 
 23 H       -2.2030    -1.6830    -0.8070 H     1 <1>   0.0800 
 24 H       -2.0500    -1.7910     0.9380 H     1 <1>   0.0800 
 25 H       -2.5980     2.8700     1.8840 H     1 <1>   0.1500 
 26 H       -4.9980    -0.6450    -1.3550 H     1 <1>   0.0800 
 27 H       -4.3110    -1.9710     1.2740 H     1 <1>   0.0800 
 28 H       -2.2300     5.2430     0.9750 H     1 <1>   0.2700 
 29 H       -6.0910    -0.7890     1.2430 H     1 <1>   0.4000 
 30 H       -4.2420    -2.9720    -1.5890 H     1 <1>   0.0800 
 31 H       -5.4340    -3.3850    -0.3880 H     1 <1>   0.0800 
 32 H       -2.3920    -4.7670    -1.8610 H     1 <1>   0.1500 
 33 H       -2.4620    -6.2160     2.0660 H     1 <1>   0.2700 
 34 H       -0.6700    -6.8260    -1.2920 H     1 <1>   0.0800 
 35 H       -1.3670    -7.8760    -0.0820 H     1 <1>   0.0800 
 36 H       -0.1310    -6.7180     0.3660 H     1 <1>   0.0800 
@<TRIPOS>BOND
  1   1   2  2   
  2   2   3  am  
  3   2   4  1   
  4   3   5  1   
  5   3   6  1   
  6   4   7  1   
  7   4   8  2   
  8   5   9  1   
  9   5  21  1   
 10   5  22  1   
 11   6  10  1   
 12   6  23  1   
 13   6  24  1   
 14   7  11  2   
 15   8  12  1   
 16   8  25  1   
 17   9  10  1   
 18   9  13  1   
 19   9  26  1   
 20  10  14  1   
 21  10  27  1   
 22  11  12  1   
 23  12  28  1   
 24  13  29  1   
 25  14  15  1   
 26  14  30  1   
 27  14  31  1   
 28  15  16  2   
 29  15  17  1   
 30  16  18  1   
 31  17  19  2   
 32  17  32  1   
 33  18  19  1   
 34  18  33  1   
 35  19  20  1   
 36  20  34  1   
 37  20  35  1   
 38  20  36  1   
@<TRIPOS>SUBSTRUCTURE
  1 ****   6 GROUP 4 **** **** 0

# MOE 2024.06 (io_trps.svl 2023.06)
