@<TRIPOS>MOLECULE
NONAME
49 53 1 0 0 
SMALL
USER_CHARGES


@<TRIPOS>ATOM
  1 S       -0.0050    -0.1680     1.6020 S.o2  1 <1>   1.4470 
  2 O       -0.6740    -1.3110     2.1860 O.2   1 <1>  -0.6500 
  3 O        0.2660     0.9700     2.4520 O.2   1 <1>  -0.6500 
  4 N       -1.0030     0.3870     0.3490 N.am  1 <1>  -0.8490 
  5 C        1.4690    -0.7680     0.7210 C.ar  1 <1>  -0.0090 
  6 C       -2.3960     0.5350     0.8060 C.3   1 <1>   0.1960 
  7 C       -0.5270     1.6440    -0.2380 C.3   1 <1>   0.1960 
  8 C        2.6310     0.0360     0.5220 C.ar  1 <1>   0.0000 
  9 C        1.4440    -2.0510     0.1940 C.ar  1 <1>  -0.1500 
 10 C       -3.3580     0.8620    -0.3650 C.3   1 <1>   0.0000 
 11 C       -1.3830     2.0270    -1.4500 C.3   1 <1>  -0.1600 
 12 C        3.6690    -0.5610    -0.2010 C.ar  1 <1>   0.0000 
 13 C        2.9130     1.3620     0.9360 C.ar  1 <1>  -0.1500 
 14 C        2.5100    -2.6130    -0.5230 C.ar  1 <1>  -0.1500 
 15 C       -4.8200     1.0040     0.1020 C.3   1 <1>   0.2000 
 16 C       -2.8680     2.1390    -1.0770 C.3   1 <1>  -0.1600 
 17 C       -3.4560    -0.3370    -1.3250 C.3   1 <1>  -0.1600 
 18 C        3.6300    -1.8520    -0.7160 C.ar  1 <1>   0.1170 
 19 C        4.8890     0.0430    -0.5140 C.ar  1 <1>   0.0860 
 20 C        4.1070     1.9840     0.6410 C.ar  1 <1>  -0.1500 
 21 O       -4.9400     1.6140     1.3390 O.3   1 <1>  -0.6800 
 22 C       -5.4100    -0.4070     0.1490 C.3   1 <1>  -0.1600 
 23 C       -4.4760    -1.2870    -0.6920 C.3   1 <1>  -0.1600 
 24 N        4.8400    -2.0700    -1.3590 N.am  1 <1>  -0.5470 
 25 C        5.6170    -0.9510    -1.2560 C.2   1 <1>   0.5440 
 26 C        5.1100     1.3310    -0.0880 C.ar  1 <1>  -0.1500 
 27 O        6.7290    -0.8730    -1.7360 O.2   1 <1>  -0.5700 
 28 H       -2.7230    -0.3770     1.2750 H     1 <1>   0.0800 
 29 H       -2.4380     1.3180     1.5450 H     1 <1>   0.0800 
 30 H       -0.5660     2.4320     0.4980 H     1 <1>   0.0800 
 31 H        0.4940     1.5330    -0.5610 H     1 <1>   0.0800 
 32 H        0.5650    -2.6590     0.3350 H     1 <1>   0.1500 
 33 H       -1.0400     2.9680    -1.8410 H     1 <1>   0.0800 
 34 H       -1.2490     1.2860    -2.2190 H     1 <1>   0.0800 
 35 H        2.1880     1.9160     1.5010 H     1 <1>   0.1500 
 36 H        2.4430    -3.6150    -0.9080 H     1 <1>   0.1500 
 37 H       -5.3700     1.5970    -0.6100 H     1 <1>   0.0800 
 38 H       -3.4540     2.3280    -1.9600 H     1 <1>   0.0800 
 39 H       -2.9990     2.9780    -0.4130 H     1 <1>   0.0800 
 40 H       -3.8360    -0.0090    -2.2780 H     1 <1>   0.0800 
 41 H       -2.5090    -0.8230    -1.4870 H     1 <1>   0.0800 
 42 H        4.2870     2.9920     0.9740 H     1 <1>   0.1500 
 43 H       -4.6920     0.9910     2.0480 H     1 <1>   0.4000 
 44 H       -5.4590    -0.7870     1.1540 H     1 <1>   0.0800 
 45 H       -6.3990    -0.3990    -0.2750 H     1 <1>   0.0800 
 46 H       -3.9660    -1.9870    -0.0520 H     1 <1>   0.0800 
 47 H       -5.0160    -1.8380    -1.4440 H     1 <1>   0.0800 
 48 H        5.1550    -2.9090    -1.8460 H     1 <1>   0.3700 
 49 H        6.0390     1.8270    -0.3120 H     1 <1>   0.1500 
@<TRIPOS>BOND
  1   1   2  2   
  2   1   3  2   
  3   1   4  am  
  4   1   5  1   
  5   4   6  1   
  6   4   7  1   
  7   5   8  ar  
  8   5   9  ar  
  9   6  10  1   
 10   6  28  1   
 11   6  29  1   
 12   7  11  1   
 13   7  30  1   
 14   7  31  1   
 15   8  12  ar  
 16   8  13  ar  
 17   9  14  ar  
 18   9  32  1   
 19  10  15  1   
 20  10  16  1   
 21  10  17  1   
 22  11  16  1   
 23  11  33  1   
 24  11  34  1   
 25  12  18  ar  
 26  12  19  ar  
 27  13  20  ar  
 28  13  35  1   
 29  14  18  ar  
 30  14  36  1   
 31  15  21  1   
 32  15  22  1   
 33  15  37  1   
 34  16  38  1   
 35  16  39  1   
 36  17  23  1   
 37  17  40  1   
 38  17  41  1   
 39  18  24  1   
 40  19  25  1   
 41  19  26  ar  
 42  20  26  ar  
 43  20  42  1   
 44  21  43  1   
 45  22  23  1   
 46  22  44  1   
 47  22  45  1   
 48  23  46  1   
 49  23  47  1   
 50  24  25  am  
 51  24  48  1   
 52  25  27  2   
 53  26  49  1   
@<TRIPOS>SUBSTRUCTURE
  1 ****   5 GROUP 4 **** **** 0

# MOE 2024.06 (io_trps.svl 2023.06)
