@<TRIPOS>MOLECULE
NONAME
48 51 1 0 0 
SMALL
USER_CHARGES


@<TRIPOS>ATOM
  1 O        1.1100     0.0400    -2.0530 O.2   1 <1>  -0.5700 
  2 C        2.2020     0.0250    -1.5310 C.2   1 <1>   0.7150 
  3 N        2.7310    -1.2140    -1.3570 N.am  1 <1>  -0.7300 
  4 C        2.8320     1.2580    -1.1550 C.2   1 <1>  -0.2370 
  5 C        3.8220    -1.7570    -0.5010 C.3   1 <1>   0.1400 
  6 N        4.1270     1.4340    -0.8080 N.pl3 1 <1>   0.3140 
  7 C        2.2840     2.4990    -1.0950 C.2   1 <1>  -0.1500 
  8 C        4.6980    -0.7150     0.2090 C.3   1 <1>   0.2000 
  9 N        4.4140     2.7060    -0.5250 N.2   1 <1>  -0.7070 
 10 C        5.1730     0.4080    -0.7080 C.3   1 <1>   0.0960 
 11 C        3.2860     3.3810    -0.6960 C.2   1 <1>   0.2030 
 12 O        5.8120    -1.3690     0.7220 O.3   1 <1>  -0.6800 
 13 C        3.0670     4.8200    -0.5360 C.2   1 <1>   0.7160 
 14 O        2.1090     5.3360    -1.0940 O.2   1 <1>  -0.5700 
 15 N        3.8860     5.6480     0.2170 N.am  1 <1>  -0.6600 
 16 C        4.8040     5.1710     1.2830 C.3   1 <1>   0.1400 
 17 C        3.9960     7.1030    -0.0680 C.3   1 <1>   0.1400 
 18 C        6.2470     5.4370     0.8530 C.3   1 <1>  -0.1600 
 19 C        5.4310     7.4160    -0.5050 C.3   1 <1>  -0.1600 
 20 C        6.4610     6.9250     0.5270 C.3   1 <1>   0.0630 
 21 C        7.8890     7.1860     0.0520 C.ar  1 <1>  -0.1430 
 22 C        8.7140     8.0390     0.7710 C.ar  1 <1>  -0.1500 
 23 C        8.3840     6.5830    -1.0960 C.ar  1 <1>  -0.1500 
 24 C       10.0110     8.2840     0.3520 C.ar  1 <1>  -0.1500 
 25 C        9.6800     6.8260    -1.5170 C.ar  1 <1>  -0.1500 
 26 C       10.4950     7.6770    -0.7930 C.ar  1 <1>  -0.1500 
 27 H        2.1120    -1.9310    -1.7420 H     1 <1>   0.3700 
 28 H        4.4480    -2.3680    -1.1280 H     1 <1>   0.0800 
 29 H        3.3800    -2.3940     0.2470 H     1 <1>   0.0800 
 30 H        1.2670     2.7760    -1.3160 H     1 <1>   0.1500 
 31 H        4.1710    -0.3020     1.0540 H     1 <1>   0.0800 
 32 H        6.0480     0.8750    -0.2920 H     1 <1>   0.0800 
 33 H        5.3940     0.0430    -1.6930 H     1 <1>   0.0800 
 34 H        6.3780    -1.7360     0.0150 H     1 <1>   0.4000 
 35 H        4.6580     4.1250     1.4860 H     1 <1>   0.0800 
 36 H        4.5910     5.7080     2.1910 H     1 <1>   0.0800 
 37 H        3.7470     7.6580     0.8200 H     1 <1>   0.0800 
 38 H        3.3120     7.3950    -0.8480 H     1 <1>   0.0800 
 39 H        6.4640     4.8270    -0.0060 H     1 <1>   0.0800 
 40 H        6.9160     5.1420     1.6410 H     1 <1>   0.0800 
 41 H        5.5400     8.4770    -0.6430 H     1 <1>   0.0800 
 42 H        5.6060     6.9440    -1.4550 H     1 <1>   0.0800 
 43 H        6.2970     7.4800     1.4350 H     1 <1>   0.0800 
 44 H        8.3550     8.5190     1.6630 H     1 <1>   0.1500 
 45 H        7.7640     5.9170    -1.6700 H     1 <1>   0.1500 
 46 H       10.6430     8.9460     0.9170 H     1 <1>   0.1500 
 47 H       10.0530     6.3520    -2.4080 H     1 <1>   0.1500 
 48 H       11.5030     7.8660    -1.1190 H     1 <1>   0.1500 
@<TRIPOS>BOND
  1   1   2  2   
  2   2   3  am  
  3   2   4  1   
  4   3   5  1   
  5   3  27  1   
  6   4   6  1   
  7   4   7  2   
  8   5   8  1   
  9   5  28  1   
 10   5  29  1   
 11   6   9  1   
 12   6  10  1   
 13   7  11  1   
 14   7  30  1   
 15   8  10  1   
 16   8  12  1   
 17   8  31  1   
 18   9  11  2   
 19  10  32  1   
 20  10  33  1   
 21  11  13  1   
 22  12  34  1   
 23  13  14  2   
 24  13  15  am  
 25  15  16  1   
 26  15  17  1   
 27  16  18  1   
 28  16  35  1   
 29  16  36  1   
 30  17  19  1   
 31  17  37  1   
 32  17  38  1   
 33  18  20  1   
 34  18  39  1   
 35  18  40  1   
 36  19  20  1   
 37  19  41  1   
 38  19  42  1   
 39  20  21  1   
 40  20  43  1   
 41  21  22  ar  
 42  21  23  ar  
 43  22  24  ar  
 44  22  44  1   
 45  23  25  ar  
 46  23  45  1   
 47  24  26  ar  
 48  24  46  1   
 49  25  26  ar  
 50  25  47  1   
 51  26  48  1   
@<TRIPOS>SUBSTRUCTURE
  1 ****   9 GROUP 4 **** **** 0

# MOE 2024.06 (io_trps.svl 2023.06)
