@<TRIPOS>MOLECULE
NONAME
53 55 1 0 0 
SMALL
USER_CHARGES


@<TRIPOS>ATOM
  1 O       -1.1030     1.8310     3.3500 O.2   1 <1>  -0.5700 
  2 C       -0.9450     2.8120     2.6700 C.2   1 <1>   0.5690 
  3 N       -1.9920     3.3890     2.0410 N.am  1 <1>  -0.7300 
  4 C        0.4580     3.3980     2.4820 C.3   1 <1>   0.1810 
  5 C       -1.8800     4.6270     1.2320 C.3   1 <1>   0.3640 
  6 O        0.4430     4.7310     2.0150 O.3   1 <1>  -0.5600 
  7 C       -2.6950     4.4540    -0.0440 C.ar  1 <1>  -0.1440 
  8 C       -0.4020     4.9660     0.8980 C.3   1 <1>   0.2610 
  9 C       -2.6290     3.2830    -0.7890 C.ar  1 <1>   0.1600 
 10 C       -3.5110     5.4740    -0.4940 C.ar  1 <1>  -0.1500 
 11 C       -0.2510     6.4120     0.3910 C.2   1 <1>   0.5690 
 12 N       -3.2850     3.0600    -1.9160 N.ar  1 <1>  -0.6200 
 13 C       -4.2070     5.2560    -1.6640 C.ar  1 <1>  -0.1500 
 14 O       -1.1080     7.2210     0.6780 O.2   1 <1>  -0.5700 
 15 N        0.8260     6.7750    -0.3900 N.am  1 <1>  -0.6600 
 16 C       -4.0600     4.0500    -2.3260 C.ar  1 <1>   0.1600 
 17 C        0.9300     8.1510    -0.9480 C.3   1 <1>   0.1400 
 18 C        1.9770     5.8780    -0.6960 C.3   1 <1>   0.0600 
 19 C        1.7570     9.0330    -0.0110 C.3   1 <1>  -0.1600 
 20 C        1.8280    10.4650    -0.5380 C.3   1 <1>   0.1200 
 21 O        2.6800    11.2020     0.3080 O.3   1 <1>  -0.3630 
 22 C        2.9650    12.5110     0.0740 C.ar  1 <1>   0.0820 
 23 C        3.8530    13.1430     0.9400 C.ar  1 <1>  -0.1430 
 24 C        2.4090    13.2280    -0.9850 C.ar  1 <1>  -0.1500 
 25 C        4.1770    14.4750     0.7400 C.ar  1 <1>  -0.1500 
 26 C        4.4690    12.3810     2.1050 C.3   1 <1>  -0.0970 
 27 C        2.7400    14.5570    -1.1760 C.ar  1 <1>  -0.1500 
 28 C        3.6240    15.1810    -0.3140 C.ar  1 <1>  -0.1500 
 29 H       -2.9280     3.0150     2.2060 H     1 <1>   0.3700 
 30 H        1.0050     2.7980     1.7790 H     1 <1>   0.0800 
 31 H        0.9750     3.3880     3.4230 H     1 <1>   0.0800 
 32 H       -2.3000     5.4310     1.8130 H     1 <1>   0.0800 
 33 H       -0.0790     4.3100     0.1110 H     1 <1>   0.0800 
 34 H       -2.0010     2.4790    -0.4430 H     1 <1>   0.1500 
 35 H       -3.6010     6.4080     0.0370 H     1 <1>   0.1500 
 36 H       -4.8570     6.0150    -2.0620 H     1 <1>   0.1500 
 37 H       -4.6070     3.8920    -3.2400 H     1 <1>   0.1500 
 38 H        1.3850     8.1090    -1.9230 H     1 <1>   0.0800 
 39 H       -0.0560     8.5710    -1.0630 H     1 <1>   0.0800 
 40 H        2.8750     6.4560    -0.8300 H     1 <1>   0.0800 
 41 H        1.7790     5.3300    -1.6010 H     1 <1>   0.0800 
 42 H        2.1470     5.1870     0.1110 H     1 <1>   0.0800 
 43 H        2.7540     8.6400     0.0700 H     1 <1>   0.0800 
 44 H        1.2980     9.0420     0.9620 H     1 <1>   0.0800 
 45 H        0.8550    10.9240    -0.5250 H     1 <1>   0.0800 
 46 H        2.2420    10.4870    -1.5310 H     1 <1>   0.0800 
 47 H        1.7200    12.7730    -1.6680 H     1 <1>   0.1500 
 48 H        4.8630    14.9720     1.4030 H     1 <1>   0.1500 
 49 H        5.1290    13.0080     2.6760 H     1 <1>   0.0800 
 50 H        5.0270    11.5400     1.7350 H     1 <1>   0.0800 
 51 H        3.6910    12.0200     2.7530 H     1 <1>   0.0800 
 52 H        2.3100    15.1080    -1.9940 H     1 <1>   0.1500 
 53 H        3.8820    16.2160    -0.4620 H     1 <1>   0.1500 
@<TRIPOS>BOND
  1   1   2  2   
  2   2   3  am  
  3   2   4  1   
  4   3   5  1   
  5   3  29  1   
  6   4   6  1   
  7   4  30  1   
  8   4  31  1   
  9   5   7  1   
 10   5   8  1   
 11   5  32  1   
 12   6   8  1   
 13   7   9  ar  
 14   7  10  ar  
 15   8  11  1   
 16   8  33  1   
 17   9  12  ar  
 18   9  34  1   
 19  10  13  ar  
 20  10  35  1   
 21  11  14  2   
 22  11  15  am  
 23  12  16  ar  
 24  13  16  ar  
 25  13  36  1   
 26  15  17  1   
 27  15  18  1   
 28  16  37  1   
 29  17  19  1   
 30  17  38  1   
 31  17  39  1   
 32  18  40  1   
 33  18  41  1   
 34  18  42  1   
 35  19  20  1   
 36  19  43  1   
 37  19  44  1   
 38  20  21  1   
 39  20  45  1   
 40  20  46  1   
 41  21  22  1   
 42  22  23  ar  
 43  22  24  ar  
 44  23  25  ar  
 45  23  26  1   
 46  24  27  ar  
 47  24  47  1   
 48  25  28  ar  
 49  25  48  1   
 50  26  49  1   
 51  26  50  1   
 52  26  51  1   
 53  27  28  ar  
 54  27  52  1   
 55  28  53  1   
@<TRIPOS>SUBSTRUCTURE
  1 ****  15 GROUP 4 **** **** 0

# MOE 2024.06 (io_trps.svl 2023.06)
