@<TRIPOS>MOLECULE
NONAME
64 67 1 0 0 
SMALL
USER_CHARGES


@<TRIPOS>ATOM
  1 O        2.5280    -2.7890     1.0860 O.3   1 <1>  -0.5600 
  2 C        1.4990    -3.5160     0.4570 C.3   1 <1>   0.2800 
  3 C        2.4200    -2.4870     2.4500 C.3   1 <1>   0.1200 
  4 C        0.3680    -3.9370     1.4430 C.3   1 <1>   0.2000 
  5 C        1.0050    -2.6180    -0.6900 C.3   1 <1>  -0.1600 
  6 C        2.1740    -4.7630    -0.1330 C.3   1 <1>  -0.1600 
  7 C        1.0640    -1.8310     2.7130 C.3   1 <1>  -0.1600 
  8 O       -0.7090    -4.5100     0.7580 O.3   1 <1>  -0.6800 
  9 C       -0.0890    -2.8030     2.4110 C.3   1 <1>   0.2800 
 10 C        2.1340    -2.2990    -1.6650 C.3   1 <1>   0.3430 
 11 C        3.2720    -4.3830    -1.1190 C.3   1 <1>   0.3430 
 12 O       -0.4240    -3.4220     3.5990 O.3   1 <1>  -0.6800 
 13 C       -1.3500    -2.0330     1.9910 C.3   1 <1>  -0.2400 
 14 N        2.6920    -3.5650    -2.2230 N.4   1 <1>  -0.9590 
 15 C        3.6960    -3.3010    -3.3000 C.3   1 <1>   0.4860 
 16 C        4.8430    -2.4360    -2.7980 C.ar  1 <1>  -0.1440 
 17 C        5.9430    -3.0160    -2.1820 C.ar  1 <1>  -0.1500 
 18 C        4.8110    -1.0570    -2.9610 C.ar  1 <1>  -0.1500 
 19 C        6.9860    -2.2380    -1.7090 C.ar  1 <1>   0.0820 
 20 C        5.8530    -0.2740    -2.4960 C.ar  1 <1>  -0.1500 
 21 O        8.0050    -2.8990    -1.1100 O.3   1 <1>  -0.3620 
 22 C        6.9380    -0.8570    -1.8670 C.ar  1 <1>  -0.1500 
 23 C        9.1550    -2.2200    -0.6610 C.3   1 <1>   0.1200 
 24 C       10.1200    -3.2570    -0.0880 C.3   1 <1>  -0.1600 
 25 C       11.4090    -2.5930     0.4080 C.3   1 <1>   0.0960 
 26 N       12.3320    -3.6050     0.9550 N.pl3 1 <1>   0.0480 
 27 C       13.2980    -4.2870     0.3000 C.2   1 <1>   0.0360 
 28 C       12.3980    -4.0530     2.2210 C.2   1 <1>  -0.3020 
 29 N       13.9570    -5.1140     1.0450 N.2   1 <1>  -0.5650 
 30 C       13.3900    -4.9690     2.2570 C.2   1 <1>   0.0770 
 31 H        2.5380    -3.3940     3.0210 H     1 <1>   0.0800 
 32 H        3.2220    -1.8130     2.7000 H     1 <1>   0.0800 
 33 H        0.7770    -4.7260     2.0520 H     1 <1>   0.0800 
 34 H        0.1990    -3.0930    -1.2200 H     1 <1>   0.0800 
 35 H        0.6290    -1.6970    -0.2910 H     1 <1>   0.0800 
 36 H        2.6020    -5.3450     0.6630 H     1 <1>   0.0800 
 37 H        1.4450    -5.3820    -0.6260 H     1 <1>   0.0800 
 38 H        0.9970    -0.9650     2.0790 H     1 <1>   0.0800 
 39 H        1.0150    -1.4850     3.7300 H     1 <1>   0.0800 
 40 H       -1.3790    -4.7900     1.4170 H     1 <1>   0.4000 
 41 H        2.9100    -1.7590    -1.1430 H     1 <1>   0.0800 
 42 H        1.7590    -1.6750    -2.4590 H     1 <1>   0.0800 
 43 H        3.7280    -5.2760    -1.5150 H     1 <1>   0.0800 
 44 H        4.0280    -3.8120    -0.6010 H     1 <1>   0.0800 
 45 H       -0.8110    -2.7700     4.2140 H     1 <1>   0.4000 
 46 H       -1.2130    -1.5800     1.0290 H     1 <1>   0.0800 
 47 H       -1.5700    -1.2520     2.6970 H     1 <1>   0.0800 
 48 H       -2.1980    -2.6910     1.9280 H     1 <1>   0.0800 
 49 H        1.9140    -4.0980    -2.6290 H     1 <1>   0.4500 
 50 H        4.0920    -4.2340    -3.6660 H     1 <1>   0.0800 
 51 H        3.2180    -2.8000    -4.1260 H     1 <1>   0.0800 
 52 H        6.0180    -4.0810    -2.0570 H     1 <1>   0.1500 
 53 H        3.9820    -0.5760    -3.4520 H     1 <1>   0.1500 
 54 H        5.8210     0.7960    -2.6240 H     1 <1>   0.1500 
 55 H        7.7290    -0.2230    -1.5130 H     1 <1>   0.1500 
 56 H        9.5950    -1.7080    -1.5000 H     1 <1>   0.0800 
 57 H        8.8570    -1.5130     0.0950 H     1 <1>   0.0800 
 58 H        9.6430    -3.7650     0.7320 H     1 <1>   0.0800 
 59 H       10.3610    -3.9730    -0.8550 H     1 <1>   0.0800 
 60 H       11.1890    -1.8790     1.1810 H     1 <1>   0.0800 
 61 H       11.9020    -2.0820    -0.4010 H     1 <1>   0.0800 
 62 H       13.4880    -4.1420    -0.7490 H     1 <1>   0.1500 
 63 H       11.7540    -3.7100     3.0100 H     1 <1>   0.1500 
 64 H       13.7320    -5.5410     3.1040 H     1 <1>   0.1500 
@<TRIPOS>BOND
  1   1   2  1   
  2   1   3  1   
  3   2   4  1   
  4   2   5  1   
  5   2   6  1   
  6   3   7  1   
  7   3  31  1   
  8   3  32  1   
  9   4   8  1   
 10   4   9  1   
 11   4  33  1   
 12   5  10  1   
 13   5  34  1   
 14   5  35  1   
 15   6  11  1   
 16   6  36  1   
 17   6  37  1   
 18   7   9  1   
 19   7  38  1   
 20   7  39  1   
 21   8  40  1   
 22   9  12  1   
 23   9  13  1   
 24  10  14  1   
 25  10  41  1   
 26  10  42  1   
 27  11  14  1   
 28  11  43  1   
 29  11  44  1   
 30  12  45  1   
 31  13  46  1   
 32  13  47  1   
 33  13  48  1   
 34  14  15  1   
 35  14  49  1   
 36  15  16  1   
 37  15  50  1   
 38  15  51  1   
 39  16  17  ar  
 40  16  18  ar  
 41  17  19  ar  
 42  17  52  1   
 43  18  20  ar  
 44  18  53  1   
 45  19  21  1   
 46  19  22  ar  
 47  20  22  ar  
 48  20  54  1   
 49  21  23  1   
 50  22  55  1   
 51  23  24  1   
 52  23  56  1   
 53  23  57  1   
 54  24  25  1   
 55  24  58  1   
 56  24  59  1   
 57  25  26  1   
 58  25  60  1   
 59  25  61  1   
 60  26  27  1   
 61  26  28  1   
 62  27  29  2   
 63  27  62  1   
 64  28  30  2   
 65  28  63  1   
 66  29  30  1   
 67  30  64  1   
@<TRIPOS>SUBSTRUCTURE
  1 ****  17 GROUP 4 **** **** 0

# MOE 2024.06 (io_trps.svl 2023.06)
