@<TRIPOS>MOLECULE
NONAME
51 53 1 0 0 
SMALL
USER_CHARGES


@<TRIPOS>ATOM
  1 F       -0.5430     0.2030    -0.2210 F     1 <1>  -0.1900 
  2 C       -1.8000     0.5660    -0.2120 C.ar  1 <1>   0.1900 
  3 C       -2.3170     1.4290     0.7610 C.ar  1 <1>   0.0830 
  4 C       -2.5940     0.0550    -1.2200 C.ar  1 <1>  -0.1500 
  5 O       -1.6390     1.9960     1.8000 O.3   1 <1>  -0.3630 
  6 C       -3.6610     1.7540     0.6820 C.ar  1 <1>  -0.1500 
  7 C       -3.9320     0.4020    -1.2700 C.ar  1 <1>  -0.1500 
  8 C       -0.2760     1.7420     2.0590 C.3   1 <1>   0.0400 
  9 C       -4.4960     1.2540    -0.3190 C.ar  1 <1>   0.0530 
 10 C       -5.8870     1.6290    -0.3650 C.2   1 <1>   0.0870 
 11 O       -6.2240     2.8650    -0.0940 O.3   1 <1>  -0.0190 
 12 C       -7.0380     0.9580    -0.6510 C.2   1 <1>  -0.0860 
 13 N       -7.5080     3.0790    -0.1870 N.2   1 <1>  -0.4100 
 14 C       -8.0220     1.9490    -0.5220 C.2   1 <1>   0.3720 
 15 C       -7.2690    -0.4170    -0.9790 C.2   1 <1>   0.7160 
 16 N       -9.4010     1.7730    -0.7140 N.pl3 1 <1>  -0.8210 
 17 O       -6.4090    -1.2640    -0.8300 O.2   1 <1>  -0.5700 
 18 N       -8.4820    -0.8110    -1.4500 N.am  1 <1>  -0.7300 
 19 C       -9.9490     2.6370    -1.7970 C.3   1 <1>   0.1290 
 20 C      -10.1780     1.9390     0.5460 C.3   1 <1>   0.1290 
 21 C       -8.9310    -2.2120    -1.6610 C.3   1 <1>   0.1400 
 22 C       -9.2580    -2.9160    -0.3350 C.3   1 <1>   0.2000 
 23 O       -9.7810    -4.1750    -0.6470 O.3   1 <1>  -0.5600 
 24 C      -10.2860    -2.1550     0.5230 C.3   1 <1>  -0.1600 
 25 C       -9.9970    -5.0080     0.4510 C.3   1 <1>   0.1200 
 26 C      -10.6730    -2.9640     1.7670 C.3   1 <1>  -0.1600 
 27 C      -11.0670    -4.3870     1.3560 C.3   1 <1>  -0.1600 
 28 H       -2.1710    -0.6070    -1.9540 H     1 <1>   0.1500 
 29 H       -4.0700     2.4170     1.4240 H     1 <1>   0.1500 
 30 H       -4.5480     0.0040    -2.0570 H     1 <1>   0.1500 
 31 H        0.0040     2.2900     2.9410 H     1 <1>   0.0800 
 32 H        0.3090     2.0780     1.2210 H     1 <1>   0.0800 
 33 H       -0.1420     0.6880     2.2280 H     1 <1>   0.0800 
 34 H       -9.2140    -0.0860    -1.3950 H     1 <1>   0.3700 
 35 H       -9.3470     2.5370    -2.6840 H     1 <1>   0.0800 
 36 H       -9.9410     3.6700    -1.4900 H     1 <1>   0.0800 
 37 H      -10.9580     2.3440    -2.0280 H     1 <1>   0.0800 
 38 H       -9.7330     1.3490     1.3300 H     1 <1>   0.0800 
 39 H      -11.1920     1.6110     0.4000 H     1 <1>   0.0800 
 40 H      -10.1780     2.9720     0.8500 H     1 <1>   0.0800 
 41 H       -8.1500    -2.7600    -2.1610 H     1 <1>   0.0800 
 42 H       -9.8050    -2.2080    -2.2890 H     1 <1>   0.0800 
 43 H       -8.3430    -3.0640     0.2140 H     1 <1>   0.0800 
 44 H      -11.1610    -1.9580    -0.0720 H     1 <1>   0.0800 
 45 H       -9.8750    -1.2100     0.8310 H     1 <1>   0.0800 
 46 H       -9.0650    -5.1360     0.9750 H     1 <1>   0.0800 
 47 H      -10.3250    -5.9630     0.0790 H     1 <1>   0.0800 
 48 H      -11.4880    -2.4870     2.2830 H     1 <1>   0.0800 
 49 H       -9.8310    -3.0080     2.4360 H     1 <1>   0.0800 
 50 H      -11.1980    -4.9980     2.2310 H     1 <1>   0.0800 
 51 H      -12.0010    -4.3690     0.8220 H     1 <1>   0.0800 
@<TRIPOS>BOND
  1   1   2  1   
  2   2   3  ar  
  3   2   4  ar  
  4   3   5  1   
  5   3   6  ar  
  6   4   7  ar  
  7   4  28  1   
  8   5   8  1   
  9   6   9  ar  
 10   6  29  1   
 11   7   9  ar  
 12   7  30  1   
 13   8  31  1   
 14   8  32  1   
 15   8  33  1   
 16   9  10  1   
 17  10  11  1   
 18  10  12  2   
 19  11  13  1   
 20  12  14  1   
 21  12  15  1   
 22  13  14  2   
 23  14  16  1   
 24  15  17  2   
 25  15  18  am  
 26  16  19  1   
 27  16  20  1   
 28  18  21  1   
 29  18  34  1   
 30  19  35  1   
 31  19  36  1   
 32  19  37  1   
 33  20  38  1   
 34  20  39  1   
 35  20  40  1   
 36  21  22  1   
 37  21  41  1   
 38  21  42  1   
 39  22  23  1   
 40  22  24  1   
 41  22  43  1   
 42  23  25  1   
 43  24  26  1   
 44  24  44  1   
 45  24  45  1   
 46  25  27  1   
 47  25  46  1   
 48  25  47  1   
 49  26  27  1   
 50  26  48  1   
 51  26  49  1   
 52  27  50  1   
 53  27  51  1   
@<TRIPOS>SUBSTRUCTURE
  1 ****  15 GROUP 4 **** **** 0

# MOE 2024.06 (io_trps.svl 2023.06)
