@<TRIPOS>MOLECULE
NONAME
51 53 1 0 0 
SMALL
USER_CHARGES


@<TRIPOS>ATOM
  1 O       -0.7690    -0.2910    -0.2500 O.3   1 <1>  -0.3630 
  2 C       -0.4960     1.0380    -0.2720 C.ar  1 <1>   0.0830 
  3 C       -2.0460    -0.7710     0.0920 C.3   1 <1>   0.1200 
  4 C        0.7920     1.4020    -0.6280 C.ar  1 <1>  -0.1500 
  5 C       -1.4260     2.0270     0.0400 C.ar  1 <1>  -0.1500 
  6 C       -2.0010    -2.2980     0.0140 C.3   1 <1>  -0.1600 
  7 C        1.1570     2.7360    -0.6760 C.ar  1 <1>  -0.1500 
  8 C       -1.0590     3.3610    -0.0080 C.ar  1 <1>  -0.1500 
  9 C       -3.3580    -2.9270     0.3620 C.3   1 <1>  -0.1600 
 10 C        0.2300     3.7160    -0.3660 C.ar  1 <1>  -0.1500 
 11 C       -3.2740    -4.4530     0.2850 C.3   1 <1>   0.3430 
 12 N       -4.5650    -5.0650     0.6910 N.4   1 <1>  -0.9590 
 13 C       -5.7110    -4.8290    -0.2280 C.3   1 <1>   0.3430 
 14 C       -4.4790    -6.5470     0.8540 C.3   1 <1>   0.3430 
 15 C       -6.7160    -5.9110     0.1630 C.3   1 <1>   0.2000 
 16 C       -5.8330    -7.1340     0.4100 C.3   1 <1>  -0.0800 
 17 O       -7.2900    -5.5400     1.3740 O.3   1 <1>  -0.6800 
 18 C       -5.6990    -7.9920    -0.8650 C.3   1 <1>  -0.0170 
 19 C       -4.8000    -9.1980    -0.6500 C.ar  1 <1>   0.1670 
 20 N       -3.4960    -8.9670    -0.6960 N.ar  1 <1>  -0.6200 
 21 C       -5.3610   -10.4470    -0.4250 C.ar  1 <1>  -0.1500 
 22 C       -2.7210   -10.0290    -0.5230 C.ar  1 <1>   0.1600 
 23 C       -4.5420   -11.5390    -0.2380 C.ar  1 <1>  -0.1500 
 24 C       -3.1840   -11.3120    -0.2920 C.ar  1 <1>  -0.1500 
 25 H       -2.2740    -0.4410     1.0910 H     1 <1>   0.0800 
 26 H       -2.7570    -0.3680    -0.6090 H     1 <1>   0.0800 
 27 H        1.5060     0.6350    -0.8680 H     1 <1>   0.1500 
 28 H       -2.4320     1.7830     0.3210 H     1 <1>   0.1500 
 29 H       -1.7140    -2.5810    -0.9840 H     1 <1>   0.0800 
 30 H       -1.2500    -2.6520     0.7000 H     1 <1>   0.0800 
 31 H        2.1600     3.0100    -0.9540 H     1 <1>   0.1500 
 32 H       -1.7770     4.1260     0.2330 H     1 <1>   0.1500 
 33 H       -4.0960    -2.5620    -0.3310 H     1 <1>   0.0800 
 34 H       -3.6360    -2.6330     1.3590 H     1 <1>   0.0800 
 35 H        0.5130     4.7540    -0.4020 H     1 <1>   0.1500 
 36 H       -2.4910    -4.7940     0.9440 H     1 <1>   0.0800 
 37 H       -3.0210    -4.7580    -0.7190 H     1 <1>   0.0800 
 38 H       -4.8670    -4.6920     1.6050 H     1 <1>   0.4500 
 39 H       -6.1310    -3.8440    -0.1110 H     1 <1>   0.0800 
 40 H       -5.4000    -4.9750    -1.2500 H     1 <1>   0.0800 
 41 H       -3.6820    -6.9330     0.2430 H     1 <1>   0.0800 
 42 H       -4.2770    -6.8010     1.8820 H     1 <1>   0.0800 
 43 H       -7.4940    -6.0530    -0.5690 H     1 <1>   0.0800 
 44 H       -6.2380    -7.7560     1.1900 H     1 <1>   0.0800 
 45 H       -8.0400    -6.1270     1.6100 H     1 <1>   0.4000 
 46 H       -5.2960    -7.4090    -1.6750 H     1 <1>   0.0800 
 47 H       -6.6730    -8.3330    -1.1710 H     1 <1>   0.0800 
 48 H       -6.4280   -10.5750    -0.3980 H     1 <1>   0.1500 
 49 H       -1.6560    -9.8700    -0.5670 H     1 <1>   0.1500 
 50 H       -4.9420   -12.5230    -0.0620 H     1 <1>   0.1500 
 51 H       -2.4890   -12.1220    -0.1590 H     1 <1>   0.1500 
@<TRIPOS>BOND
  1   1   2  1   
  2   1   3  1   
  3   2   4  ar  
  4   2   5  ar  
  5   3   6  1   
  6   3  25  1   
  7   3  26  1   
  8   4   7  ar  
  9   4  27  1   
 10   5   8  ar  
 11   5  28  1   
 12   6   9  1   
 13   6  29  1   
 14   6  30  1   
 15   7  10  ar  
 16   7  31  1   
 17   8  10  ar  
 18   8  32  1   
 19   9  11  1   
 20   9  33  1   
 21   9  34  1   
 22  10  35  1   
 23  11  12  1   
 24  11  36  1   
 25  11  37  1   
 26  12  13  1   
 27  12  14  1   
 28  12  38  1   
 29  13  15  1   
 30  13  39  1   
 31  13  40  1   
 32  14  16  1   
 33  14  41  1   
 34  14  42  1   
 35  15  16  1   
 36  15  17  1   
 37  15  43  1   
 38  16  18  1   
 39  16  44  1   
 40  17  45  1   
 41  18  19  1   
 42  18  46  1   
 43  18  47  1   
 44  19  20  ar  
 45  19  21  ar  
 46  20  22  ar  
 47  21  23  ar  
 48  21  48  1   
 49  22  24  ar  
 50  22  49  1   
 51  23  24  ar  
 52  23  50  1   
 53  24  51  1   
@<TRIPOS>SUBSTRUCTURE
  1 ****  11 GROUP 4 **** **** 0

# MOE 2024.06 (io_trps.svl 2023.06)
