@<TRIPOS>MOLECULE
NONAME
42 44 1 0 0 
SMALL
USER_CHARGES


@<TRIPOS>ATOM
  1 S        0.6950     0.5540    -1.3360 S.3   1 <1>  -0.3320 
  2 C        1.9000    -0.4320    -0.4530 C.ar  1 <1>   0.7220 
  3 C       -0.9240    -0.2720    -1.0040 C.3   1 <1>  -0.0100 
  4 N        3.1280     0.0190    -0.5220 N.ar  1 <1>  -0.6200 
  5 N        1.4200    -1.4990     0.1640 N.ar  1 <1>  -0.6200 
  6 C        4.0230    -0.6750     0.1540 C.ar  1 <1>   0.4100 
  7 C        2.3440    -2.1980     0.7880 C.ar  1 <1>   0.1600 
  8 N        5.3030    -0.1740     0.1670 N.pl3 1 <1>  -0.8380 
  9 C        3.6750    -1.8550     0.8010 C.ar  1 <1>  -0.1790 
 10 C        5.6550     1.2730     0.2590 C.3   1 <1>   0.4690 
 11 C        6.3320    -0.8820    -0.6290 C.3   1 <1>   0.2090 
 12 C        4.5960    -2.7190     1.4700 C.2   1 <1>   0.9790 
 13 C        4.5440     2.2920     0.5680 C.2   1 <1>   0.2980 
 14 C        6.3950     1.5150    -1.0540 C.3   1 <1>  -0.1600 
 15 C        7.1560     0.2130    -1.3080 C.3   1 <1>  -0.1600 
 16 O        4.4200    -2.9940     2.6690 O.co2 1 <1>  -0.9000 
 17 O        5.5000    -3.3080     0.8490 O.co2 1 <1>  -0.9000 
 18 O        3.9070     2.1700     1.7080 O.3   1 <1>  -0.0190 
 19 N        4.1770     3.2830    -0.1540 N.2   1 <1>  -0.5650 
 20 N        3.0450     3.1420     1.6970 N.2   1 <1>  -0.4100 
 21 C        3.2000     3.7680     0.5980 C.2   1 <1>   0.3350 
 22 C        2.3640     4.9530     0.1150 C.3   1 <1>   0.1010 
 23 C        1.8170     5.8010     1.2750 C.3   1 <1>  -0.2400 
 24 C        1.2100     4.4590    -0.7680 C.3   1 <1>  -0.2400 
 25 H       -1.6890     0.2900    -1.5060 H     1 <1>   0.0800 
 26 H       -1.0770    -0.2750     0.0600 H     1 <1>   0.0800 
 27 H       -0.8640    -1.2760    -1.3850 H     1 <1>   0.0800 
 28 H        2.0420    -3.0880     1.3170 H     1 <1>   0.1500 
 29 H        6.3690     1.3600     1.0590 H     1 <1>   0.0800 
 30 H        6.9490    -1.4830     0.0190 H     1 <1>   0.0800 
 31 H        5.8580    -1.5230    -1.3540 H     1 <1>   0.0800 
 32 H        5.6670     1.6690    -1.8320 H     1 <1>   0.0800 
 33 H        7.0400     2.3720    -0.9950 H     1 <1>   0.0800 
 34 H        8.1260     0.2510    -0.8460 H     1 <1>   0.0800 
 35 H        7.2750     0.0150    -2.3570 H     1 <1>   0.0800 
 36 H        3.0050     5.5780    -0.4820 H     1 <1>   0.0800 
 37 H        1.1510     5.2160     1.8850 H     1 <1>   0.0800 
 38 H        1.2830     6.6540     0.8970 H     1 <1>   0.0800 
 39 H        2.6290     6.1460     1.8900 H     1 <1>   0.0800 
 40 H        0.5570     3.8180    -0.2000 H     1 <1>   0.0800 
 41 H        1.6010     3.8900    -1.5940 H     1 <1>   0.0800 
 42 H        0.6440     5.2870    -1.1540 H     1 <1>   0.0800 
@<TRIPOS>BOND
  1   1   2  1   
  2   1   3  1   
  3   2   4  ar  
  4   2   5  ar  
  5   3  25  1   
  6   3  26  1   
  7   3  27  1   
  8   4   6  ar  
  9   5   7  ar  
 10   6   8  1   
 11   6   9  ar  
 12   7   9  ar  
 13   7  28  1   
 14   8  10  1   
 15   8  11  1   
 16   9  12  1   
 17  10  13  1   
 18  10  14  1   
 19  10  29  1   
 20  11  15  1   
 21  11  30  1   
 22  11  31  1   
 23  12  16  ar  
 24  12  17  ar  
 25  13  18  1   
 26  13  19  2   
 27  14  15  1   
 28  14  32  1   
 29  14  33  1   
 30  15  34  1   
 31  15  35  1   
 32  18  20  1   
 33  19  21  1   
 34  20  21  2   
 35  21  22  1   
 36  22  23  1   
 37  22  24  1   
 38  22  36  1   
 39  23  37  1   
 40  23  38  1   
 41  23  39  1   
 42  24  40  1   
 43  24  41  1   
 44  24  42  1   
@<TRIPOS>SUBSTRUCTURE
  1 ****   4 GROUP 4 **** **** 0

# MOE 2024.06 (io_trps.svl 2023.06)
