@<TRIPOS>MOLECULE
NONAME
45 47 1 0 0 
SMALL
USER_CHARGES


@<TRIPOS>ATOM
  1 O       -0.5880    -1.0260     1.3600 O.co2 1 <1>  -0.9000 
  2 C        0.4680    -1.6320     1.6310 C.2   1 <1>   0.9790 
  3 O        0.9310    -1.5300     2.7820 O.co2 1 <1>  -0.9000 
  4 C        1.2150    -2.3120     0.6050 C.ar  1 <1>  -0.1790 
  5 C        0.8420    -3.5730     0.1180 C.ar  1 <1>   0.4100 
  6 C        2.3520    -1.7160     0.0800 C.ar  1 <1>  -0.1500 
  7 N        1.5140    -4.2260    -0.8340 N.ar  1 <1>  -0.6200 
  8 N       -0.2700    -4.2360     0.5940 N.pl3 1 <1>  -0.8380 
  9 C        3.0470    -2.3890    -0.8970 C.ar  1 <1>  -0.1500 
 10 C        2.5860    -3.6240    -1.3110 C.ar  1 <1>   0.1600 
 11 C       -0.2670    -5.7170     0.7590 C.3   1 <1>   0.2090 
 12 C       -1.6170    -3.6900     0.2560 C.3   1 <1>   0.2090 
 13 C       -0.9750    -6.4070    -0.4220 C.3   1 <1>   0.3440 
 14 C       -2.2920    -4.5080    -0.8730 C.3   1 <1>   0.2000 
 15 O       -2.2710    -5.8860    -0.5920 O.3   1 <1>  -0.5600 
 16 C       -1.0580    -7.9150    -0.1980 C.ar  1 <1>  -0.1440 
 17 C       -3.7570    -4.1020    -1.1640 C.3   1 <1>  -0.0800 
 18 C       -2.1060    -8.4850     0.5110 C.ar  1 <1>  -0.1500 
 19 C       -0.0590    -8.7370    -0.7010 C.ar  1 <1>  -0.1500 
 20 C       -3.8660    -2.6370    -1.6170 C.3   1 <1>  -0.2400 
 21 C       -4.7080    -4.3460     0.0210 C.3   1 <1>  -0.2400 
 22 C       -2.1560    -9.8530     0.7160 C.ar  1 <1>  -0.1500 
 23 C       -0.1070   -10.1060    -0.4980 C.ar  1 <1>  -0.1500 
 24 C       -1.1560   -10.6650     0.2110 C.ar  1 <1>  -0.1500 
 25 H        2.6660    -0.7530     0.4450 H     1 <1>   0.1500 
 26 H        3.9310    -1.9620    -1.3300 H     1 <1>   0.1500 
 27 H        3.1330    -4.1440    -2.0760 H     1 <1>   0.1500 
 28 H        0.7440    -6.0740     0.8310 H     1 <1>   0.0800 
 29 H       -0.7710    -5.9700     1.6740 H     1 <1>   0.0800 
 30 H       -2.2240    -3.6870     1.1430 H     1 <1>   0.0800 
 31 H       -1.5220    -2.6730    -0.0760 H     1 <1>   0.0800 
 32 H       -0.4210    -6.2110    -1.3230 H     1 <1>   0.0800 
 33 H       -1.7190    -4.3570    -1.7720 H     1 <1>   0.0800 
 34 H       -4.0870    -4.7160    -1.9850 H     1 <1>   0.0800 
 35 H       -2.8880    -7.8570     0.9040 H     1 <1>   0.1500 
 36 H        0.7620    -8.3120    -1.2520 H     1 <1>   0.1500 
 37 H       -3.6070    -1.9650    -0.8170 H     1 <1>   0.0800 
 38 H       -4.8710    -2.4180    -1.9290 H     1 <1>   0.0800 
 39 H       -3.2050    -2.4520    -2.4450 H     1 <1>   0.0800 
 40 H       -4.4620    -3.7090     0.8520 H     1 <1>   0.0800 
 41 H       -4.6450    -5.3710     0.3430 H     1 <1>   0.0800 
 42 H       -5.7230    -4.1470    -0.2720 H     1 <1>   0.0800 
 43 H       -2.9740   -10.2840     1.2650 H     1 <1>   0.1500 
 44 H        0.6720   -10.7350    -0.8920 H     1 <1>   0.1500 
 45 H       -1.1940   -11.7280     0.3680 H     1 <1>   0.1500 
@<TRIPOS>BOND
  1   1   2  ar  
  2   2   3  ar  
  3   2   4  1   
  4   4   5  ar  
  5   4   6  ar  
  6   5   7  ar  
  7   5   8  1   
  8   6   9  ar  
  9   6  25  1   
 10   7  10  ar  
 11   8  11  1   
 12   8  12  1   
 13   9  10  ar  
 14   9  26  1   
 15  10  27  1   
 16  11  13  1   
 17  11  28  1   
 18  11  29  1   
 19  12  14  1   
 20  12  30  1   
 21  12  31  1   
 22  13  15  1   
 23  13  16  1   
 24  13  32  1   
 25  14  15  1   
 26  14  17  1   
 27  14  33  1   
 28  16  18  ar  
 29  16  19  ar  
 30  17  20  1   
 31  17  21  1   
 32  17  34  1   
 33  18  22  ar  
 34  18  35  1   
 35  19  23  ar  
 36  19  36  1   
 37  20  37  1   
 38  20  38  1   
 39  20  39  1   
 40  21  40  1   
 41  21  41  1   
 42  21  42  1   
 43  22  24  ar  
 44  22  43  1   
 45  23  24  ar  
 46  23  44  1   
 47  24  45  1   
@<TRIPOS>SUBSTRUCTURE
  1 ****   8 GROUP 4 **** **** 0

# MOE 2024.06 (io_trps.svl 2023.06)
