@<TRIPOS>MOLECULE
NONAME
50 54 1 0 0 
SMALL
USER_CHARGES


@<TRIPOS>ATOM
  1 N       -0.9410     0.0610     0.6530 N.ar  1 <1>  -0.6200 
  2 C       -1.4730    -1.1450     0.5970 C.ar  1 <1>   0.4100 
  3 C        0.3690     0.1210     0.7850 C.ar  1 <1>   0.4760 
  4 N       -2.8450    -1.2470     0.4470 N.pl3 1 <1>  -0.8380 
  5 C       -0.6640    -2.2650     0.6900 C.ar  1 <1>  -0.1500 
  6 N        1.2250    -0.8810     0.8720 N.ar  1 <1>  -0.6200 
  7 C        0.9740     1.5020     0.8440 C.3   1 <1>  -0.0970 
  8 C       -3.7620    -0.0920     0.7220 C.3   1 <1>   0.2090 
  9 C       -3.4880    -2.4320    -0.1990 C.3   1 <1>   0.2090 
 10 C        0.6840    -2.0810     0.8250 C.ar  1 <1>   0.1600 
 11 C       -4.4230     0.4320    -0.5750 C.3   1 <1>   0.1430 
 12 C       -4.8360    -2.0770    -0.8500 C.3   1 <1>  -0.1600 
 13 C       -5.6450     1.2370    -0.1610 C.ar  1 <1>   0.1670 
 14 C       -4.7690    -0.7160    -1.5610 C.3   1 <1>  -0.1600 
 15 C       -3.5520     1.5130    -1.2670 C.3   1 <1>  -0.1600 
 16 N       -6.7900     0.7380     0.2410 N.ar  1 <1>  -0.6200 
 17 C       -5.4110     2.5750    -0.2400 C.ar  1 <1>  -0.1430 
 18 C       -4.0120     2.8730    -0.7180 C.3   1 <1>  -0.0170 
 19 C       -7.7370     1.6290     0.5630 C.ar  1 <1>   0.6200 
 20 C       -6.4280     3.4230     0.1120 C.ar  1 <1>   0.1600 
 21 N       -7.5910     2.9610     0.5120 N.ar  1 <1>  -0.6200 
 22 C       -9.0250     1.1080     1.0040 C.ar  1 <1>   0.0000 
 23 C      -10.2090     1.8280     0.8190 C.ar  1 <1>  -0.1500 
 24 C       -9.1380    -0.1360     1.6310 C.ar  1 <1>  -0.1500 
 25 C      -11.4340     1.3380     1.2350 C.ar  1 <1>  -0.1500 
 26 C      -10.3590    -0.6340     2.0490 C.ar  1 <1>  -0.1500 
 27 C      -11.5120     0.1030     1.8520 C.ar  1 <1>  -0.1500 
 28 H       -1.0830    -3.2490     0.6640 H     1 <1>   0.1500 
 29 H        0.2100     2.2540     0.7700 H     1 <1>   0.0800 
 30 H        1.6660     1.6230     0.0320 H     1 <1>   0.0800 
 31 H        1.4970     1.6230     1.7740 H     1 <1>   0.0800 
 32 H       -3.2470     0.7060     1.2260 H     1 <1>   0.0800 
 33 H       -4.5300    -0.4360     1.3930 H     1 <1>   0.0800 
 34 H       -3.6330    -3.2050     0.5350 H     1 <1>   0.0800 
 35 H       -2.8260    -2.8070    -0.9620 H     1 <1>   0.0800 
 36 H        1.3420    -2.9290     0.8990 H     1 <1>   0.1500 
 37 H       -5.6040    -2.0530    -0.0960 H     1 <1>   0.0800 
 38 H       -5.1020    -2.8460    -1.5530 H     1 <1>   0.0800 
 39 H       -4.0040    -0.7840    -2.3140 H     1 <1>   0.0800 
 40 H       -5.7010    -0.5100    -2.0570 H     1 <1>   0.0800 
 41 H       -3.7450     1.5050    -2.3250 H     1 <1>   0.0800 
 42 H       -2.5010     1.3480    -1.1140 H     1 <1>   0.0800 
 43 H       -3.9980     3.6330    -1.4790 H     1 <1>   0.0800 
 44 H       -3.3980     3.1720     0.1150 H     1 <1>   0.0800 
 45 H       -6.2890     4.4900     0.0660 H     1 <1>   0.1500 
 46 H      -10.1690     2.7910     0.3400 H     1 <1>   0.1500 
 47 H       -8.2520    -0.7250     1.7950 H     1 <1>   0.1500 
 48 H      -12.3260     1.9180     1.0780 H     1 <1>   0.1500 
 49 H      -10.4120    -1.5960     2.5290 H     1 <1>   0.1500 
 50 H      -12.4630    -0.2810     2.1760 H     1 <1>   0.1500 
@<TRIPOS>BOND
  1   1   2  ar  
  2   1   3  ar  
  3   2   4  1   
  4   2   5  ar  
  5   3   6  ar  
  6   3   7  1   
  7   4   8  1   
  8   4   9  1   
  9   5  10  ar  
 10   5  28  1   
 11   6  10  ar  
 12   7  29  1   
 13   7  30  1   
 14   7  31  1   
 15   8  11  1   
 16   8  32  1   
 17   8  33  1   
 18   9  12  1   
 19   9  34  1   
 20   9  35  1   
 21  10  36  1   
 22  11  13  1   
 23  11  14  1   
 24  11  15  1   
 25  12  14  1   
 26  12  37  1   
 27  12  38  1   
 28  13  16  ar  
 29  13  17  ar  
 30  14  39  1   
 31  14  40  1   
 32  15  18  1   
 33  15  41  1   
 34  15  42  1   
 35  16  19  ar  
 36  17  18  1   
 37  17  20  ar  
 38  18  43  1   
 39  18  44  1   
 40  19  21  ar  
 41  19  22  1   
 42  20  21  ar  
 43  20  45  1   
 44  22  23  ar  
 45  22  24  ar  
 46  23  25  ar  
 47  23  46  1   
 48  24  26  ar  
 49  24  47  1   
 50  25  27  ar  
 51  25  48  1   
 52  26  27  ar  
 53  26  49  1   
 54  27  50  1   
@<TRIPOS>SUBSTRUCTURE
  1 ****  11 GROUP 4 **** **** 0

# MOE 2024.06 (io_trps.svl 2023.06)
