@<TRIPOS>MOLECULE
NONAME
53 55 1 0 0 
SMALL
USER_CHARGES


@<TRIPOS>ATOM
  1 F       -0.5910     0.2760    -0.5300 F     1 <1>  -0.1900 
  2 C       -1.8580     0.5990    -0.4620 C.ar  1 <1>   0.1900 
  3 C       -2.3420     1.5140     0.4800 C.ar  1 <1>   0.0820 
  4 C       -2.6970    -0.0130    -1.3740 C.ar  1 <1>  -0.1500 
  5 O       -1.6190     2.1800     1.4250 O.3   1 <1>  -0.3630 
  6 C       -3.7000     1.7860     0.4720 C.ar  1 <1>  -0.1500 
  7 C       -4.0480     0.2810    -1.3540 C.ar  1 <1>  -0.1500 
  8 C       -0.2210     2.0490     1.5580 C.3   1 <1>   0.0400 
  9 C       -4.5800     1.1800    -0.4270 C.ar  1 <1>   0.0530 
 10 C       -5.9880     1.4800    -0.3890 C.2   1 <1>   0.0870 
 11 O       -6.4090     2.6800    -0.0830 O.3   1 <1>  -0.0190 
 12 C       -7.0940     0.7190    -0.5930 C.2   1 <1>  -0.0860 
 13 N       -7.7140     2.7770    -0.0780 N.2   1 <1>  -0.4100 
 14 C       -8.1520     1.6110    -0.4000 C.2   1 <1>   0.3720 
 15 C       -7.2350    -0.6720    -0.8670 C.2   1 <1>   0.7160 
 16 N       -9.5160     1.2800    -0.5270 N.pl3 1 <1>  -0.8210 
 17 O       -7.0610    -1.0880    -1.9960 O.2   1 <1>  -0.5700 
 18 N       -7.6130    -1.5690     0.1140 N.am  1 <1>  -0.6600 
 19 C      -10.4400     2.2600     0.1250 C.3   1 <1>   0.1290 
 20 C       -9.9030     1.0930    -1.9570 C.3   1 <1>   0.1290 
 21 C       -7.9320    -2.9910    -0.2210 C.3   1 <1>   0.1400 
 22 C       -8.1680    -1.1330     1.4320 C.3   1 <1>   0.1400 
 23 C       -9.4650    -3.1940    -0.2250 C.3   1 <1>   0.4230 
 24 C       -9.6980    -1.3290     1.4340 C.3   1 <1>   0.3430 
 25 N      -10.0820    -2.7350     1.0580 N.4   1 <1>  -0.9060 
 26 C       -9.8350    -4.6650    -0.4580 C.3   1 <1>  -0.1600 
 27 C      -11.3500    -4.9230    -0.5140 C.3   1 <1>  -0.2400 
 28 H       -2.2950    -0.7080    -2.0890 H     1 <1>   0.1500 
 29 H       -4.0810     2.4900     1.1900 H     1 <1>   0.1500 
 30 H       -4.6930    -0.1880    -2.0760 H     1 <1>   0.1500 
 31 H        0.1000     2.6900     2.3590 H     1 <1>   0.0800 
 32 H        0.2490     2.3530     0.6390 H     1 <1>   0.0800 
 33 H        0.0140     1.0270     1.7940 H     1 <1>   0.0800 
 34 H      -10.1420     2.4270     1.1470 H     1 <1>   0.0800 
 35 H      -11.4490     1.8860     0.1140 H     1 <1>   0.0800 
 36 H      -10.4110     3.2030    -0.3960 H     1 <1>   0.0800 
 37 H       -9.3120     0.3170    -2.4110 H     1 <1>   0.0800 
 38 H       -9.7430     2.0080    -2.5040 H     1 <1>   0.0800 
 39 H      -10.9420     0.8210    -2.0300 H     1 <1>   0.0800 
 40 H       -7.4710    -3.6390     0.5040 H     1 <1>   0.0800 
 41 H       -7.5330    -3.2560    -1.1850 H     1 <1>   0.0800 
 42 H       -7.9400    -0.1020     1.6330 H     1 <1>   0.0800 
 43 H       -7.7210    -1.7160     2.2180 H     1 <1>   0.0800 
 44 H       -9.8660    -2.6100    -1.0380 H     1 <1>   0.0800 
 45 H      -10.1290    -0.6370     0.7300 H     1 <1>   0.0800 
 46 H      -10.0860    -1.0880     2.4100 H     1 <1>   0.0800 
 47 H       -9.8010    -3.3830     1.8000 H     1 <1>   0.4500 
 48 H      -11.1010    -2.8080     0.9650 H     1 <1>   0.4500 
 49 H       -9.3900    -5.2850     0.3020 H     1 <1>   0.0800 
 50 H       -9.4110    -4.9700    -1.4000 H     1 <1>   0.0800 
 51 H      -11.8220    -4.7590     0.4380 H     1 <1>   0.0800 
 52 H      -11.5300    -5.9480    -0.7930 H     1 <1>   0.0800 
 53 H      -11.8190    -4.2960    -1.2540 H     1 <1>   0.0800 
@<TRIPOS>BOND
  1   1   2  1   
  2   2   3  ar  
  3   2   4  ar  
  4   3   5  1   
  5   3   6  ar  
  6   4   7  ar  
  7   4  28  1   
  8   5   8  1   
  9   6   9  ar  
 10   6  29  1   
 11   7   9  ar  
 12   7  30  1   
 13   8  31  1   
 14   8  32  1   
 15   8  33  1   
 16   9  10  1   
 17  10  11  1   
 18  10  12  2   
 19  11  13  1   
 20  12  14  1   
 21  12  15  1   
 22  13  14  2   
 23  14  16  1   
 24  15  17  2   
 25  15  18  am  
 26  16  19  1   
 27  16  20  1   
 28  18  21  1   
 29  18  22  1   
 30  19  34  1   
 31  19  35  1   
 32  19  36  1   
 33  20  37  1   
 34  20  38  1   
 35  20  39  1   
 36  21  23  1   
 37  21  40  1   
 38  21  41  1   
 39  22  24  1   
 40  22  42  1   
 41  22  43  1   
 42  23  25  1   
 43  23  26  1   
 44  23  44  1   
 45  24  25  1   
 46  24  45  1   
 47  24  46  1   
 48  25  47  1   
 49  25  48  1   
 50  26  27  1   
 51  26  49  1   
 52  26  50  1   
 53  27  51  1   
 54  27  52  1   
 55  27  53  1   
@<TRIPOS>SUBSTRUCTURE
  1 ****  12 GROUP 4 **** **** 0

# MOE 2024.06 (io_trps.svl 2023.06)
