@<TRIPOS>MOLECULE
NONAME
56 59 1 0 0 
SMALL
USER_CHARGES


@<TRIPOS>ATOM
  1 S        1.3360    -0.1070     1.3620 S.3   1 <1>  -0.0800 
  2 C        1.1000     0.6310    -0.2020 C.2   1 <1>   0.1980 
  3 C        1.2190     1.4620     2.0870 C.2   1 <1>  -0.1100 
  4 N        0.9590     1.8940    -0.1690 N.2   1 <1>  -0.5650 
  5 C        1.0890    -0.2840    -1.4040 C.3   1 <1>  -0.0600 
  6 C        1.0150     2.4040     1.1400 C.2   1 <1>   0.1410 
  7 C        0.8710     3.8320     1.4060 C.2   1 <1>   0.7160 
  8 O        1.2300     4.3080     2.4700 O.2   1 <1>  -0.5700 
  9 N        0.4390     4.7370     0.4610 N.am  1 <1>  -0.6600 
 10 C        1.2950     5.0260    -0.7290 C.3   1 <1>   0.1400 
 11 C       -0.5620     5.7870     0.7970 C.3   1 <1>   0.1400 
 12 C        2.5990     5.7350    -0.3060 C.3   1 <1>   0.3430 
 13 C        0.0660     7.0050     1.4990 C.3   1 <1>  -0.1600 
 14 N        2.4230     6.5340     0.9580 N.4   1 <1>  -0.9590 
 15 C        1.3460     7.5560     0.8630 C.3   1 <1>   0.3430 
 16 C        3.6970     7.0460     1.5570 C.3   1 <1>   0.3430 
 17 C        4.6560     7.7500     0.5700 C.3   1 <1>  -0.0800 
 18 C        5.9230     8.1710     1.3430 C.3   1 <1>  -0.0170 
 19 C        4.0250     8.9620    -0.1480 C.3   1 <1>  -0.2400 
 20 C        7.0200     8.6840     0.4220 C.ar  1 <1>  -0.1430 
 21 C        7.2480    10.0520     0.3050 C.ar  1 <1>  -0.1500 
 22 C        7.8010     7.7850    -0.3040 C.ar  1 <1>  -0.1500 
 23 C        8.2490    10.4780    -0.5440 C.ar  1 <1>   0.0830 
 24 C        8.8060     8.2330    -1.1530 C.ar  1 <1>  -0.1500 
 25 O        8.6320    11.7310    -0.8110 O.3   1 <1>  -0.3630 
 26 C        9.0070     9.5950    -1.2540 C.ar  1 <1>   0.0830 
 27 C        9.7050    11.6400    -1.7460 C.3   1 <1>   0.4000 
 28 O        9.9030    10.2500    -2.0000 O.3   1 <1>  -0.3620 
 29 H        1.3110     1.5350     3.1560 H     1 <1>   0.1500 
 30 H        0.2940    -1.0010    -1.3080 H     1 <1>   0.0800 
 31 H        2.0260    -0.8030    -1.4770 H     1 <1>   0.0800 
 32 H        0.9340     0.2900    -2.2990 H     1 <1>   0.0800 
 33 H        0.7540     5.6500    -1.4190 H     1 <1>   0.0800 
 34 H        1.5350     4.1170    -1.2510 H     1 <1>   0.0800 
 35 H       -1.3140     5.3590     1.4410 H     1 <1>   0.0800 
 36 H       -1.0580     6.1000    -0.1070 H     1 <1>   0.0800 
 37 H        2.9420     6.3670    -1.1080 H     1 <1>   0.0800 
 38 H        3.3500     4.9810    -0.1410 H     1 <1>   0.0800 
 39 H        0.2560     6.7640     2.5300 H     1 <1>   0.0800 
 40 H       -0.6690     7.7900     1.5060 H     1 <1>   0.0800 
 41 H        2.0350     5.8430     1.6370 H     1 <1>   0.4500 
 42 H        1.6430     8.4460     1.3940 H     1 <1>   0.0800 
 43 H        1.1680     7.8210    -0.1660 H     1 <1>   0.0800 
 44 H        4.2250     6.2140     1.9930 H     1 <1>   0.0800 
 45 H        3.4600     7.7250     2.3600 H     1 <1>   0.0800 
 46 H        4.9690     7.0370    -0.1720 H     1 <1>   0.0800 
 47 H        6.3150     7.3290     1.8880 H     1 <1>   0.0800 
 48 H        5.6780     8.9300     2.0660 H     1 <1>   0.0800 
 49 H        3.6860     9.6960     0.5620 H     1 <1>   0.0800 
 50 H        3.2030     8.6650    -0.7710 H     1 <1>   0.0800 
 51 H        4.7460     9.4320    -0.7940 H     1 <1>   0.0800 
 52 H        6.6730    10.7780     0.8500 H     1 <1>   0.1500 
 53 H        7.6360     6.7260    -0.2120 H     1 <1>   0.1500 
 54 H        9.4180     7.5540    -1.7190 H     1 <1>   0.1500 
 55 H       10.5960    12.0580    -1.3140 H     1 <1>   0.0800 
 56 H        9.4320    12.1380    -2.6590 H     1 <1>   0.0800 
@<TRIPOS>BOND
  1   1   2  1   
  2   1   3  1   
  3   2   4  2   
  4   2   5  1   
  5   3   6  2   
  6   3  29  1   
  7   4   6  1   
  8   5  30  1   
  9   5  31  1   
 10   5  32  1   
 11   6   7  1   
 12   7   8  2   
 13   7   9  am  
 14   9  10  1   
 15   9  11  1   
 16  10  12  1   
 17  10  33  1   
 18  10  34  1   
 19  11  13  1   
 20  11  35  1   
 21  11  36  1   
 22  12  14  1   
 23  12  37  1   
 24  12  38  1   
 25  13  15  1   
 26  13  39  1   
 27  13  40  1   
 28  14  15  1   
 29  14  16  1   
 30  14  41  1   
 31  15  42  1   
 32  15  43  1   
 33  16  17  1   
 34  16  44  1   
 35  16  45  1   
 36  17  18  1   
 37  17  19  1   
 38  17  46  1   
 39  18  20  1   
 40  18  47  1   
 41  18  48  1   
 42  19  49  1   
 43  19  50  1   
 44  19  51  1   
 45  20  21  ar  
 46  20  22  ar  
 47  21  23  ar  
 48  21  52  1   
 49  22  24  ar  
 50  22  53  1   
 51  23  25  1   
 52  23  26  ar  
 53  24  26  ar  
 54  24  54  1   
 55  25  27  1   
 56  26  28  1   
 57  27  28  1   
 58  27  55  1   
 59  27  56  1   
@<TRIPOS>SUBSTRUCTURE
  1 ****  16 GROUP 4 **** **** 0

# MOE 2024.06 (io_trps.svl 2023.06)
