@<TRIPOS>MOLECULE
NONAME
48 49 1 0 0 
SMALL
USER_CHARGES


@<TRIPOS>ATOM
  1 S        0.8540     0.1570    -1.2750 S.o2  1 <1>   1.3330 
  2 O        0.4470     0.5970    -2.5860 O.2   1 <1>  -0.6500 
  3 O        1.7450    -0.9640    -1.1160 O.2   1 <1>  -0.6500 
  4 N        1.6990     1.4370    -0.4990 N.am  1 <1>  -0.7570 
  5 C       -0.5790    -0.1190    -0.2200 C.3   1 <1>  -0.0550 
  6 C        1.5110     2.8090    -0.5140 C.ar  1 <1>   0.1990 
  7 C       -1.5810     1.0460    -0.1240 C.3   1 <1>  -0.2400 
  8 C        2.2790     3.5950     0.3380 C.ar  1 <1>  -0.1500 
  9 C        0.5920     3.4590    -1.3340 C.ar  1 <1>  -0.1500 
 10 C        2.1280     4.9670     0.3830 C.ar  1 <1>  -0.1500 
 11 C        0.4410     4.8310    -1.2870 C.ar  1 <1>  -0.1500 
 12 C        1.1950     5.6270    -0.4220 C.ar  1 <1>   0.0860 
 13 C        1.0100     7.0650    -0.3770 C.2   1 <1>   0.5440 
 14 O        0.5370     7.6680    -1.3230 O.2   1 <1>  -0.5700 
 15 N        1.3600     7.7820     0.7280 N.am  1 <1>  -0.7300 
 16 C        1.4380     9.2430     0.8050 C.3   1 <1>   0.4000 
 17 C        2.8750     9.6100     1.1590 C.2   1 <1>   0.0060 
 18 C        0.4580     9.7180     1.8740 C.3   1 <1>  -0.2400 
 19 N        3.4720     9.1740     2.2200 N.2   1 <1>  -0.3380 
 20 N        3.6880    10.3910     0.4260 N.pl3 1 <1>   0.0480 
 21 N        4.7070     9.6680     2.2120 N.2   1 <1>  -0.3380 
 22 C        4.8120    10.3810     1.1470 C.2   1 <1>   0.0360 
 23 C        3.5240    11.1160    -0.8640 C.3   1 <1>   0.1760 
 24 C        2.4300    12.1870    -0.7740 C.3   1 <1>  -0.2400 
 25 C        3.2890    10.1450    -2.0280 C.3   1 <1>  -0.2400 
 26 H        2.5460     1.0680    -0.0770 H     1 <1>   0.4200 
 27 H       -0.2390    -0.3590     0.7690 H     1 <1>   0.0800 
 28 H       -1.1030    -0.9800    -0.5890 H     1 <1>   0.0800 
 29 H       -1.1220     1.9020     0.3370 H     1 <1>   0.0800 
 30 H       -2.4300     0.7540     0.4690 H     1 <1>   0.0800 
 31 H       -1.9270     1.3210    -1.1060 H     1 <1>   0.0800 
 32 H        3.0050     3.1230     0.9750 H     1 <1>   0.1500 
 33 H       -0.0100     2.9000    -2.0250 H     1 <1>   0.1500 
 34 H        2.7510     5.5360     1.0510 H     1 <1>   0.1500 
 35 H       -0.2770     5.3070    -1.9340 H     1 <1>   0.1500 
 36 H        1.8530     7.3360     1.5020 H     1 <1>   0.3700 
 37 H        1.1530     9.6710    -0.1370 H     1 <1>   0.0800 
 38 H        0.7040     9.2860     2.8280 H     1 <1>   0.0800 
 39 H       -0.5440     9.4410     1.6020 H     1 <1>   0.0800 
 40 H        0.5090    10.7870     1.9610 H     1 <1>   0.0800 
 41 H        5.7010    10.9120     0.8580 H     1 <1>   0.1500 
 42 H        4.4540    11.6240    -1.0550 H     1 <1>   0.0800 
 43 H        1.4540    11.7530    -0.6690 H     1 <1>   0.0800 
 44 H        2.4310    12.7790    -1.6720 H     1 <1>   0.0800 
 45 H        2.6180    12.8420     0.0580 H     1 <1>   0.0800 
 46 H        2.3400     9.6480    -1.9500 H     1 <1>   0.0800 
 47 H        4.0690     9.4050    -2.0580 H     1 <1>   0.0800 
 48 H        3.3030    10.6840    -2.9580 H     1 <1>   0.0800 
@<TRIPOS>BOND
  1   1   2  2   
  2   1   3  2   
  3   1   4  am  
  4   1   5  1   
  5   4   6  1   
  6   4  26  1   
  7   5   7  1   
  8   5  27  1   
  9   5  28  1   
 10   6   8  ar  
 11   6   9  ar  
 12   7  29  1   
 13   7  30  1   
 14   7  31  1   
 15   8  10  ar  
 16   8  32  1   
 17   9  11  ar  
 18   9  33  1   
 19  10  12  ar  
 20  10  34  1   
 21  11  12  ar  
 22  11  35  1   
 23  12  13  1   
 24  13  14  2   
 25  13  15  am  
 26  15  16  1   
 27  15  36  1   
 28  16  17  1   
 29  16  18  1   
 30  16  37  1   
 31  17  19  2   
 32  17  20  1   
 33  18  38  1   
 34  18  39  1   
 35  18  40  1   
 36  19  21  1   
 37  20  22  1   
 38  20  23  1   
 39  21  22  2   
 40  22  41  1   
 41  23  24  1   
 42  23  25  1   
 43  23  42  1   
 44  24  43  1   
 45  24  44  1   
 46  24  45  1   
 47  25  46  1   
 48  25  47  1   
 49  25  48  1   
@<TRIPOS>SUBSTRUCTURE
  1 ****  12 GROUP 4 **** **** 0

# MOE 2024.06 (io_trps.svl 2023.06)
