@<TRIPOS>MOLECULE
NONAME
48 50 1 0 0 
SMALL
USER_CHARGES


@<TRIPOS>ATOM
  1 N       -2.1050    -0.7270     0.7230 N.ar  1 <1>  -0.6200 
  2 C       -1.6860    -0.6270    -0.5350 C.ar  1 <1>   0.1660 
  3 C       -1.9410     0.4100     1.3870 C.ar  1 <1>   0.1600 
  4 C       -1.1520     0.5340    -1.0830 C.ar  1 <1>   0.1600 
  5 C       -1.8220    -1.8760    -1.4000 C.3   1 <1>   0.4860 
  6 C       -1.4070     1.5730     0.8360 C.ar  1 <1>   0.1670 
  7 N       -1.0030     1.6620    -0.4180 N.ar  1 <1>  -0.6200 
  8 N       -3.0380    -2.6300    -0.9550 N.4   1 <1>  -0.9590 
  9 C       -1.2580     2.8300     1.6700 C.3   1 <1>  -0.0970 
 10 C       -2.9050    -4.1140    -1.0560 C.3   1 <1>   0.3430 
 11 C       -4.2880    -2.0930    -1.5510 C.3   1 <1>   0.3430 
 12 C       -4.2370    -4.8530    -0.7740 C.3   1 <1>  -0.0800 
 13 C       -5.4920    -2.6310    -0.7680 C.3   1 <1>  -0.1600 
 14 C       -5.2400    -3.9540    -0.0160 C.3   1 <1>  -0.1600 
 15 C       -3.9330    -6.1830    -0.0530 C.3   1 <1>   0.3430 
 16 N       -5.1570    -7.0110     0.1630 N.4   1 <1>  -0.9590 
 17 C       -5.7600    -6.8720     1.5180 C.3   1 <1>   0.3430 
 18 C       -4.8980    -8.4680     0.0120 C.3   1 <1>   0.3430 
 19 C       -6.6400    -8.1040     1.6710 C.3   1 <1>  -0.1600 
 20 C       -6.0840    -9.1380     0.6900 C.3   1 <1>  -0.1600 
 21 H       -2.2430     0.4250     2.4200 H     1 <1>   0.1500 
 22 H       -0.8320     0.5440    -2.1110 H     1 <1>   0.1500 
 23 H       -0.9430    -2.4800    -1.2510 H     1 <1>   0.0800 
 24 H       -1.8920    -1.6140    -2.4420 H     1 <1>   0.0800 
 25 H       -3.0820    -2.3590     0.0480 H     1 <1>   0.4500 
 26 H       -1.6060     2.6770     2.6750 H     1 <1>   0.0800 
 27 H       -1.8240     3.6280     1.2240 H     1 <1>   0.0800 
 28 H       -0.2230     3.1200     1.7020 H     1 <1>   0.0800 
 29 H       -2.1570    -4.4360    -0.3480 H     1 <1>   0.0800 
 30 H       -2.5600    -4.3820    -2.0420 H     1 <1>   0.0800 
 31 H       -4.3580    -2.4010    -2.5820 H     1 <1>   0.0800 
 32 H       -4.2920    -1.0140    -1.5160 H     1 <1>   0.0800 
 33 H       -4.6630    -5.0970    -1.7320 H     1 <1>   0.0800 
 34 H       -6.3040    -2.7590    -1.4640 H     1 <1>   0.0800 
 35 H       -5.8110    -1.8820    -0.0630 H     1 <1>   0.0800 
 36 H       -4.8500    -3.7300     0.9640 H     1 <1>   0.0800 
 37 H       -6.1870    -4.4490     0.1140 H     1 <1>   0.0800 
 38 H       -3.4580    -5.9880     0.8960 H     1 <1>   0.0800 
 39 H       -3.2360    -6.7430    -0.6570 H     1 <1>   0.0800 
 40 H       -5.8840    -6.7720    -0.5250 H     1 <1>   0.4500 
 41 H       -6.3320    -5.9640     1.6190 H     1 <1>   0.0800 
 42 H       -4.9860    -6.8930     2.2680 H     1 <1>   0.0800 
 43 H       -3.9920    -8.7370     0.5320 H     1 <1>   0.0800 
 44 H       -4.8170    -8.7590    -1.0240 H     1 <1>   0.0800 
 45 H       -7.6600    -7.8600     1.4240 H     1 <1>   0.0800 
 46 H       -6.6140    -8.4600     2.6870 H     1 <1>   0.0800 
 47 H       -5.7720   -10.0380     1.1920 H     1 <1>   0.0800 
 48 H       -6.8280    -9.3990    -0.0440 H     1 <1>   0.0800 
@<TRIPOS>BOND
  1   1   2  ar  
  2   1   3  ar  
  3   2   4  ar  
  4   2   5  1   
  5   3   6  ar  
  6   3  21  1   
  7   4   7  ar  
  8   4  22  1   
  9   5   8  1   
 10   5  23  1   
 11   5  24  1   
 12   6   7  ar  
 13   6   9  1   
 14   8  10  1   
 15   8  11  1   
 16   8  25  1   
 17   9  26  1   
 18   9  27  1   
 19   9  28  1   
 20  10  12  1   
 21  10  29  1   
 22  10  30  1   
 23  11  13  1   
 24  11  31  1   
 25  11  32  1   
 26  12  14  1   
 27  12  15  1   
 28  12  33  1   
 29  13  14  1   
 30  13  34  1   
 31  13  35  1   
 32  14  36  1   
 33  14  37  1   
 34  15  16  1   
 35  15  38  1   
 36  15  39  1   
 37  16  17  1   
 38  16  18  1   
 39  16  40  1   
 40  17  19  1   
 41  17  41  1   
 42  17  42  1   
 43  18  20  1   
 44  18  43  1   
 45  18  44  1   
 46  19  20  1   
 47  19  45  1   
 48  19  46  1   
 49  20  47  1   
 50  20  48  1   
@<TRIPOS>SUBSTRUCTURE
  1 ****   8 GROUP 4 **** **** 0

# MOE 2024.06 (io_trps.svl 2023.06)
