@<TRIPOS>MOLECULE
NONAME
55 58 1 0 0 
SMALL
USER_CHARGES


@<TRIPOS>ATOM
  1 O        2.4520    -1.4030    -3.1000 O.2   1 <1>  -0.5700 
  2 C        2.4480    -1.5920    -1.9070 C.2   1 <1>   0.5690 
  3 N        2.8950    -0.6050    -1.0530 N.am  1 <1>  -0.6600 
  4 C        1.9320    -2.9580    -1.4160 C.3   1 <1>   0.1710 
  5 C        3.0970    -0.8400     0.4290 C.3   1 <1>   0.2200 
  6 C        2.9620     0.7900    -1.6030 C.3   1 <1>   0.1400 
  7 N        0.8820    -2.8960    -0.3590 N.3   1 <1>  -0.8100 
  8 C        2.1160    -0.0270     1.2850 C.3   1 <1>   0.1200 
  9 C        4.5610    -0.5920     0.8660 C.3   1 <1>   0.3430 
 10 C        3.4650     1.8760    -0.6360 C.3   1 <1>  -0.0800 
 11 C       -0.3520    -2.2590    -0.8940 C.3   1 <1>   0.1100 
 12 C        0.5520    -4.2620     0.1170 C.3   1 <1>   0.1100 
 13 O        2.6190     1.2520     1.5340 O.3   1 <1>  -0.5600 
 14 N        5.3390     0.2380    -0.1160 N.4   1 <1>  -0.9590 
 15 C        2.4700     2.1640     0.4980 C.3   1 <1>   0.1200 
 16 C        4.9020     1.6690    -0.1220 C.3   1 <1>   0.3430 
 17 C       -1.4970    -2.2120     0.1370 C.3   1 <1>   0.2090 
 18 C       -0.5520    -4.2590     1.1910 C.3   1 <1>   0.2090 
 19 C        6.8100     0.1180     0.1050 C.3   1 <1>   0.2630 
 20 N       -1.7790    -3.5750     0.6810 N.pl3 1 <1>  -0.8380 
 21 C       -3.0030    -4.2000     0.5550 C.ar  1 <1>   0.7200 
 22 N       -3.0400    -5.5170     0.7560 N.ar  1 <1>  -0.6200 
 23 N       -4.0470    -3.4320     0.2420 N.ar  1 <1>  -0.6200 
 24 C       -4.2100    -6.0940     0.6370 C.ar  1 <1>   0.1600 
 25 C       -5.2040    -4.0360     0.1300 C.ar  1 <1>   0.1600 
 26 C       -5.3440    -5.3880     0.3210 C.ar  1 <1>  -0.1500 
 27 H        2.7750    -3.5120    -1.0460 H     1 <1>   0.0800 
 28 H        1.5450    -3.4940    -2.2660 H     1 <1>   0.0800 
 29 H        2.8940    -1.8680     0.6570 H     1 <1>   0.0800 
 30 H        3.5960     0.7810    -2.4750 H     1 <1>   0.0800 
 31 H        1.9760     1.0600    -1.9450 H     1 <1>   0.0800 
 32 H        2.0050    -0.5040     2.2430 H     1 <1>   0.0800 
 33 H        1.1430     0.0320     0.8270 H     1 <1>   0.0800 
 34 H        5.0370    -1.5520     0.9680 H     1 <1>   0.0800 
 35 H        4.5700    -0.1240     1.8370 H     1 <1>   0.0800 
 36 H        3.4870     2.7830    -1.2120 H     1 <1>   0.0800 
 37 H       -0.1350    -1.2530    -1.2060 H     1 <1>   0.0800 
 38 H       -0.6990    -2.8030    -1.7560 H     1 <1>   0.0800 
 39 H        0.2160    -4.8690    -0.7080 H     1 <1>   0.0800 
 40 H        1.4320    -4.7210     0.5320 H     1 <1>   0.0800 
 41 H        5.0850    -0.1510    -1.0410 H     1 <1>   0.4500 
 42 H        1.4490     2.1500     0.1530 H     1 <1>   0.0800 
 43 H        2.6670     3.1380     0.9150 H     1 <1>   0.0800 
 44 H        4.9860     2.0810     0.8710 H     1 <1>   0.0800 
 45 H        5.5660     2.2250    -0.7630 H     1 <1>   0.0800 
 46 H       -2.3670    -1.7920    -0.3370 H     1 <1>   0.0800 
 47 H       -1.2220    -1.5620     0.9480 H     1 <1>   0.0800 
 48 H       -0.1970    -3.7350     2.0610 H     1 <1>   0.0800 
 49 H       -0.7580    -5.2710     1.4880 H     1 <1>   0.0800 
 50 H        7.0750     0.5090     1.0740 H     1 <1>   0.0800 
 51 H        7.3470     0.6700    -0.6500 H     1 <1>   0.0800 
 52 H        7.1140    -0.9150     0.0530 H     1 <1>   0.0800 
 53 H       -4.2670    -7.1580     0.7970 H     1 <1>   0.1500 
 54 H       -6.0630    -3.4370    -0.1190 H     1 <1>   0.1500 
 55 H       -6.2970    -5.8710     0.2270 H     1 <1>   0.1500 
@<TRIPOS>BOND
  1   1   2  2   
  2   2   3  am  
  3   2   4  1   
  4   3   5  1   
  5   3   6  1   
  6   4   7  1   
  7   4  27  1   
  8   4  28  1   
  9   5   8  1   
 10   5   9  1   
 11   5  29  1   
 12   6  10  1   
 13   6  30  1   
 14   6  31  1   
 15   7  11  1   
 16   7  12  1   
 17   8  13  1   
 18   8  32  1   
 19   8  33  1   
 20   9  14  1   
 21   9  34  1   
 22   9  35  1   
 23  10  15  1   
 24  10  16  1   
 25  10  36  1   
 26  11  17  1   
 27  11  37  1   
 28  11  38  1   
 29  12  18  1   
 30  12  39  1   
 31  12  40  1   
 32  13  15  1   
 33  14  16  1   
 34  14  19  1   
 35  14  41  1   
 36  15  42  1   
 37  15  43  1   
 38  16  44  1   
 39  16  45  1   
 40  17  20  1   
 41  17  46  1   
 42  17  47  1   
 43  18  20  1   
 44  18  48  1   
 45  18  49  1   
 46  19  50  1   
 47  19  51  1   
 48  19  52  1   
 49  20  21  1   
 50  21  22  ar  
 51  21  23  ar  
 52  22  24  ar  
 53  23  25  ar  
 54  24  26  ar  
 55  24  53  1   
 56  25  26  ar  
 57  25  54  1   
 58  26  55  1   
@<TRIPOS>SUBSTRUCTURE
  1 ****   7 GROUP 4 **** **** 0

# MOE 2024.06 (io_trps.svl 2023.06)
