@<TRIPOS>MOLECULE
NONAME
52 55 1 0 0 
SMALL
USER_CHARGES


@<TRIPOS>ATOM
  1 O        2.0110     1.8290    -1.1500 O.3   1 <1>  -0.0190 
  2 N        2.8310     0.8670    -0.8500 N.2   1 <1>  -0.4100 
  3 C        1.1640     2.0650    -0.1840 C.2   1 <1>  -0.0400 
  4 C        2.4960     0.4620     0.3220 C.2   1 <1>   0.1080 
  5 C        1.4220     1.2020     0.8110 C.2   1 <1>  -0.1500 
  6 C        0.1480     3.1810    -0.3250 C.3   1 <1>   0.0200 
  7 C        3.1810    -0.6670     1.0610 C.3   1 <1>  -0.0590 
  8 C        0.8370     4.4750    -0.7980 C.3   1 <1>  -0.0800 
  9 C       -0.0300     5.7310    -0.7810 C.3   1 <1>   0.2000 
 10 C        2.0640     4.8470     0.0400 C.3   1 <1>   0.3430 
 11 O       -0.7020     5.7930     0.4460 O.3   1 <1>  -0.5600 
 12 C        1.0250     6.8390    -0.8150 C.3   1 <1>   0.3430 
 13 N        2.1420     6.3360     0.0380 N.4   1 <1>  -0.9590 
 14 C       -1.8990     6.5110     0.4270 C.3   1 <1>   0.0400 
 15 C        2.0580     6.8960     1.4050 C.3   1 <1>   0.5240 
 16 C        2.5100     8.3350     1.3340 C.2   1 <1>  -0.1810 
 17 C        3.4630     8.8680     0.5230 C.2   1 <1>  -0.0260 
 18 C        2.0450     9.3950     2.0940 C.2   1 <1>   0.1390 
 19 N        4.2480     8.2680    -0.4420 N.2   1 <1>  -0.5760 
 20 N        3.5280    10.2080     0.8390 N.pl3 1 <1>   0.6010 
 21 N        2.6350    10.5190     1.8060 N.2   1 <1>  -0.7070 
 22 C        5.0940     9.0390    -1.0480 C.2   1 <1>   0.3750 
 23 C        4.4360    11.0200     0.1750 C.2   1 <1>  -0.1690 
 24 C        5.2200    10.4310    -0.7670 C.2   1 <1>  -0.1360 
 25 C        5.9940     8.4450    -2.1080 C.3   1 <1>  -0.1790 
 26 C        4.4980    12.4970     0.5420 C.3   1 <1>  -0.1020 
 27 H        0.9450     1.0780     1.7660 H     1 <1>   0.1500 
 28 H       -0.6010     2.8880    -1.0400 H     1 <1>   0.0800 
 29 H       -0.3370     3.3230     0.6250 H     1 <1>   0.0800 
 30 H        2.4670    -1.4330     1.3010 H     1 <1>   0.0800 
 31 H        3.6230    -0.2970     1.9670 H     1 <1>   0.0800 
 32 H        3.9530    -1.0930     0.4460 H     1 <1>   0.0800 
 33 H        1.1790     4.3190    -1.8070 H     1 <1>   0.0800 
 34 H       -0.7300     5.7700    -1.5990 H     1 <1>   0.0800 
 35 H        2.9560     4.4050    -0.3780 H     1 <1>   0.0800 
 36 H        1.9350     4.4830     1.0460 H     1 <1>   0.0800 
 37 H        0.6300     7.7780    -0.4640 H     1 <1>   0.0800 
 38 H        1.3770     6.9610    -1.8260 H     1 <1>   0.0800 
 39 H        3.0440     6.6970    -0.3340 H     1 <1>   0.4500 
 40 H       -2.3120     6.5060     1.4210 H     1 <1>   0.0800 
 41 H       -2.5910     6.0340    -0.2480 H     1 <1>   0.0800 
 42 H       -1.7110     7.5260     0.1200 H     1 <1>   0.0800 
 43 H        1.0490     6.8280     1.7780 H     1 <1>   0.0800 
 44 H        2.7140     6.3550     2.0670 H     1 <1>   0.0800 
 45 H        1.2780     9.3300     2.8500 H     1 <1>   0.1500 
 46 H        5.9500    10.9900    -1.3230 H     1 <1>   0.1500 
 47 H        5.8110     8.9220    -3.0540 H     1 <1>   0.0800 
 48 H        5.8110     7.3900    -2.2130 H     1 <1>   0.0800 
 49 H        7.0230     8.5880    -1.8350 H     1 <1>   0.0800 
 50 H        3.5430    12.9600     0.3670 H     1 <1>   0.0800 
 51 H        5.2420    13.0090    -0.0430 H     1 <1>   0.0800 
 52 H        4.7440    12.6070     1.5840 H     1 <1>   0.0800 
@<TRIPOS>BOND
  1   1   2  1   
  2   1   3  1   
  3   2   4  2   
  4   3   5  2   
  5   3   6  1   
  6   4   5  1   
  7   4   7  1   
  8   5  27  1   
  9   6   8  1   
 10   6  28  1   
 11   6  29  1   
 12   7  30  1   
 13   7  31  1   
 14   7  32  1   
 15   8   9  1   
 16   8  10  1   
 17   8  33  1   
 18   9  11  1   
 19   9  12  1   
 20   9  34  1   
 21  10  13  1   
 22  10  35  1   
 23  10  36  1   
 24  11  14  1   
 25  12  13  1   
 26  12  37  1   
 27  12  38  1   
 28  13  15  1   
 29  13  39  1   
 30  14  40  1   
 31  14  41  1   
 32  14  42  1   
 33  15  16  1   
 34  15  43  1   
 35  15  44  1   
 36  16  17  2   
 37  16  18  1   
 38  17  19  1   
 39  17  20  1   
 40  18  21  2   
 41  18  45  1   
 42  19  22  2   
 43  20  21  1   
 44  20  23  1   
 45  22  24  1   
 46  22  25  1   
 47  23  24  2   
 48  23  26  1   
 49  24  46  1   
 50  25  47  1   
 51  25  48  1   
 52  25  49  1   
 53  26  50  1   
 54  26  51  1   
 55  26  52  1   
@<TRIPOS>SUBSTRUCTURE
  1 ****  13 GROUP 4 **** **** 0

# MOE 2024.06 (io_trps.svl 2023.06)
