@<TRIPOS>MOLECULE
NONAME
43 44 1 0 0 
SMALL
USER_CHARGES


@<TRIPOS>ATOM
  1 S        2.4540     0.8430     1.2200 S.o2  1 <1>   1.3330 
  2 O        2.2950     1.8300     2.2650 O.2   1 <1>  -0.6500 
  3 O        3.2130    -0.3600     1.4790 O.2   1 <1>  -0.6500 
  4 N        0.8980     0.3750     0.7230 N.am  1 <1>  -0.8490 
  5 C        3.1280     1.6310    -0.2400 C.3   1 <1>  -0.0550 
  6 C       -0.0660     1.4810     0.7110 C.3   1 <1>   0.1160 
  7 C        0.3740    -0.7290     1.5320 C.3   1 <1>   0.1160 
  8 C        3.2320     0.7160    -1.4800 C.3   1 <1>  -0.0800 
  9 C        3.5320     1.4420    -2.7910 C.3   1 <1>   0.2200 
 10 C        4.3600    -0.3220    -1.3800 C.3   1 <1>   0.1200 
 11 N        4.4320     2.5920    -2.5490 N.am  1 <1>  -0.7300 
 12 C        4.2910     0.3680    -3.5550 C.3   1 <1>   0.1200 
 13 O        5.0610    -0.2720    -2.5880 O.3   1 <1>  -0.5600 
 14 C        4.0310     3.8870    -2.4780 C.2   1 <1>   0.5690 
 15 O        2.9260     4.2290    -2.8210 O.2   1 <1>  -0.5700 
 16 C        4.9710     4.9090    -1.8690 C.3   1 <1>   0.0440 
 17 C        5.2040     4.5590    -0.4050 C.ar  1 <1>  -0.1440 
 18 C        6.3950     3.9860     0.0170 C.ar  1 <1>   0.1600 
 19 C        4.2000     4.7640     0.5200 C.ar  1 <1>  -0.1500 
 20 N        6.6460     3.5890     1.2530 N.ar  1 <1>  -0.6200 
 21 C        4.4450     4.3550     1.8130 C.ar  1 <1>  -0.1500 
 22 C        5.6650     3.7790     2.1220 C.ar  1 <1>   0.1600 
 23 H        2.5140     2.4750    -0.4860 H     1 <1>   0.0800 
 24 H        4.1050     2.0040     0.0010 H     1 <1>   0.0800 
 25 H       -1.0100     1.1440     0.3190 H     1 <1>   0.0800 
 26 H        0.2910     2.2810     0.0860 H     1 <1>   0.0800 
 27 H       -0.2170     1.8620     1.7080 H     1 <1>   0.0800 
 28 H       -0.6040    -1.0150     1.1860 H     1 <1>   0.0800 
 29 H        0.3130    -0.4380     2.5680 H     1 <1>   0.0800 
 30 H        1.0220    -1.5860     1.4520 H     1 <1>   0.0800 
 31 H        2.3050     0.1840    -1.6020 H     1 <1>   0.0800 
 32 H        2.6410     1.7580    -3.3070 H     1 <1>   0.0800 
 33 H        3.9690    -1.3160    -1.2460 H     1 <1>   0.0800 
 34 H        5.0540    -0.0990    -0.5870 H     1 <1>   0.0800 
 35 H        5.3600     2.3100    -2.2200 H     1 <1>   0.3700 
 36 H        4.9280     0.7710    -4.3220 H     1 <1>   0.0800 
 37 H        3.6150    -0.3560    -3.9760 H     1 <1>   0.0800 
 38 H        5.8940     4.9130    -2.4180 H     1 <1>   0.0800 
 39 H        4.5310     5.8870    -1.9450 H     1 <1>   0.0800 
 40 H        7.1850     3.8340    -0.6980 H     1 <1>   0.1500 
 41 H        3.2570     5.2090     0.2480 H     1 <1>   0.1500 
 42 H        3.6970     4.4700     2.5770 H     1 <1>   0.1500 
 43 H        5.8410     3.4580     3.1350 H     1 <1>   0.1500 
@<TRIPOS>BOND
  1   1   2  2   
  2   1   3  2   
  3   1   4  am  
  4   1   5  1   
  5   4   6  1   
  6   4   7  1   
  7   5   8  1   
  8   5  23  1   
  9   5  24  1   
 10   6  25  1   
 11   6  26  1   
 12   6  27  1   
 13   7  28  1   
 14   7  29  1   
 15   7  30  1   
 16   8   9  1   
 17   8  10  1   
 18   8  31  1   
 19   9  11  1   
 20   9  12  1   
 21   9  32  1   
 22  10  13  1   
 23  10  33  1   
 24  10  34  1   
 25  11  14  am  
 26  11  35  1   
 27  12  13  1   
 28  12  36  1   
 29  12  37  1   
 30  14  15  2   
 31  14  16  1   
 32  16  17  1   
 33  16  38  1   
 34  16  39  1   
 35  17  18  ar  
 36  17  19  ar  
 37  18  20  ar  
 38  18  40  1   
 39  19  21  ar  
 40  19  41  1   
 41  20  22  ar  
 42  21  22  ar  
 43  21  42  1   
 44  22  43  1   
@<TRIPOS>SUBSTRUCTURE
  1 ****   5 GROUP 4 **** **** 0

# MOE 2024.06 (io_trps.svl 2023.06)
