@<TRIPOS>MOLECULE
NONAME
57 61 1 0 0 
SMALL
USER_CHARGES


@<TRIPOS>ATOM
  1 O       -0.6970     0.7570    -2.0650 O.2   1 <1>  -0.5700 
  2 C       -1.5630     1.1380    -1.2990 C.2   1 <1>   0.5440 
  3 N       -2.6090     0.2920    -0.9950 N.am  1 <1>  -0.6600 
  4 C       -1.4810     2.4640    -0.7270 C.ar  1 <1>   0.0860 
  5 C       -3.5730     0.5870     0.1080 C.3   1 <1>   0.1400 
  6 C       -2.7620    -1.0120    -1.7090 C.3   1 <1>   0.1400 
  7 C       -0.4590     2.7970     0.2040 C.ar  1 <1>   0.0000 
  8 C       -2.4130     3.4220    -1.0730 C.ar  1 <1>  -0.1500 
  9 C       -4.1630    -0.7090     0.6580 C.3   1 <1>  -0.1600 
 10 C       -4.2380    -1.4050    -1.8040 C.3   1 <1>  -0.1600 
 11 C       -0.4350     4.0940     0.7690 C.ar  1 <1>   0.3100 
 12 C        0.5470     1.9000     0.6140 C.ar  1 <1>  -0.1500 
 13 C       -2.3840     4.7020    -0.5240 C.ar  1 <1>  -0.1500 
 14 C       -4.9460    -1.4600    -0.4310 C.3   1 <1>   0.4240 
 15 N        0.4920     4.4880     1.6790 N.ar  1 <1>  -0.6200 
 16 C       -1.4100     5.0230     0.3820 C.ar  1 <1>  -0.1500 
 17 C        1.4700     2.3210     1.5220 C.ar  1 <1>  -0.1500 
 18 O       -6.1460    -0.7360    -0.5570 O.3   1 <1>  -0.5600 
 19 C       -5.2070    -2.9170     0.0110 C.ar  1 <1>  -0.1430 
 20 C        1.3970     3.6250     2.0250 C.ar  1 <1>   0.1600 
 21 C       -7.2290    -1.4010    -1.1320 C.3   1 <1>   0.1200 
 22 C       -6.4970    -3.4140     0.1340 C.ar  1 <1>  -0.1430 
 23 C       -4.1460    -3.7720     0.2800 C.ar  1 <1>  -0.1500 
 24 C       -7.6740    -2.5140    -0.1880 C.3   1 <1>  -0.0170 
 25 C       -6.7140    -4.7200     0.5420 C.ar  1 <1>  -0.1500 
 26 C       -4.3410    -5.0840     0.6760 C.ar  1 <1>   0.0820 
 27 C       -5.6490    -5.5700     0.8290 C.ar  1 <1>   0.0820 
 28 O       -3.1900    -5.7860     0.8860 O.3   1 <1>  -0.3620 
 29 O       -5.8640    -6.8470     1.2630 O.3   1 <1>  -0.3620 
 30 C       -3.1380    -7.1890     0.7610 C.3   1 <1>   0.0400 
 31 C       -7.1310    -7.2850     1.7040 C.3   1 <1>   0.0400 
 32 H       -4.3640     1.2120    -0.2710 H     1 <1>   0.0800 
 33 H       -3.0720     1.1130     0.9030 H     1 <1>   0.0800 
 34 H       -2.2070    -1.7660    -1.1800 H     1 <1>   0.0800 
 35 H       -2.3520    -0.9350    -2.7020 H     1 <1>   0.0800 
 36 H       -3.1840     3.1790    -1.7860 H     1 <1>   0.1500 
 37 H       -4.8190    -0.5000     1.4830 H     1 <1>   0.0800 
 38 H       -3.3570    -1.3080     1.0390 H     1 <1>   0.0800 
 39 H       -4.3100    -2.3620    -2.2870 H     1 <1>   0.0800 
 40 H       -4.7210    -0.6840    -2.4380 H     1 <1>   0.0800 
 41 H        0.5860     0.9030     0.2090 H     1 <1>   0.1500 
 42 H       -3.1260     5.4250    -0.8170 H     1 <1>   0.1500 
 43 H       -1.3650     6.0020     0.8220 H     1 <1>   0.1500 
 44 H        2.2570     1.6730     1.8620 H     1 <1>   0.1500 
 45 H        2.1400     3.9300     2.7440 H     1 <1>   0.1500 
 46 H       -6.9330    -1.7970    -2.0880 H     1 <1>   0.0800 
 47 H       -8.0190    -0.6850    -1.2730 H     1 <1>   0.0800 
 48 H       -3.1330    -3.4300     0.1830 H     1 <1>   0.1500 
 49 H       -8.4600    -3.0800    -0.6550 H     1 <1>   0.0800 
 50 H       -8.0600    -2.0820     0.7180 H     1 <1>   0.0800 
 51 H       -7.7270    -5.0600     0.6290 H     1 <1>   0.1500 
 52 H       -2.1080    -7.4790     0.6630 H     1 <1>   0.0800 
 53 H       -3.6900    -7.4840    -0.1140 H     1 <1>   0.0800 
 54 H       -3.5580    -7.6320     1.6460 H     1 <1>   0.0800 
 55 H       -7.0190    -8.2730     2.1120 H     1 <1>   0.0800 
 56 H       -7.8030    -7.3120     0.8660 H     1 <1>   0.0800 
 57 H       -7.4860    -6.6130     2.4660 H     1 <1>   0.0800 
@<TRIPOS>BOND
  1   1   2  2   
  2   2   3  am  
  3   2   4  1   
  4   3   5  1   
  5   3   6  1   
  6   4   7  ar  
  7   4   8  ar  
  8   5   9  1   
  9   5  32  1   
 10   5  33  1   
 11   6  10  1   
 12   6  34  1   
 13   6  35  1   
 14   7  11  ar  
 15   7  12  ar  
 16   8  13  ar  
 17   8  36  1   
 18   9  14  1   
 19   9  37  1   
 20   9  38  1   
 21  10  14  1   
 22  10  39  1   
 23  10  40  1   
 24  11  15  ar  
 25  11  16  ar  
 26  12  17  ar  
 27  12  41  1   
 28  13  16  ar  
 29  13  42  1   
 30  14  18  1   
 31  14  19  1   
 32  15  20  ar  
 33  16  43  1   
 34  17  20  ar  
 35  17  44  1   
 36  18  21  1   
 37  19  22  ar  
 38  19  23  ar  
 39  20  45  1   
 40  21  24  1   
 41  21  46  1   
 42  21  47  1   
 43  22  24  1   
 44  22  25  ar  
 45  23  26  ar  
 46  23  48  1   
 47  24  49  1   
 48  24  50  1   
 49  25  27  ar  
 50  25  51  1   
 51  26  27  ar  
 52  26  28  1   
 53  27  29  1   
 54  28  30  1   
 55  29  31  1   
 56  30  52  1   
 57  30  53  1   
 58  30  54  1   
 59  31  55  1   
 60  31  56  1   
 61  31  57  1   
@<TRIPOS>SUBSTRUCTURE
  1 ****   9 GROUP 4 **** **** 0

# MOE 2024.06 (io_trps.svl 2023.06)
