@<TRIPOS>MOLECULE
NONAME
39 41 1 0 0 
SMALL
USER_CHARGES


@<TRIPOS>ATOM
  1 O       -0.4240     1.6700    -1.2710 O.3   1 <1>  -0.3700 
  2 C        0.0870     2.3290    -0.2010 C.ar  1 <1>   0.0730 
  3 C       -1.8190     1.4250    -1.2700 C.3   1 <1>   0.1110 
  4 C       -0.6620     2.5210     0.9600 C.ar  1 <1>   0.0730 
  5 C        1.3750     2.8230    -0.2820 C.ar  1 <1>  -0.1590 
  6 C       -2.2990     1.0350     0.1360 C.3   1 <1>   0.1110 
  7 O       -1.9190     2.0230     1.0750 O.3   1 <1>  -0.3700 
  8 C       -0.1190     3.2250     2.0190 C.ar  1 <1>  -0.1590 
  9 C        1.9250     3.5360     0.7790 C.ar  1 <1>  -0.1530 
 10 C        1.1680     3.7300     1.9290 C.ar  1 <1>  -0.1590 
 11 C        3.3200     4.1260     0.6850 C.3   1 <1>   0.3840 
 12 N        3.2630     5.0980    -0.4020 N.pl3 1 <1>  -0.7190 
 13 C        4.3830     3.0780     0.3680 C.3   1 <1>  -0.2480 
 14 C        3.8880     6.2710    -0.4870 C.cat 1 <1>   1.0690 
 15 N        4.9060     6.6510     0.2510 N.pl3 1 <1>  -0.7050 
 16 N        3.6180     7.2680    -1.3270 N.pl3 1 <1>  -0.4640 
 17 C        5.2410     7.9020    -0.1690 C.2   1 <1>   0.4790 
 18 N        4.4840     8.3050    -1.1180 N.2   1 <1>  -0.2680 
 19 C        2.5690     7.3760    -2.3710 C.3   1 <1>   0.2660 
 20 C        6.3840     8.6760     0.4490 C.3   1 <1>  -0.0820 
 21 H       -2.0180     0.6350    -1.9720 H     1 <1>   0.0700 
 22 H       -2.3160     2.3210    -1.5970 H     1 <1>   0.0700 
 23 H        1.9270     2.6350    -1.1850 H     1 <1>   0.1410 
 24 H       -1.8590     0.1010     0.4370 H     1 <1>   0.0700 
 25 H       -3.3700     0.9460     0.1640 H     1 <1>   0.0700 
 26 H       -0.7060     3.3690     2.9090 H     1 <1>   0.1410 
 27 H        1.5650     4.2740     2.7680 H     1 <1>   0.1410 
 28 H        3.5670     4.6180     1.6110 H     1 <1>   0.0700 
 29 H        2.4630     4.9120    -1.0040 H     1 <1>   0.4430 
 30 H        4.1950     2.6020    -0.5780 H     1 <1>   0.0700 
 31 H        4.3700     2.3180     1.1300 H     1 <1>   0.0700 
 32 H        5.3620     3.5190     0.3530 H     1 <1>   0.0700 
 33 H        5.3680     6.1050     0.9690 H     1 <1>   0.4430 
 34 H        1.9210     6.5180    -2.3570 H     1 <1>   0.0700 
 35 H        3.0320     7.4530    -3.3400 H     1 <1>   0.0700 
 36 H        1.9800     8.2610    -2.1980 H     1 <1>   0.0700 
 37 H        7.3050     8.1390     0.3230 H     1 <1>   0.0700 
 38 H        6.2030     8.8290     1.4980 H     1 <1>   0.0700 
 39 H        6.4780     9.6370    -0.0260 H     1 <1>   0.0700 
@<TRIPOS>BOND
  1   1   2  1   
  2   1   3  1   
  3   2   4  ar  
  4   2   5  ar  
  5   3   6  1   
  6   3  21  1   
  7   3  22  1   
  8   4   7  1   
  9   4   8  ar  
 10   5   9  ar  
 11   5  23  1   
 12   6   7  1   
 13   6  24  1   
 14   6  25  1   
 15   8  10  ar  
 16   8  26  1   
 17   9  10  ar  
 18   9  11  1   
 19  10  27  1   
 20  11  12  1   
 21  11  13  1   
 22  11  28  1   
 23  12  14  ar  
 24  12  29  1   
 25  13  30  1   
 26  13  31  1   
 27  13  32  1   
 28  14  15  ar  
 29  14  16  ar  
 30  15  17  1   
 31  15  33  1   
 32  16  18  1   
 33  16  19  1   
 34  17  18  2   
 35  17  20  1   
 36  19  34  1   
 37  19  35  1   
 38  19  36  1   
 39  20  37  1   
 40  20  38  1   
 41  20  39  1   
@<TRIPOS>SUBSTRUCTURE
  1 ****   9 GROUP 4 **** **** 0

# MOE 2024.06 (io_trps.svl 2023.06)
