@<TRIPOS>MOLECULE
NONAME
37 39 1 0 0 
SMALL
USER_CHARGES


@<TRIPOS>ATOM
  1 F        0.6300    -1.5050    -1.5840 F     1 <1>  -0.1900 
  2 C       -0.0470    -2.4310    -0.9570 C.ar  1 <1>   0.1900 
  3 C        0.3960    -2.8770     0.2790 C.ar  1 <1>  -0.1440 
  4 C       -1.1880    -2.9240    -1.5630 C.ar  1 <1>  -0.1500 
  5 C       -0.3510    -3.8580     0.9130 C.ar  1 <1>  -0.1500 
  6 C        1.6550    -2.3170     0.9230 C.3   1 <1>  -0.0960 
  7 C       -1.9290    -3.9050    -0.9200 C.ar  1 <1>  -0.1430 
  8 C       -1.4970    -4.3640     0.3190 C.ar  1 <1>  -0.1500 
  9 C       -3.1990    -4.4510    -1.5740 C.3   1 <1>   0.0450 
 10 C       -3.3560    -5.9630    -1.4520 C.2   1 <1>   0.5690 
 11 O       -2.8020    -6.6460    -2.2840 O.2   1 <1>  -0.5700 
 12 N       -4.1030    -6.5120    -0.4500 N.am  1 <1>  -0.6600 
 13 C       -4.9150    -5.7890     0.5720 C.3   1 <1>   0.2350 
 14 C       -4.1590    -7.9800    -0.1990 C.3   1 <1>   0.2350 
 15 C       -5.8200    -6.8340     1.1930 C.3   1 <1>  -0.2420 
 16 C       -5.3460    -8.1890     0.7250 C.3   1 <1>  -0.2420 
 17 C       -6.3650    -6.3350     2.5350 C.2   1 <1>   0.9470 
 18 C       -6.7100    -7.6890     0.3270 C.3   1 <1>  -0.2000 
 19 C       -5.2260    -9.5180     1.4730 C.2   1 <1>   0.9470 
 20 O       -7.5880    -6.2810     2.7180 O.co2 1 <1>  -0.9000 
 21 O       -5.5770    -5.8200     3.3410 O.co2 1 <1>  -0.9000 
 22 O       -6.0840   -10.3940     1.2990 O.co2 1 <1>  -0.9000 
 23 O       -4.1930    -9.7530     2.1150 O.co2 1 <1>  -0.9000 
 24 H       -1.4810    -2.5390    -2.5220 H     1 <1>   0.1500 
 25 H       -0.0500    -4.2400     1.8730 H     1 <1>   0.1500 
 26 H        1.8600    -2.8060     1.8580 H     1 <1>   0.0800 
 27 H        1.5330    -1.2640     1.1050 H     1 <1>   0.0800 
 28 H        2.4960    -2.4600     0.2680 H     1 <1>   0.0800 
 29 H       -2.0490    -5.1300     0.8400 H     1 <1>   0.1500 
 30 H       -3.1850    -4.2190    -2.6220 H     1 <1>   0.0800 
 31 H       -4.0490    -3.9510    -1.1560 H     1 <1>   0.0800 
 32 H       -4.2630    -5.3730     1.3220 H     1 <1>   0.0800 
 33 H       -5.5100    -5.0110     0.1310 H     1 <1>   0.0800 
 34 H       -4.2850    -8.5260    -1.1170 H     1 <1>   0.0800 
 35 H       -3.2490    -8.2920     0.2860 H     1 <1>   0.0800 
 36 H       -6.8930    -7.4080    -0.6930 H     1 <1>   0.1000 
 37 H       -7.5660    -8.1560     0.7870 H     1 <1>   0.1000 
@<TRIPOS>BOND
  1   1   2  1   
  2   2   3  ar  
  3   2   4  ar  
  4   3   5  ar  
  5   3   6  1   
  6   4   7  ar  
  7   4  24  1   
  8   5   8  ar  
  9   5  25  1   
 10   6  26  1   
 11   6  27  1   
 12   6  28  1   
 13   7   8  ar  
 14   7   9  1   
 15   8  29  1   
 16   9  10  1   
 17   9  30  1   
 18   9  31  1   
 19  10  11  2   
 20  10  12  am  
 21  12  13  1   
 22  12  14  1   
 23  13  15  1   
 24  13  32  1   
 25  13  33  1   
 26  14  16  1   
 27  14  34  1   
 28  14  35  1   
 29  15  16  1   
 30  15  17  1   
 31  15  18  1   
 32  16  18  1   
 33  16  19  1   
 34  17  20  ar  
 35  17  21  ar  
 36  18  36  1   
 37  18  37  1   
 38  19  22  ar  
 39  19  23  ar  
@<TRIPOS>SUBSTRUCTURE
  1 ****  12 GROUP 4 **** **** 0

# MOE 2024.06 (io_trps.svl 2023.06)
