@<TRIPOS>MOLECULE
NONAME
51 53 1 0 0 
SMALL
USER_CHARGES


@<TRIPOS>ATOM
  1 O       -1.3120    -2.6430    -0.7250 O.3   1 <1>  -0.3630 
  2 C        0.0350    -2.5640    -0.5240 C.ar  1 <1>   0.0830 
  3 C       -2.1560    -2.9590     0.3650 C.3   1 <1>   0.0400 
  4 C        0.8070    -3.6060     0.0660 C.ar  1 <1>   0.3100 
  5 C        0.6220    -1.4060    -0.9490 C.ar  1 <1>  -0.1500 
  6 N        0.1720    -4.7530     0.4250 N.ar  1 <1>  -0.6200 
  7 C        2.2090    -3.4150     0.2420 C.ar  1 <1>   0.0000 
  8 C        1.9880    -1.2120    -0.7920 C.ar  1 <1>  -0.1500 
  9 C        0.8640    -5.7020     0.9610 C.ar  1 <1>   0.4100 
 10 C        2.7740    -2.1830    -0.2090 C.ar  1 <1>   0.0830 
 11 C        2.9290    -4.4870     0.8510 C.ar  1 <1>  -0.1440 
 12 N        0.1910    -6.8340     1.3080 N.pl3 1 <1>  -0.8690 
 13 C        2.2370    -5.6070     1.1950 C.ar  1 <1>  -0.1500 
 14 O        4.1110    -1.9820    -0.0570 O.3   1 <1>  -0.3630 
 15 C        4.4250    -4.4690     1.1480 C.3   1 <1>  -0.0970 
 16 C       -0.5170    -7.5380     0.2220 C.3   1 <1>   0.4330 
 17 C        4.7720    -0.8070    -0.4760 C.3   1 <1>   0.0400 
 18 C       -2.0070    -7.1530     0.2570 C.ar  1 <1>   0.1670 
 19 C       -0.2810    -9.0460     0.3960 C.3   1 <1>  -0.1600 
 20 N       -2.6940    -7.4080     1.3690 N.ar  1 <1>  -0.6200 
 21 C       -2.5630    -6.5420    -0.8590 C.ar  1 <1>  -0.1500 
 22 C       -0.8990    -9.8870    -0.7320 C.3   1 <1>  -0.2400 
 23 C       -3.9680    -7.0510     1.3550 C.ar  1 <1>   0.1600 
 24 C       -3.8910    -6.1770    -0.8550 C.ar  1 <1>  -0.1500 
 25 C       -4.6130    -6.4410     0.2890 C.ar  1 <1>  -0.1430 
 26 C       -6.0830    -6.0660     0.3660 C.3   1 <1>  -0.0970 
 27 H       -3.1240    -2.5340     0.1750 H     1 <1>   0.0800 
 28 H       -1.7390    -2.5490     1.2670 H     1 <1>   0.0800 
 29 H       -2.2430    -4.0280     0.4440 H     1 <1>   0.0800 
 30 H        0.0230    -0.6380    -1.4060 H     1 <1>   0.1500 
 31 H        2.3890    -0.2810    -1.1430 H     1 <1>   0.1500 
 32 H       -0.5570    -6.6170     1.9760 H     1 <1>   0.4000 
 33 H        2.7060    -6.4550     1.6550 H     1 <1>   0.1500 
 34 H        4.6600    -3.6490     1.8030 H     1 <1>   0.0800 
 35 H        4.9810    -4.3650     0.2330 H     1 <1>   0.0800 
 36 H        4.7390    -5.3770     1.6270 H     1 <1>   0.0800 
 37 H       -0.0960    -7.2360    -0.7220 H     1 <1>   0.0800 
 38 H        5.8150    -0.9100    -0.2400 H     1 <1>   0.0800 
 39 H        4.3600     0.0340     0.0540 H     1 <1>   0.0800 
 40 H        4.6480    -0.6950    -1.5380 H     1 <1>   0.0800 
 41 H       -0.6970    -9.3580     1.3380 H     1 <1>   0.0800 
 42 H        0.7790    -9.2230     0.4220 H     1 <1>   0.0800 
 43 H       -1.9570    -6.3410    -1.7240 H     1 <1>   0.1500 
 44 H       -1.9690    -9.7690    -0.7470 H     1 <1>   0.0800 
 45 H       -0.6770   -10.9280    -0.5750 H     1 <1>   0.0800 
 46 H       -0.5010    -9.5920    -1.6870 H     1 <1>   0.0800 
 47 H       -4.5310    -7.2570     2.2480 H     1 <1>   0.1500 
 48 H       -4.3380    -5.7020    -1.7110 H     1 <1>   0.1500 
 49 H       -6.4260    -6.0680     1.3850 H     1 <1>   0.0800 
 50 H       -6.6680    -6.7700    -0.1980 H     1 <1>   0.0800 
 51 H       -6.2360    -5.0830    -0.0420 H     1 <1>   0.0800 
@<TRIPOS>BOND
  1   1   2  1   
  2   1   3  1   
  3   2   4  ar  
  4   2   5  ar  
  5   3  27  1   
  6   3  28  1   
  7   3  29  1   
  8   4   6  ar  
  9   4   7  ar  
 10   5   8  ar  
 11   5  30  1   
 12   6   9  ar  
 13   7  10  ar  
 14   7  11  ar  
 15   8  10  ar  
 16   8  31  1   
 17   9  12  1   
 18   9  13  ar  
 19  10  14  1   
 20  11  13  ar  
 21  11  15  1   
 22  12  16  1   
 23  12  32  1   
 24  13  33  1   
 25  14  17  1   
 26  15  34  1   
 27  15  35  1   
 28  15  36  1   
 29  16  18  1   
 30  16  19  1   
 31  16  37  1   
 32  17  38  1   
 33  17  39  1   
 34  17  40  1   
 35  18  20  ar  
 36  18  21  ar  
 37  19  22  1   
 38  19  41  1   
 39  19  42  1   
 40  20  23  ar  
 41  21  24  ar  
 42  21  43  1   
 43  22  44  1   
 44  22  45  1   
 45  22  46  1   
 46  23  25  ar  
 47  23  47  1   
 48  24  25  ar  
 49  24  48  1   
 50  25  26  1   
 51  26  49  1   
 52  26  50  1   
 53  26  51  1   
@<TRIPOS>SUBSTRUCTURE
  1 ****   6 GROUP 4 **** **** 0

# MOE 2024.06 (io_trps.svl 2023.06)
