@<TRIPOS>MOLECULE
NONAME
39 41 1 0 0 
SMALL
USER_CHARGES


@<TRIPOS>ATOM
  1 F        0.7150    -1.2080     0.7480 F     1 <1>  -0.3400 
  2 C       -0.4700    -1.4210     0.1950 C.3   1 <1>   0.7800 
  3 F       -1.3250    -0.7900     0.9880 F     1 <1>  -0.3400 
  4 C       -0.7700    -2.9020     0.2290 C.2   1 <1>  -0.3320 
  5 N       -0.7750    -3.5900     1.3830 N.pl3 1 <1>   0.3000 
  6 C       -1.0640    -3.7840    -0.7490 C.2   1 <1>  -0.1500 
  7 N       -1.0630    -4.8860     1.1920 N.2   1 <1>  -0.7070 
  8 C       -1.2410    -5.0190    -0.1120 C.2   1 <1>   0.2030 
  9 C       -1.5750    -6.2590    -0.7960 C.2   1 <1>   0.7160 
 10 O       -1.7700    -6.3030    -1.9990 O.2   1 <1>  -0.5700 
 11 N       -1.6860    -7.4110    -0.0740 N.am  1 <1>  -0.7300 
 12 C       -2.0710    -8.7410    -0.5910 C.3   1 <1>   0.2200 
 13 C       -3.5040    -9.0350    -0.1830 C.3   1 <1>  -0.0800 
 14 C       -1.2940    -9.8320     0.1440 C.3   1 <1>   0.1200 
 15 C       -3.3140    -9.5840     1.2330 C.3   1 <1>   0.1200 
 16 C       -4.1610   -10.0630    -1.1230 C.3   1 <1>  -0.0160 
 17 O       -2.0590   -10.1980     1.2570 O.3   1 <1>  -0.5600 
 18 C       -5.6030   -10.3360    -0.7240 C.ar  1 <1>  -0.1430 
 19 C       -5.9800   -11.5000    -0.0850 C.ar  1 <1>  -0.1500 
 20 C       -6.6100    -9.4280    -0.9800 C.ar  1 <1>  -0.1500 
 21 C       -7.3080   -11.6920     0.2610 C.ar  1 <1>   0.1600 
 22 C       -7.9070    -9.7170    -0.5920 C.ar  1 <1>   0.1600 
 23 N       -8.2800   -10.8260     0.0240 N.ar  1 <1>  -0.6200 
 24 H       -0.4920    -0.9640    -0.7780 H     1 <1>   0.0800 
 25 H       -0.5840    -3.1900     2.3130 H     1 <1>   0.2700 
 26 H       -1.1570    -3.6310    -1.8110 H     1 <1>   0.1500 
 27 H       -1.5370    -7.3290     0.9360 H     1 <1>   0.3700 
 28 H       -1.9170    -8.7840    -1.6560 H     1 <1>   0.0800 
 29 H       -4.1010    -8.1400    -0.1740 H     1 <1>   0.0800 
 30 H       -0.3240    -9.4990     0.4690 H     1 <1>   0.0800 
 31 H       -1.1900   -10.7040    -0.4760 H     1 <1>   0.0800 
 32 H       -4.0640   -10.2980     1.5200 H     1 <1>   0.0800 
 33 H       -3.2940    -8.7800     1.9490 H     1 <1>   0.0800 
 34 H       -3.6040   -10.9840    -1.1170 H     1 <1>   0.0800 
 35 H       -4.1500    -9.6840    -2.1300 H     1 <1>   0.0800 
 36 H       -5.2550   -12.2580     0.1500 H     1 <1>   0.1500 
 37 H       -6.3980    -8.4990    -1.4780 H     1 <1>   0.1500 
 38 H       -7.5830   -12.6050     0.7600 H     1 <1>   0.1500 
 39 H       -8.6800    -8.9960    -0.8000 H     1 <1>   0.1500 
@<TRIPOS>BOND
  1   1   2  1   
  2   2   3  1   
  3   2   4  1   
  4   2  24  1   
  5   4   5  1   
  6   4   6  2   
  7   5   7  1   
  8   5  25  1   
  9   6   8  1   
 10   6  26  1   
 11   7   8  2   
 12   8   9  1   
 13   9  10  2   
 14   9  11  am  
 15  11  12  1   
 16  11  27  1   
 17  12  13  1   
 18  12  14  1   
 19  12  28  1   
 20  13  15  1   
 21  13  16  1   
 22  13  29  1   
 23  14  17  1   
 24  14  30  1   
 25  14  31  1   
 26  15  17  1   
 27  15  32  1   
 28  15  33  1   
 29  16  18  1   
 30  16  34  1   
 31  16  35  1   
 32  18  19  ar  
 33  18  20  ar  
 34  19  21  ar  
 35  19  36  1   
 36  20  22  ar  
 37  20  37  1   
 38  21  23  ar  
 39  21  38  1   
 40  22  23  ar  
 41  22  39  1   
@<TRIPOS>SUBSTRUCTURE
  1 ****  11 GROUP 4 **** **** 0

# MOE 2024.06 (io_trps.svl 2023.06)
