@<TRIPOS>MOLECULE
NONAME
53 55 1 0 0 
SMALL
USER_CHARGES


@<TRIPOS>ATOM
  1 O       -0.1590     0.6110    -0.4020 O.2   1 <1>  -0.5700 
  2 C       -0.1950     1.7980    -0.1730 C.2   1 <1>   0.5690 
  3 N       -1.3750     2.4820    -0.0390 N.am  1 <1>  -0.6600 
  4 C        1.1370     2.5460    -0.0600 C.3   1 <1>   0.1810 
  5 C       -1.3900     3.9530     0.2650 C.3   1 <1>   0.3640 
  6 C       -2.6980     1.7930    -0.0460 C.3   1 <1>   0.0600 
  7 O        1.0280     3.7820     0.6030 O.3   1 <1>  -0.5600 
  8 C       -2.4180     4.6530    -0.6390 C.ar  1 <1>  -0.1440 
  9 C        0.0020     4.6120     0.0980 C.3   1 <1>   0.2610 
 10 C       -3.5050     5.3680    -0.1320 C.ar  1 <1>  -0.1440 
 11 C       -2.2580     4.5620    -2.0180 C.ar  1 <1>  -0.1500 
 12 C        0.0390     5.9910     0.7660 C.2   1 <1>   0.5690 
 13 C       -4.3840     5.9880    -1.0080 C.ar  1 <1>  -0.1500 
 14 C       -3.7790     5.4980     1.3610 C.3   1 <1>  -0.0960 
 15 C       -3.1400     5.1820    -2.8820 C.ar  1 <1>  -0.1500 
 16 O       -0.4560     6.1590     1.8580 O.2   1 <1>  -0.5700 
 17 N        0.6330     7.0230     0.1180 N.am  1 <1>  -0.7300 
 18 C       -4.2050     5.9000    -2.3760 C.ar  1 <1>  -0.1500 
 19 C        0.7980     8.3780     0.6600 C.3   1 <1>   0.3200 
 20 C        1.7380     9.1700    -0.2440 C.2   1 <1>   0.0070 
 21 N        2.2090     8.7220    -1.3720 N.2   1 <1>  -0.5650 
 22 N        2.1640    10.4230     0.0620 N.pl3 1 <1>   0.0480 
 23 C        2.9800     9.7260    -1.8230 C.2   1 <1>   0.0770 
 24 C        2.9660    10.7670    -0.9660 C.2   1 <1>  -0.3020 
 25 C        1.8440    11.2540     1.2560 C.3   1 <1>   0.1760 
 26 C        1.2140    12.5850     0.8300 C.3   1 <1>  -0.2400 
 27 C        3.1080    11.4870     2.0910 C.3   1 <1>  -0.2400 
 28 H        1.5340     2.7200    -1.0430 H     1 <1>   0.0800 
 29 H        1.8340     1.9430     0.4920 H     1 <1>   0.0800 
 30 H       -1.6720     4.0560     1.2960 H     1 <1>   0.0800 
 31 H       -3.2560     2.0620     0.8340 H     1 <1>   0.0800 
 32 H       -2.5720     0.7240    -0.0580 H     1 <1>   0.0800 
 33 H       -3.2570     2.0820    -0.9190 H     1 <1>   0.0800 
 34 H        0.2000     4.7550    -0.9480 H     1 <1>   0.0800 
 35 H       -1.4430     3.9960    -2.4330 H     1 <1>   0.1500 
 36 H       -5.2210     6.5480    -0.6310 H     1 <1>   0.1500 
 37 H       -4.7230     5.9810     1.5390 H     1 <1>   0.0800 
 38 H       -3.0130     6.0870     1.8310 H     1 <1>   0.0800 
 39 H       -3.8140     4.5290     1.8230 H     1 <1>   0.0800 
 40 H       -3.0000     5.1050    -3.9460 H     1 <1>   0.1500 
 41 H        1.1390     6.9210    -0.7700 H     1 <1>   0.3700 
 42 H       -4.8940     6.3870    -3.0430 H     1 <1>   0.1500 
 43 H       -0.1630     8.8590     0.7050 H     1 <1>   0.0800 
 44 H        1.2070     8.3120     1.6540 H     1 <1>   0.0800 
 45 H        3.5130     9.6460    -2.7560 H     1 <1>   0.1500 
 46 H        3.4740    11.7110    -1.0320 H     1 <1>   0.1500 
 47 H        1.1310    10.7230     1.8610 H     1 <1>   0.0800 
 48 H        1.9080    13.1710     0.2550 H     1 <1>   0.0800 
 49 H        0.9300    13.1520     1.6990 H     1 <1>   0.0800 
 50 H        0.3320    12.4050     0.2410 H     1 <1>   0.0800 
 51 H        3.8400    12.0400     1.5300 H     1 <1>   0.0800 
 52 H        3.5330    10.5450     2.3900 H     1 <1>   0.0800 
 53 H        2.8670    12.0450     2.9780 H     1 <1>   0.0800 
@<TRIPOS>BOND
  1   1   2  2   
  2   2   3  am  
  3   2   4  1   
  4   3   5  1   
  5   3   6  1   
  6   4   7  1   
  7   4  28  1   
  8   4  29  1   
  9   5   8  1   
 10   5   9  1   
 11   5  30  1   
 12   6  31  1   
 13   6  32  1   
 14   6  33  1   
 15   7   9  1   
 16   8  10  ar  
 17   8  11  ar  
 18   9  12  1   
 19   9  34  1   
 20  10  13  ar  
 21  10  14  1   
 22  11  15  ar  
 23  11  35  1   
 24  12  16  2   
 25  12  17  am  
 26  13  18  ar  
 27  13  36  1   
 28  14  37  1   
 29  14  38  1   
 30  14  39  1   
 31  15  18  ar  
 32  15  40  1   
 33  17  19  1   
 34  17  41  1   
 35  18  42  1   
 36  19  20  1   
 37  19  43  1   
 38  19  44  1   
 39  20  21  2   
 40  20  22  1   
 41  21  23  1   
 42  22  24  1   
 43  22  25  1   
 44  23  24  2   
 45  23  45  1   
 46  24  46  1   
 47  25  26  1   
 48  25  27  1   
 49  25  47  1   
 50  26  48  1   
 51  26  49  1   
 52  26  50  1   
 53  27  51  1   
 54  27  52  1   
 55  27  53  1   
@<TRIPOS>SUBSTRUCTURE
  1 ****  12 GROUP 4 **** **** 0

# MOE 2024.06 (io_trps.svl 2023.06)
