@<TRIPOS>MOLECULE
NONAME
59 62 1 0 0 
SMALL
USER_CHARGES


@<TRIPOS>ATOM
  1 O       -2.6120     2.1300     2.0850 O.2   1 <1>  -0.5700 
  2 C       -2.6500     1.8670     0.9050 C.2   1 <1>   0.5770 
  3 N       -3.6980     1.1310     0.3890 N.am  1 <1>  -0.6600 
  4 C       -1.4740     2.3340     0.0300 C.3   1 <1>   0.0530 
  5 C       -3.8120     0.5980    -1.0000 C.3   1 <1>   0.1400 
  6 C       -4.8630     0.7550     1.2400 C.3   1 <1>   0.1400 
  7 C       -0.7060     3.5820     0.5820 C.3   1 <1>   0.0000 
  8 C       -1.9010     3.2550    -1.1620 C.3   1 <1>   0.0000 
  9 C       -0.5340     1.1500    -0.2660 C.3   1 <1>   0.1200 
 10 C       -3.8890    -0.9300    -0.9480 C.3   1 <1>  -0.1600 
 11 C       -4.9520    -0.7700     1.3280 C.3   1 <1>  -0.1600 
 12 C       -1.7010     4.4650    -0.2130 C.3   1 <1>   0.0000 
 13 O        0.4260     1.4870    -1.2210 O.3   1 <1>  -0.5600 
 14 C       -5.0470    -1.4170    -0.0650 C.3   1 <1>   0.4240 
 15 C        1.3430     0.4750    -1.4810 C.3   1 <1>   0.0400 
 16 O       -6.2130    -0.9380    -0.6930 O.3   1 <1>  -0.5600 
 17 C       -5.0370    -2.9570     0.0280 C.ar  1 <1>  -0.1430 
 18 C       -7.4130    -1.5840    -0.3990 C.3   1 <1>   0.1200 
 19 C       -6.1230    -3.7120    -0.3960 C.ar  1 <1>  -0.1430 
 20 C       -3.9360    -3.6250     0.5470 C.ar  1 <1>  -0.1500 
 21 C       -7.3500    -3.0090    -0.9420 C.3   1 <1>  -0.0170 
 22 C       -6.0920    -5.0960    -0.3220 C.ar  1 <1>  -0.1500 
 23 C       -3.8910    -5.0060     0.6400 C.ar  1 <1>   0.0820 
 24 C       -4.9800    -5.7640     0.1830 C.ar  1 <1>   0.0820 
 25 O       -2.7420    -5.5010     1.1840 O.3   1 <1>  -0.3630 
 26 O       -4.9320    -7.1280     0.2230 O.3   1 <1>  -0.3630 
 27 C       -2.7360    -6.7090     1.9130 C.3   1 <1>   0.0400 
 28 C       -5.8590    -7.9290    -0.4770 C.3   1 <1>   0.0400 
 29 H       -2.9770     0.8870    -1.6090 H     1 <1>   0.0800 
 30 H       -4.7040     0.9950    -1.4550 H     1 <1>   0.0800 
 31 H       -5.7620     1.1520     0.8010 H     1 <1>   0.0800 
 32 H       -4.7700     1.1680     2.2300 H     1 <1>   0.0800 
 33 H        0.2960     3.6750     0.1990 H     1 <1>   0.0000 
 34 H       -0.7500     3.7330     1.6450 H     1 <1>   0.0000 
 35 H       -2.9210     3.1590    -1.4850 H     1 <1>   0.0000 
 36 H       -1.2040     3.2720    -1.9810 H     1 <1>   0.0000 
 37 H       -1.0880     0.3080    -0.6370 H     1 <1>   0.0800 
 38 H       -0.0290     0.8630     0.6410 H     1 <1>   0.0800 
 39 H       -2.9560    -1.3030    -0.5730 H     1 <1>   0.0800 
 40 H       -4.0190    -1.3230    -1.9400 H     1 <1>   0.0800 
 41 H       -5.7950    -1.0560     1.9270 H     1 <1>   0.0800 
 42 H       -4.0730    -1.1240     1.8340 H     1 <1>   0.0800 
 43 H       -1.2450     5.3170    -0.6840 H     1 <1>   0.0000 
 44 H       -2.5870     4.7050     0.3500 H     1 <1>   0.0000 
 45 H        2.0300     0.8310    -2.2290 H     1 <1>   0.0800 
 46 H        0.8230    -0.3920    -1.8500 H     1 <1>   0.0800 
 47 H        1.8800     0.2410    -0.5780 H     1 <1>   0.0800 
 48 H       -8.2070    -1.0350    -0.8730 H     1 <1>   0.0800 
 49 H       -7.5670    -1.5810     0.6650 H     1 <1>   0.0800 
 50 H       -3.0810    -3.0770     0.8970 H     1 <1>   0.1500 
 51 H       -7.3050    -2.9810    -2.0160 H     1 <1>   0.0800 
 52 H       -8.2410    -3.5360    -0.6530 H     1 <1>   0.0800 
 53 H       -6.9500    -5.6390    -0.6650 H     1 <1>   0.1500 
 54 H       -1.8510    -6.7280     2.5230 H     1 <1>   0.0800 
 55 H       -2.7160    -7.5310     1.2200 H     1 <1>   0.0800 
 56 H       -3.6140    -6.7520     2.5320 H     1 <1>   0.0800 
 57 H       -5.5420    -8.9530    -0.3960 H     1 <1>   0.0800 
 58 H       -5.8680    -7.6310    -1.5100 H     1 <1>   0.0800 
 59 H       -6.8300    -7.8120    -0.0300 H     1 <1>   0.0800 
@<TRIPOS>BOND
  1   1   2  2   
  2   2   3  am  
  3   2   4  1   
  4   3   5  1   
  5   3   6  1   
  6   4   7  1   
  7   4   8  1   
  8   4   9  1   
  9   5  10  1   
 10   5  29  1   
 11   5  30  1   
 12   6  11  1   
 13   6  31  1   
 14   6  32  1   
 15   7  12  1   
 16   7  33  1   
 17   7  34  1   
 18   8  12  1   
 19   8  35  1   
 20   8  36  1   
 21   9  13  1   
 22   9  37  1   
 23   9  38  1   
 24  10  14  1   
 25  10  39  1   
 26  10  40  1   
 27  11  14  1   
 28  11  41  1   
 29  11  42  1   
 30  12  43  1   
 31  12  44  1   
 32  13  15  1   
 33  14  16  1   
 34  14  17  1   
 35  15  45  1   
 36  15  46  1   
 37  15  47  1   
 38  16  18  1   
 39  17  19  ar  
 40  17  20  ar  
 41  18  21  1   
 42  18  48  1   
 43  18  49  1   
 44  19  21  1   
 45  19  22  ar  
 46  20  23  ar  
 47  20  50  1   
 48  21  51  1   
 49  21  52  1   
 50  22  24  ar  
 51  22  53  1   
 52  23  24  ar  
 53  23  25  1   
 54  24  26  1   
 55  25  27  1   
 56  26  28  1   
 57  27  54  1   
 58  27  55  1   
 59  27  56  1   
 60  28  57  1   
 61  28  58  1   
 62  28  59  1   
@<TRIPOS>SUBSTRUCTURE
  1 ****  10 GROUP 4 **** **** 0

# MOE 2024.06 (io_trps.svl 2023.06)
