@<TRIPOS>MOLECULE
NONAME
43 45 1 0 0 
SMALL
USER_CHARGES


@<TRIPOS>ATOM
  1 F        1.8800    -4.6130     1.9710 F     1 <1>  -0.1900 
  2 C        1.6870    -4.2450     0.7320 C.ar  1 <1>   0.1900 
  3 C        0.6320    -3.3990     0.4170 C.ar  1 <1>  -0.0320 
  4 C        2.5680    -4.7290    -0.2180 C.ar  1 <1>  -0.1500 
  5 C        0.4840    -3.0340    -0.9160 C.ar  1 <1>  -0.1500 
  6 C       -0.3330    -2.8930     1.4920 C.3   1 <1>   0.0320 
  7 C        2.3970    -4.3560    -1.5390 C.ar  1 <1>  -0.1500 
  8 C        1.3560    -3.5090    -1.8840 C.ar  1 <1>  -0.1500 
  9 C       -1.1800    -4.0180     2.1100 C.2   1 <1>   0.6300 
 10 C        0.1800    -1.7930     2.3820 C.3   1 <1>  -0.2000 
 11 C       -0.9110    -1.5030     1.4070 C.3   1 <1>  -0.2000 
 12 O       -0.9320    -4.3580     3.2450 O.2   1 <1>  -0.5700 
 13 N       -2.1920    -4.6190     1.4050 N.am  1 <1>  -0.6600 
 14 C       -2.7550    -5.9240     1.8810 C.3   1 <1>   0.3210 
 15 C       -2.6910    -4.1600     0.0660 C.3   1 <1>   0.1400 
 16 C       -2.4820    -7.0290     0.8670 C.2   1 <1>   0.0460 
 17 C       -4.1830    -3.8100     0.1070 C.3   1 <1>   0.1200 
 18 N       -3.4300    -7.4190    -0.0120 N.2   1 <1>  -0.5650 
 19 C       -1.3380    -7.7300     0.6880 C.2   1 <1>  -0.3320 
 20 O       -4.4140    -2.9240     1.1480 O.3   1 <1>  -0.6800 
 21 C       -2.8480    -8.3480    -0.6980 C.2   1 <1>   0.0360 
 22 N       -1.5740    -8.5860    -0.3220 N.pl3 1 <1>   0.0330 
 23 C       -0.0040    -7.6360     1.4100 C.3   1 <1>  -0.0600 
 24 H        3.3700    -5.3810     0.0760 H     1 <1>   0.1500 
 25 H       -0.3120    -2.3750    -1.2130 H     1 <1>   0.1500 
 26 H        3.0710    -4.7200    -2.2960 H     1 <1>   0.1500 
 27 H        1.2260    -3.2160    -2.9120 H     1 <1>   0.1500 
 28 H        1.1660    -1.4060     2.1970 H     1 <1>   0.1000 
 29 H       -0.0520    -1.8370     3.4330 H     1 <1>   0.1000 
 30 H       -1.9060    -1.3370     1.7840 H     1 <1>   0.1000 
 31 H       -0.6770    -0.8650     0.5740 H     1 <1>   0.1000 
 32 H       -3.8140    -5.8330     2.0350 H     1 <1>   0.0800 
 33 H       -2.3170    -6.2120     2.8200 H     1 <1>   0.0800 
 34 H       -2.5210    -4.9270    -0.6700 H     1 <1>   0.0800 
 35 H       -2.1620    -3.2870    -0.2600 H     1 <1>   0.0800 
 36 H       -4.7770    -4.6940     0.2670 H     1 <1>   0.0800 
 37 H       -4.4940    -3.3440    -0.8110 H     1 <1>   0.0800 
 38 H       -3.9410    -3.2490     1.9430 H     1 <1>   0.4000 
 39 H       -3.3180    -8.8930    -1.4990 H     1 <1>   0.1500 
 40 H       -0.9280    -9.2710    -0.7240 H     1 <1>   0.2700 
 41 H       -0.0390    -6.8820     2.1760 H     1 <1>   0.0800 
 42 H        0.7750    -7.3730     0.7170 H     1 <1>   0.0800 
 43 H        0.2390    -8.5770     1.8710 H     1 <1>   0.0800 
@<TRIPOS>BOND
  1   1   2  1   
  2   2   3  ar  
  3   2   4  ar  
  4   3   5  ar  
  5   3   6  1   
  6   4   7  ar  
  7   4  24  1   
  8   5   8  ar  
  9   5  25  1   
 10   6   9  1   
 11   6  10  1   
 12   6  11  1   
 13   7   8  ar  
 14   7  26  1   
 15   8  27  1   
 16   9  12  2   
 17   9  13  am  
 18  10  11  1   
 19  10  28  1   
 20  10  29  1   
 21  11  30  1   
 22  11  31  1   
 23  13  14  1   
 24  13  15  1   
 25  14  16  1   
 26  14  32  1   
 27  14  33  1   
 28  15  17  1   
 29  15  34  1   
 30  15  35  1   
 31  16  18  1   
 32  16  19  2   
 33  17  20  1   
 34  17  36  1   
 35  17  37  1   
 36  18  21  2   
 37  19  22  1   
 38  19  23  1   
 39  20  38  1   
 40  21  22  1   
 41  21  39  1   
 42  22  40  1   
 43  23  41  1   
 44  23  42  1   
 45  23  43  1   
@<TRIPOS>SUBSTRUCTURE
  1 ****  13 GROUP 4 **** **** 0

# MOE 2024.06 (io_trps.svl 2023.06)
