@<TRIPOS>MOLECULE
NONAME
43 45 1 0 0 
SMALL
USER_CHARGES


@<TRIPOS>ATOM
  1 O       -2.3110     0.3130     2.2220 O.2   1 <1>  -0.5700 
  2 C       -2.3790     0.9120     1.1740 C.2   1 <1>   0.5690 
  3 N       -2.4520     0.2610    -0.0310 N.am  1 <1>  -0.6600 
  4 C       -2.3560     2.4300     1.2350 C.3   1 <1>   0.0810 
  5 C       -2.1950    -1.2190    -0.0780 C.3   1 <1>   0.3640 
  6 C       -2.7870     0.9570    -1.3170 C.3   1 <1>   0.1400 
  7 C       -1.0640     2.9700     0.6520 C.2   1 <1>  -0.0400 
  8 C       -0.6840    -1.4810    -0.1040 C.ar  1 <1>  -0.1440 
  9 C       -2.8940    -1.9720    -1.2500 C.3   1 <1>   0.2000 
 10 C       -2.9590     0.0030    -2.5070 C.3   1 <1>   0.1200 
 11 O       -1.0250     4.1720     0.1450 O.3   1 <1>  -0.0190 
 12 C        0.1550     2.4250     0.5210 C.2   1 <1>  -0.1500 
 13 C        0.1820    -0.7960    -0.9480 C.ar  1 <1>  -0.1500 
 14 C       -0.1590    -2.4460     0.7460 C.ar  1 <1>  -0.1500 
 15 O       -3.6410    -1.1370    -2.0980 O.3   1 <1>  -0.5600 
 16 C       -3.8480    -3.0620    -0.7440 C.3   1 <1>   0.1200 
 17 N        0.1540     4.4570    -0.3290 N.2   1 <1>  -0.4100 
 18 C        0.8870     3.4240    -0.1120 C.2   1 <1>   0.1080 
 19 C        1.5380    -1.0740    -0.9480 C.ar  1 <1>  -0.1500 
 20 C        1.1960    -2.7250     0.7500 C.ar  1 <1>  -0.1500 
 21 O       -3.1480    -4.0350    -0.0350 O.3   1 <1>  -0.6800 
 22 C        2.3460     3.3150    -0.4930 C.3   1 <1>  -0.0590 
 23 C        2.0470    -2.0400    -0.0990 C.ar  1 <1>  -0.1500 
 24 H       -3.1970     2.8210     0.6950 H     1 <1>   0.0800 
 25 H       -2.4420     2.7510     2.2560 H     1 <1>   0.0800 
 26 H       -2.5710    -1.6420     0.8380 H     1 <1>   0.0800 
 27 H       -3.7110     1.4930    -1.1870 H     1 <1>   0.0800 
 28 H       -2.0210     1.6750    -1.5530 H     1 <1>   0.0800 
 29 H       -2.1460    -2.4430    -1.8640 H     1 <1>   0.0800 
 30 H       -2.0100    -0.2870    -2.9220 H     1 <1>   0.0800 
 31 H       -3.5380     0.4780    -3.2790 H     1 <1>   0.0800 
 32 H        0.5110     1.4540     0.8200 H     1 <1>   0.1500 
 33 H       -0.1870    -0.0360    -1.6090 H     1 <1>   0.1500 
 34 H       -0.8090    -2.9860     1.4150 H     1 <1>   0.1500 
 35 H       -4.3460    -3.5420    -1.5690 H     1 <1>   0.0800 
 36 H       -4.5800    -2.6340    -0.0820 H     1 <1>   0.0800 
 37 H        2.1980    -0.5390    -1.6080 H     1 <1>   0.1500 
 38 H        1.5870    -3.4740     1.4160 H     1 <1>   0.1500 
 39 H       -2.5910    -4.5720    -0.6320 H     1 <1>   0.4000 
 40 H        2.5330     2.3670    -0.9630 H     1 <1>   0.0800 
 41 H        2.9560     3.4010     0.3870 H     1 <1>   0.0800 
 42 H        2.6070     4.1030    -1.1760 H     1 <1>   0.0800 
 43 H        3.1000    -2.2580    -0.0960 H     1 <1>   0.1500 
@<TRIPOS>BOND
  1   1   2  2   
  2   2   3  am  
  3   2   4  1   
  4   3   5  1   
  5   3   6  1   
  6   4   7  1   
  7   4  24  1   
  8   4  25  1   
  9   5   8  1   
 10   5   9  1   
 11   5  26  1   
 12   6  10  1   
 13   6  27  1   
 14   6  28  1   
 15   7  11  1   
 16   7  12  2   
 17   8  13  ar  
 18   8  14  ar  
 19   9  15  1   
 20   9  16  1   
 21   9  29  1   
 22  10  15  1   
 23  10  30  1   
 24  10  31  1   
 25  11  17  1   
 26  12  18  1   
 27  12  32  1   
 28  13  19  ar  
 29  13  33  1   
 30  14  20  ar  
 31  14  34  1   
 32  16  21  1   
 33  16  35  1   
 34  16  36  1   
 35  17  18  2   
 36  18  22  1   
 37  19  23  ar  
 38  19  37  1   
 39  20  23  ar  
 40  20  38  1   
 41  21  39  1   
 42  22  40  1   
 43  22  41  1   
 44  22  42  1   
 45  23  43  1   
@<TRIPOS>SUBSTRUCTURE
  1 ****   3 GROUP 4 **** **** 0

# MOE 2024.06 (io_trps.svl 2023.06)
