@<TRIPOS>MOLECULE
NONAME
52 54 1 0 0 
SMALL
USER_CHARGES


@<TRIPOS>ATOM
  1 O        0.0070     1.6840    -1.7970 O.2   1 <1>  -0.5700 
  2 C       -0.3670     2.7890    -1.4810 C.2   1 <1>   0.5690 
  3 N       -1.1910     3.0410    -0.4130 N.am  1 <1>  -0.6600 
  4 C        0.1050     3.9620    -2.3360 C.3   1 <1>   0.1810 
  5 C       -1.6170     4.4460    -0.0900 C.3   1 <1>   0.3640 
  6 C       -1.6570     2.0120     0.5590 C.3   1 <1>   0.2200 
  7 O        0.2570     5.1310    -1.5750 O.3   1 <1>  -0.5600 
  8 C       -3.1370     4.5560    -0.2440 C.ar  1 <1>  -0.1440 
  9 C       -0.9320     5.5630    -0.9320 C.3   1 <1>   0.2610 
 10 C       -0.4660     1.4330     1.3210 C.3   1 <1>  -0.2400 
 11 C       -2.4800     0.9220    -0.1300 C.3   1 <1>  -0.2400 
 12 C       -3.7830     4.0660    -1.3730 C.ar  1 <1>  -0.1500 
 13 C       -3.8920     5.1620     0.7500 C.ar  1 <1>  -0.1500 
 14 C       -0.6310     6.7910    -0.0590 C.2   1 <1>   0.5690 
 15 C       -5.1570     4.1770    -1.5020 C.ar  1 <1>  -0.1500 
 16 C       -5.2650     5.2730     0.6230 C.ar  1 <1>  -0.1500 
 17 O       -1.3860     7.1130     0.8290 O.2   1 <1>  -0.5700 
 18 N        0.5020     7.4990    -0.2950 N.am  1 <1>  -0.7300 
 19 C       -5.8990     4.7810    -0.5040 C.ar  1 <1>  -0.1500 
 20 C        1.0060     8.6070     0.5310 C.3   1 <1>   0.2840 
 21 C        2.5260     8.5720     0.5040 C.ar  1 <1>  -0.1440 
 22 C        3.2820     7.6540     1.2170 C.ar  1 <1>  -0.1440 
 23 C        3.2280     9.4820    -0.2620 C.ar  1 <1>  -0.1500 
 24 C        4.6660     7.7080     1.1180 C.ar  1 <1>   0.1600 
 25 C        2.6310     6.5920     2.0960 C.3   1 <1>  -0.0970 
 26 C        4.6110     9.4420    -0.2840 C.ar  1 <1>   0.1600 
 27 N        5.3470     8.5760     0.3880 N.ar  1 <1>  -0.6200 
 28 H       -0.5990     4.1480    -3.1260 H     1 <1>   0.0800 
 29 H        1.0610     3.7250    -2.7660 H     1 <1>   0.0800 
 30 H       -1.3680     4.6150     0.9430 H     1 <1>   0.0800 
 31 H       -2.3020     2.4860     1.2800 H     1 <1>   0.0800 
 32 H       -1.6080     5.8810    -1.7050 H     1 <1>   0.0800 
 33 H        0.1790     0.8800     0.6620 H     1 <1>   0.0800 
 34 H       -0.8140     0.7630     2.0860 H     1 <1>   0.0800 
 35 H        0.0960     2.2210     1.7880 H     1 <1>   0.0800 
 36 H       -1.8760     0.3450    -0.8060 H     1 <1>   0.0800 
 37 H       -3.2990     1.3600    -0.6700 H     1 <1>   0.0800 
 38 H       -2.8840     0.2540     0.6080 H     1 <1>   0.0800 
 39 H       -3.2220     3.5880    -2.1560 H     1 <1>   0.1500 
 40 H       -3.4160     5.5590     1.6320 H     1 <1>   0.1500 
 41 H       -5.6480     3.7920    -2.3780 H     1 <1>   0.1500 
 42 H       -5.8400     5.7470     1.4000 H     1 <1>   0.1500 
 43 H        1.1680     7.1240    -0.9790 H     1 <1>   0.3700 
 44 H       -6.9670     4.8680    -0.6030 H     1 <1>   0.1500 
 45 H        0.6440     9.5380     0.1290 H     1 <1>   0.0800 
 46 H        0.6420     8.5140     1.5400 H     1 <1>   0.0800 
 47 H        2.7130    10.2230    -0.8460 H     1 <1>   0.1500 
 48 H        5.2520     6.9950     1.6700 H     1 <1>   0.1500 
 49 H        1.9940     7.0540     2.8290 H     1 <1>   0.0800 
 50 H        3.3730     6.0130     2.6150 H     1 <1>   0.0800 
 51 H        2.0430     5.9240     1.4930 H     1 <1>   0.0800 
 52 H        5.1390    10.1610    -0.8870 H     1 <1>   0.1500 
@<TRIPOS>BOND
  1   1   2  2   
  2   2   3  am  
  3   2   4  1   
  4   3   5  1   
  5   3   6  1   
  6   4   7  1   
  7   4  28  1   
  8   4  29  1   
  9   5   8  1   
 10   5   9  1   
 11   5  30  1   
 12   6  10  1   
 13   6  11  1   
 14   6  31  1   
 15   7   9  1   
 16   8  12  ar  
 17   8  13  ar  
 18   9  14  1   
 19   9  32  1   
 20  10  33  1   
 21  10  34  1   
 22  10  35  1   
 23  11  36  1   
 24  11  37  1   
 25  11  38  1   
 26  12  15  ar  
 27  12  39  1   
 28  13  16  ar  
 29  13  40  1   
 30  14  17  2   
 31  14  18  am  
 32  15  19  ar  
 33  15  41  1   
 34  16  19  ar  
 35  16  42  1   
 36  18  20  1   
 37  18  43  1   
 38  19  44  1   
 39  20  21  1   
 40  20  45  1   
 41  20  46  1   
 42  21  22  ar  
 43  21  23  ar  
 44  22  24  ar  
 45  22  25  1   
 46  23  26  ar  
 47  23  47  1   
 48  24  27  ar  
 49  24  48  1   
 50  25  49  1   
 51  25  50  1   
 52  25  51  1   
 53  26  27  ar  
 54  26  52  1   
@<TRIPOS>SUBSTRUCTURE
  1 ****   9 GROUP 4 **** **** 0

# MOE 2024.06 (io_trps.svl 2023.06)
