@<TRIPOS>MOLECULE
NONAME
48 50 1 0 0 
SMALL
USER_CHARGES


@<TRIPOS>ATOM
  1 F        2.5360     0.4470     2.1340 F     1 <1>  -0.3400 
  2 C        2.8330     0.3740     0.8430 C.3   1 <1>   1.1640 
  3 F        1.6830     0.4910     0.1910 F     1 <1>  -0.3400 
  4 F        3.5430     1.4570     0.5560 F     1 <1>  -0.3400 
  5 C        3.5420    -0.9460     0.4930 C.ar  1 <1>  -0.1440 
  6 C        2.9530    -2.1590     0.8290 C.ar  1 <1>  -0.1500 
  7 C        4.7670    -0.9690    -0.1590 C.ar  1 <1>  -0.1500 
  8 C        3.5510    -3.3740     0.5180 C.ar  1 <1>  -0.1440 
  9 C        5.3830    -2.1710    -0.4510 C.ar  1 <1>  -0.1500 
 10 C        4.7950    -3.3780    -0.1100 C.ar  1 <1>  -0.1430 
 11 C        2.8180    -4.6540     0.8930 C.3   1 <1>   0.4870 
 12 C        5.5710    -4.6490    -0.4310 C.3   1 <1>  -0.0960 
 13 N        2.4090    -5.3540    -0.3630 N.4   1 <1>  -0.9590 
 14 C        0.9680    -5.2840    -0.7500 C.3   1 <1>   0.4230 
 15 C        2.8710    -6.7770    -0.3550 C.3   1 <1>   0.2630 
 16 C       -0.0020    -5.8470     0.2880 C.3   1 <1>  -0.1600 
 17 C        0.4540    -3.8760    -1.0130 C.3   1 <1>  -0.1600 
 18 C       -1.3690    -5.2980    -0.1440 C.3   1 <1>  -0.0800 
 19 C       -1.0730    -4.0150    -0.9630 C.3   1 <1>  -0.0800 
 20 C       -2.3600    -5.1330     1.0290 C.3   1 <1>   0.1400 
 21 C       -1.7840    -2.7480    -0.4440 C.3   1 <1>  -0.0990 
 22 N       -3.4320    -4.1970     0.6390 N.am  1 <1>  -0.7300 
 23 C       -3.2130    -3.0620    -0.0560 C.2   1 <1>   0.5690 
 24 O       -4.1110    -2.3210    -0.3550 O.2   1 <1>  -0.5700 
 25 H        2.0070    -2.1400     1.3460 H     1 <1>   0.1500 
 26 H        5.2600    -0.0520    -0.4420 H     1 <1>   0.1500 
 27 H        6.3400    -2.1510    -0.9460 H     1 <1>   0.1500 
 28 H        1.9590    -4.4210     1.4980 H     1 <1>   0.0800 
 29 H        3.4790    -5.2770     1.4720 H     1 <1>   0.0800 
 30 H        6.6140    -4.4240    -0.5770 H     1 <1>   0.0800 
 31 H        5.2040    -5.0990    -1.3350 H     1 <1>   0.0800 
 32 H        5.5110    -5.3520     0.3800 H     1 <1>   0.0800 
 33 H        2.9290    -4.8480    -1.0950 H     1 <1>   0.4500 
 34 H        0.8270    -5.8450    -1.6620 H     1 <1>   0.0800 
 35 H        2.3640    -7.3320     0.4180 H     1 <1>   0.0800 
 36 H        3.9320    -6.8290    -0.1740 H     1 <1>   0.0800 
 37 H        2.6650    -7.2420    -1.3050 H     1 <1>   0.0800 
 38 H       -0.0070    -6.9230     0.2910 H     1 <1>   0.0800 
 39 H        0.2330    -5.4830     1.2710 H     1 <1>   0.0800 
 40 H        0.7640    -3.2060    -0.2390 H     1 <1>   0.0800 
 41 H        0.7800    -3.5000    -1.9680 H     1 <1>   0.0800 
 42 H       -1.8110    -6.0100    -0.8230 H     1 <1>   0.0800 
 43 H       -1.4330    -4.1910    -1.9650 H     1 <1>   0.0800 
 44 H       -1.8620    -4.7310     1.8950 H     1 <1>   0.0800 
 45 H       -2.7880    -6.0860     1.2920 H     1 <1>   0.0800 
 46 H       -1.7800    -1.9820    -1.1990 H     1 <1>   0.0800 
 47 H       -1.2940    -2.3610     0.4300 H     1 <1>   0.0800 
 48 H       -4.3940    -4.3910     0.9300 H     1 <1>   0.3700 
@<TRIPOS>BOND
  1   1   2  1   
  2   2   3  1   
  3   2   4  1   
  4   2   5  1   
  5   5   6  ar  
  6   5   7  ar  
  7   6   8  ar  
  8   6  25  1   
  9   7   9  ar  
 10   7  26  1   
 11   8  10  ar  
 12   8  11  1   
 13   9  10  ar  
 14   9  27  1   
 15  10  12  1   
 16  11  13  1   
 17  11  28  1   
 18  11  29  1   
 19  12  30  1   
 20  12  31  1   
 21  12  32  1   
 22  13  14  1   
 23  13  15  1   
 24  13  33  1   
 25  14  16  1   
 26  14  17  1   
 27  14  34  1   
 28  15  35  1   
 29  15  36  1   
 30  15  37  1   
 31  16  18  1   
 32  16  38  1   
 33  16  39  1   
 34  17  19  1   
 35  17  40  1   
 36  17  41  1   
 37  18  19  1   
 38  18  20  1   
 39  18  42  1   
 40  19  21  1   
 41  19  43  1   
 42  20  22  1   
 43  20  44  1   
 44  20  45  1   
 45  21  23  1   
 46  21  46  1   
 47  21  47  1   
 48  22  23  am  
 49  22  48  1   
 50  23  24  2   
@<TRIPOS>SUBSTRUCTURE
  1 ****  17 GROUP 4 **** **** 0

# MOE 2024.06 (io_trps.svl 2023.06)
