@<TRIPOS>MOLECULE
NONAME
39 40 1 0 0 
SMALL
USER_CHARGES


@<TRIPOS>ATOM
  1 S        1.4160     0.0940     1.4290 S.3   1 <1>  -0.0800 
  2 C       -0.2010    -0.0500     0.7940 C.2   1 <1>   0.1980 
  3 C        1.4410     1.7530     0.9130 C.2   1 <1>  -0.1100 
  4 N       -0.6530     1.0210     0.2790 N.2   1 <1>  -0.5650 
  5 C       -0.9100    -1.3960     0.9030 C.3   1 <1>   0.5230 
  6 C        0.2690     2.0830     0.3200 C.2   1 <1>   0.1410 
  7 N       -2.1790    -1.3630     0.0980 N.4   1 <1>  -0.9590 
  8 C       -0.0740     3.3810    -0.2540 C.2   1 <1>   0.7160 
  9 C       -3.1760    -2.3820     0.5370 C.3   1 <1>   0.2630 
 10 C       -1.9020    -1.4400    -1.3710 C.3   1 <1>   0.2630 
 11 O       -0.9560     3.4780    -1.0840 O.2   1 <1>  -0.5700 
 12 N        0.6010     4.5010     0.1690 N.am  1 <1>  -0.4940 
 13 C        0.5860     5.7970    -0.3580 C.2   1 <1>   0.2040 
 14 O        0.1050     6.0640    -1.5490 O.3   1 <1>  -0.0190 
 15 C        1.0440     6.9520     0.1650 C.2   1 <1>  -0.1810 
 16 N        0.2210     7.3320    -1.8480 N.2   1 <1>  -0.4100 
 17 C        0.7800     7.8870    -0.8350 C.2   1 <1>   0.1080 
 18 C        1.6930     7.2090     1.5150 C.3   1 <1>   0.0210 
 19 C        1.0910     9.3680    -0.7720 C.3   1 <1>  -0.0590 
 20 C        3.2180     7.2050     1.3920 C.3   1 <1>  -0.2400 
 21 H        2.3400     2.3130     1.0960 H     1 <1>   0.1500 
 22 H       -1.1360    -1.5770     1.9410 H     1 <1>   0.0800 
 23 H       -0.2620    -2.1800     0.5500 H     1 <1>   0.0800 
 24 H       -2.5520    -0.4080     0.2620 H     1 <1>   0.4500 
 25 H       -2.7930    -3.3770     0.3790 H     1 <1>   0.0800 
 26 H       -4.0910    -2.2730    -0.0240 H     1 <1>   0.0800 
 27 H       -3.4040    -2.2600     1.5840 H     1 <1>   0.0800 
 28 H       -1.4480    -2.3850    -1.6230 H     1 <1>   0.0800 
 29 H       -1.2360    -0.6440    -1.6670 H     1 <1>   0.0800 
 30 H       -2.8180    -1.3350    -1.9290 H     1 <1>   0.0800 
 31 H        1.1720     4.3860     0.9990 H     1 <1>   0.3700 
 32 H        1.3870     6.4500     2.2130 H     1 <1>   0.0800 
 33 H        1.3590     8.1570     1.9010 H     1 <1>   0.0800 
 34 H        2.1510     9.5170    -0.6950 H     1 <1>   0.0800 
 35 H        0.6030     9.8100     0.0760 H     1 <1>   0.0800 
 36 H        0.7380     9.8540    -1.6640 H     1 <1>   0.0800 
 37 H        3.5610     6.2590     1.0130 H     1 <1>   0.0800 
 38 H        3.6670     7.3770     2.3540 H     1 <1>   0.0800 
 39 H        3.5410     7.9800     0.7200 H     1 <1>   0.0800 
@<TRIPOS>BOND
  1   1   2  1   
  2   1   3  1   
  3   2   4  2   
  4   2   5  1   
  5   3   6  2   
  6   3  21  1   
  7   4   6  1   
  8   5   7  1   
  9   5  22  1   
 10   5  23  1   
 11   6   8  1   
 12   7   9  1   
 13   7  10  1   
 14   7  24  1   
 15   8  11  2   
 16   8  12  am  
 17   9  25  1   
 18   9  26  1   
 19   9  27  1   
 20  10  28  1   
 21  10  29  1   
 22  10  30  1   
 23  12  13  1   
 24  12  31  1   
 25  13  14  1   
 26  13  15  2   
 27  14  16  1   
 28  15  17  1   
 29  15  18  1   
 30  16  17  2   
 31  17  19  1   
 32  18  20  1   
 33  18  32  1   
 34  18  33  1   
 35  19  34  1   
 36  19  35  1   
 37  19  36  1   
 38  20  37  1   
 39  20  38  1   
 40  20  39  1   
@<TRIPOS>SUBSTRUCTURE
  1 ****   8 GROUP 4 **** **** 0

# MOE 2024.06 (io_trps.svl 2023.06)
