@<TRIPOS>MOLECULE
NONAME
53 55 1 0 0 
SMALL
USER_CHARGES


@<TRIPOS>ATOM
  1 O       -0.3400    -0.0260    -0.3690 O.2   1 <1>  -0.5700 
  2 C       -0.6660     0.7560     0.4980 C.2   1 <1>   0.5690 
  3 N       -1.9020     0.7130     1.0910 N.am  1 <1>  -0.6600 
  4 C        0.3530     1.8490     0.8610 C.3   1 <1>   0.4040 
  5 C       -2.3250     1.5630     2.2520 C.3   1 <1>   0.1400 
  6 C       -3.0450     0.2420     0.2700 C.3   1 <1>   0.1400 
  7 N        1.6560     1.7350     0.1020 N.4   1 <1>  -0.9590 
  8 C       -3.5490     2.4260     1.9000 C.3   1 <1>  -0.1600 
  9 C       -3.6740     1.4610    -0.4250 C.3   1 <1>  -0.1600 
 10 C        2.4870     0.6320     0.6580 C.3   1 <1>   0.3430 
 11 C        2.3290     3.0530    -0.0390 C.3   1 <1>   0.3430 
 12 C       -3.6020     2.7640     0.4040 C.3   1 <1>   0.4180 
 13 C        3.6900     0.3040    -0.2280 C.3   1 <1>  -0.1600 
 14 C        3.1550     3.0780    -1.3250 C.3   1 <1>  -0.1600 
 15 O       -2.3940     3.4210     0.0560 O.3   1 <1>  -0.5600 
 16 C       -4.8080     3.6400     0.0760 C.2   1 <1>  -0.2880 
 17 C        4.7830     1.3810    -0.1880 C.3   1 <1>  -0.1600 
 18 C        4.5840     2.5260    -1.1910 C.3   1 <1>  -0.1600 
 19 C       -2.3300     4.8040     0.2890 C.3   1 <1>   0.1200 
 20 C       -4.7280     4.8940    -0.3740 C.2   1 <1>  -0.2760 
 21 C       -3.3740     5.5490    -0.5510 C.3   1 <1>  -0.0220 
 22 C       -5.9240     5.7540    -0.7460 C.3   1 <1>  -0.1020 
 23 H        0.5400     1.8170     1.9200 H     1 <1>   0.0800 
 24 H       -0.1140     2.7920     0.6310 H     1 <1>   0.0800 
 25 H       -1.5240     2.2120     2.5560 H     1 <1>   0.0800 
 26 H       -2.5640     0.9260     3.0880 H     1 <1>   0.0800 
 27 H       -3.7650    -0.2340     0.9140 H     1 <1>   0.0800 
 28 H       -2.7300    -0.4840    -0.4620 H     1 <1>   0.0800 
 29 H        1.3660     1.4110    -0.8360 H     1 <1>   0.4500 
 30 H       -3.5570     3.3230     2.4910 H     1 <1>   0.0800 
 31 H       -4.4400     1.8840     2.1590 H     1 <1>   0.0800 
 32 H       -4.7000     1.2150    -0.6270 H     1 <1>   0.0800 
 33 H       -3.2030     1.6250    -1.3770 H     1 <1>   0.0800 
 34 H        1.8790    -0.2570     0.7390 H     1 <1>   0.0800 
 35 H        2.8300     0.8900     1.6470 H     1 <1>   0.0800 
 36 H        2.9500     3.2620     0.8160 H     1 <1>   0.0800 
 37 H        1.5790     3.8240    -0.1110 H     1 <1>   0.0800 
 38 H        3.3780     0.0990    -1.2380 H     1 <1>   0.0800 
 39 H        4.1180    -0.6060     0.1550 H     1 <1>   0.0800 
 40 H        3.2340     4.1000    -1.6510 H     1 <1>   0.0800 
 41 H        2.6290     2.5500    -2.1020 H     1 <1>   0.0800 
 42 H       -5.7460     3.1400     0.2350 H     1 <1>   0.1500 
 43 H        5.7300     0.9170    -0.4110 H     1 <1>   0.0800 
 44 H        4.8660     1.7790     0.8100 H     1 <1>   0.0800 
 45 H        5.2440     3.3290    -0.9080 H     1 <1>   0.0800 
 46 H        4.9070     2.1950    -2.1650 H     1 <1>   0.0800 
 47 H       -1.3430     5.1400     0.0310 H     1 <1>   0.0800 
 48 H       -2.5000     4.9850     1.3360 H     1 <1>   0.0800 
 49 H       -3.0930     5.5360    -1.5890 H     1 <1>   0.0800 
 50 H       -3.4100     6.5730    -0.2240 H     1 <1>   0.0800 
 51 H       -5.8590     6.0500    -1.7780 H     1 <1>   0.0800 
 52 H       -5.9560     6.6350    -0.1310 H     1 <1>   0.0800 
 53 H       -6.8400     5.2070    -0.6050 H     1 <1>   0.0800 
@<TRIPOS>BOND
  1   1   2  2   
  2   2   3  am  
  3   2   4  1   
  4   3   5  1   
  5   3   6  1   
  6   4   7  1   
  7   4  23  1   
  8   4  24  1   
  9   5   8  1   
 10   5  25  1   
 11   5  26  1   
 12   6   9  1   
 13   6  27  1   
 14   6  28  1   
 15   7  10  1   
 16   7  11  1   
 17   7  29  1   
 18   8  12  1   
 19   8  30  1   
 20   8  31  1   
 21   9  12  1   
 22   9  32  1   
 23   9  33  1   
 24  10  13  1   
 25  10  34  1   
 26  10  35  1   
 27  11  14  1   
 28  11  36  1   
 29  11  37  1   
 30  12  15  1   
 31  12  16  1   
 32  13  17  1   
 33  13  38  1   
 34  13  39  1   
 35  14  18  1   
 36  14  40  1   
 37  14  41  1   
 38  15  19  1   
 39  16  20  2   
 40  16  42  1   
 41  17  18  1   
 42  17  43  1   
 43  17  44  1   
 44  18  45  1   
 45  18  46  1   
 46  19  21  1   
 47  19  47  1   
 48  19  48  1   
 49  20  21  1   
 50  20  22  1   
 51  21  49  1   
 52  21  50  1   
 53  22  51  1   
 54  22  52  1   
 55  22  53  1   
@<TRIPOS>SUBSTRUCTURE
  1 ****   4 GROUP 4 **** **** 0

# MOE 2024.06 (io_trps.svl 2023.06)
