@<TRIPOS>MOLECULE
NONAME
36 37 1 0 0 
SMALL
USER_CHARGES


@<TRIPOS>ATOM
  1 O        0.5390     0.1640     2.2110 O.3   1 <1>  -0.6800 
  2 C        1.4230    -0.5080     1.3810 C.3   1 <1>   0.1200 
  3 C        2.1190     0.5130     0.4710 C.3   1 <1>   0.1100 
  4 N        3.2590    -0.0580    -0.3000 N.3   1 <1>  -0.8100 
  5 C        3.9500     1.0220    -1.0420 C.3   1 <1>   0.2900 
  6 C        2.8000    -1.0960    -1.2570 C.3   1 <1>   0.2900 
  7 C        4.5900     2.0720    -0.1420 C.2   1 <1>   0.0060 
  8 C        2.7500    -2.4640    -0.5970 C.2   1 <1>   0.0060 
  9 N        4.4870     3.3370    -0.3550 N.2   1 <1>  -0.5650 
 10 N        5.3360     1.8220     0.9470 N.pl3 1 <1>   0.3140 
 11 N        1.8060    -3.3330    -0.7670 N.2   1 <1>  -0.5650 
 12 N        3.7180    -2.8780     0.2460 N.pl3 1 <1>   0.0330 
 13 C        5.2030     3.8400     0.6560 C.2   1 <1>   0.3660 
 14 N        5.7340     2.9800     1.4590 N.2   1 <1>  -0.7070 
 15 C        5.7070     0.5410     1.5900 C.3   1 <1>   0.0960 
 16 C        2.1810    -4.3720     0.0050 C.2   1 <1>   0.0770 
 17 C        3.3470    -4.1110     0.6340 C.2   1 <1>  -0.3020 
 18 C        6.7360    -0.2390     0.7600 C.3   1 <1>  -0.2400 
 19 H        0.0370    -0.4700     2.7600 H     1 <1>   0.4000 
 20 H        0.8570    -1.2180     0.8030 H     1 <1>   0.0800 
 21 H        2.1400    -1.0180     1.9990 H     1 <1>   0.0800 
 22 H        2.4810     1.3070     1.1030 H     1 <1>   0.0800 
 23 H        1.3930     0.9340    -0.2040 H     1 <1>   0.0800 
 24 H        3.2530     1.5130    -1.7000 H     1 <1>   0.0800 
 25 H        4.7300     0.5990    -1.6500 H     1 <1>   0.0800 
 26 H        3.4840    -1.1710    -2.0850 H     1 <1>   0.0800 
 27 H        1.8300    -0.8470    -1.6550 H     1 <1>   0.0800 
 28 H        4.5350    -2.3290     0.5260 H     1 <1>   0.2700 
 29 H        5.3180     4.9060     0.7720 H     1 <1>   0.1500 
 30 H        4.8170    -0.0410     1.7410 H     1 <1>   0.0800 
 31 H        6.1220     0.7660     2.5560 H     1 <1>   0.0800 
 32 H        1.5810    -5.2660     0.0680 H     1 <1>   0.1500 
 33 H        3.9150    -4.7180     1.3150 H     1 <1>   0.1500 
 34 H        6.3250    -0.5190    -0.1930 H     1 <1>   0.0800 
 35 H        7.0230    -1.1320     1.2850 H     1 <1>   0.0800 
 36 H        7.6150     0.3620     0.6070 H     1 <1>   0.0800 
@<TRIPOS>BOND
  1   1   2  1   
  2   1  19  1   
  3   2   3  1   
  4   2  20  1   
  5   2  21  1   
  6   3   4  1   
  7   3  22  1   
  8   3  23  1   
  9   4   5  1   
 10   4   6  1   
 11   5   7  1   
 12   5  24  1   
 13   5  25  1   
 14   6   8  1   
 15   6  26  1   
 16   6  27  1   
 17   7   9  2   
 18   7  10  1   
 19   8  11  2   
 20   8  12  1   
 21   9  13  1   
 22  10  14  1   
 23  10  15  1   
 24  11  16  1   
 25  12  17  1   
 26  12  28  1   
 27  13  14  2   
 28  13  29  1   
 29  15  18  1   
 30  15  30  1   
 31  15  31  1   
 32  16  17  2   
 33  16  32  1   
 34  17  33  1   
 35  18  34  1   
 36  18  35  1   
 37  18  36  1   
@<TRIPOS>SUBSTRUCTURE
  1 ****   4 GROUP 4 **** **** 0

# MOE 2024.06 (io_trps.svl 2023.06)
