@<TRIPOS>MOLECULE
NONAME
55 57 1 0 0 
SMALL
USER_CHARGES


@<TRIPOS>ATOM
  1 O        0.1220     1.5470     1.4770 O.2   1 <1>  -0.5700 
  2 C        0.1550     2.6460     0.9860 C.2   1 <1>   0.5690 
  3 N       -0.9150     3.4680     1.0690 N.am  1 <1>  -0.7300 
  4 C        1.4040     3.1160     0.2330 C.3   1 <1>   0.1810 
  5 C       -0.9530     4.8280     0.4800 C.3   1 <1>   0.3640 
  6 O        1.4450     4.5170     0.0630 O.3   1 <1>  -0.5600 
  7 C       -2.2850     5.0150    -0.2350 C.ar  1 <1>  -0.1440 
  8 C        0.2490     5.0760    -0.4630 C.3   1 <1>   0.2610 
  9 C       -3.0250     6.1700    -0.0210 C.ar  1 <1>   0.1600 
 10 C       -2.7860     4.0620    -1.1030 C.ar  1 <1>  -0.1500 
 11 C        0.3770     6.5780    -0.7580 C.2   1 <1>   0.5690 
 12 N       -4.1960     6.4370    -0.5760 N.ar  1 <1>  -0.6200 
 13 C       -4.0010     4.3280    -1.6970 C.ar  1 <1>  -0.1500 
 14 O       -0.0220     6.9430    -1.8390 O.2   1 <1>  -0.5700 
 15 N        0.8860     7.4880     0.1470 N.am  1 <1>  -0.6600 
 16 C       -4.6540     5.5120    -1.4030 C.ar  1 <1>   0.1600 
 17 C        1.0210     8.9240    -0.2340 C.3   1 <1>   0.2840 
 18 C        1.5620     7.1260     1.4280 C.3   1 <1>   0.0600 
 19 C        2.4820     9.2570    -0.5190 C.ar  1 <1>  -0.1430 
 20 C        3.1910    10.1450     0.2780 C.ar  1 <1>  -0.1500 
 21 C        3.1160     8.6590    -1.5960 C.ar  1 <1>  -0.1500 
 22 C        4.5210    10.4330     0.0020 C.ar  1 <1>  -0.1430 
 23 C        4.4430     8.9310    -1.8690 C.ar  1 <1>  -0.1500 
 24 C        5.1460     9.8140    -1.0710 C.ar  1 <1>  -0.1500 
 25 C        5.2930    11.4180     0.8590 C.3   1 <1>   0.4860 
 26 N        4.8950    12.8040     0.4760 N.4   1 <1>  -0.9590 
 27 C        5.2800    13.1180    -0.9370 C.3   1 <1>   0.2630 
 28 C        5.4460    13.8160     1.4260 C.3   1 <1>   0.2630 
 29 H       -1.7520     3.1350     1.5500 H     1 <1>   0.3700 
 30 H        1.4340     2.6560    -0.7380 H     1 <1>   0.0800 
 31 H        2.2820     2.8270     0.7810 H     1 <1>   0.0800 
 32 H       -0.9010     5.5330     1.2900 H     1 <1>   0.0800 
 33 H        0.0600     4.5850    -1.4010 H     1 <1>   0.0800 
 34 H       -2.6390     6.9230     0.6450 H     1 <1>   0.1500 
 35 H       -2.2590     3.1460    -1.3120 H     1 <1>   0.1500 
 36 H       -4.4410     3.6270    -2.3820 H     1 <1>   0.1500 
 37 H       -5.6030     5.7090    -1.8730 H     1 <1>   0.1500 
 38 H        0.4330     9.1450    -1.1080 H     1 <1>   0.0800 
 39 H        0.6450     9.5370     0.5660 H     1 <1>   0.0800 
 40 H        1.4500     7.9210     2.1440 H     1 <1>   0.0800 
 41 H        2.6100     6.9650     1.2440 H     1 <1>   0.0800 
 42 H        1.1460     6.2310     1.8530 H     1 <1>   0.0800 
 43 H        2.6950    10.6050     1.1150 H     1 <1>   0.1500 
 44 H        2.5730     7.9690    -2.2220 H     1 <1>   0.1500 
 45 H        4.9240     8.4500    -2.7050 H     1 <1>   0.1500 
 46 H        6.1810    10.0050    -1.3000 H     1 <1>   0.1500 
 47 H        6.3520    11.2790     0.7160 H     1 <1>   0.0800 
 48 H        5.0640    11.2380     1.8970 H     1 <1>   0.0800 
 49 H        3.8650    12.8210     0.5200 H     1 <1>   0.4500 
 50 H        6.3500    13.0660    -1.0560 H     1 <1>   0.0800 
 51 H        4.9500    14.1100    -1.2030 H     1 <1>   0.0800 
 52 H        4.8230    12.4150    -1.6150 H     1 <1>   0.0800 
 53 H        6.5240    13.8080     1.4000 H     1 <1>   0.0800 
 54 H        5.1230    13.6040     2.4330 H     1 <1>   0.0800 
 55 H        5.1040    14.8040     1.1600 H     1 <1>   0.0800 
@<TRIPOS>BOND
  1   1   2  2   
  2   2   3  am  
  3   2   4  1   
  4   3   5  1   
  5   3  29  1   
  6   4   6  1   
  7   4  30  1   
  8   4  31  1   
  9   5   7  1   
 10   5   8  1   
 11   5  32  1   
 12   6   8  1   
 13   7   9  ar  
 14   7  10  ar  
 15   8  11  1   
 16   8  33  1   
 17   9  12  ar  
 18   9  34  1   
 19  10  13  ar  
 20  10  35  1   
 21  11  14  2   
 22  11  15  am  
 23  12  16  ar  
 24  13  16  ar  
 25  13  36  1   
 26  15  17  1   
 27  15  18  1   
 28  16  37  1   
 29  17  19  1   
 30  17  38  1   
 31  17  39  1   
 32  18  40  1   
 33  18  41  1   
 34  18  42  1   
 35  19  20  ar  
 36  19  21  ar  
 37  20  22  ar  
 38  20  43  1   
 39  21  23  ar  
 40  21  44  1   
 41  22  24  ar  
 42  22  25  1   
 43  23  24  ar  
 44  23  45  1   
 45  24  46  1   
 46  25  26  1   
 47  25  47  1   
 48  25  48  1   
 49  26  27  1   
 50  26  28  1   
 51  26  49  1   
 52  27  50  1   
 53  27  51  1   
 54  27  52  1   
 55  28  53  1   
 56  28  54  1   
 57  28  55  1   
@<TRIPOS>SUBSTRUCTURE
  1 ****  15 GROUP 4 **** **** 0

# MOE 2024.06 (io_trps.svl 2023.06)
