@<TRIPOS>MOLECULE
NONAME
49 52 1 0 0 
SMALL
USER_CHARGES


@<TRIPOS>ATOM
  1 O        0.1800     0.3410     0.1870 O.3   1 <1>  -0.6800 
  2 C        1.2290     0.0130    -0.6640 C.3   1 <1>   0.2000 
  3 C        1.7820    -1.3410    -0.2240 C.3   1 <1>  -0.0800 
  4 C        2.3910     0.9870    -0.3990 C.3   1 <1>   0.3430 
  5 C        2.6010    -0.9330     1.0030 C.3   1 <1>   0.3430 
  6 C        2.6250    -1.9850    -1.3560 C.3   1 <1>   0.0210 
  7 N        3.2990     0.3000     0.5740 N.4   1 <1>  -0.9590 
  8 C        3.9600    -2.5460    -0.8990 C.2   1 <1>   0.1080 
  9 C        3.7620     1.1600     1.6900 C.3   1 <1>   0.4860 
 10 N        4.9810    -1.7900    -0.6250 N.2   1 <1>  -0.7070 
 11 C        4.2430    -3.8970    -0.7380 C.2   1 <1>  -0.1500 
 12 C        4.3510     2.4360     1.1300 C.ar  1 <1>  -0.1440 
 13 N        5.9670    -2.6600    -0.3070 N.pl3 1 <1>   0.3000 
 14 C        5.5360    -3.9370    -0.3560 C.2   1 <1>  -0.3320 
 15 C        5.5660     2.3890     0.4330 C.ar  1 <1>   0.0000 
 16 C        3.7100     3.6470     1.2800 C.ar  1 <1>  -0.1500 
 17 C        6.4050    -5.1420    -0.0430 C.3   1 <1>  -0.0600 
 18 C        6.0960     3.5540    -0.1120 C.ar  1 <1>  -0.1520 
 19 C        6.4730     1.3560     0.1110 C.2   1 <1>  -0.1500 
 20 C        4.2540     4.8160     0.7360 C.ar  1 <1>  -0.1500 
 21 N        7.2740     3.2440    -0.7490 N.pl3 1 <1>   0.0480 
 22 C        5.4380     4.7780     0.0410 C.ar  1 <1>  -0.1500 
 23 C        7.4850     1.9030    -0.6020 C.2   1 <1>  -0.3020 
 24 C        8.1580     4.1890    -1.4510 C.3   1 <1>   0.0160 
 25 H       -0.6470    -0.1180    -0.0720 H     1 <1>   0.4000 
 26 H        0.8750     0.0510    -1.6810 H     1 <1>   0.0800 
 27 H        1.0010    -2.0240     0.0620 H     1 <1>   0.0800 
 28 H        2.0100     1.9140    -0.0030 H     1 <1>   0.0800 
 29 H        2.9310     1.1860    -1.3100 H     1 <1>   0.0800 
 30 H        3.2950    -1.7010     1.3060 H     1 <1>   0.0800 
 31 H        1.9310    -0.7090     1.8170 H     1 <1>   0.0800 
 32 H        2.8420    -1.2670    -2.1280 H     1 <1>   0.0800 
 33 H        2.0560    -2.7710    -1.8200 H     1 <1>   0.0800 
 34 H        4.1340    -0.0310     0.0460 H     1 <1>   0.4500 
 35 H        2.9310     1.4020     2.3320 H     1 <1>   0.0800 
 36 H        4.5070     0.6430     2.2710 H     1 <1>   0.0800 
 37 H        3.5660    -4.7180    -0.8980 H     1 <1>   0.1500 
 38 H        6.9240    -2.3630    -0.0750 H     1 <1>   0.2700 
 39 H        2.7790     3.7230     1.8160 H     1 <1>   0.1500 
 40 H        5.8380    -6.0490    -0.1570 H     1 <1>   0.0800 
 41 H        6.7670    -5.0910     0.9690 H     1 <1>   0.0800 
 42 H        7.2460    -5.1800    -0.7140 H     1 <1>   0.0800 
 43 H        6.3640     0.3260     0.3940 H     1 <1>   0.1500 
 44 H        3.7350     5.7510     0.8690 H     1 <1>   0.1500 
 45 H        5.8610     5.6730    -0.3800 H     1 <1>   0.1500 
 46 H        8.3520     1.4170    -1.0150 H     1 <1>   0.1500 
 47 H        9.0010     3.6610    -1.8590 H     1 <1>   0.0800 
 48 H        8.5030     4.9330    -0.7570 H     1 <1>   0.0800 
 49 H        7.6110     4.6620    -2.2460 H     1 <1>   0.0800 
@<TRIPOS>BOND
  1   1   2  1   
  2   1  25  1   
  3   2   3  1   
  4   2   4  1   
  5   2  26  1   
  6   3   5  1   
  7   3   6  1   
  8   3  27  1   
  9   4   7  1   
 10   4  28  1   
 11   4  29  1   
 12   5   7  1   
 13   5  30  1   
 14   5  31  1   
 15   6   8  1   
 16   6  32  1   
 17   6  33  1   
 18   7   9  1   
 19   7  34  1   
 20   8  10  2   
 21   8  11  1   
 22   9  12  1   
 23   9  35  1   
 24   9  36  1   
 25  10  13  1   
 26  11  14  2   
 27  11  37  1   
 28  12  15  ar  
 29  12  16  ar  
 30  13  14  1   
 31  13  38  1   
 32  14  17  1   
 33  15  18  ar  
 34  15  19  1   
 35  16  20  ar  
 36  16  39  1   
 37  17  40  1   
 38  17  41  1   
 39  17  42  1   
 40  18  21  1   
 41  18  22  ar  
 42  19  23  2   
 43  19  43  1   
 44  20  22  ar  
 45  20  44  1   
 46  21  23  1   
 47  21  24  1   
 48  22  45  1   
 49  23  46  1   
 50  24  47  1   
 51  24  48  1   
 52  24  49  1   
@<TRIPOS>SUBSTRUCTURE
  1 ****   7 GROUP 4 **** **** 0

# MOE 2024.06 (io_trps.svl 2023.06)
