@<TRIPOS>MOLECULE
NONAME
51 52 1 0 0 
SMALL
USER_CHARGES


@<TRIPOS>ATOM
  1 S        2.2810     0.0280     0.2370 S.o2  1 <1>   1.3330 
  2 O        3.4320     0.7050     0.7830 O.2   1 <1>  -0.6500 
  3 O        1.9440    -1.3150     0.6450 O.2   1 <1>  -0.6500 
  4 N        0.8770     1.0120     0.5140 N.am  1 <1>  -0.6930 
  5 C        2.3840     0.0540    -1.5390 C.3   1 <1>  -0.1350 
  6 C        0.8590     2.3810     0.2940 C.ar  1 <1>   0.1990 
  7 C       -0.3630     0.3150     0.9370 C.3   1 <1>   0.1160 
  8 C        1.7310     3.2360     0.9600 C.ar  1 <1>  -0.1500 
  9 C       -0.0450     2.9430    -0.6000 C.ar  1 <1>  -0.1500 
 10 C        1.7070     4.5980     0.7330 C.ar  1 <1>  -0.1500 
 11 C       -0.0670     4.3060    -0.8250 C.ar  1 <1>  -0.1500 
 12 C        0.8100     5.1750    -0.1720 C.ar  1 <1>   0.0860 
 13 C        0.7740     6.6040    -0.4270 C.2   1 <1>   0.5440 
 14 O       -0.1990     7.1200    -0.9430 O.2   1 <1>  -0.5700 
 15 N        1.8320     7.4050    -0.1070 N.am  1 <1>  -0.7300 
 16 C        1.9050     8.8440    -0.3990 C.3   1 <1>   0.3640 
 17 C        3.3730     9.2070    -0.5740 C.ar  1 <1>  -0.1430 
 18 C        1.2130     9.6270     0.7280 C.3   1 <1>  -0.1600 
 19 C        4.2600     9.1540     0.4940 C.ar  1 <1>   0.1600 
 20 C        3.8540     9.5920    -1.8100 C.ar  1 <1>  -0.1500 
 21 C        1.2720    11.1490     0.5170 C.3   1 <1>  -0.1600 
 22 N        5.5490     9.4440     0.4290 N.ar  1 <1>  -0.6200 
 23 C        5.1950     9.9010    -1.8960 C.ar  1 <1>  -0.1500 
 24 C        0.5170    11.8880     1.6280 C.3   1 <1>  -0.1600 
 25 C        5.9860     9.8120    -0.7640 C.ar  1 <1>   0.1600 
 26 C        0.5760    13.4030     1.4190 C.3   1 <1>  -0.2400 
 27 H        3.2160    -0.5380    -1.8660 H     1 <1>   0.0800 
 28 H        2.5200     1.0590    -1.8860 H     1 <1>   0.0800 
 29 H        1.4860    -0.3450    -1.9680 H     1 <1>   0.0800 
 30 H       -0.1710    -0.2460     1.8360 H     1 <1>   0.0800 
 31 H       -0.6830    -0.3630     0.1650 H     1 <1>   0.0800 
 32 H       -1.1460     1.0260     1.1350 H     1 <1>   0.0800 
 33 H        2.4280     2.8230     1.6680 H     1 <1>   0.1500 
 34 H       -0.7320     2.3040    -1.1230 H     1 <1>   0.1500 
 35 H        2.3920     5.2210     1.2790 H     1 <1>   0.1500 
 36 H       -0.7780     4.7170    -1.5230 H     1 <1>   0.1500 
 37 H        2.7320     6.9820     0.1110 H     1 <1>   0.3700 
 38 H        1.3800     9.0380    -1.3210 H     1 <1>   0.0800 
 39 H        1.6580     9.3790     1.6740 H     1 <1>   0.0800 
 40 H        0.1800     9.3230     0.7580 H     1 <1>   0.0800 
 41 H        3.8910     8.8550     1.4600 H     1 <1>   0.1500 
 42 H        3.2160     9.6500    -2.6750 H     1 <1>   0.1500 
 43 H        0.8340    11.3950    -0.4350 H     1 <1>   0.0800 
 44 H        2.2970    11.4790     0.5090 H     1 <1>   0.0800 
 45 H        5.6260    10.2090    -2.8310 H     1 <1>   0.1500 
 46 H        0.9500    11.6460     2.5840 H     1 <1>   0.0800 
 47 H       -0.5130    11.5720     1.6390 H     1 <1>   0.0800 
 48 H        7.0310    10.0570    -0.8440 H     1 <1>   0.1500 
 49 H        1.5960    13.7450     1.4270 H     1 <1>   0.0800 
 50 H        0.0420    13.9040     2.2080 H     1 <1>   0.0800 
 51 H        0.1270    13.6710     0.4790 H     1 <1>   0.0800 
@<TRIPOS>BOND
  1   1   2  2   
  2   1   3  2   
  3   1   4  am  
  4   1   5  1   
  5   4   6  1   
  6   4   7  1   
  7   5  27  1   
  8   5  28  1   
  9   5  29  1   
 10   6   8  ar  
 11   6   9  ar  
 12   7  30  1   
 13   7  31  1   
 14   7  32  1   
 15   8  10  ar  
 16   8  33  1   
 17   9  11  ar  
 18   9  34  1   
 19  10  12  ar  
 20  10  35  1   
 21  11  12  ar  
 22  11  36  1   
 23  12  13  1   
 24  13  14  2   
 25  13  15  am  
 26  15  16  1   
 27  15  37  1   
 28  16  17  1   
 29  16  18  1   
 30  16  38  1   
 31  17  19  ar  
 32  17  20  ar  
 33  18  21  1   
 34  18  39  1   
 35  18  40  1   
 36  19  22  ar  
 37  19  41  1   
 38  20  23  ar  
 39  20  42  1   
 40  21  24  1   
 41  21  43  1   
 42  21  44  1   
 43  22  25  ar  
 44  23  25  ar  
 45  23  45  1   
 46  24  26  1   
 47  24  46  1   
 48  24  47  1   
 49  25  48  1   
 50  26  49  1   
 51  26  50  1   
 52  26  51  1   
@<TRIPOS>SUBSTRUCTURE
  1 ****  15 GROUP 4 **** **** 0

# MOE 2024.06 (io_trps.svl 2023.06)
