@<TRIPOS>MOLECULE
NONAME
53 55 1 0 0 
SMALL
USER_CHARGES


@<TRIPOS>ATOM
  1 O       -1.4890     0.2350    -0.7040 O.co2 1 <1>  -0.9000 
  2 C       -1.4400     1.2030     0.0660 C.2   1 <1>   0.9060 
  3 O       -2.3010     1.4230     0.9250 O.co2 1 <1>  -0.9000 
  4 C       -0.3040     2.2150    -0.0250 C.3   1 <1>  -0.1060 
  5 C       -1.0530     3.0310    -1.1930 C.3   1 <1>   0.2000 
  6 C        0.8290     3.2970    -0.0540 C.3   1 <1>   0.3430 
  7 C        0.5000     1.3980     1.0940 C.3   1 <1>  -0.0170 
  8 O       -1.8400     2.3590    -2.1220 O.3   1 <1>  -0.6800 
  9 C       -1.8780     4.1640    -0.5870 C.3   1 <1>  -0.1600 
 10 N        0.3230     4.6440     0.4270 N.4   1 <1>  -0.9590 
 11 C        1.8490     0.8570     0.6070 C.ar  1 <1>  -0.1430 
 12 C       -1.1610     4.6870     0.6540 C.3   1 <1>   0.3430 
 13 C        1.0900     5.1720     1.5830 C.3   1 <1>   0.3430 
 14 C        3.0060     1.0740     1.3420 C.ar  1 <1>  -0.1500 
 15 C        1.9230     0.1480    -0.5810 C.ar  1 <1>  -0.1500 
 16 C        1.1860     6.7020     1.4300 C.3   1 <1>   0.1100 
 17 C        4.2250     0.6080     0.8800 C.ar  1 <1>  -0.1500 
 18 C        3.1410    -0.3180    -1.0440 C.ar  1 <1>  -0.1500 
 19 N        1.3350     7.0780     0.0020 N.3   1 <1>  -0.8100 
 20 C        4.2940    -0.0860    -0.3150 C.ar  1 <1>  -0.1500 
 21 C        2.7270     6.9040    -0.4790 C.3   1 <1>   0.1100 
 22 C        0.9260     8.4830    -0.2270 C.3   1 <1>   0.1100 
 23 C        2.8630     7.3410    -1.9490 C.3   1 <1>   0.1200 
 24 C        1.1130     8.8810    -1.7030 C.3   1 <1>   0.1200 
 25 O        2.4340     8.6610    -2.1010 O.3   1 <1>  -0.5600 
 26 H       -0.3580     3.5080    -1.8680 H     1 <1>   0.0800 
 27 H        1.2290     3.3850    -1.0510 H     1 <1>   0.0800 
 28 H        1.6840     3.0560     0.5490 H     1 <1>   0.0800 
 29 H        0.6410     2.0200     1.9620 H     1 <1>   0.0800 
 30 H        0.0210     0.5230     1.5200 H     1 <1>   0.0800 
 31 H       -1.9380     1.4050    -1.8170 H     1 <1>   0.4000 
 32 H       -2.0080     4.9520    -1.3060 H     1 <1>   0.0800 
 33 H       -2.8480     3.8010    -0.2930 H     1 <1>   0.0800 
 34 H        0.5290     5.3600    -0.3010 H     1 <1>   0.4500 
 35 H       -1.4120     4.0440     1.4840 H     1 <1>   0.0800 
 36 H       -1.4890     5.6880     0.8790 H     1 <1>   0.0800 
 37 H        0.6240     4.9020     2.5170 H     1 <1>   0.0800 
 38 H        2.0880     4.7670     1.5710 H     1 <1>   0.0800 
 39 H        2.9680     1.5990     2.2790 H     1 <1>   0.1500 
 40 H        1.0280    -0.0530    -1.1500 H     1 <1>   0.1500 
 41 H        2.0020     7.0910     2.0170 H     1 <1>   0.0800 
 42 H        0.2760     7.1290     1.8170 H     1 <1>   0.0800 
 43 H        5.1210     0.7760     1.4530 H     1 <1>   0.1500 
 44 H        3.1850    -0.8680    -1.9680 H     1 <1>   0.1500 
 45 H        5.2400    -0.4510    -0.6750 H     1 <1>   0.1500 
 46 H        3.4020     7.4960     0.1160 H     1 <1>   0.0800 
 47 H        3.0220     5.8730    -0.3960 H     1 <1>   0.0800 
 48 H       -0.1090     8.6080     0.0380 H     1 <1>   0.0800 
 49 H        1.5130     9.1460     0.3870 H     1 <1>   0.0800 
 50 H        2.2750     6.7120    -2.5940 H     1 <1>   0.0800 
 51 H        3.8910     7.2950    -2.2610 H     1 <1>   0.0800 
 52 H        0.8990     9.9260    -1.8380 H     1 <1>   0.0800 
 53 H        0.4600     8.3080    -2.3390 H     1 <1>   0.0800 
@<TRIPOS>BOND
  1   1   2  ar  
  2   2   3  ar  
  3   2   4  1   
  4   4   5  1   
  5   4   6  1   
  6   4   7  1   
  7   5   8  1   
  8   5   9  1   
  9   5  26  1   
 10   6  10  1   
 11   6  27  1   
 12   6  28  1   
 13   7  11  1   
 14   7  29  1   
 15   7  30  1   
 16   8  31  1   
 17   9  12  1   
 18   9  32  1   
 19   9  33  1   
 20  10  12  1   
 21  10  13  1   
 22  10  34  1   
 23  11  14  ar  
 24  11  15  ar  
 25  12  35  1   
 26  12  36  1   
 27  13  16  1   
 28  13  37  1   
 29  13  38  1   
 30  14  17  ar  
 31  14  39  1   
 32  15  18  ar  
 33  15  40  1   
 34  16  19  1   
 35  16  41  1   
 36  16  42  1   
 37  17  20  ar  
 38  17  43  1   
 39  18  20  ar  
 40  18  44  1   
 41  19  21  1   
 42  19  22  1   
 43  20  45  1   
 44  21  23  1   
 45  21  46  1   
 46  21  47  1   
 47  22  24  1   
 48  22  48  1   
 49  22  49  1   
 50  23  25  1   
 51  23  50  1   
 52  23  51  1   
 53  24  25  1   
 54  24  52  1   
 55  24  53  1   
@<TRIPOS>SUBSTRUCTURE
  1 ****   6 GROUP 4 **** **** 0

# MOE 2024.06 (io_trps.svl 2023.06)
