@<TRIPOS>MOLECULE
NONAME
47 48 1 0 0 
SMALL
USER_CHARGES


@<TRIPOS>ATOM
  1 O       -1.2940    -0.4430     0.8980 O.3   1 <1>  -0.6800 
  2 C       -2.4820    -1.0600     0.5730 C.3   1 <1>   0.1200 
  3 C       -2.1460    -2.5190     0.2630 C.3   1 <1>  -0.1600 
  4 C       -3.3990    -3.3770     0.0460 C.3   1 <1>   0.4230 
  5 N       -3.0880    -4.8360    -0.0050 N.4   1 <1>  -0.9590 
  6 C       -4.1960    -2.9850    -1.1970 C.3   1 <1>  -0.2400 
  7 C       -3.2030    -5.4180     1.3610 C.3   1 <1>   0.4860 
  8 C       -1.7980    -5.2710    -0.6320 C.3   1 <1>   0.3430 
  9 C       -3.3680    -6.9190     1.2310 C.ar  1 <1>  -0.1440 
 10 C       -1.8600    -5.1820    -2.1510 C.3   1 <1>  -0.2400 
 11 C       -4.5330    -7.4470     0.6940 C.ar  1 <1>  -0.1500 
 12 C       -2.3560    -7.7760     1.6370 C.ar  1 <1>  -0.1500 
 13 C       -4.6990    -8.8180     0.5350 C.ar  1 <1>   0.0000 
 14 C       -2.5080    -9.1430     1.4910 C.ar  1 <1>  -0.1500 
 15 C       -5.9100    -9.3480    -0.0450 C.ar  1 <1>   0.0000 
 16 C       -3.6680    -9.6560     0.9420 C.ar  1 <1>  -0.1500 
 17 C       -5.8810   -10.0350    -1.2550 C.ar  1 <1>  -0.1500 
 18 C       -7.1400    -9.1800     0.5840 C.ar  1 <1>  -0.1500 
 19 C       -7.0410   -10.5310    -1.8230 C.ar  1 <1>  -0.1500 
 20 C       -8.3030    -9.6730     0.0210 C.ar  1 <1>  -0.1500 
 21 C       -8.2550   -10.3480    -1.1850 C.ar  1 <1>  -0.1500 
 22 H       -1.4210     0.5120     1.0730 H     1 <1>   0.4000 
 23 H       -2.9010    -0.5560    -0.2820 H     1 <1>   0.0800 
 24 H       -3.1470    -0.9740     1.4160 H     1 <1>   0.0800 
 25 H       -1.5920    -2.9110     1.0980 H     1 <1>   0.0800 
 26 H       -1.5240    -2.5350    -0.6140 H     1 <1>   0.0800 
 27 H       -4.0510    -3.2090     0.8890 H     1 <1>   0.0800 
 28 H       -3.8310    -5.2890    -0.5500 H     1 <1>   0.4500 
 29 H       -3.5820    -2.9520    -2.0760 H     1 <1>   0.0800 
 30 H       -4.6160    -2.0050    -1.0630 H     1 <1>   0.0800 
 31 H       -5.0140    -3.6650    -1.3570 H     1 <1>   0.0800 
 32 H       -4.0660    -5.0170     1.8670 H     1 <1>   0.0800 
 33 H       -2.3260    -5.1850     1.9440 H     1 <1>   0.0800 
 34 H       -1.6090    -6.3020    -0.3770 H     1 <1>   0.0800 
 35 H       -0.9730    -4.6880    -0.2560 H     1 <1>   0.0800 
 36 H       -2.7530    -5.6430    -2.5320 H     1 <1>   0.0800 
 37 H       -1.0150    -5.7050    -2.5630 H     1 <1>   0.0800 
 38 H       -1.7930    -4.1640    -2.4850 H     1 <1>   0.0800 
 39 H       -5.3410    -6.8070     0.3850 H     1 <1>   0.1500 
 40 H       -1.4440    -7.3980     2.0700 H     1 <1>   0.1500 
 41 H       -1.7250    -9.8130     1.8060 H     1 <1>   0.1500 
 42 H       -3.7840   -10.7210     0.8310 H     1 <1>   0.1500 
 43 H       -4.9400   -10.1820    -1.7560 H     1 <1>   0.1500 
 44 H       -7.1850    -8.6630     1.5260 H     1 <1>   0.1500 
 45 H       -7.0010   -11.0590    -2.7590 H     1 <1>   0.1500 
 46 H       -9.2470    -9.5340     0.5210 H     1 <1>   0.1500 
 47 H       -9.1590   -10.7320    -1.6260 H     1 <1>   0.1500 
@<TRIPOS>BOND
  1   1   2  1   
  2   1  22  1   
  3   2   3  1   
  4   2  23  1   
  5   2  24  1   
  6   3   4  1   
  7   3  25  1   
  8   3  26  1   
  9   4   5  1   
 10   4   6  1   
 11   4  27  1   
 12   5   7  1   
 13   5   8  1   
 14   5  28  1   
 15   6  29  1   
 16   6  30  1   
 17   6  31  1   
 18   7   9  1   
 19   7  32  1   
 20   7  33  1   
 21   8  10  1   
 22   8  34  1   
 23   8  35  1   
 24   9  11  ar  
 25   9  12  ar  
 26  10  36  1   
 27  10  37  1   
 28  10  38  1   
 29  11  13  ar  
 30  11  39  1   
 31  12  14  ar  
 32  12  40  1   
 33  13  15  1   
 34  13  16  ar  
 35  14  16  ar  
 36  14  41  1   
 37  15  17  ar  
 38  15  18  ar  
 39  16  42  1   
 40  17  19  ar  
 41  17  43  1   
 42  18  20  ar  
 43  18  44  1   
 44  19  21  ar  
 45  19  45  1   
 46  20  21  ar  
 47  20  46  1   
 48  21  47  1   
@<TRIPOS>SUBSTRUCTURE
  1 ****  11 GROUP 4 **** **** 0

# MOE 2024.06 (io_trps.svl 2023.06)
