@<TRIPOS>MOLECULE
NONAME
56 58 1 0 0 
SMALL
USER_CHARGES


@<TRIPOS>ATOM
  1 O       -2.4140     1.9030    -1.8500 O.2   1 <1>  -0.5700 
  2 C       -2.3370     0.9250    -1.1400 C.2   1 <1>   0.5690 
  3 N       -3.0480    -0.2130    -1.4490 N.am  1 <1>  -0.6600 
  4 C       -1.4230     1.0340     0.0930 C.3   1 <1>  -0.0190 
  5 C       -2.9940    -1.4860    -0.6400 C.3   1 <1>   0.3640 
  6 C       -4.0020    -0.1520    -2.6000 C.3   1 <1>   0.1400 
  7 C       -1.7300     2.2890     0.9350 C.3   1 <1>  -0.1600 
  8 C        0.0640     1.0230    -0.3150 C.3   1 <1>  -0.1600 
  9 C       -1.5760    -2.0610    -0.7110 C.ar  1 <1>  -0.1430 
 10 C       -4.0100    -2.6070    -1.0260 C.3   1 <1>   0.2000 
 11 C       -4.5200    -1.5230    -3.0350 C.3   1 <1>   0.1200 
 12 C       -0.8220     2.3630     2.1740 C.3   1 <1>  -0.1600 
 13 C        0.9820     1.0870     0.9140 C.3   1 <1>  -0.1600 
 14 C       -0.9250    -2.4460     0.4510 C.ar  1 <1>  -0.1500 
 15 C       -0.9130    -2.2020    -1.9210 C.ar  1 <1>  -0.1500 
 16 O       -5.0060    -2.1960    -1.9220 O.3   1 <1>  -0.5600 
 17 C       -4.7410    -3.1760     0.2000 C.3   1 <1>   0.1200 
 18 C        0.6560     2.3100     1.7750 C.3   1 <1>   0.2000 
 19 C        0.3660    -2.9460     0.4320 C.ar  1 <1>   0.0830 
 20 C        0.3770    -2.7000    -1.9630 C.ar  1 <1>  -0.1500 
 21 O       -3.8390    -3.6190     1.1640 O.3   1 <1>  -0.6800 
 22 O        1.4100     2.2400     2.9240 O.3   1 <1>  -0.6800 
 23 O        0.8570    -3.2700     1.6630 O.3   1 <1>  -0.3630 
 24 C        1.0410    -3.0670    -0.7950 C.ar  1 <1>   0.0830 
 25 C        1.9080    -4.1940     1.8360 C.3   1 <1>   0.0400 
 26 O        2.3280    -3.5180    -0.8340 O.3   1 <1>  -0.3630 
 27 C        3.1440    -3.3530    -1.9730 C.3   1 <1>   0.0400 
 28 H       -1.5890     0.1980     0.7400 H     1 <1>   0.0800 
 29 H       -3.1980    -1.2170     0.3810 H     1 <1>   0.0800 
 30 H       -4.8400     0.4620    -2.3190 H     1 <1>   0.0800 
 31 H       -3.5210     0.3200    -3.4390 H     1 <1>   0.0800 
 32 H       -1.5840     3.1700     0.3320 H     1 <1>   0.0800 
 33 H       -2.7610     2.2720     1.2440 H     1 <1>   0.0800 
 34 H        0.2840     0.1310    -0.8740 H     1 <1>   0.0800 
 35 H        0.2620     1.8660    -0.9570 H     1 <1>   0.0800 
 36 H       -3.4840    -3.4140    -1.5050 H     1 <1>   0.0800 
 37 H       -3.7450    -2.1090    -3.4980 H     1 <1>   0.0800 
 38 H       -5.3310    -1.4060    -3.7310 H     1 <1>   0.0800 
 39 H       -1.0520     1.5380     2.8250 H     1 <1>   0.0800 
 40 H       -1.0150     3.2810     2.7010 H     1 <1>   0.0800 
 41 H        2.0070     1.1410     0.5900 H     1 <1>   0.0800 
 42 H        0.8530     0.1860     1.4890 H     1 <1>   0.0800 
 43 H       -1.4190    -2.3570     1.4030 H     1 <1>   0.1500 
 44 H       -1.3950    -1.9110    -2.8380 H     1 <1>   0.1500 
 45 H       -5.3660    -4.0050    -0.0840 H     1 <1>   0.0800 
 46 H       -5.3470    -2.4100     0.6520 H     1 <1>   0.0800 
 47 H        0.9300     3.2130     1.2550 H     1 <1>   0.0800 
 48 H        0.8470    -2.7890    -2.9240 H     1 <1>   0.1500 
 49 H       -3.3520    -4.4110     0.8560 H     1 <1>   0.4000 
 50 H        1.2340     1.3960     3.3790 H     1 <1>   0.4000 
 51 H        1.9290    -4.4870     2.8700 H     1 <1>   0.0800 
 52 H        2.8360    -3.7170     1.5740 H     1 <1>   0.0800 
 53 H        1.7280    -5.0520     1.2130 H     1 <1>   0.0800 
 54 H        4.1420    -3.6580    -1.7150 H     1 <1>   0.0800 
 55 H        3.1410    -2.3160    -2.2590 H     1 <1>   0.0800 
 56 H        2.7680    -3.9750    -2.7660 H     1 <1>   0.0800 
@<TRIPOS>BOND
  1   1   2  2   
  2   2   3  am  
  3   2   4  1   
  4   3   5  1   
  5   3   6  1   
  6   4   7  1   
  7   4   8  1   
  8   4  28  1   
  9   5   9  1   
 10   5  10  1   
 11   5  29  1   
 12   6  11  1   
 13   6  30  1   
 14   6  31  1   
 15   7  12  1   
 16   7  32  1   
 17   7  33  1   
 18   8  13  1   
 19   8  34  1   
 20   8  35  1   
 21   9  14  ar  
 22   9  15  ar  
 23  10  16  1   
 24  10  17  1   
 25  10  36  1   
 26  11  16  1   
 27  11  37  1   
 28  11  38  1   
 29  12  18  1   
 30  12  39  1   
 31  12  40  1   
 32  13  18  1   
 33  13  41  1   
 34  13  42  1   
 35  14  19  ar  
 36  14  43  1   
 37  15  20  ar  
 38  15  44  1   
 39  17  21  1   
 40  17  45  1   
 41  17  46  1   
 42  18  22  1   
 43  18  47  1   
 44  19  23  1   
 45  19  24  ar  
 46  20  24  ar  
 47  20  48  1   
 48  21  49  1   
 49  22  50  1   
 50  23  25  1   
 51  24  26  1   
 52  25  51  1   
 53  25  52  1   
 54  25  53  1   
 55  26  27  1   
 56  27  54  1   
 57  27  55  1   
 58  27  56  1   
@<TRIPOS>SUBSTRUCTURE
  1 ****   9 GROUP 4 **** **** 0

# MOE 2024.06 (io_trps.svl 2023.06)
