@<TRIPOS>MOLECULE
NONAME
51 53 1 0 0 
SMALL
USER_CHARGES


@<TRIPOS>ATOM
  1 O        0.2980    -0.3700    -2.4780 O.2   1 <1>  -0.5700 
  2 C        0.8460     0.0620    -1.4770 C.2   1 <1>   0.8410 
  3 N        1.1770     1.3900    -1.4400 N.2   1 <1>  -0.6610 
  4 N        1.1390    -0.7860    -0.4140 N.am  1 <1>  -0.4690 
  5 C        1.7930     1.8260    -0.4060 C.2   1 <1>   0.3750 
  6 C        1.8200    -0.3040     0.6840 C.2   1 <1>  -0.0290 
  7 C        0.7220    -2.2170    -0.5250 C.3   1 <1>   0.1400 
  8 C        2.1480     1.0100     0.6900 C.2   1 <1>  -0.1360 
  9 C        2.1660     3.2910    -0.3530 C.3   1 <1>  -0.1790 
 10 C        2.1930    -1.2230     1.8400 C.3   1 <1>  -0.1020 
 11 C        1.7810    -3.0150    -1.2920 C.3   1 <1>   0.1400 
 12 N        1.5040    -4.4700    -1.2020 N.am  1 <1>  -0.7300 
 13 C        1.7770    -5.2270    -0.1100 C.2   1 <1>   0.5690 
 14 O        2.2100    -4.7480     0.9090 O.2   1 <1>  -0.5700 
 15 C        1.5140    -6.7170    -0.1680 C.3   1 <1>  -0.0990 
 16 C        0.0240    -7.0420     0.0180 C.3   1 <1>  -0.1600 
 17 C       -0.2180    -8.5550     0.0340 C.3   1 <1>   0.1400 
 18 N       -1.6730    -8.8300     0.1100 N.am  1 <1>  -0.4200 
 19 C       -2.4350    -8.9130    -1.0350 C.2   1 <1>   0.5440 
 20 C       -2.2740    -8.9890     1.3350 C.2   1 <1>   0.4500 
 21 O       -1.9110    -8.7570    -2.1270 O.2   1 <1>  -0.5700 
 22 C       -3.8390    -9.1780    -0.8940 C.ar  1 <1>   0.0860 
 23 N       -3.5180    -9.2200     1.5120 N.2   1 <1>  -0.6290 
 24 C       -4.3400    -9.3230     0.4060 C.ar  1 <1>   0.1790 
 25 C       -4.7200    -9.2940    -1.9740 C.ar  1 <1>  -0.1500 
 26 C       -5.6940    -9.5770     0.5920 C.ar  1 <1>  -0.1500 
 27 C       -6.0610    -9.5460    -1.7730 C.ar  1 <1>  -0.1500 
 28 C       -6.5510    -9.6890    -0.4830 C.ar  1 <1>  -0.1500 
 29 H       -0.2200    -2.2820    -1.0410 H     1 <1>   0.0800 
 30 H        0.5860    -2.6400     0.4520 H     1 <1>   0.0800 
 31 H        2.6760     1.4610     1.5080 H     1 <1>   0.1500 
 32 H        1.7010     3.7550     0.4960 H     1 <1>   0.0800 
 33 H        1.8330     3.7920    -1.2450 H     1 <1>   0.0800 
 34 H        3.2320     3.3940    -0.2790 H     1 <1>   0.0800 
 35 H        2.7790    -2.0530     1.4880 H     1 <1>   0.0800 
 36 H        1.3080    -1.5980     2.3200 H     1 <1>   0.0800 
 37 H        2.7730    -0.6950     2.5760 H     1 <1>   0.0800 
 38 H        2.7510    -2.8210    -0.8650 H     1 <1>   0.0800 
 39 H        1.7920    -2.7110    -2.3250 H     1 <1>   0.0800 
 40 H        1.0920    -4.9000    -2.0340 H     1 <1>   0.3700 
 41 H        2.0900    -7.1890     0.6080 H     1 <1>   0.0800 
 42 H        1.8600    -7.0950    -1.1130 H     1 <1>   0.0800 
 43 H       -0.5350    -6.6000    -0.7890 H     1 <1>   0.0800 
 44 H       -0.3170    -6.6140     0.9460 H     1 <1>   0.0800 
 45 H        0.2790    -9.0010     0.8790 H     1 <1>   0.0800 
 46 H        0.1850    -9.0030    -0.8590 H     1 <1>   0.0800 
 47 H       -1.6300    -8.9070     2.1940 H     1 <1>   0.0600 
 48 H       -4.3360    -9.1830    -2.9740 H     1 <1>   0.1500 
 49 H       -6.0630    -9.6860     1.5970 H     1 <1>   0.1500 
 50 H       -6.7300    -9.6330    -2.6130 H     1 <1>   0.1500 
 51 H       -7.5980    -9.8860    -0.3250 H     1 <1>   0.1500 
@<TRIPOS>BOND
  1   1   2  2   
  2   2   3  1   
  3   2   4  am  
  4   3   5  2   
  5   4   6  1   
  6   4   7  1   
  7   5   8  1   
  8   5   9  1   
  9   6   8  2   
 10   6  10  1   
 11   7  11  1   
 12   7  29  1   
 13   7  30  1   
 14   8  31  1   
 15   9  32  1   
 16   9  33  1   
 17   9  34  1   
 18  10  35  1   
 19  10  36  1   
 20  10  37  1   
 21  11  12  1   
 22  11  38  1   
 23  11  39  1   
 24  12  13  am  
 25  12  40  1   
 26  13  14  2   
 27  13  15  1   
 28  15  16  1   
 29  15  41  1   
 30  15  42  1   
 31  16  17  1   
 32  16  43  1   
 33  16  44  1   
 34  17  18  1   
 35  17  45  1   
 36  17  46  1   
 37  18  19  am  
 38  18  20  1   
 39  19  21  2   
 40  19  22  1   
 41  20  23  2   
 42  20  47  1   
 43  22  24  ar  
 44  22  25  ar  
 45  23  24  1   
 46  24  26  ar  
 47  25  27  ar  
 48  25  48  1   
 49  26  28  ar  
 50  26  49  1   
 51  27  28  ar  
 52  27  50  1   
 53  28  51  1   
@<TRIPOS>SUBSTRUCTURE
  1 ****  16 GROUP 4 **** **** 0

# MOE 2024.06 (io_trps.svl 2023.06)
