@<TRIPOS>MOLECULE
NONAME
58 61 1 0 0 
SMALL
USER_CHARGES


@<TRIPOS>ATOM
  1 O       -0.1420     0.4300    -0.3890 O.2   1 <1>  -0.5740 
  2 C       -0.6910     0.7630     0.6410 C.2   1 <1>   0.5400 
  3 N       -1.4530    -0.1600     1.2960 N.am  1 <1>  -0.7330 
  4 C       -0.5470     2.1210     1.1360 C.ar  1 <1>   0.0800 
  5 C       -1.6460    -1.5710     0.8810 C.3   1 <1>   0.2140 
  6 C       -0.0740     3.1260     0.2940 C.ar  1 <1>  -0.1150 
  7 C       -0.8650     2.4770     2.4630 C.ar  1 <1>  -0.1560 
  8 C       -3.0270    -1.7850     0.2760 C.3   1 <1>  -0.0870 
  9 C       -1.7600    -2.4290     2.1330 C.3   1 <1>   0.1140 
 10 C        0.0640     4.4200     0.7680 C.ar  1 <1>   0.3040 
 11 C       -0.7320     3.7700     2.9330 C.ar  1 <1>  -0.1150 
 12 C       -3.9170    -1.9970     1.5070 C.3   1 <1>   0.1140 
 13 C       -3.5220    -0.6860    -0.6830 C.3   1 <1>  -0.0230 
 14 O       -3.0620    -2.2230     2.5910 O.3   1 <1>  -0.5640 
 15 N        0.4940     5.5840     0.1720 N.pl3 1 <1>  -0.7030 
 16 C       -0.2630     4.7530     2.0680 C.ar  1 <1>   0.3040 
 17 C       -4.8710    -1.0510    -1.2810 C.ar  1 <1>  -0.1500 
 18 C        0.4210     6.5710     1.0410 C.cat 1 <1>   1.0690 
 19 N       -0.0290     6.1170     2.2200 N.pl3 1 <1>  -0.7670 
 20 C       -4.9790    -1.9160    -2.3510 C.ar  1 <1>  -0.1560 
 21 C       -6.0550    -0.5420    -0.7870 C.ar  1 <1>  -0.1560 
 22 N        0.7390     7.8350     0.7790 N.pl3 1 <1>  -0.7170 
 23 C       -0.2530     6.8460     3.4950 C.3   1 <1>   0.2680 
 24 C       -6.2310    -2.2240    -2.8580 C.ar  1 <1>   0.1540 
 25 C       -7.2550    -0.9150    -1.3680 C.ar  1 <1>   0.1540 
 26 C        1.4500     8.3650    -0.4250 C.3   1 <1>   0.1610 
 27 N       -7.3730    -1.7460    -2.3910 N.ar  1 <1>  -0.6240 
 28 C        0.5800     8.3920    -1.6930 C.3   1 <1>   0.1140 
 29 O        0.2300     7.0890    -2.0500 O.3   1 <1>  -0.5640 
 30 C       -0.5090     7.0160    -3.2300 C.3   1 <1>   0.0330 
 31 H       -2.0170     0.0880     2.1100 H     1 <1>   0.3650 
 32 H       -0.8500    -1.8950     0.2320 H     1 <1>   0.0730 
 33 H        0.1880     2.9020    -0.7260 H     1 <1>   0.1440 
 34 H       -1.2190     1.7150     3.1380 H     1 <1>   0.1440 
 35 H       -3.0060    -2.7140    -0.2670 H     1 <1>   0.0730 
 36 H       -1.0550    -2.1530     2.8970 H     1 <1>   0.0730 
 37 H       -1.6540    -3.4730     1.8920 H     1 <1>   0.0730 
 38 H       -0.9840     4.0170     3.9490 H     1 <1>   0.1440 
 39 H       -4.5630    -2.8500     1.3860 H     1 <1>   0.0730 
 40 H       -4.5040    -1.1250     1.7320 H     1 <1>   0.0730 
 41 H       -2.8040    -0.5570    -1.4750 H     1 <1>   0.0730 
 42 H       -3.6070     0.2540    -0.1680 H     1 <1>   0.0730 
 43 H        0.6140     5.7870    -0.8310 H     1 <1>   0.4450 
 44 H       -4.1030    -2.3510    -2.7940 H     1 <1>   0.1440 
 45 H       -6.0560     0.1400     0.0420 H     1 <1>   0.1440 
 46 H        0.5560     8.5250     1.5020 H     1 <1>   0.4450 
 47 H        0.3040     6.3750     4.2870 H     1 <1>   0.0730 
 48 H       -1.3010     6.8270     3.7470 H     1 <1>   0.0730 
 49 H        0.0650     7.8710     3.4160 H     1 <1>   0.0730 
 50 H       -6.2950    -2.9000    -3.6930 H     1 <1>   0.1440 
 51 H       -8.1680    -0.5080    -0.9690 H     1 <1>   0.1440 
 52 H        1.7810     9.3680    -0.2160 H     1 <1>   0.0730 
 53 H        2.3290     7.7720    -0.6180 H     1 <1>   0.0730 
 54 H        1.1370     8.8280    -2.5050 H     1 <1>   0.0730 
 55 H       -0.3160     8.9660    -1.5290 H     1 <1>   0.0730 
 56 H       -0.7370     5.9830    -3.4260 H     1 <1>   0.0730 
 57 H        0.0730     7.4160    -4.0430 H     1 <1>   0.0730 
 58 H       -1.4250     7.5720    -3.1150 H     1 <1>   0.0730 
@<TRIPOS>BOND
  1   1   2  2   
  2   2   3  am  
  3   2   4  1   
  4   3   5  1   
  5   3  31  1   
  6   4   6  ar  
  7   4   7  ar  
  8   5   8  1   
  9   5   9  1   
 10   5  32  1   
 11   6  10  ar  
 12   6  33  1   
 13   7  11  ar  
 14   7  34  1   
 15   8  12  1   
 16   8  13  1   
 17   8  35  1   
 18   9  14  1   
 19   9  36  1   
 20   9  37  1   
 21  10  15  1   
 22  10  16  ar  
 23  11  16  ar  
 24  11  38  1   
 25  12  14  1   
 26  12  39  1   
 27  12  40  1   
 28  13  17  1   
 29  13  41  1   
 30  13  42  1   
 31  15  18  ar  
 32  15  43  1   
 33  16  19  1   
 34  17  20  ar  
 35  17  21  ar  
 36  18  19  ar  
 37  18  22  ar  
 38  19  23  1   
 39  20  24  ar  
 40  20  44  1   
 41  21  25  ar  
 42  21  45  1   
 43  22  26  1   
 44  22  46  1   
 45  23  47  1   
 46  23  48  1   
 47  23  49  1   
 48  24  27  ar  
 49  24  50  1   
 50  25  27  ar  
 51  25  51  1   
 52  26  28  1   
 53  26  52  1   
 54  26  53  1   
 55  28  29  1   
 56  28  54  1   
 57  28  55  1   
 58  29  30  1   
 59  30  56  1   
 60  30  57  1   
 61  30  58  1   
@<TRIPOS>SUBSTRUCTURE
  1 ****   4 GROUP 4 **** **** 0

# MOE 2024.06 (io_trps.svl 2023.06)
