@<TRIPOS>MOLECULE
NONAME
42 43 1 0 0 
SMALL
USER_CHARGES


@<TRIPOS>ATOM
  1 O       -1.1500    -0.7370     0.4030 O.2   1 <1>  -0.5700 
  2 C       -2.0820     0.0130     0.2720 C.2   1 <1>   0.4230 
  3 C       -3.3240    -0.4190    -0.3070 C.ar  1 <1>   0.0860 
  4 C       -1.9040     1.4140     0.8230 C.3   1 <1>  -0.1790 
  5 C       -4.1600     0.3140    -1.1510 C.ar  1 <1>   0.1660 
  6 C       -3.7710    -1.7020    -0.0230 C.ar  1 <1>   0.1600 
  7 N       -5.3020    -0.1570    -1.5840 N.ar  1 <1>  -0.6200 
  8 C       -3.8070     1.7000    -1.6640 C.3   1 <1>  -0.0960 
  9 N       -4.9040    -2.2020    -0.4560 N.ar  1 <1>  -0.6200 
 10 C       -5.6220    -1.3830    -1.2160 C.ar  1 <1>   0.7200 
 11 N       -6.8050    -1.8200    -1.6840 N.pl3 1 <1>  -0.8690 
 12 C       -7.2490    -3.2340    -1.7270 C.3   1 <1>   0.2090 
 13 C       -7.5920    -3.7430    -0.2990 C.3   1 <1>   0.4230 
 14 N       -7.1170    -5.1470    -0.0110 N.4   1 <1>  -0.9590 
 15 C       -9.1070    -3.6350    -0.0570 C.3   1 <1>  -0.1600 
 16 C       -7.4630    -5.5710     1.3790 C.3   1 <1>   0.3430 
 17 C       -5.6320    -5.2700    -0.1800 C.3   1 <1>   0.2630 
 18 C       -9.5160    -4.1070     1.3410 C.3   1 <1>  -0.1600 
 19 C       -8.9740    -5.5160     1.5970 C.3   1 <1>  -0.1600 
 20 H       -2.8520     1.8550     1.0670 H     1 <1>   0.0800 
 21 H       -1.3880     2.0270     0.1080 H     1 <1>   0.0800 
 22 H       -1.3120     1.3710     1.7190 H     1 <1>   0.0800 
 23 H       -3.1480    -2.3260     0.5970 H     1 <1>   0.1500 
 24 H       -2.7550     1.7810    -1.8650 H     1 <1>   0.0800 
 25 H       -4.1010     2.4460    -0.9490 H     1 <1>   0.0800 
 26 H       -4.3290     1.8960    -2.5850 H     1 <1>   0.0800 
 27 H       -7.2380    -1.1670    -2.3430 H     1 <1>   0.4000 
 28 H       -6.4630    -3.8140    -2.1730 H     1 <1>   0.0800 
 29 H       -8.1110    -3.3090    -2.3670 H     1 <1>   0.0800 
 30 H       -7.0970    -3.0830     0.3960 H     1 <1>   0.0800 
 31 H       -7.5950    -5.7830    -0.6600 H     1 <1>   0.4500 
 32 H       -9.6350    -4.2110    -0.7980 H     1 <1>   0.0800 
 33 H       -9.4050    -2.6070    -0.1770 H     1 <1>   0.0800 
 34 H       -6.9790    -4.9170     2.0870 H     1 <1>   0.0800 
 35 H       -7.1140    -6.5760     1.5550 H     1 <1>   0.0800 
 36 H       -5.1250    -4.5690     0.4640 H     1 <1>   0.0800 
 37 H       -5.3400    -5.0650    -1.1960 H     1 <1>   0.0800 
 38 H       -5.3060    -6.2670     0.0710 H     1 <1>   0.0800 
 39 H      -10.5900    -4.1050     1.4310 H     1 <1>   0.0800 
 40 H       -9.1230    -3.4280     2.0800 H     1 <1>   0.0800 
 41 H       -9.1920    -5.8000     2.6120 H     1 <1>   0.0800 
 42 H       -9.4600    -6.2270     0.9520 H     1 <1>   0.0800 
@<TRIPOS>BOND
  1   1   2  2   
  2   2   3  1   
  3   2   4  1   
  4   3   5  ar  
  5   3   6  ar  
  6   4  20  1   
  7   4  21  1   
  8   4  22  1   
  9   5   7  ar  
 10   5   8  1   
 11   6   9  ar  
 12   6  23  1   
 13   7  10  ar  
 14   8  24  1   
 15   8  25  1   
 16   8  26  1   
 17   9  10  ar  
 18  10  11  1   
 19  11  12  1   
 20  11  27  1   
 21  12  13  1   
 22  12  28  1   
 23  12  29  1   
 24  13  14  1   
 25  13  15  1   
 26  13  30  1   
 27  14  16  1   
 28  14  17  1   
 29  14  31  1   
 30  15  18  1   
 31  15  32  1   
 32  15  33  1   
 33  16  19  1   
 34  16  34  1   
 35  16  35  1   
 36  17  36  1   
 37  17  37  1   
 38  17  38  1   
 39  18  19  1   
 40  18  39  1   
 41  18  40  1   
 42  19  41  1   
 43  19  42  1   
@<TRIPOS>SUBSTRUCTURE
  1 ****   9 GROUP 4 **** **** 0

# MOE 2024.06 (io_trps.svl 2023.06)
