@<TRIPOS>MOLECULE
NONAME
44 46 1 0 0 
SMALL
USER_CHARGES


@<TRIPOS>ATOM
  1 S        1.4400     1.7060    -0.2450 S.3   1 <1>  -0.2860 
  2 C        2.5310     0.4150     0.3430 C.2   1 <1>   0.5340 
  3 C        2.0050     2.0100    -1.9930 C.3   1 <1>   0.1310 
  4 O        2.4790     0.0830     1.5870 O.3   1 <1>  -0.2800 
  5 N        3.3840    -0.2450    -0.3420 N.2   1 <1>  -0.3380 
  6 C        2.1660     3.4960    -2.2750 C.2   1 <1>   0.5690 
  7 C        3.3760    -0.8480     1.6610 C.2   1 <1>   0.2980 
  8 N        3.9460    -1.0800     0.5370 N.2   1 <1>  -0.3380 
  9 O        2.7410     3.8220    -3.2870 O.2   1 <1>  -0.5700 
 10 N        1.6700     4.4050    -1.3820 N.am  1 <1>  -0.4940 
 11 C        3.6460    -1.5260     2.9840 C.3   1 <1>  -0.0600 
 12 C        1.9060     5.7950    -1.2940 C.2   1 <1>  -0.0880 
 13 N        3.1150     6.4180    -1.4120 N.pl3 1 <1>   0.3140 
 14 C        0.9980     6.7630    -1.0290 C.2   1 <1>  -0.1810 
 15 N        2.9910     7.7570    -1.2260 N.2   1 <1>  -0.7070 
 16 C        4.4540     5.8140    -1.6310 C.3   1 <1>   0.2390 
 17 C        1.7280     7.9450    -1.0050 C.2   1 <1>   0.1390 
 18 C       -0.4970     6.6390    -0.8040 C.3   1 <1>  -0.0590 
 19 C        4.7350     4.6280    -0.7050 C.ar  1 <1>  -0.1430 
 20 C        4.4570     4.7000     0.6530 C.ar  1 <1>  -0.1500 
 21 C        5.2630     3.4570    -1.2270 C.ar  1 <1>  -0.1500 
 22 C        4.6860     3.6120     1.4800 C.ar  1 <1>  -0.1430 
 23 C        5.5000     2.3710    -0.4050 C.ar  1 <1>  -0.1500 
 24 C        5.2120     2.4480     0.9450 C.ar  1 <1>  -0.1500 
 25 C        4.3660     3.6860     2.9610 C.3   1 <1>  -0.0970 
 26 H        1.2720     1.5790    -2.6490 H     1 <1>   0.0800 
 27 H        2.9490     1.5190    -2.1300 H     1 <1>   0.0800 
 28 H        1.1590     4.0020    -0.5940 H     1 <1>   0.3700 
 29 H        3.9660    -0.7980     3.7060 H     1 <1>   0.0800 
 30 H        4.4150    -2.2660     2.8650 H     1 <1>   0.0800 
 31 H        2.7500    -2.0030     3.3350 H     1 <1>   0.0800 
 32 H        5.1940     6.5740    -1.4620 H     1 <1>   0.0800 
 33 H        4.5160     5.5130    -2.6590 H     1 <1>   0.0800 
 34 H        1.3030     8.9180    -0.8220 H     1 <1>   0.1500 
 35 H       -0.8190     5.6250    -0.9560 H     1 <1>   0.0800 
 36 H       -1.0220     7.2720    -1.4950 H     1 <1>   0.0800 
 37 H       -0.7420     6.9360     0.2000 H     1 <1>   0.0800 
 38 H        4.0530     5.6090     1.0660 H     1 <1>   0.1500 
 39 H        5.4850     3.3820    -2.2780 H     1 <1>   0.1500 
 40 H        5.9040     1.4600    -0.8130 H     1 <1>   0.1500 
 41 H        5.3980     1.5960     1.5740 H     1 <1>   0.1500 
 42 H        3.7290     4.5250     3.1730 H     1 <1>   0.0800 
 43 H        5.2760     3.7920     3.5240 H     1 <1>   0.0800 
 44 H        3.8640     2.7890     3.2750 H     1 <1>   0.0800 
@<TRIPOS>BOND
  1   1   2  1   
  2   1   3  1   
  3   2   4  1   
  4   2   5  2   
  5   3   6  1   
  6   3  26  1   
  7   3  27  1   
  8   4   7  1   
  9   5   8  1   
 10   6   9  2   
 11   6  10  am  
 12   7   8  2   
 13   7  11  1   
 14  10  12  1   
 15  10  28  1   
 16  11  29  1   
 17  11  30  1   
 18  11  31  1   
 19  12  13  1   
 20  12  14  2   
 21  13  15  1   
 22  13  16  1   
 23  14  17  1   
 24  14  18  1   
 25  15  17  2   
 26  16  19  1   
 27  16  32  1   
 28  16  33  1   
 29  17  34  1   
 30  18  35  1   
 31  18  36  1   
 32  18  37  1   
 33  19  20  ar  
 34  19  21  ar  
 35  20  22  ar  
 36  20  38  1   
 37  21  23  ar  
 38  21  39  1   
 39  22  24  ar  
 40  22  25  1   
 41  23  24  ar  
 42  23  40  1   
 43  24  41  1   
 44  25  42  1   
 45  25  43  1   
 46  25  44  1   
@<TRIPOS>SUBSTRUCTURE
  1 ****  19 GROUP 4 **** **** 0

# MOE 2024.06 (io_trps.svl 2023.06)
