@<TRIPOS>MOLECULE
NONAME
49 51 1 0 0 
SMALL
USER_CHARGES


@<TRIPOS>ATOM
  1 O        0.5900     3.4670     2.1620 O.co2 1 <1>  -0.9000 
  2 C       -0.4990     3.6530     1.6180 C.2   1 <1>   0.9060 
  3 O       -1.1260     4.7100     1.7500 O.co2 1 <1>  -0.9000 
  4 C       -0.9070     2.6630     0.5600 C.3   1 <1>  -0.1860 
  5 C       -2.2800     2.8400    -0.1250 C.3   1 <1>   0.2000 
  6 C        0.2040     2.7480    -0.4780 C.3   1 <1>   0.3430 
  7 O       -3.1410     3.5100     0.7090 O.3   1 <1>  -0.6800 
  8 C       -2.1980     3.6260    -1.4390 C.3   1 <1>  -0.1600 
  9 N        0.2530     4.0960    -1.1780 N.4   1 <1>  -0.9590 
 10 C       -1.1210     4.6990    -1.3300 C.3   1 <1>   0.3430 
 11 C        1.1730     5.0720    -0.4740 C.3   1 <1>   0.4230 
 12 C        1.1760     6.4260    -1.2090 C.3   1 <1>  -0.1600 
 13 C        2.6000     4.5020    -0.3710 C.3   1 <1>  -0.1600 
 14 C        2.1720     7.3900    -0.5730 C.3   1 <1>   0.2090 
 15 C        3.5490     5.5260     0.2380 C.3   1 <1>   0.2090 
 16 N        3.4970     6.7460    -0.5950 N.pl3 1 <1>  -0.8380 
 17 C        4.5860     7.6050    -0.4990 C.ar  1 <1>   0.1000 
 18 C        4.9140     8.2360     0.6960 C.ar  1 <1>  -0.1500 
 19 C        5.3680     7.8480    -1.6190 C.ar  1 <1>  -0.1500 
 20 C        5.9980     9.0940     0.7760 C.ar  1 <1>  -0.1430 
 21 C        6.4530     8.7020    -1.5500 C.ar  1 <1>  -0.1500 
 22 C        6.7680     9.3250    -0.3530 C.ar  1 <1>  -0.1500 
 23 C        6.3500     9.7780     2.0850 C.3   1 <1>  -0.0970 
 24 H       -0.8780     1.6930     1.0160 H     1 <1>   0.0800 
 25 H       -2.7260     1.8790    -0.3200 H     1 <1>   0.0800 
 26 H        0.0300     1.9800    -1.2130 H     1 <1>   0.0800 
 27 H        1.1390     2.5240     0.0030 H     1 <1>   0.0800 
 28 H       -2.5920     4.1490     1.2600 H     1 <1>   0.4000 
 29 H       -1.9620     2.9660    -2.2540 H     1 <1>   0.0800 
 30 H       -3.1510     4.0770    -1.6530 H     1 <1>   0.0800 
 31 H        0.6550     3.9510    -2.1070 H     1 <1>   0.4500 
 32 H       -1.3440     5.3040    -0.4630 H     1 <1>   0.0800 
 33 H       -1.1480     5.3380    -2.1970 H     1 <1>   0.0800 
 34 H        0.8170     5.2500     0.5280 H     1 <1>   0.0800 
 35 H        1.4450     6.2950    -2.2410 H     1 <1>   0.0800 
 36 H        0.2130     6.8970    -1.1500 H     1 <1>   0.0800 
 37 H        2.6270     3.6510     0.2810 H     1 <1>   0.0800 
 38 H        2.9710     4.2240    -1.3400 H     1 <1>   0.0800 
 39 H        1.8900     7.6120     0.4440 H     1 <1>   0.0800 
 40 H        2.2080     8.3120    -1.1290 H     1 <1>   0.0800 
 41 H        4.5550     5.1400     0.2530 H     1 <1>   0.0800 
 42 H        3.2550     5.7550     1.2500 H     1 <1>   0.0800 
 43 H        4.3090     8.0480     1.5630 H     1 <1>   0.1500 
 44 H        5.1150     7.3600    -2.5400 H     1 <1>   0.1500 
 45 H        7.0520     8.8820    -2.4240 H     1 <1>   0.1500 
 46 H        7.6150     9.9870    -0.3060 H     1 <1>   0.1500 
 47 H        6.6040    10.8080     1.9080 H     1 <1>   0.0800 
 48 H        7.1900     9.2840     2.5380 H     1 <1>   0.0800 
 49 H        5.5200     9.7440     2.7670 H     1 <1>   0.0800 
@<TRIPOS>BOND
  1   1   2  ar  
  2   2   3  ar  
  3   2   4  1   
  4   4   5  1   
  5   4   6  1   
  6   4  24  1   
  7   5   7  1   
  8   5   8  1   
  9   5  25  1   
 10   6   9  1   
 11   6  26  1   
 12   6  27  1   
 13   7  28  1   
 14   8  10  1   
 15   8  29  1   
 16   8  30  1   
 17   9  10  1   
 18   9  11  1   
 19   9  31  1   
 20  10  32  1   
 21  10  33  1   
 22  11  12  1   
 23  11  13  1   
 24  11  34  1   
 25  12  14  1   
 26  12  35  1   
 27  12  36  1   
 28  13  15  1   
 29  13  37  1   
 30  13  38  1   
 31  14  16  1   
 32  14  39  1   
 33  14  40  1   
 34  15  16  1   
 35  15  41  1   
 36  15  42  1   
 37  16  17  1   
 38  17  18  ar  
 39  17  19  ar  
 40  18  20  ar  
 41  18  43  1   
 42  19  21  ar  
 43  19  44  1   
 44  20  22  ar  
 45  20  23  1   
 46  21  22  ar  
 47  21  45  1   
 48  22  46  1   
 49  23  47  1   
 50  23  48  1   
 51  23  49  1   
@<TRIPOS>SUBSTRUCTURE
  1 ****  11 GROUP 4 **** **** 0

# MOE 2024.06 (io_trps.svl 2023.06)
