@<TRIPOS>MOLECULE
NONAME
63 68 1 0 0 
SMALL
USER_CHARGES


@<TRIPOS>ATOM
  1 O        1.4450     0.8700    -3.2520 O.2   1 <1>  -0.5700 
  2 C        1.9100     0.7060    -2.1370 C.2   1 <1>   0.5440 
  3 N        1.3660     1.4110    -1.0920 N.am  1 <1>  -0.6600 
  4 C        3.0420    -0.1690    -1.9590 C.ar  1 <1>   0.0860 
  5 C        0.2930     2.4220    -1.1980 C.3   1 <1>   0.2200 
  6 C        1.7440     1.3180     0.3400 C.3   1 <1>   0.1400 
  7 C        2.9890    -1.3760    -1.2280 C.ar  1 <1>   0.4100 
  8 C        4.2550     0.1970    -2.5260 C.ar  1 <1>  -0.1500 
  9 C        0.7080     3.3910    -0.1070 C.3   1 <1>  -0.1600 
 10 C       -0.9690     1.7960    -0.5900 C.3   1 <1>  -0.1600 
 11 C        0.7770     2.3270     0.9810 C.3   1 <1>  -0.0800 
 12 N        4.0630    -2.1410    -1.0130 N.ar  1 <1>  -0.6200 
 13 N        1.8120    -1.8690    -0.6820 N.pl3 1 <1>  -0.8380 
 14 C        5.3480    -0.6100    -2.3190 C.ar  1 <1>  -0.1500 
 15 C       -0.6420     1.7320     0.9170 C.3   1 <1>  -0.1600 
 16 C        5.1980    -1.7530    -1.5560 C.ar  1 <1>   0.1600 
 17 C        1.8510    -2.7230     0.5400 C.3   1 <1>   0.2090 
 18 C        0.5820    -1.9530    -1.5260 C.3   1 <1>   0.2090 
 19 C        0.5190    -2.6570     1.2920 C.3   1 <1>  -0.1600 
 20 C       -0.3240    -3.1000    -1.0820 C.3   1 <1>  -0.1600 
 21 C       -0.7140    -2.9400     0.4010 C.3   1 <1>   0.4240 
 22 O       -1.4750    -1.7540     0.4910 O.3   1 <1>  -0.5600 
 23 C       -1.5180    -4.1670     0.9160 C.ar  1 <1>  -0.1430 
 24 C       -2.8250    -1.8090     0.1620 C.3   1 <1>   0.1200 
 25 C       -0.9340    -5.4350     1.0190 C.ar  1 <1>   0.0830 
 26 C       -2.8550    -4.0250     1.2850 C.ar  1 <1>  -0.1430 
 27 C       -3.5340    -2.6730     1.1930 C.3   1 <1>  -0.0170 
 28 O        0.3710    -5.5820     0.6660 O.3   1 <1>  -0.3620 
 29 C       -1.6820    -6.5170     1.4790 C.ar  1 <1>  -0.1500 
 30 C       -3.5880    -5.1060     1.7440 C.ar  1 <1>  -0.1500 
 31 C        1.0290    -6.8300     0.6720 C.3   1 <1>   0.0400 
 32 C       -3.0040    -6.3520     1.8400 C.ar  1 <1>  -0.1500 
 33 H        0.1820     2.8340    -2.1880 H     1 <1>   0.0800 
 34 H        1.5940     0.3230     0.7210 H     1 <1>   0.0800 
 35 H        2.7690     1.6190     0.4700 H     1 <1>   0.0800 
 36 H        4.3260     1.0980    -3.1110 H     1 <1>   0.1500 
 37 H        1.6580     3.8520    -0.3160 H     1 <1>   0.0800 
 38 H       -0.0380     4.1430     0.0840 H     1 <1>   0.0800 
 39 H       -1.8170     2.4340    -0.7620 H     1 <1>   0.0800 
 40 H       -1.1640     0.8260    -1.0090 H     1 <1>   0.0800 
 41 H        1.0760     2.6650     1.9570 H     1 <1>   0.0800 
 42 H        6.3060    -0.3610    -2.7390 H     1 <1>   0.1500 
 43 H       -0.6680     0.7210     1.2860 H     1 <1>   0.0800 
 44 H       -1.3330     2.3360     1.4780 H     1 <1>   0.0800 
 45 H        6.0570    -2.3790    -1.3880 H     1 <1>   0.1500 
 46 H        2.0680    -3.7360     0.2490 H     1 <1>   0.0800 
 47 H        2.6440    -2.3900     1.1880 H     1 <1>   0.0800 
 48 H        0.0380    -1.0290    -1.4450 H     1 <1>   0.0800 
 49 H        0.8610    -2.0890    -2.5570 H     1 <1>   0.0800 
 50 H        0.4400    -1.6830     1.7380 H     1 <1>   0.0800 
 51 H        0.5570    -3.3630     2.0990 H     1 <1>   0.0800 
 52 H        0.2020    -4.0200    -1.2430 H     1 <1>   0.0800 
 53 H       -1.1980    -3.1380    -1.7010 H     1 <1>   0.0800 
 54 H       -3.2090    -0.8040     0.1830 H     1 <1>   0.0800 
 55 H       -2.9400    -2.2100    -0.8280 H     1 <1>   0.0800 
 56 H       -3.5000    -2.1860     2.1510 H     1 <1>   0.0800 
 57 H       -4.5640    -2.7890     0.9070 H     1 <1>   0.0800 
 58 H       -1.2560    -7.4970     1.5670 H     1 <1>   0.1500 
 59 H       -4.6180    -4.9830     2.0300 H     1 <1>   0.1500 
 60 H        2.0340    -6.6770     0.3230 H     1 <1>   0.0800 
 61 H        0.5110    -7.5010     0.0100 H     1 <1>   0.0800 
 62 H        1.0450    -7.2120     1.6770 H     1 <1>   0.0800 
 63 H       -3.5770    -7.1910     2.1960 H     1 <1>   0.1500 
@<TRIPOS>BOND
  1   1   2  2   
  2   2   3  am  
  3   2   4  1   
  4   3   5  1   
  5   3   6  1   
  6   4   7  ar  
  7   4   8  ar  
  8   5   9  1   
  9   5  10  1   
 10   5  33  1   
 11   6  11  1   
 12   6  34  1   
 13   6  35  1   
 14   7  12  ar  
 15   7  13  1   
 16   8  14  ar  
 17   8  36  1   
 18   9  11  1   
 19   9  37  1   
 20   9  38  1   
 21  10  15  1   
 22  10  39  1   
 23  10  40  1   
 24  11  15  1   
 25  11  41  1   
 26  12  16  ar  
 27  13  17  1   
 28  13  18  1   
 29  14  16  ar  
 30  14  42  1   
 31  15  43  1   
 32  15  44  1   
 33  16  45  1   
 34  17  19  1   
 35  17  46  1   
 36  17  47  1   
 37  18  20  1   
 38  18  48  1   
 39  18  49  1   
 40  19  21  1   
 41  19  50  1   
 42  19  51  1   
 43  20  21  1   
 44  20  52  1   
 45  20  53  1   
 46  21  22  1   
 47  21  23  1   
 48  22  24  1   
 49  23  25  ar  
 50  23  26  ar  
 51  24  27  1   
 52  24  54  1   
 53  24  55  1   
 54  25  28  1   
 55  25  29  ar  
 56  26  27  1   
 57  26  30  ar  
 58  27  56  1   
 59  27  57  1   
 60  28  31  1   
 61  29  32  ar  
 62  29  58  1   
 63  30  32  ar  
 64  30  59  1   
 65  31  60  1   
 66  31  61  1   
 67  31  62  1   
 68  32  63  1   
@<TRIPOS>SUBSTRUCTURE
  1 ****  18 GROUP 4 **** **** 0

# MOE 2024.06 (io_trps.svl 2023.06)
