@<TRIPOS>MOLECULE
NONAME
40 42 1 0 0 
SMALL
USER_CHARGES


@<TRIPOS>ATOM
  1 CL      -2.3780    -1.6580    -1.7390 Cl    1 <1>  -0.1770 
  2 C       -2.5190    -0.2410    -0.7250 C.ar  1 <1>   0.1770 
  3 C       -2.9620    -0.3640     0.5940 C.ar  1 <1>   0.0860 
  4 C       -2.1760     0.9810    -1.2810 C.ar  1 <1>  -0.1500 
  5 C       -3.3240    -1.6400     1.1640 C.2   1 <1>   0.5440 
  6 C       -3.0380     0.7990     1.3580 C.ar  1 <1>  -0.1500 
  7 C       -2.2650     2.1300    -0.5140 C.ar  1 <1>  -0.1500 
  8 O       -2.6170    -2.1350     2.0190 O.2   1 <1>  -0.5700 
  9 N       -4.4690    -2.2970     0.7890 N.am  1 <1>  -0.6600 
 10 C       -2.6950     2.0120     0.7950 C.ar  1 <1>   0.1900 
 11 C       -5.5070    -1.7910    -0.1460 C.3   1 <1>   0.1400 
 12 C       -4.7950    -3.6750     1.2340 C.3   1 <1>   0.1400 
 13 F       -2.7800     3.0900     1.5240 F     1 <1>  -0.1900 
 14 C       -6.6510    -2.8010    -0.0340 C.3   1 <1>   0.2000 
 15 C       -5.9630    -4.1160     0.3420 C.3   1 <1>  -0.0800 
 16 O       -7.4670    -2.4180     1.0190 O.3   1 <1>  -0.6800 
 17 C       -5.4630    -4.8530    -0.9150 C.3   1 <1>   0.0210 
 18 C       -4.7760    -6.1560    -0.5580 C.2   1 <1>   0.1080 
 19 N       -5.4160    -7.1840    -0.0950 N.2   1 <1>  -0.7070 
 20 C       -3.4110    -6.3940    -0.6750 C.2   1 <1>  -0.1500 
 21 N       -4.4640    -8.1170     0.0980 N.pl3 1 <1>   0.3000 
 22 C       -3.2410    -7.6620    -0.2460 C.2   1 <1>  -0.3320 
 23 C       -1.9650    -8.4760    -0.1390 C.3   1 <1>  -0.0600 
 24 H       -1.8400     1.0290    -2.3030 H     1 <1>   0.1500 
 25 H       -3.3600     0.7500     2.3840 H     1 <1>   0.1500 
 26 H       -2.0060     3.0950    -0.9140 H     1 <1>   0.1500 
 27 H       -5.8280    -0.7960     0.1110 H     1 <1>   0.0800 
 28 H       -5.1150    -1.7980    -1.1480 H     1 <1>   0.0800 
 29 H       -3.9360    -4.3180     1.1490 H     1 <1>   0.0800 
 30 H       -5.1020    -3.6460     2.2650 H     1 <1>   0.0800 
 31 H       -7.2550    -2.8610    -0.9240 H     1 <1>   0.0800 
 32 H       -6.6320    -4.7710     0.8740 H     1 <1>   0.0800 
 33 H       -6.9200    -2.3210     1.8240 H     1 <1>   0.4000 
 34 H       -4.7770    -4.2370    -1.4680 H     1 <1>   0.0800 
 35 H       -6.2970    -5.0820    -1.5540 H     1 <1>   0.0800 
 36 H       -2.6730    -5.6960    -1.0310 H     1 <1>   0.1500 
 37 H       -4.6820    -9.0510     0.4640 H     1 <1>   0.2700 
 38 H       -1.1250    -7.8900    -0.4680 H     1 <1>   0.0800 
 39 H       -2.0310    -9.3560    -0.7540 H     1 <1>   0.0800 
 40 H       -1.7960    -8.7710     0.8820 H     1 <1>   0.0800 
@<TRIPOS>BOND
  1   1   2  1   
  2   2   3  ar  
  3   2   4  ar  
  4   3   5  1   
  5   3   6  ar  
  6   4   7  ar  
  7   4  24  1   
  8   5   8  2   
  9   5   9  am  
 10   6  10  ar  
 11   6  25  1   
 12   7  10  ar  
 13   7  26  1   
 14   9  11  1   
 15   9  12  1   
 16  10  13  1   
 17  11  14  1   
 18  11  27  1   
 19  11  28  1   
 20  12  15  1   
 21  12  29  1   
 22  12  30  1   
 23  14  15  1   
 24  14  16  1   
 25  14  31  1   
 26  15  17  1   
 27  15  32  1   
 28  16  33  1   
 29  17  18  1   
 30  17  34  1   
 31  17  35  1   
 32  18  19  2   
 33  18  20  1   
 34  19  21  1   
 35  20  22  2   
 36  20  36  1   
 37  21  22  1   
 38  21  37  1   
 39  22  23  1   
 40  23  38  1   
 41  23  39  1   
 42  23  40  1   
@<TRIPOS>SUBSTRUCTURE
  1 ****   9 GROUP 4 **** **** 0

# MOE 2024.06 (io_trps.svl 2023.06)
