@<TRIPOS>MOLECULE
NONAME
47 49 1 0 0 
SMALL
USER_CHARGES


@<TRIPOS>ATOM
  1 O       -0.7280    -0.4570     0.0440 O.3   1 <1>  -0.2800 
  2 C       -1.7230    -1.0720     0.6490 C.2   1 <1>  -0.0400 
  3 C       -0.9050     0.8410     0.1810 C.2   1 <1>  -0.0400 
  4 C       -2.5690    -0.1690     1.1960 C.2   1 <1>  -0.1500 
  5 C       -1.7230    -2.5890     0.6130 C.3   1 <1>   0.5230 
  6 C       -2.0310     1.0860     0.8870 C.2   1 <1>  -0.1500 
  7 C        0.1250     1.7710    -0.4380 C.3   1 <1>   0.0200 
  8 N       -3.1020    -3.1190     0.7970 N.4   1 <1>  -0.9590 
  9 C       -0.2030     3.2530    -0.2080 C.3   1 <1>  -0.1600 
 10 C       -4.0650    -2.7070    -0.2600 C.3   1 <1>   0.3430 
 11 C       -3.2050    -4.6020     0.8960 C.3   1 <1>   0.3430 
 12 C        0.8500     4.1680    -0.8430 C.3   1 <1>  -0.2400 
 13 C       -5.2390    -3.6610    -0.0540 C.3   1 <1>   0.2000 
 14 C       -4.5540    -4.9930     0.2630 C.3   1 <1>  -0.0800 
 15 O       -5.9200    -3.2490     1.0870 O.3   1 <1>  -0.6800 
 16 C       -4.3560    -5.8450    -1.0060 C.3   1 <1>  -0.0170 
 17 C       -3.4540    -7.0370    -0.7280 C.ar  1 <1>  -0.1440 
 18 C       -3.8270    -8.0500     0.1340 C.ar  1 <1>  -0.1500 
 19 C       -2.2120    -7.1680    -1.3200 C.ar  1 <1>  -0.1500 
 20 C       -2.9580    -9.1010     0.3740 C.ar  1 <1>   0.1600 
 21 C       -1.4190    -8.2600    -1.0120 C.ar  1 <1>   0.1600 
 22 N       -1.7590    -9.2200    -0.1700 N.ar  1 <1>  -0.6200 
 23 H       -3.4730    -0.3130     1.7620 H     1 <1>   0.1500 
 24 H       -1.0700    -2.9580     1.3860 H     1 <1>   0.0800 
 25 H       -1.3360    -2.9120    -0.3390 H     1 <1>   0.0800 
 26 H       -2.4550     2.0330     1.1730 H     1 <1>   0.1500 
 27 H        1.0880     1.5470    -0.0130 H     1 <1>   0.0800 
 28 H        0.1740     1.5740    -1.4940 H     1 <1>   0.0800 
 29 H       -3.4880    -2.7310     1.6700 H     1 <1>   0.4500 
 30 H       -1.1660     3.4760    -0.6330 H     1 <1>   0.0800 
 31 H       -0.2490     3.4490     0.8500 H     1 <1>   0.0800 
 32 H       -4.3710    -1.6780    -0.1550 H     1 <1>   0.0800 
 33 H       -3.6340    -2.8590    -1.2360 H     1 <1>   0.0800 
 34 H       -2.3950    -5.0740     0.3640 H     1 <1>   0.0800 
 35 H       -3.1690    -4.9130     1.9280 H     1 <1>   0.0800 
 36 H        0.9000     4.0060    -1.9060 H     1 <1>   0.0800 
 37 H        1.8210     3.9790    -0.4180 H     1 <1>   0.0800 
 38 H        0.5960     5.1990    -0.6670 H     1 <1>   0.0800 
 39 H       -5.9230    -3.6860    -0.8870 H     1 <1>   0.0800 
 40 H       -5.1330    -5.5660     0.9660 H     1 <1>   0.0800 
 41 H       -6.7850    -3.7040     1.1720 H     1 <1>   0.4000 
 42 H       -3.9270    -5.2530    -1.7960 H     1 <1>   0.0800 
 43 H       -5.3100    -6.2040    -1.3550 H     1 <1>   0.0800 
 44 H       -4.7850    -8.0430     0.6210 H     1 <1>   0.1500 
 45 H       -1.8470    -6.4410    -2.0220 H     1 <1>   0.1500 
 46 H       -3.2620    -9.8840     1.0490 H     1 <1>   0.1500 
 47 H       -0.4530    -8.3520    -1.4830 H     1 <1>   0.1500 
@<TRIPOS>BOND
  1   1   2  1   
  2   1   3  1   
  3   2   4  2   
  4   2   5  1   
  5   3   6  2   
  6   3   7  1   
  7   4   6  1   
  8   4  23  1   
  9   5   8  1   
 10   5  24  1   
 11   5  25  1   
 12   6  26  1   
 13   7   9  1   
 14   7  27  1   
 15   7  28  1   
 16   8  10  1   
 17   8  11  1   
 18   8  29  1   
 19   9  12  1   
 20   9  30  1   
 21   9  31  1   
 22  10  13  1   
 23  10  32  1   
 24  10  33  1   
 25  11  14  1   
 26  11  34  1   
 27  11  35  1   
 28  12  36  1   
 29  12  37  1   
 30  12  38  1   
 31  13  14  1   
 32  13  15  1   
 33  13  39  1   
 34  14  16  1   
 35  14  40  1   
 36  15  41  1   
 37  16  17  1   
 38  16  42  1   
 39  16  43  1   
 40  17  18  ar  
 41  17  19  ar  
 42  18  20  ar  
 43  18  44  1   
 44  19  21  ar  
 45  19  45  1   
 46  20  22  ar  
 47  20  46  1   
 48  21  22  ar  
 49  21  47  1   
@<TRIPOS>SUBSTRUCTURE
  1 ****   8 GROUP 4 **** **** 0

# MOE 2024.06 (io_trps.svl 2023.06)
