@<TRIPOS>MOLECULE
NONAME
47 49 1 0 0 
SMALL
USER_CHARGES


@<TRIPOS>ATOM
  1 O        2.9260     2.2270     1.3200 O.co2 1 <1>  -0.9000 
  2 C        2.6270     1.0410     1.1690 C.2   1 <1>   0.9060 
  3 O        2.7690     0.2340     2.0910 O.co2 1 <1>  -0.9000 
  4 C        2.4730     0.4940    -0.2650 C.3   1 <1>  -0.1060 
  5 C        3.6240    -0.5200    -0.4250 C.3   1 <1>   0.4230 
  6 C        2.6810     1.6100    -1.3420 C.3   1 <1>  -0.1600 
  7 C        1.0910    -0.1670    -0.5040 C.3   1 <1>  -0.1600 
  8 N        3.3680    -1.7330     0.4370 N.4   1 <1>  -0.9590 
  9 C        4.9890     0.2020    -0.1330 C.3   1 <1>   0.3430 
 10 C        4.1260     2.1260    -1.5070 C.3   1 <1>   0.3430 
 11 C        0.9180    -1.4730     0.2840 C.3   1 <1>  -0.1600 
 12 C        2.0970    -2.4270     0.0910 C.3   1 <1>   0.3430 
 13 C        4.4910    -2.7000     0.5960 C.3   1 <1>   0.2630 
 14 N        4.9580     1.6970    -0.3520 N.4   1 <1>  -0.9590 
 15 C        6.2700     2.3810    -0.2290 C.3   1 <1>   0.4860 
 16 C        6.0490     3.8840    -0.1860 C.ar  1 <1>  -0.1430 
 17 C        5.2950     4.4530     0.8310 C.ar  1 <1>  -0.1500 
 18 C        6.5890     4.7050    -1.1650 C.ar  1 <1>  -0.1500 
 19 C        5.0780     5.8180     0.8610 C.ar  1 <1>  -0.1500 
 20 C        6.3700     6.0720    -1.1270 C.ar  1 <1>  -0.1500 
 21 C        5.6100     6.6490    -0.1150 C.ar  1 <1>   0.0730 
 22 C        5.3790     8.0660    -0.0800 C.1   1 <1>   0.4840 
 23 N        5.1960     9.1910    -0.0580 N.1   1 <1>  -0.5570 
 24 H        3.6380    -0.8420    -1.4530 H     1 <1>   0.0800 
 25 H        2.0520     2.4500    -1.0950 H     1 <1>   0.0800 
 26 H        2.3530     1.2690    -2.3080 H     1 <1>   0.0800 
 27 H        0.3100     0.5230    -0.2240 H     1 <1>   0.0800 
 28 H        0.9640    -0.3890    -1.5500 H     1 <1>   0.0800 
 29 H        3.1660    -1.2880     1.3770 H     1 <1>   0.4500 
 30 H        5.7510    -0.2380    -0.7530 H     1 <1>   0.0800 
 31 H        5.2410     0.0250     0.9000 H     1 <1>   0.0800 
 32 H        4.1040     3.2030    -1.5670 H     1 <1>   0.0800 
 33 H        4.5500     1.7460    -2.4220 H     1 <1>   0.0800 
 34 H        0.0130    -1.9630    -0.0320 H     1 <1>   0.0800 
 35 H        0.8050    -1.2580     1.3340 H     1 <1>   0.0800 
 36 H        2.1290    -2.7660    -0.9310 H     1 <1>   0.0800 
 37 H        1.9600    -3.2840     0.7310 H     1 <1>   0.0800 
 38 H        4.7430    -3.1450    -0.3520 H     1 <1>   0.0800 
 39 H        4.2060    -3.4840     1.2800 H     1 <1>   0.0800 
 40 H        5.3610    -2.2080     0.9990 H     1 <1>   0.0800 
 41 H        4.3970     2.0880     0.4550 H     1 <1>   0.4500 
 42 H        6.7580     2.0760     0.6820 H     1 <1>   0.0800 
 43 H        6.9030     2.1260    -1.0620 H     1 <1>   0.0800 
 44 H        4.8590     3.8460     1.6110 H     1 <1>   0.1500 
 45 H        7.1840     4.2960    -1.9640 H     1 <1>   0.1500 
 46 H        4.4830     6.2380     1.6570 H     1 <1>   0.1500 
 47 H        6.7950     6.7010    -1.8920 H     1 <1>   0.1500 
@<TRIPOS>BOND
  1   1   2  ar  
  2   2   3  ar  
  3   2   4  1   
  4   4   5  1   
  5   4   6  1   
  6   4   7  1   
  7   5   8  1   
  8   5   9  1   
  9   5  24  1   
 10   6  10  1   
 11   6  25  1   
 12   6  26  1   
 13   7  11  1   
 14   7  27  1   
 15   7  28  1   
 16   8  12  1   
 17   8  13  1   
 18   8  29  1   
 19   9  14  1   
 20   9  30  1   
 21   9  31  1   
 22  10  14  1   
 23  10  32  1   
 24  10  33  1   
 25  11  12  1   
 26  11  34  1   
 27  11  35  1   
 28  12  36  1   
 29  12  37  1   
 30  13  38  1   
 31  13  39  1   
 32  13  40  1   
 33  14  15  1   
 34  14  41  1   
 35  15  16  1   
 36  15  42  1   
 37  15  43  1   
 38  16  17  ar  
 39  16  18  ar  
 40  17  19  ar  
 41  17  44  1   
 42  18  20  ar  
 43  18  45  1   
 44  19  21  ar  
 45  19  46  1   
 46  20  21  ar  
 47  20  47  1   
 48  21  22  1   
 49  22  23  3   
@<TRIPOS>SUBSTRUCTURE
  1 ****  14 GROUP 4 **** **** 0

# MOE 2024.06 (io_trps.svl 2023.06)
