@<TRIPOS>MOLECULE
NONAME
39 41 1 0 0 
SMALL
USER_CHARGES


@<TRIPOS>ATOM
  1 O        1.9700     1.8460     1.7160 O.3   1 <1>  -0.6580 
  2 C        1.7580     1.3400     0.4290 C.3   1 <1>   0.2580 
  3 C        2.9990     0.5880    -0.1240 C.3   1 <1>   0.2450 
  4 C        2.0330     2.3900    -0.6800 C.3   1 <1>   0.2450 
  5 N        3.4540     1.8840    -0.7430 N.3   1 <1>  -0.5900 
  6 C        4.5850     2.5980    -0.5340 C.ar  1 <1>   0.4100 
  7 N        4.5310     3.9070    -0.6900 N.ar  1 <1>  -0.6200 
  8 C        5.7810     1.9520    -0.1690 C.ar  1 <1>  -0.1500 
  9 C        5.6230     4.6210    -0.4610 C.ar  1 <1>   0.7710 
 10 C        6.8900     2.6950     0.0580 C.ar  1 <1>   0.2180 
 11 N        6.7760     4.0360    -0.0910 N.ar  1 <1>  -0.1790 
 12 N        5.5830     5.9760    -0.5930 N.pl3 1 <1>  -0.8380 
 13 C        8.2310     2.1090     0.4640 C.3   1 <1>  -0.0970 
 14 C        4.2890     6.7050    -0.8140 C.3   1 <1>   0.2090 
 15 C        6.7300     6.9320    -0.5020 C.3   1 <1>   0.2090 
 16 C        4.0280     7.6290     0.3800 C.3   1 <1>  -0.1600 
 17 C        6.5250     7.8440     0.7100 C.3   1 <1>  -0.1600 
 18 C        5.1920     8.6010     0.6180 C.3   1 <1>  -0.1600 
 19 H        1.7660     1.1640     2.3840 H     1 <1>   0.4000 
 20 H        0.8180     0.8230     0.3630 H     1 <1>   0.0000 
 21 H        2.7610    -0.1360    -0.8830 H     1 <1>   0.0000 
 22 H        3.6660     0.2250     0.6380 H     1 <1>   0.0000 
 23 H        1.9530     3.4100    -0.3460 H     1 <1>   0.0000 
 24 H        1.5140     2.1880    -1.6000 H     1 <1>   0.0000 
 25 H        5.7820     0.8820    -0.0820 H     1 <1>   0.1500 
 26 H        7.5420     4.6680     0.0880 H     1 <1>   0.4570 
 27 H        8.1650     1.0370     0.5410 H     1 <1>   0.0800 
 28 H        8.5360     2.4940     1.4220 H     1 <1>   0.0800 
 29 H        8.9830     2.3460    -0.2670 H     1 <1>   0.0800 
 30 H        3.4540     6.0350    -0.9260 H     1 <1>   0.0800 
 31 H        4.3580     7.2870    -1.7180 H     1 <1>   0.0800 
 32 H        6.7570     7.5320    -1.3980 H     1 <1>   0.0800 
 33 H        7.6750     6.4270    -0.4250 H     1 <1>   0.0800 
 34 H        3.8690     7.0250     1.2570 H     1 <1>   0.0800 
 35 H        3.1250     8.1870     0.2040 H     1 <1>   0.0800 
 36 H        7.3320     8.5540     0.7650 H     1 <1>   0.0800 
 37 H        6.5440     7.2550     1.6100 H     1 <1>   0.0800 
 38 H        5.0230     9.1570     1.5250 H     1 <1>   0.0800 
 39 H        5.2370     9.3050    -0.1960 H     1 <1>   0.0800 
@<TRIPOS>BOND
  1   1   2  1   
  2   1  19  1   
  3   2   3  1   
  4   2   4  1   
  5   2  20  1   
  6   3   5  1   
  7   3  21  1   
  8   3  22  1   
  9   4   5  1   
 10   4  23  1   
 11   4  24  1   
 12   5   6  1   
 13   6   7  ar  
 14   6   8  ar  
 15   7   9  ar  
 16   8  10  ar  
 17   8  25  1   
 18   9  11  ar  
 19   9  12  1   
 20  10  11  ar  
 21  10  13  1   
 22  11  26  1   
 23  12  14  1   
 24  12  15  1   
 25  13  27  1   
 26  13  28  1   
 27  13  29  1   
 28  14  16  1   
 29  14  30  1   
 30  14  31  1   
 31  15  17  1   
 32  15  32  1   
 33  15  33  1   
 34  16  18  1   
 35  16  34  1   
 36  16  35  1   
 37  17  18  1   
 38  17  36  1   
 39  17  37  1   
 40  18  38  1   
 41  18  39  1   
@<TRIPOS>SUBSTRUCTURE
  1 ****   7 GROUP 4 **** **** 0

# MOE 2024.06 (io_trps.svl 2023.06)
