@<TRIPOS>MOLECULE
NONAME
47 49 1 0 0 
SMALL
USER_CHARGES


@<TRIPOS>ATOM
  1 S        0.2720     0.4740     0.5880 S.o2  1 <1>   1.3330 
  2 O       -1.0550     0.9170     0.2260 O.2   1 <1>  -0.6500 
  3 O        0.6690     0.4680     1.9780 O.2   1 <1>  -0.6500 
  4 N        0.4580    -1.1040    -0.0170 N.am  1 <1>  -0.8490 
  5 C        1.4810     1.4290    -0.3330 C.3   1 <1>  -0.0550 
  6 C        0.0730    -2.1210     0.9660 C.3   1 <1>   0.1160 
  7 C       -0.2600    -1.3320    -1.2750 C.3   1 <1>   0.1160 
  8 C        2.9460     1.0940     0.0070 C.3   1 <1>  -0.0800 
  9 C        3.9200     2.0030    -0.7100 C.3   1 <1>   0.2200 
 10 C        3.4130    -0.2920    -0.4340 C.3   1 <1>   0.1200 
 11 N        4.1040     3.2680     0.0290 N.am  1 <1>  -0.7300 
 12 C        5.1840     1.1550    -0.7640 C.3   1 <1>   0.1200 
 13 O        4.7570    -0.1740    -0.7960 O.3   1 <1>  -0.5600 
 14 C        3.5230     4.4530    -0.2920 C.2   1 <1>   0.5690 
 15 O        2.7410     4.5430    -1.2080 O.2   1 <1>  -0.5700 
 16 C        3.8370     5.6950     0.5400 C.3   1 <1>   0.2010 
 17 N        5.2940     6.0010     0.6060 N.am  1 <1>  -0.4770 
 18 C        6.2370     5.2650     1.2620 C.2   1 <1>   0.7800 
 19 C        5.9690     7.0360    -0.0050 C.ar  1 <1>   0.1170 
 20 O        6.0380     4.2370     1.8860 O.2   1 <1>  -0.5700 
 21 O        7.4490     5.7990     1.1110 O.3   1 <1>  -0.2330 
 22 C        7.2980     6.8880     0.3300 C.ar  1 <1>   0.0820 
 23 C        5.5680     8.0870    -0.8180 C.ar  1 <1>  -0.1500 
 24 C        8.2700     7.7660    -0.1120 C.ar  1 <1>  -0.1500 
 25 C        6.5310     8.9760    -1.2710 C.ar  1 <1>  -0.1500 
 26 C        7.8710     8.8190    -0.9210 C.ar  1 <1>  -0.1500 
 27 H        1.3160     1.3030    -1.3850 H     1 <1>   0.0800 
 28 H        1.3190     2.4660    -0.1110 H     1 <1>   0.0800 
 29 H        0.2130    -3.1070     0.5580 H     1 <1>   0.0800 
 30 H       -0.9590    -1.9960     1.2490 H     1 <1>   0.0800 
 31 H        0.6860    -2.0330     1.8480 H     1 <1>   0.0800 
 32 H       -0.0330    -2.3130    -1.6580 H     1 <1>   0.0800 
 33 H        0.0360    -0.6040    -2.0110 H     1 <1>   0.0800 
 34 H       -1.3250    -1.2540    -1.1220 H     1 <1>   0.0800 
 35 H        3.1000     1.1700     1.0700 H     1 <1>   0.0800 
 36 H        3.5900     2.2000    -1.7170 H     1 <1>   0.0800 
 37 H        2.8750    -0.6340    -1.3010 H     1 <1>   0.0800 
 38 H        3.3240    -1.0190     0.3560 H     1 <1>   0.0800 
 39 H        4.7620     3.2370     0.8240 H     1 <1>   0.3700 
 40 H        5.7780     1.2830     0.1240 H     1 <1>   0.0800 
 41 H        5.7690     1.3560    -1.6430 H     1 <1>   0.0800 
 42 H        3.4690     5.5380     1.5370 H     1 <1>   0.0800 
 43 H        3.3150     6.5340     0.1190 H     1 <1>   0.0800 
 44 H        4.5350     8.2060    -1.0910 H     1 <1>   0.1500 
 45 H        9.2990     7.6260     0.1670 H     1 <1>   0.1500 
 46 H        6.2420     9.8000    -1.9020 H     1 <1>   0.1500 
 47 H        8.6020     9.5220    -1.2840 H     1 <1>   0.1500 
@<TRIPOS>BOND
  1   1   2  2   
  2   1   3  2   
  3   1   4  am  
  4   1   5  1   
  5   4   6  1   
  6   4   7  1   
  7   5   8  1   
  8   5  27  1   
  9   5  28  1   
 10   6  29  1   
 11   6  30  1   
 12   6  31  1   
 13   7  32  1   
 14   7  33  1   
 15   7  34  1   
 16   8   9  1   
 17   8  10  1   
 18   8  35  1   
 19   9  11  1   
 20   9  12  1   
 21   9  36  1   
 22  10  13  1   
 23  10  37  1   
 24  10  38  1   
 25  11  14  am  
 26  11  39  1   
 27  12  13  1   
 28  12  40  1   
 29  12  41  1   
 30  14  15  2   
 31  14  16  1   
 32  16  17  1   
 33  16  42  1   
 34  16  43  1   
 35  17  18  am  
 36  17  19  1   
 37  18  20  2   
 38  18  21  1   
 39  19  22  ar  
 40  19  23  ar  
 41  21  22  1   
 42  22  24  ar  
 43  23  25  ar  
 44  23  44  1   
 45  24  26  ar  
 46  24  45  1   
 47  25  26  ar  
 48  25  46  1   
 49  26  47  1   
@<TRIPOS>SUBSTRUCTURE
  1 ****  11 GROUP 4 **** **** 0

# MOE 2024.06 (io_trps.svl 2023.06)
