@<TRIPOS>MOLECULE
NONAME
21 23 1 0 0 
SMALL
USER_CHARGES


@<TRIPOS>ATOM
  1 BR       0.1720     0.0600    -0.1030 Br    1 <1>  -0.1110 
  2 C       -1.5690     0.8580     0.1220 C.ar  1 <1>   0.1110 
  3 C       -1.6410     2.1990     0.5260 C.ar  1 <1>   0.1600 
  4 C       -2.6880     0.1070    -0.1140 C.ar  1 <1>  -0.1500 
  5 N       -2.7700     2.8440     0.7100 N.ar  1 <1>  -0.5670 
  6 C       -3.8990     0.7770     0.0780 C.ar  1 <1>   0.0000 
  7 C       -3.8710     2.1010     0.4770 C.ar  1 <1>   0.1050 
  8 C       -5.2710     0.4770    -0.0240 C.2   1 <1>   0.2030 
  9 N       -5.1700     2.4840     0.5790 N.pl3 1 <1>   0.3000 
 10 N       -6.0300     1.4820     0.2680 N.2   1 <1>  -0.7070 
 11 C       -5.8060    -0.8830    -0.4380 C.3   1 <1>  -0.0140 
 12 C       -6.8470    -1.5660     0.3960 C.3   1 <1>  -0.2000 
 13 C       -5.4520    -2.1080     0.3510 C.3   1 <1>  -0.2000 
 14 H       -0.7180     2.7270     0.6940 H     1 <1>   0.1500 
 15 H       -2.6540    -0.9210    -0.4240 H     1 <1>   0.1500 
 16 H       -5.4670     3.4240     0.8580 H     1 <1>   0.2700 
 17 H       -5.8970    -0.9740    -1.5060 H     1 <1>   0.1000 
 18 H       -7.6350    -2.0960    -0.1080 H     1 <1>   0.1000 
 19 H       -7.1890    -1.0600     1.2820 H     1 <1>   0.1000 
 20 H       -4.8400    -2.0050     1.2300 H     1 <1>   0.1000 
 21 H       -5.2710    -3.0280    -0.1760 H     1 <1>   0.1000 
@<TRIPOS>BOND
  1   1   2  1   
  2   2   3  ar  
  3   2   4  ar  
  4   3   5  ar  
  5   3  14  1   
  6   4   6  ar  
  7   4  15  1   
  8   5   7  ar  
  9   6   7  ar  
 10   6   8  1   
 11   7   9  1   
 12   8  10  2   
 13   8  11  1   
 14   9  10  1   
 15   9  16  1   
 16  11  12  1   
 17  11  13  1   
 18  11  17  1   
 19  12  13  1   
 20  12  18  1   
 21  12  19  1   
 22  13  20  1   
 23  13  21  1   
@<TRIPOS>SUBSTRUCTURE
  1 ****   6 GROUP 4 **** **** 0

# MOE 2024.06 (io_trps.svl 2023.06)
