@<TRIPOS>MOLECULE
NONAME
40 42 1 0 0 
SMALL
USER_CHARGES


@<TRIPOS>ATOM
  1 O       -0.6800     0.5530     0.0700 O.2   1 <1>  -0.5700 
  2 C       -1.7170     1.1580     0.2970 C.2   1 <1>   0.7160 
  3 N       -2.9040     0.4300     0.2520 N.am  1 <1>  -0.6600 
  4 C       -1.6200     2.5970     0.5630 C.2   1 <1>   0.1410 
  5 C       -4.2330     1.1060     0.1320 C.3   1 <1>   0.2200 
  6 C       -2.8720    -1.0670     0.2490 C.3   1 <1>   0.0600 
  7 N       -2.5260     3.3710     1.2400 N.2   1 <1>  -0.5650 
  8 C       -0.5800     3.4010     0.1920 C.2   1 <1>  -0.3020 
  9 C       -5.4700     0.2040     0.1490 C.3   1 <1>  -0.1600 
 10 C       -4.3690     1.8420    -1.1990 C.3   1 <1>  -0.1600 
 11 C       -2.0200     4.5570     1.2450 C.2   1 <1>   0.0360 
 12 N       -0.8290     4.6430     0.6180 N.pl3 1 <1>   0.0480 
 13 C       -6.5800     1.0750    -0.4510 C.3   1 <1>  -0.0800 
 14 C       -5.8730     2.1120    -1.3410 C.3   1 <1>  -0.0800 
 15 C        0.0170     5.8360     0.4520 C.3   1 <1>   0.0160 
 16 C       -7.3660     1.8710     0.6010 C.3   1 <1>  -0.1600 
 17 C       -6.2850     3.4940    -0.8140 C.3   1 <1>  -0.1600 
 18 C       -7.5570     3.2460    -0.0200 C.3   1 <1>   0.2000 
 19 O       -7.6910     4.1960     0.9680 O.3   1 <1>  -0.6800 
 20 H       -4.3490     1.8050     0.9410 H     1 <1>   0.0800 
 21 H       -3.5420    -1.4520     0.9960 H     1 <1>   0.0800 
 22 H       -1.8860    -1.4350     0.4720 H     1 <1>   0.0800 
 23 H       -3.1590    -1.4330    -0.7210 H     1 <1>   0.0800 
 24 H        0.3060     3.1180    -0.3460 H     1 <1>   0.1500 
 25 H       -5.3340    -0.6380    -0.5050 H     1 <1>   0.0800 
 26 H       -5.7070    -0.1380     1.1410 H     1 <1>   0.0800 
 27 H       -3.7910     2.7470    -1.2280 H     1 <1>   0.0800 
 28 H       -4.0500     1.1920    -1.9950 H     1 <1>   0.0800 
 29 H       -2.4840     5.4140     1.7020 H     1 <1>   0.1500 
 30 H       -7.2600     0.4800    -1.0390 H     1 <1>   0.0800 
 31 H       -6.1840     2.0020    -2.3670 H     1 <1>   0.0800 
 32 H        0.8980     5.5760    -0.1050 H     1 <1>   0.0800 
 33 H        0.3020     6.2060     1.4200 H     1 <1>   0.0800 
 34 H       -0.5330     6.5920    -0.0780 H     1 <1>   0.0800 
 35 H       -6.7900     1.9590     1.5060 H     1 <1>   0.0800 
 36 H       -8.3110     1.4080     0.8200 H     1 <1>   0.0800 
 37 H       -6.4580     4.1850    -1.6190 H     1 <1>   0.0800 
 38 H       -5.5210     3.8850    -0.1630 H     1 <1>   0.0800 
 39 H       -8.4270     3.2690    -0.6560 H     1 <1>   0.0800 
 40 H       -6.8910     4.1980     1.5270 H     1 <1>   0.4000 
@<TRIPOS>BOND
  1   1   2  2   
  2   2   3  am  
  3   2   4  1   
  4   3   5  1   
  5   3   6  1   
  6   4   7  1   
  7   4   8  2   
  8   5   9  1   
  9   5  10  1   
 10   5  20  1   
 11   6  21  1   
 12   6  22  1   
 13   6  23  1   
 14   7  11  2   
 15   8  12  1   
 16   8  24  1   
 17   9  13  1   
 18   9  25  1   
 19   9  26  1   
 20  10  14  1   
 21  10  27  1   
 22  10  28  1   
 23  11  12  1   
 24  11  29  1   
 25  12  15  1   
 26  13  14  1   
 27  13  16  1   
 28  13  30  1   
 29  14  17  1   
 30  14  31  1   
 31  15  32  1   
 32  15  33  1   
 33  15  34  1   
 34  16  18  1   
 35  16  35  1   
 36  16  36  1   
 37  17  18  1   
 38  17  37  1   
 39  17  38  1   
 40  18  19  1   
 41  18  39  1   
 42  19  40  1   
@<TRIPOS>SUBSTRUCTURE
  1 ****   5 GROUP 4 **** **** 0

# MOE 2024.06 (io_trps.svl 2023.06)
