@<TRIPOS>MOLECULE
NONAME
46 48 1 0 0 
SMALL
USER_CHARGES


@<TRIPOS>ATOM
  1 CL      -1.7880     1.6410     3.7680 Cl    1 <1>  -0.1770 
  2 C       -2.7020     2.0490     2.3400 C.ar  1 <1>   0.1770 
  3 C       -2.2740     3.0810     1.5300 C.ar  1 <1>  -0.1500 
  4 C       -3.8450     1.3340     2.0380 C.ar  1 <1>  -0.1500 
  5 C       -3.0060     3.4010     0.3980 C.ar  1 <1>  -0.1500 
  6 C       -4.5670     1.6650     0.9030 C.ar  1 <1>  -0.1500 
  7 C       -4.1640     2.7020     0.0660 C.ar  1 <1>  -0.0090 
  8 S       -5.1280     3.1220    -1.4150 S.o2  1 <1>   1.4470 
  9 O       -5.2020     1.9540    -2.2640 O.2   1 <1>  -0.6500 
 10 O       -4.6620     4.3780    -1.9650 O.2   1 <1>  -0.6500 
 11 N       -6.6810     3.3940    -0.7880 N.am  1 <1>  -0.8490 
 12 C       -6.7620     4.6570    -0.0520 C.3   1 <1>   0.1960 
 13 C       -7.6900     3.3760    -1.8510 C.3   1 <1>   0.1960 
 14 C       -8.1230     4.7660     0.6410 C.3   1 <1>  -0.1600 
 15 C       -9.0890     3.4440    -1.2370 C.3   1 <1>  -0.1600 
 16 C       -9.2800     4.6970    -0.3720 C.3   1 <1>   0.2800 
 17 O       -9.1600     5.7750    -1.2540 O.3   1 <1>  -0.5600 
 18 C      -10.6810     4.6610     0.3010 C.3   1 <1>  -0.1600 
 19 C       -9.4930     7.0850    -0.8570 C.3   1 <1>   0.1200 
 20 C      -11.5610     5.8960     0.0500 C.3   1 <1>   0.2800 
 21 C      -10.6930     7.1740     0.1070 C.3   1 <1>   0.2000 
 22 O      -12.1140     5.7900    -1.2120 O.3   1 <1>  -0.6800 
 23 C      -12.7540     5.9390     1.0120 C.3   1 <1>  -0.2400 
 24 O      -10.2090     7.3770     1.4030 O.3   1 <1>  -0.6800 
 25 H       -1.3790     3.6230     1.7820 H     1 <1>   0.1500 
 26 H       -4.1600     0.5310     2.6810 H     1 <1>   0.1500 
 27 H       -2.6730     4.2050    -0.2390 H     1 <1>   0.1500 
 28 H       -5.4590     1.1110     0.6580 H     1 <1>   0.1500 
 29 H       -5.9860     4.6960     0.6940 H     1 <1>   0.0800 
 30 H       -6.6230     5.4890    -0.7250 H     1 <1>   0.0800 
 31 H       -7.5350     4.2040    -2.5250 H     1 <1>   0.0800 
 32 H       -7.6100     2.4630    -2.4190 H     1 <1>   0.0800 
 33 H       -8.1580     5.6800     1.2000 H     1 <1>   0.0800 
 34 H       -8.2070     3.9540     1.3410 H     1 <1>   0.0800 
 35 H       -9.2390     2.5610    -0.6430 H     1 <1>   0.0800 
 36 H       -9.8220     3.4390    -2.0230 H     1 <1>   0.0800 
 37 H      -11.2220     3.7800     0.0070 H     1 <1>   0.0800 
 38 H      -10.5350     4.5620     1.3600 H     1 <1>   0.0800 
 39 H       -8.6210     7.5500    -0.4340 H     1 <1>   0.0800 
 40 H       -9.7450     7.6090    -1.7620 H     1 <1>   0.0800 
 41 H      -11.2900     8.0350    -0.1330 H     1 <1>   0.0800 
 42 H      -12.6450     4.9770    -1.2750 H     1 <1>   0.4000 
 43 H      -12.4130     6.0230     2.0280 H     1 <1>   0.0800 
 44 H      -13.3470     5.0470     0.9290 H     1 <1>   0.0800 
 45 H      -13.3680     6.7960     0.7990 H     1 <1>   0.0800 
 46 H       -9.6800     6.6070     1.6800 H     1 <1>   0.4000 
@<TRIPOS>BOND
  1   1   2  1   
  2   2   3  ar  
  3   2   4  ar  
  4   3   5  ar  
  5   3  25  1   
  6   4   6  ar  
  7   4  26  1   
  8   5   7  ar  
  9   5  27  1   
 10   6   7  ar  
 11   6  28  1   
 12   7   8  1   
 13   8   9  2   
 14   8  10  2   
 15   8  11  am  
 16  11  12  1   
 17  11  13  1   
 18  12  14  1   
 19  12  29  1   
 20  12  30  1   
 21  13  15  1   
 22  13  31  1   
 23  13  32  1   
 24  14  16  1   
 25  14  33  1   
 26  14  34  1   
 27  15  16  1   
 28  15  35  1   
 29  15  36  1   
 30  16  17  1   
 31  16  18  1   
 32  17  19  1   
 33  18  20  1   
 34  18  37  1   
 35  18  38  1   
 36  19  21  1   
 37  19  39  1   
 38  19  40  1   
 39  20  21  1   
 40  20  22  1   
 41  20  23  1   
 42  21  24  1   
 43  21  41  1   
 44  22  42  1   
 45  23  43  1   
 46  23  44  1   
 47  23  45  1   
 48  24  46  1   
@<TRIPOS>SUBSTRUCTURE
  1 ****  12 GROUP 4 **** **** 0

# MOE 2024.06 (io_trps.svl 2023.06)
