@<TRIPOS>MOLECULE
NONAME
48 50 1 0 0 
SMALL
USER_CHARGES


@<TRIPOS>ATOM
  1 O        0.7790    -0.2300    -0.4010 O.2   1 <1>  -0.5700 
  2 C        1.3990    -1.0460     0.2290 C.2   1 <1>   0.4230 
  3 C        0.9740    -2.4230     0.3700 C.ar  1 <1>   0.0860 
  4 C        2.6780    -0.5690     0.8900 C.3   1 <1>  -0.1790 
  5 C       -0.1400    -2.9060    -0.2950 C.ar  1 <1>  -0.1500 
  6 C        1.6200    -3.3680     1.1630 C.ar  1 <1>  -0.1500 
  7 C       -0.5550    -4.2230    -0.1570 C.ar  1 <1>   0.4100 
  8 C        1.1420    -4.6600     1.2400 C.ar  1 <1>   0.1600 
  9 N        0.0750    -5.1120     0.6040 N.ar  1 <1>  -0.6200 
 10 N       -1.6850    -4.6630    -0.8240 N.pl3 1 <1>  -0.8380 
 11 C       -1.7590    -6.0920    -1.2270 C.3   1 <1>   0.2090 
 12 C       -2.9920    -4.0710    -0.4260 C.3   1 <1>   0.2090 
 13 C       -2.3500    -6.9400    -0.0730 C.3   1 <1>   0.4230 
 14 C       -3.5790    -4.8950     0.7270 C.3   1 <1>  -0.1600 
 15 N       -2.3130    -8.4460    -0.3190 N.4   1 <1>  -0.9590 
 16 C       -3.7360    -6.4080     0.3990 C.3   1 <1>   0.0000 
 17 C       -3.2260    -9.2340     0.5700 C.3   1 <1>   0.3430 
 18 C       -2.4920    -8.8710    -1.7460 C.3   1 <1>   0.2630 
 19 C       -4.1600    -7.1550     1.6990 C.3   1 <1>  -0.1600 
 20 C       -4.7980    -6.6120    -0.7180 C.3   1 <1>   0.1200 
 21 C       -3.4560    -8.5120     1.8950 C.3   1 <1>  -0.1600 
 22 O       -5.9910    -5.9780    -0.4150 O.3   1 <1>  -0.6800 
 23 H        3.5100    -1.1610     0.5580 H     1 <1>   0.0800 
 24 H        2.5860    -0.6330     1.9580 H     1 <1>   0.0800 
 25 H        2.8630     0.4570     0.6240 H     1 <1>   0.0800 
 26 H       -0.6990    -2.2540    -0.9390 H     1 <1>   0.1500 
 27 H        2.4970    -3.1060     1.7250 H     1 <1>   0.1500 
 28 H        1.6690    -5.3640     1.8630 H     1 <1>   0.1500 
 29 H       -2.3590    -6.1640    -2.1150 H     1 <1>   0.0800 
 30 H       -0.7670    -6.4390    -1.4600 H     1 <1>   0.0800 
 31 H       -2.8550    -3.0510    -0.1060 H     1 <1>   0.0800 
 32 H       -3.6610    -4.0630    -1.2700 H     1 <1>   0.0800 
 33 H       -1.6910    -6.7600     0.7590 H     1 <1>   0.0800 
 34 H       -2.9220    -4.7710     1.5700 H     1 <1>   0.0800 
 35 H       -4.5250    -4.4660     1.0080 H     1 <1>   0.0800 
 36 H       -1.3550    -8.7120    -0.0470 H     1 <1>   0.4500 
 37 H       -4.1790    -9.3700     0.0860 H     1 <1>   0.0800 
 38 H       -2.8050   -10.2100     0.7540 H     1 <1>   0.0800 
 39 H       -3.4630    -8.5770    -2.1090 H     1 <1>   0.0800 
 40 H       -2.4040    -9.9420    -1.8300 H     1 <1>   0.0800 
 41 H       -1.7380    -8.4220    -2.3720 H     1 <1>   0.0800 
 42 H       -3.9420    -6.5550     2.5680 H     1 <1>   0.0800 
 43 H       -5.2240    -7.3110     1.7070 H     1 <1>   0.0800 
 44 H       -5.0180    -7.6540    -0.8670 H     1 <1>   0.0800 
 45 H       -4.4670    -6.1990    -1.6540 H     1 <1>   0.0800 
 46 H       -4.0590    -9.1310     2.5380 H     1 <1>   0.0800 
 47 H       -2.5100    -8.3720     2.3910 H     1 <1>   0.0800 
 48 H       -6.3900    -6.3150     0.4110 H     1 <1>   0.4000 
@<TRIPOS>BOND
  1   1   2  2   
  2   2   3  1   
  3   2   4  1   
  4   3   5  ar  
  5   3   6  ar  
  6   4  23  1   
  7   4  24  1   
  8   4  25  1   
  9   5   7  ar  
 10   5  26  1   
 11   6   8  ar  
 12   6  27  1   
 13   7   9  ar  
 14   7  10  1   
 15   8   9  ar  
 16   8  28  1   
 17  10  11  1   
 18  10  12  1   
 19  11  13  1   
 20  11  29  1   
 21  11  30  1   
 22  12  14  1   
 23  12  31  1   
 24  12  32  1   
 25  13  15  1   
 26  13  16  1   
 27  13  33  1   
 28  14  16  1   
 29  14  34  1   
 30  14  35  1   
 31  15  17  1   
 32  15  18  1   
 33  15  36  1   
 34  16  19  1   
 35  16  20  1   
 36  17  21  1   
 37  17  37  1   
 38  17  38  1   
 39  18  39  1   
 40  18  40  1   
 41  18  41  1   
 42  19  21  1   
 43  19  42  1   
 44  19  43  1   
 45  20  22  1   
 46  20  44  1   
 47  20  45  1   
 48  21  46  1   
 49  21  47  1   
 50  22  48  1   
@<TRIPOS>SUBSTRUCTURE
  1 ****  10 GROUP 4 **** **** 0

# MOE 2024.06 (io_trps.svl 2023.06)
