@<TRIPOS>MOLECULE
NONAME
46 48 1 0 0 
SMALL
USER_CHARGES


@<TRIPOS>ATOM
  1 O       -0.0560    -0.3860     1.6270 O.2   1 <1>  -0.5700 
  2 C        0.5970    -1.3780     1.3910 C.2   1 <1>   0.5690 
  3 N        1.7240    -1.3680     0.6310 N.am  1 <1>  -0.4930 
  4 C        0.1490    -2.7130     1.9910 C.3   1 <1>   0.1710 
  5 C        2.3730    -0.3190    -0.0170 C.2   1 <1>   0.3520 
  6 N       -0.3700    -3.6780     0.9720 N.3   1 <1>  -0.8100 
  7 N        3.4940    -0.4850    -0.6290 N.2   1 <1>  -0.4100 
  8 C        1.9540     1.0080    -0.1140 C.2   1 <1>  -0.1500 
  9 C        0.5150    -4.8520     0.8060 C.3   1 <1>   0.2530 
 10 C       -1.7750    -4.0660     1.2260 C.3   1 <1>   0.1100 
 11 O        3.8170     0.6860    -1.1190 O.3   1 <1>  -0.0190 
 12 C        2.9220     1.5940    -0.8300 C.2   1 <1>  -0.0400 
 13 C        1.8280    -4.4640     0.1290 C.ar  1 <1>   0.1670 
 14 C       -2.7520    -2.8970     1.0100 C.3   1 <1>   0.2000 
 15 C        3.1080     3.0180    -1.3060 C.3   1 <1>  -0.0600 
 16 N        2.8610    -4.1740     0.9130 N.ar  1 <1>  -0.6200 
 17 C        1.8730    -4.4060    -1.2560 C.ar  1 <1>  -0.1500 
 18 O       -4.0550    -3.3650     1.1220 O.3   1 <1>  -0.5600 
 19 C       -2.6970    -2.2710    -0.3780 C.3   1 <1>  -0.1600 
 20 C        3.9800    -3.8310     0.2890 C.ar  1 <1>   0.1600 
 21 C        3.0400    -4.0400    -1.8900 C.ar  1 <1>  -0.1500 
 22 C       -4.9270    -2.4760     0.5010 C.3   1 <1>   0.1200 
 23 C       -4.1230    -1.7930    -0.6030 C.3   1 <1>  -0.1600 
 24 C        4.1190    -3.7480    -1.0850 C.ar  1 <1>  -0.1500 
 25 H        2.1770    -2.2800     0.4970 H     1 <1>   0.3700 
 26 H       -0.6070    -2.5030     2.7260 H     1 <1>   0.0800 
 27 H        0.9830    -3.1380     2.5220 H     1 <1>   0.0800 
 28 H        1.0550     1.4210     0.3040 H     1 <1>   0.1500 
 29 H        0.0250    -5.5830     0.1880 H     1 <1>   0.0800 
 30 H        0.7150    -5.3080     1.7610 H     1 <1>   0.0800 
 31 H       -1.8780    -4.4390     2.2300 H     1 <1>   0.0800 
 32 H       -2.0530    -4.8490     0.5410 H     1 <1>   0.0800 
 33 H       -2.6200    -2.1420     1.7650 H     1 <1>   0.0800 
 34 H        2.2850     3.6280    -0.9820 H     1 <1>   0.0800 
 35 H        3.1590     3.0400    -2.3790 H     1 <1>   0.0800 
 36 H        4.0210     3.4200    -0.9040 H     1 <1>   0.0800 
 37 H        0.9950    -4.6350    -1.8330 H     1 <1>   0.1500 
 38 H       -2.4310    -3.0180    -1.1050 H     1 <1>   0.0800 
 39 H       -1.9780    -1.4710    -0.4160 H     1 <1>   0.0800 
 40 H        4.8320    -3.5960     0.9050 H     1 <1>   0.1500 
 41 H        3.1060    -3.9790    -2.9620 H     1 <1>   0.1500 
 42 H       -5.2580    -1.7650     1.2380 H     1 <1>   0.0800 
 43 H       -5.7660    -3.0290     0.1150 H     1 <1>   0.0800 
 44 H       -4.4820    -2.0800    -1.5750 H     1 <1>   0.0800 
 45 H       -4.1970    -0.7240    -0.5020 H     1 <1>   0.0800 
 46 H        5.0580    -3.4500    -1.5150 H     1 <1>   0.1500 
@<TRIPOS>BOND
  1   1   2  2   
  2   2   3  am  
  3   2   4  1   
  4   3   5  1   
  5   3  25  1   
  6   4   6  1   
  7   4  26  1   
  8   4  27  1   
  9   5   7  2   
 10   5   8  1   
 11   6   9  1   
 12   6  10  1   
 13   7  11  1   
 14   8  12  2   
 15   8  28  1   
 16   9  13  1   
 17   9  29  1   
 18   9  30  1   
 19  10  14  1   
 20  10  31  1   
 21  10  32  1   
 22  11  12  1   
 23  12  15  1   
 24  13  16  ar  
 25  13  17  ar  
 26  14  18  1   
 27  14  19  1   
 28  14  33  1   
 29  15  34  1   
 30  15  35  1   
 31  15  36  1   
 32  16  20  ar  
 33  17  21  ar  
 34  17  37  1   
 35  18  22  1   
 36  19  23  1   
 37  19  38  1   
 38  19  39  1   
 39  20  24  ar  
 40  20  40  1   
 41  21  24  ar  
 42  21  41  1   
 43  22  23  1   
 44  22  42  1   
 45  22  43  1   
 46  23  44  1   
 47  23  45  1   
 48  24  46  1   
@<TRIPOS>SUBSTRUCTURE
  1 ****   3 GROUP 4 **** **** 0

# MOE 2024.06 (io_trps.svl 2023.06)
