@<TRIPOS>MOLECULE
NONAME
47 49 1 0 0 
SMALL
USER_CHARGES


@<TRIPOS>ATOM
  1 O       -0.3800     0.7810    -1.8980 O.2   1 <1>  -0.5700 
  2 C       -0.3450     1.8040    -1.2540 C.2   1 <1>   0.5690 
  3 N       -1.3560     2.1780    -0.4070 N.am  1 <1>  -0.6600 
  4 C        0.8840     2.6970    -1.4260 C.3   1 <1>   0.1810 
  5 C       -1.2990     3.5180     0.2940 C.3   1 <1>   0.3640 
  6 C       -2.3930     1.1720    -0.0140 C.3   1 <1>   0.2200 
  7 O        1.0750     3.5780    -0.3490 O.3   1 <1>  -0.5600 
  8 C       -2.5450     4.3510    -0.0140 C.ar  1 <1>  -0.1440 
  9 C       -0.0590     4.3760    -0.0740 C.3   1 <1>   0.2610 
 10 C       -3.6870     1.3790    -0.8000 C.3   1 <1>  -0.2400 
 11 C       -2.6570     1.1590     1.4930 C.3   1 <1>  -0.2400 
 12 C       -2.9810     4.5360    -1.3210 C.ar  1 <1>  -0.1500 
 13 C       -3.2430     4.9580     1.0200 C.ar  1 <1>  -0.1500 
 14 C        0.2520     5.4290     1.0050 C.2   1 <1>   0.5690 
 15 C       -4.0980     5.3080    -1.5870 C.ar  1 <1>  -0.1500 
 16 C       -4.3610     5.7300     0.7550 C.ar  1 <1>  -0.1500 
 17 O       -0.1710     5.2790     2.1320 O.2   1 <1>  -0.5700 
 18 N        0.9910     6.5400     0.6860 N.am  1 <1>  -0.6600 
 19 C       -4.7890     5.9050    -0.5480 C.ar  1 <1>  -0.1500 
 20 C        1.2990     7.5960     1.6730 C.3   1 <1>   0.1400 
 21 C        1.7050     6.7760    -0.5880 C.3   1 <1>   0.1400 
 22 C        2.0390     8.6660     0.8790 C.3   1 <1>  -0.1600 
 23 C        2.6780     7.9090    -0.2830 C.3   1 <1>  -0.1600 
 24 H        0.7900     3.2710    -2.3290 H     1 <1>   0.0800 
 25 H        1.7610     2.0790    -1.4980 H     1 <1>   0.0800 
 26 H       -1.2570     3.3240     1.3500 H     1 <1>   0.0800 
 27 H       -2.0230     0.1920    -0.2690 H     1 <1>   0.0800 
 28 H       -0.2840     4.9150    -0.9760 H     1 <1>   0.0800 
 29 H       -4.2050     2.2610    -0.4740 H     1 <1>   0.0800 
 30 H       -4.3380     0.5390    -0.6470 H     1 <1>   0.0800 
 31 H       -3.4710     1.4510    -1.8500 H     1 <1>   0.0800 
 32 H       -3.1490     2.0600     1.8110 H     1 <1>   0.0800 
 33 H       -1.7330     1.0370     2.0300 H     1 <1>   0.0800 
 34 H       -3.2960     0.3310     1.7370 H     1 <1>   0.0800 
 35 H       -2.4580     4.0690    -2.1370 H     1 <1>   0.1500 
 36 H       -2.9150     4.8390     2.0390 H     1 <1>   0.1500 
 37 H       -4.4320     5.4410    -2.6010 H     1 <1>   0.1500 
 38 H       -4.8940     6.1960     1.5650 H     1 <1>   0.1500 
 39 H       -5.6580     6.5060    -0.7530 H     1 <1>   0.1500 
 40 H        0.3960     7.9790     2.1190 H     1 <1>   0.0800 
 41 H        1.9330     7.1840     2.4400 H     1 <1>   0.0800 
 42 H        2.2270     5.8910    -0.9120 H     1 <1>   0.0800 
 43 H        0.9970     7.0830    -1.3380 H     1 <1>   0.0800 
 44 H        1.3250     9.3790     0.5040 H     1 <1>   0.0800 
 45 H        2.7650     9.1810     1.4830 H     1 <1>   0.0800 
 46 H        3.6170     7.4870     0.0310 H     1 <1>   0.0800 
 47 H        2.8450     8.5360    -1.1400 H     1 <1>   0.0800 
@<TRIPOS>BOND
  1   1   2  2   
  2   2   3  am  
  3   2   4  1   
  4   3   5  1   
  5   3   6  1   
  6   4   7  1   
  7   4  24  1   
  8   4  25  1   
  9   5   8  1   
 10   5   9  1   
 11   5  26  1   
 12   6  10  1   
 13   6  11  1   
 14   6  27  1   
 15   7   9  1   
 16   8  12  ar  
 17   8  13  ar  
 18   9  14  1   
 19   9  28  1   
 20  10  29  1   
 21  10  30  1   
 22  10  31  1   
 23  11  32  1   
 24  11  33  1   
 25  11  34  1   
 26  12  15  ar  
 27  12  35  1   
 28  13  16  ar  
 29  13  36  1   
 30  14  17  2   
 31  14  18  am  
 32  15  19  ar  
 33  15  37  1   
 34  16  19  ar  
 35  16  38  1   
 36  18  20  1   
 37  18  21  1   
 38  19  39  1   
 39  20  22  1   
 40  20  40  1   
 41  20  41  1   
 42  21  23  1   
 43  21  42  1   
 44  21  43  1   
 45  22  23  1   
 46  22  44  1   
 47  22  45  1   
 48  23  46  1   
 49  23  47  1   
@<TRIPOS>SUBSTRUCTURE
  1 ****   9 GROUP 4 **** **** 0

# MOE 2024.06 (io_trps.svl 2023.06)
