@<TRIPOS>MOLECULE
NONAME
52 55 1 0 0 
SMALL
USER_CHARGES


@<TRIPOS>ATOM
  1 O        1.9040     4.1510     2.2370 O.2   1 <1>  -0.5740 
  2 C        2.8680     3.5040     1.8980 C.2   1 <1>   0.6860 
  3 N        3.9710     4.0740     1.2820 N.am  1 <1>  -0.4410 
  4 N        2.8620     2.1620     2.1380 N.am  1 <1>  -0.4950 
  5 C        5.0330     3.2470     0.9400 C.2   1 <1>   0.4210 
  6 C        4.0270     5.5380     1.0330 C.3   1 <1>   0.0520 
  7 C        3.8950     1.3320     1.8170 C.2   1 <1>   0.7000 
  8 N        6.2120     3.5790     0.3470 N.pl3 1 <1>  -0.7040 
  9 C        5.0410     1.9180     1.1820 C.2   1 <1>   0.2710 
 10 O        3.7990     0.1500     2.0850 O.2   1 <1>  -0.5740 
 11 C        6.9690     2.4840     0.2380 C.cat 1 <1>   1.0690 
 12 N        6.2760     1.4280     0.7150 N.pl3 1 <1>  -0.7670 
 13 N        8.2390     2.4980    -0.2490 N.pl3 1 <1>  -0.5960 
 14 C        6.5440    -0.0410     0.7120 C.3   1 <1>   0.2680 
 15 C        8.7780     3.6370    -1.0610 C.3   1 <1>   0.1610 
 16 C        9.2620     1.4480     0.0350 C.3   1 <1>   0.1610 
 17 C        9.4560     4.7060    -0.1900 C.3   1 <1>   0.0120 
 18 C        9.5290     0.5930    -1.2070 C.3   1 <1>  -0.2460 
 19 C        8.4640     5.7030     0.3770 C.2   1 <1>  -0.0010 
 20 N        7.4760     6.1730    -0.3000 N.2   1 <1>  -0.5700 
 21 N        8.5690     6.2220     1.6280 N.pl3 1 <1>   0.0250 
 22 C        6.9260     7.1250     0.5100 C.ar  1 <1>   0.2210 
 23 C        7.5640     7.1250     1.7360 C.ar  1 <1>  -0.1590 
 24 C        5.8930     8.0350     0.2560 C.ar  1 <1>  -0.1510 
 25 C        7.1530     7.9650     2.7710 C.ar  1 <1>  -0.1570 
 26 C        5.4880     8.8700     1.2770 C.ar  1 <1>  -0.1570 
 27 C        5.2560     8.1230    -1.1230 C.3   1 <1>  -0.1040 
 28 C        6.1080     8.8280     2.5310 C.ar  1 <1>  -0.1570 
 29 H        2.0400     1.7710     2.5920 H     1 <1>   0.3640 
 30 H        3.0470     5.9780     1.0990 H     1 <1>   0.0730 
 31 H        4.4110     5.7210     0.0480 H     1 <1>   0.0730 
 32 H        4.6630     6.0060     1.7640 H     1 <1>   0.0730 
 33 H        6.5320     4.5280     0.0920 H     1 <1>   0.4450 
 34 H        5.6320    -0.5870     0.5410 H     1 <1>   0.0730 
 35 H        6.9510    -0.3440     1.6620 H     1 <1>   0.0730 
 36 H        7.2260    -0.3110    -0.0710 H     1 <1>   0.0730 
 37 H        7.9920     4.0770    -1.6530 H     1 <1>   0.0730 
 38 H        9.5050     3.2630    -1.7600 H     1 <1>   0.0730 
 39 H        8.9490     0.8270     0.8540 H     1 <1>   0.0730 
 40 H       10.1830     1.9150     0.3410 H     1 <1>   0.0730 
 41 H       10.1350     5.2620    -0.8130 H     1 <1>   0.0730 
 42 H       10.0370     4.2500     0.5910 H     1 <1>   0.0730 
 43 H        8.6160     0.2410    -1.6520 H     1 <1>   0.0730 
 44 H       10.1240    -0.2610    -0.9320 H     1 <1>   0.0730 
 45 H       10.0830     1.1450    -1.9430 H     1 <1>   0.0730 
 46 H        9.2990     6.0550     2.3250 H     1 <1>   0.2640 
 47 H        7.6470     7.9430     3.7260 H     1 <1>   0.1430 
 48 H        4.6930     9.5780     1.1190 H     1 <1>   0.1430 
 49 H        5.1810     7.1510    -1.5740 H     1 <1>   0.0730 
 50 H        5.8640     8.7440    -1.7570 H     1 <1>   0.0730 
 51 H        4.2720     8.5520    -1.0620 H     1 <1>   0.0730 
 52 H        5.7640     9.4920     3.3060 H     1 <1>   0.1430 
@<TRIPOS>BOND
  1   1   2  2   
  2   2   3  am  
  3   2   4  am  
  4   3   5  1   
  5   3   6  1   
  6   4   7  am  
  7   4  29  1   
  8   5   8  1   
  9   5   9  2   
 10   6  30  1   
 11   6  31  1   
 12   6  32  1   
 13   7   9  1   
 14   7  10  2   
 15   8  11  ar  
 16   8  33  1   
 17   9  12  1   
 18  11  12  ar  
 19  11  13  ar  
 20  12  14  1   
 21  13  15  1   
 22  13  16  1   
 23  14  34  1   
 24  14  35  1   
 25  14  36  1   
 26  15  17  1   
 27  15  37  1   
 28  15  38  1   
 29  16  18  1   
 30  16  39  1   
 31  16  40  1   
 32  17  19  1   
 33  17  41  1   
 34  17  42  1   
 35  18  43  1   
 36  18  44  1   
 37  18  45  1   
 38  19  20  2   
 39  19  21  1   
 40  20  22  1   
 41  21  23  1   
 42  21  46  1   
 43  22  23  ar  
 44  22  24  ar  
 45  23  25  ar  
 46  24  26  ar  
 47  24  27  1   
 48  25  28  ar  
 49  25  47  1   
 50  26  28  ar  
 51  26  48  1   
 52  27  49  1   
 53  27  50  1   
 54  27  51  1   
 55  28  52  1   
@<TRIPOS>SUBSTRUCTURE
  1 ****   8 GROUP 4 **** **** 0

# MOE 2024.06 (io_trps.svl 2023.06)
