@<TRIPOS>MOLECULE
NONAME
41 43 1 0 0 
SMALL
USER_CHARGES


@<TRIPOS>ATOM
  1 CL       0.7520     4.8440    -2.8370 Cl    1 <1>  -0.1770 
  2 C        2.1340     4.2640    -1.9450 C.ar  1 <1>   0.1770 
  3 C        2.0790     4.2110    -0.5660 C.ar  1 <1>  -0.1500 
  4 C        3.2660     3.8680    -2.6300 C.ar  1 <1>  -0.1500 
  5 C        3.1780     3.7510     0.1390 C.ar  1 <1>  -0.1500 
  6 C        4.3620     3.4080    -1.9190 C.ar  1 <1>  -0.1500 
  7 C        4.3260     3.3400    -0.5300 C.ar  1 <1>  -0.1080 
  8 C        5.5590     2.8580     0.2530 C.3   1 <1>   0.1610 
  9 C        6.5330     4.0070     0.5810 C.2   1 <1>   0.5770 
 10 C        5.2140     1.9590     1.4810 C.3   1 <1>   0.0000 
 11 C        6.2400     1.6000    -0.3730 C.3   1 <1>   0.0000 
 12 O        7.5970     3.7690     1.0950 O.2   1 <1>  -0.5700 
 13 N        6.1400     5.2790     0.2630 N.am  1 <1>  -0.4940 
 14 C        6.3470     0.9940     1.0490 C.3   1 <1>   0.0000 
 15 C        6.7790     6.4830     0.4630 C.2   1 <1>   0.4420 
 16 S        5.9680     7.8900    -0.1360 S.3   1 <1>  -0.0800 
 17 N        7.8960     6.7670     1.0260 N.2   1 <1>  -0.3380 
 18 C        7.2940     8.8250     0.4730 C.2   1 <1>   0.1980 
 19 N        8.1830     8.1050     1.0290 N.2   1 <1>  -0.3380 
 20 C        7.2800    10.3390     0.2890 C.3   1 <1>   0.3800 
 21 O        6.0270    10.8430     0.6580 O.3   1 <1>  -0.5600 
 22 C        7.5480    10.7330    -1.1660 C.3   1 <1>  -0.2400 
 23 C        6.0290    12.1390     1.1720 C.3   1 <1>   0.0400 
 24 H        1.1860     4.5260    -0.0560 H     1 <1>   0.1500 
 25 H        3.2850     3.9200    -3.7040 H     1 <1>   0.1500 
 26 H        3.1270     3.7170     1.2150 H     1 <1>   0.1500 
 27 H        5.2440     3.1060    -2.4600 H     1 <1>   0.1500 
 28 H        4.2480     1.4890     1.4080 H     1 <1>   0.0000 
 29 H        5.3850     2.4280     2.4350 H     1 <1>   0.0000 
 30 H        7.1920     1.7930    -0.8350 H     1 <1>   0.0000 
 31 H        5.5770     1.0250    -0.9970 H     1 <1>   0.0000 
 32 H        5.2330     5.3480    -0.1950 H     1 <1>   0.3700 
 33 H        6.0690    -0.0440     1.0970 H     1 <1>   0.0000 
 34 H        7.2860     1.2060     1.5290 H     1 <1>   0.0000 
 35 H        8.0320    10.7600     0.9340 H     1 <1>   0.0800 
 36 H        6.7630    10.3640    -1.8010 H     1 <1>   0.0800 
 37 H        8.4790    10.3020    -1.4880 H     1 <1>   0.0800 
 38 H        7.6180    11.7990    -1.2640 H     1 <1>   0.0800 
 39 H        5.0140    12.4040     1.4110 H     1 <1>   0.0800 
 40 H        6.4150    12.8220     0.4350 H     1 <1>   0.0800 
 41 H        6.6270    12.1660     2.0670 H     1 <1>   0.0800 
@<TRIPOS>BOND
  1   1   2  1   
  2   2   3  ar  
  3   2   4  ar  
  4   3   5  ar  
  5   3  24  1   
  6   4   6  ar  
  7   4  25  1   
  8   5   7  ar  
  9   5  26  1   
 10   6   7  ar  
 11   6  27  1   
 12   7   8  1   
 13   8   9  1   
 14   8  10  1   
 15   8  11  1   
 16   9  12  2   
 17   9  13  am  
 18  10  14  1   
 19  10  28  1   
 20  10  29  1   
 21  11  14  1   
 22  11  30  1   
 23  11  31  1   
 24  13  15  1   
 25  13  32  1   
 26  14  33  1   
 27  14  34  1   
 28  15  16  1   
 29  15  17  2   
 30  16  18  1   
 31  17  19  1   
 32  18  19  2   
 33  18  20  1   
 34  20  21  1   
 35  20  22  1   
 36  20  35  1   
 37  21  23  1   
 38  22  36  1   
 39  22  37  1   
 40  22  38  1   
 41  23  39  1   
 42  23  40  1   
 43  23  41  1   
@<TRIPOS>SUBSTRUCTURE
  1 ****  13 GROUP 4 **** **** 0

# MOE 2024.06 (io_trps.svl 2023.06)
