@<TRIPOS>MOLECULE
NONAME
57 60 1 0 0 
SMALL
USER_CHARGES


@<TRIPOS>ATOM
  1 O       -0.4650     0.8340    -0.0860 O.2   1 <1>  -0.5700 
  2 C       -1.5390     1.2270    -0.4730 C.2   1 <1>   0.5690 
  3 N       -2.5980     0.3750    -0.6040 N.am  1 <1>  -0.6600 
  4 C       -1.7190     2.7030    -0.8070 C.3   1 <1>  -0.0990 
  5 C       -4.0110     0.7310    -0.8950 C.3   1 <1>   0.1400 
  6 C       -2.5000    -1.0720    -0.2790 C.3   1 <1>   0.1400 
  7 C       -0.4030     3.5040    -0.8490 C.3   1 <1>  -0.1600 
  8 C       -4.8170    -0.3550    -0.1870 C.3   1 <1>   0.2000 
  9 C       -3.9390    -1.6000    -0.3400 C.3   1 <1>  -0.0800 
 10 C       -0.6410     4.9800    -1.2000 C.3   1 <1>   0.0200 
 11 O       -4.9060    -0.0090     1.1530 O.3   1 <1>  -0.6800 
 12 C       -4.2240    -2.7420     0.6530 C.3   1 <1>   0.0210 
 13 C        0.6540     5.7700    -1.1980 C.2   1 <1>   0.2980 
 14 C       -3.3000    -3.9170     0.3990 C.2   1 <1>   0.1080 
 15 O        1.5470     5.5220    -2.1190 O.3   1 <1>  -0.0190 
 16 N        0.9620     6.6770    -0.3680 N.2   1 <1>  -0.5650 
 17 N       -3.3100    -4.5940    -0.7070 N.2   1 <1>  -0.7070 
 18 C       -2.3460    -4.3880     1.2950 C.2   1 <1>  -0.1500 
 19 N        2.5120     6.3440    -1.8510 N.2   1 <1>  -0.4100 
 20 C        2.1730     7.0280    -0.8150 C.2   1 <1>   0.4620 
 21 N       -2.3540    -5.5270    -0.5430 N.pl3 1 <1>   0.3000 
 22 C       -1.7540    -5.4210     0.6610 C.2   1 <1>  -0.3320 
 23 C        2.9780     8.0610    -0.1820 C.ar  1 <1>   0.0540 
 24 C       -0.6340    -6.3270     1.1390 C.3   1 <1>  -0.0600 
 25 C        2.5300     8.7550     0.9450 C.ar  1 <1>  -0.1500 
 26 C        4.2380     8.4020    -0.6770 C.ar  1 <1>  -0.1500 
 27 C        3.2920     9.7400     1.5500 C.ar  1 <1>  -0.1440 
 28 C        5.0090     9.3820    -0.0810 C.ar  1 <1>  -0.1500 
 29 C        4.5370    10.0520     1.0320 C.ar  1 <1>  -0.1500 
 30 C        2.7760    10.4750     2.7740 C.3   1 <1>  -0.0970 
 31 H       -2.2010     2.7730    -1.7640 H     1 <1>   0.0800 
 32 H       -2.3690     3.1320    -0.0660 H     1 <1>   0.0800 
 33 H       -4.2740     1.7110    -0.5370 H     1 <1>   0.0800 
 34 H       -4.1740     0.6740    -1.9570 H     1 <1>   0.0800 
 35 H       -1.8670    -1.5800    -0.9870 H     1 <1>   0.0800 
 36 H       -2.0850    -1.1860     0.7080 H     1 <1>   0.0800 
 37 H        0.0800     3.4440     0.1130 H     1 <1>   0.0800 
 38 H        0.2590     3.0620    -1.5740 H     1 <1>   0.0800 
 39 H       -5.8110    -0.4780    -0.5810 H     1 <1>   0.0800 
 40 H       -4.0910    -1.9850    -1.3330 H     1 <1>   0.0800 
 41 H       -1.3100     5.4190    -0.4820 H     1 <1>   0.0800 
 42 H       -1.0910     5.0610    -2.1730 H     1 <1>   0.0800 
 43 H       -4.0060     0.1990     1.4780 H     1 <1>   0.4000 
 44 H       -5.2400    -3.0730     0.5380 H     1 <1>   0.0800 
 45 H       -4.0950    -2.4070     1.6660 H     1 <1>   0.0800 
 46 H       -2.1450    -3.9920     2.2740 H     1 <1>   0.1500 
 47 H       -2.1350    -6.2180    -1.2700 H     1 <1>   0.2700 
 48 H       -0.3250    -6.0420     2.1290 H     1 <1>   0.0800 
 49 H        0.2130    -6.2510     0.4810 H     1 <1>   0.0800 
 50 H       -0.9680    -7.3490     1.1660 H     1 <1>   0.0800 
 51 H        1.5640     8.5140     1.3520 H     1 <1>   0.1500 
 52 H        4.6190     7.8900    -1.5440 H     1 <1>   0.1500 
 53 H        5.9770     9.6250    -0.4840 H     1 <1>   0.1500 
 54 H        5.1420    10.8130     1.4930 H     1 <1>   0.1500 
 55 H        3.0020    11.5240     2.7000 H     1 <1>   0.0800 
 56 H        3.2410    10.0800     3.6590 H     1 <1>   0.0800 
 57 H        1.7100    10.3640     2.8640 H     1 <1>   0.0800 
@<TRIPOS>BOND
  1   1   2  2   
  2   2   3  am  
  3   2   4  1   
  4   3   5  1   
  5   3   6  1   
  6   4   7  1   
  7   4  31  1   
  8   4  32  1   
  9   5   8  1   
 10   5  33  1   
 11   5  34  1   
 12   6   9  1   
 13   6  35  1   
 14   6  36  1   
 15   7  10  1   
 16   7  37  1   
 17   7  38  1   
 18   8   9  1   
 19   8  11  1   
 20   8  39  1   
 21   9  12  1   
 22   9  40  1   
 23  10  13  1   
 24  10  41  1   
 25  10  42  1   
 26  11  43  1   
 27  12  14  1   
 28  12  44  1   
 29  12  45  1   
 30  13  15  1   
 31  13  16  2   
 32  14  17  2   
 33  14  18  1   
 34  15  19  1   
 35  16  20  1   
 36  17  21  1   
 37  18  22  2   
 38  18  46  1   
 39  19  20  2   
 40  20  23  1   
 41  21  22  1   
 42  21  47  1   
 43  22  24  1   
 44  23  25  ar  
 45  23  26  ar  
 46  24  48  1   
 47  24  49  1   
 48  24  50  1   
 49  25  27  ar  
 50  25  51  1   
 51  26  28  ar  
 52  26  52  1   
 53  27  29  ar  
 54  27  30  1   
 55  28  29  ar  
 56  28  53  1   
 57  29  54  1   
 58  30  55  1   
 59  30  56  1   
 60  30  57  1   
@<TRIPOS>SUBSTRUCTURE
  1 ****   7 GROUP 4 **** **** 0

# MOE 2024.06 (io_trps.svl 2023.06)
