@<TRIPOS>MOLECULE
NONAME
42 44 1 0 0 
SMALL
USER_CHARGES


@<TRIPOS>ATOM
  1 O        0.0180     1.5690    -0.6240 O.3   1 <1>  -0.5600 
  2 C        0.1280     1.6040    -2.0200 C.3   1 <1>   0.2000 
  3 C       -0.5960     0.4300    -0.1030 C.3   1 <1>   0.1200 
  4 C        1.3440     2.4990    -2.3160 C.3   1 <1>   0.3430 
  5 C       -1.1620     2.2320    -2.5930 C.3   1 <1>  -0.1600 
  6 C       -0.6810     0.6000     1.4120 C.3   1 <1>  -0.1600 
  7 N        1.1030     3.7950    -1.6160 N.4   1 <1>  -0.9590 
  8 C       -0.9800     3.7000    -3.0420 C.3   1 <1>  -0.1600 
  9 C       -1.3420    -0.6150     2.0720 C.3   1 <1>  -0.2400 
 10 C       -0.0990     4.5480    -2.1090 C.3   1 <1>   0.3430 
 11 C        2.3200     4.6580    -1.4670 C.3   1 <1>   0.5240 
 12 C        2.0800     5.8240    -0.5010 C.2   1 <1>   0.3350 
 13 N        2.4420     5.7870     0.7440 N.2   1 <1>  -0.7070 
 14 N        1.4490     6.9220    -0.9200 N.2   1 <1>  -0.5650 
 15 N        2.0300     6.9720     1.1870 N.pl3 1 <1>   0.6010 
 16 C        1.4250     7.6370     0.1610 C.2   1 <1>   0.3120 
 17 C        2.1120     7.5510     2.4350 C.2   1 <1>  -0.1810 
 18 N        0.8690     8.8840     0.2930 N.2   1 <1>  -0.5760 
 19 C        1.5700     8.7890     2.5820 C.2   1 <1>  -0.1360 
 20 C        0.9510     9.4230     1.4660 C.2   1 <1>   0.3760 
 21 H        0.2900     0.6070    -2.3960 H     1 <1>   0.0800 
 22 H       -0.0020    -0.4330    -0.3520 H     1 <1>   0.0800 
 23 H       -1.5820     0.3300    -0.5250 H     1 <1>   0.0800 
 24 H        1.4520     2.6490    -3.3770 H     1 <1>   0.0800 
 25 H        2.2320     2.0210    -1.9360 H     1 <1>   0.0800 
 26 H       -1.9520     2.1800    -1.8630 H     1 <1>   0.0800 
 27 H       -1.4810     1.6570    -3.4450 H     1 <1>   0.0800 
 28 H       -1.2560     1.4800     1.6410 H     1 <1>   0.0800 
 29 H        0.3110     0.7210     1.8140 H     1 <1>   0.0800 
 30 H        0.8410     3.4800    -0.6630 H     1 <1>   0.4500 
 31 H       -1.9440     4.1700    -3.1360 H     1 <1>   0.0800 
 32 H       -0.5370     3.7160    -4.0230 H     1 <1>   0.0800 
 33 H       -2.3430    -0.7490     1.7010 H     1 <1>   0.0800 
 34 H       -1.3910    -0.4730     3.1380 H     1 <1>   0.0800 
 35 H       -0.7760    -1.5090     1.8740 H     1 <1>   0.0800 
 36 H        0.2110     5.4380    -2.6350 H     1 <1>   0.0800 
 37 H       -0.6830     4.8640    -1.2590 H     1 <1>   0.0800 
 38 H        2.6090     5.0570    -2.4240 H     1 <1>   0.0800 
 39 H        3.1360     4.0710    -1.0810 H     1 <1>   0.0800 
 40 H        2.6000     6.9840     3.2060 H     1 <1>   0.1500 
 41 H        1.5880     9.3190     3.5180 H     1 <1>   0.1500 
 42 H        0.5310    10.4020     1.6200 H     1 <1>   0.0600 
@<TRIPOS>BOND
  1   1   2  1   
  2   1   3  1   
  3   2   4  1   
  4   2   5  1   
  5   2  21  1   
  6   3   6  1   
  7   3  22  1   
  8   3  23  1   
  9   4   7  1   
 10   4  24  1   
 11   4  25  1   
 12   5   8  1   
 13   5  26  1   
 14   5  27  1   
 15   6   9  1   
 16   6  28  1   
 17   6  29  1   
 18   7  10  1   
 19   7  11  1   
 20   7  30  1   
 21   8  10  1   
 22   8  31  1   
 23   8  32  1   
 24   9  33  1   
 25   9  34  1   
 26   9  35  1   
 27  10  36  1   
 28  10  37  1   
 29  11  12  1   
 30  11  38  1   
 31  11  39  1   
 32  12  13  2   
 33  12  14  1   
 34  13  15  1   
 35  14  16  2   
 36  15  16  1   
 37  15  17  1   
 38  16  18  1   
 39  17  19  2   
 40  17  40  1   
 41  18  20  2   
 42  19  20  1   
 43  19  41  1   
 44  20  42  1   
@<TRIPOS>SUBSTRUCTURE
  1 ****   7 GROUP 4 **** **** 0

# MOE 2024.06 (io_trps.svl 2023.06)
