@<TRIPOS>MOLECULE
NONAME
57 59 1 0 0 
SMALL
USER_CHARGES


@<TRIPOS>ATOM
  1 O        4.3340     0.1290    -1.5980 O.2   1 <1>  -0.5700 
  2 C        3.1300     0.0420    -1.4370 C.2   1 <1>   0.7800 
  3 O        2.3290     0.7350    -2.2490 O.3   1 <1>  -0.4300 
  4 N        2.5340    -0.6980    -0.4430 N.am  1 <1>  -0.6600 
  5 C        2.8230     1.4530    -3.3620 C.3   1 <1>   0.0400 
  6 C        3.1490    -1.9440     0.1520 C.3   1 <1>   0.2810 
  7 C        1.0570    -0.6580    -0.2490 C.3   1 <1>   0.1400 
  8 C        4.6940    -1.9800     0.2440 C.2   1 <1>   0.5690 
  9 C        2.5590    -3.1580    -0.5940 C.3   1 <1>  -0.1600 
 10 C        0.4220    -1.8490    -0.9770 C.3   1 <1>  -0.1600 
 11 O        5.3090    -2.6350    -0.5700 O.2   1 <1>  -0.5700 
 12 N        5.3830    -1.2810     1.2180 N.am  1 <1>  -0.6600 
 13 C        1.0230    -3.1860    -0.5180 C.3   1 <1>  -0.1600 
 14 C        6.8650    -1.2040     1.0980 C.3   1 <1>   0.1400 
 15 C        4.7710    -0.3980     2.2480 C.3   1 <1>   0.1400 
 16 C        7.2090    -0.2350    -0.0430 C.3   1 <1>   0.3430 
 17 C        5.4050     1.0000     2.2470 C.3   1 <1>  -0.1600 
 18 N        6.9180     1.2180     0.2330 N.4   1 <1>  -0.9590 
 19 C        5.5880     1.5600     0.8370 C.3   1 <1>   0.3430 
 20 C        7.0760     1.9620    -1.0400 C.3   1 <1>   0.4860 
 21 C        7.1500     3.4460    -0.7470 C.ar  1 <1>  -0.1440 
 22 C        8.1090     3.9410     0.1380 C.ar  1 <1>   0.4100 
 23 C        6.2650     4.3260    -1.3330 C.ar  1 <1>  -0.1500 
 24 N        8.2240     5.2020     0.4840 N.ar  1 <1>  -0.6200 
 25 N        9.0210     3.1460     0.7560 N.pl3 1 <1>  -0.9000 
 26 C        6.3880     5.6570    -0.9870 C.ar  1 <1>  -0.1500 
 27 C        7.3680     6.0350    -0.0870 C.ar  1 <1>   0.1600 
 28 H        1.9880     1.8930    -3.8790 H     1 <1>   0.0800 
 29 H        3.3400     0.7700    -4.0140 H     1 <1>   0.0800 
 30 H        3.4900     2.2210    -3.0150 H     1 <1>   0.0800 
 31 H        2.7990    -2.0220     1.1640 H     1 <1>   0.0800 
 32 H        0.6420     0.2630    -0.6210 H     1 <1>   0.0800 
 33 H        0.8340    -0.7140     0.8030 H     1 <1>   0.0800 
 34 H        2.9520    -4.0640    -0.1680 H     1 <1>   0.0800 
 35 H        2.8740    -3.1230    -1.6240 H     1 <1>   0.0800 
 36 H        0.5740    -1.7290    -2.0370 H     1 <1>   0.0800 
 37 H       -0.6390    -1.8510    -0.8010 H     1 <1>   0.0800 
 38 H        0.7210    -3.3800     0.4970 H     1 <1>   0.0800 
 39 H        0.6440    -3.9840    -1.1320 H     1 <1>   0.0800 
 40 H        7.2490    -2.1800     0.8530 H     1 <1>   0.0800 
 41 H        7.3240    -0.9020     2.0220 H     1 <1>   0.0800 
 42 H        4.8910    -0.8510     3.2190 H     1 <1>   0.0800 
 43 H        3.7170    -0.2910     2.0650 H     1 <1>   0.0800 
 44 H        6.6520    -0.5530    -0.9110 H     1 <1>   0.0800 
 45 H        8.2550    -0.3440    -0.2760 H     1 <1>   0.0800 
 46 H        6.3340     1.0110     2.7880 H     1 <1>   0.0800 
 47 H        4.7340     1.6500     2.7790 H     1 <1>   0.0800 
 48 H        7.6570     1.6160     0.8420 H     1 <1>   0.4500 
 49 H        5.5040     2.6330     0.8980 H     1 <1>   0.0800 
 50 H        4.7880     1.2100     0.2130 H     1 <1>   0.0800 
 51 H        6.2470     1.7470    -1.6950 H     1 <1>   0.0800 
 52 H        7.9860     1.6600    -1.5310 H     1 <1>   0.0800 
 53 H        5.5060     4.0090    -2.0280 H     1 <1>   0.1500 
 54 H        9.3110     3.6260     1.6180 H     1 <1>   0.4000 
 55 H        9.8830     3.0780     0.2070 H     1 <1>   0.4000 
 56 H        5.7320     6.3980    -1.4100 H     1 <1>   0.1500 
 57 H        7.4530     7.0770     0.1780 H     1 <1>   0.1500 
@<TRIPOS>BOND
  1   1   2  2   
  2   2   3  1   
  3   2   4  am  
  4   3   5  1   
  5   4   6  1   
  6   4   7  1   
  7   5  28  1   
  8   5  29  1   
  9   5  30  1   
 10   6   8  1   
 11   6   9  1   
 12   6  31  1   
 13   7  10  1   
 14   7  32  1   
 15   7  33  1   
 16   8  11  2   
 17   8  12  am  
 18   9  13  1   
 19   9  34  1   
 20   9  35  1   
 21  10  13  1   
 22  10  36  1   
 23  10  37  1   
 24  12  14  1   
 25  12  15  1   
 26  13  38  1   
 27  13  39  1   
 28  14  16  1   
 29  14  40  1   
 30  14  41  1   
 31  15  17  1   
 32  15  42  1   
 33  15  43  1   
 34  16  18  1   
 35  16  44  1   
 36  16  45  1   
 37  17  19  1   
 38  17  46  1   
 39  17  47  1   
 40  18  19  1   
 41  18  20  1   
 42  18  48  1   
 43  19  49  1   
 44  19  50  1   
 45  20  21  1   
 46  20  51  1   
 47  20  52  1   
 48  21  22  ar  
 49  21  23  ar  
 50  22  24  ar  
 51  22  25  1   
 52  23  26  ar  
 53  23  53  1   
 54  24  27  ar  
 55  25  54  1   
 56  25  55  1   
 57  26  27  ar  
 58  26  56  1   
 59  27  57  1   
@<TRIPOS>SUBSTRUCTURE
  1 ****  19 GROUP 4 **** **** 0

# MOE 2024.06 (io_trps.svl 2023.06)
