@<TRIPOS>MOLECULE
NONAME
54 57 1 0 0 
SMALL
USER_CHARGES


@<TRIPOS>ATOM
  1 O        0.7390     0.3680     2.0480 O.3   1 <1>  -0.6800 
  2 C        1.5960    -0.0250     1.0300 C.3   1 <1>   0.2000 
  3 C        2.1720    -1.4080     1.3210 C.3   1 <1>  -0.0800 
  4 C        2.8170     0.8900     0.9470 C.3   1 <1>   0.2090 
  5 C        3.5090    -1.4140     0.5770 C.3   1 <1>   0.2090 
  6 C        1.2320    -2.5660     0.9460 C.3   1 <1>  -0.0170 
  7 N        3.9500     0.0050     0.5390 N.pl3 1 <1>  -0.8380 
  8 C        1.9240    -3.9160     1.1260 C.ar  1 <1>  -0.1440 
  9 C        5.1860     0.4580     0.2530 C.ar  1 <1>   0.4100 
 10 C        2.5080    -4.6510     0.0640 C.ar  1 <1>   0.0000 
 11 C        2.0010    -4.4520     2.3780 C.ar  1 <1>  -0.1500 
 12 N        5.3870     1.7810     0.3280 N.ar  1 <1>  -0.6200 
 13 C        6.2380    -0.3930    -0.1100 C.ar  1 <1>  -0.1500 
 14 C        3.1380    -5.8790     0.3860 C.ar  1 <1>   0.3100 
 15 C        2.5090    -4.2510    -1.2940 C.ar  1 <1>  -0.1500 
 16 C        2.6430    -5.6780     2.5860 C.ar  1 <1>   0.1600 
 17 C        6.5700     2.2470     0.0700 C.ar  1 <1>   0.5280 
 18 C        7.4690     0.1290    -0.3750 C.ar  1 <1>   0.2180 
 19 N        3.1980    -6.3750     1.6470 N.ar  1 <1>  -0.6200 
 20 C        3.7340    -6.6320    -0.6380 C.ar  1 <1>  -0.1500 
 21 C        3.1000    -5.0080    -2.2690 C.ar  1 <1>  -0.1500 
 22 N        7.6140     1.4650    -0.2760 N.ar  1 <1>  -0.1790 
 23 C        6.7920     3.7510     0.1620 C.3   1 <1>  -0.0170 
 24 C        8.6620    -0.7230    -0.7720 C.3   1 <1>  -0.0970 
 25 C        3.7220    -6.2140    -1.9400 C.ar  1 <1>  -0.1500 
 26 C        7.0130     4.3970    -1.2170 C.3   1 <1>  -0.1600 
 27 C        7.2190     5.9100    -1.0930 C.3   1 <1>  -0.2400 
 28 H       -0.0600    -0.1910     2.0680 H     1 <1>   0.4000 
 29 H        1.0620    -0.0020     0.0950 H     1 <1>   0.0800 
 30 H        2.4050    -1.4680     2.3710 H     1 <1>   0.0800 
 31 H        3.0310     1.3170     1.9120 H     1 <1>   0.0800 
 32 H        2.6640     1.6710     0.2230 H     1 <1>   0.0800 
 33 H        3.3810    -1.7630    -0.4320 H     1 <1>   0.0800 
 34 H        4.2230    -2.0370     1.0890 H     1 <1>   0.0800 
 35 H        0.8620    -2.4470    -0.0540 H     1 <1>   0.0800 
 36 H        0.3730    -2.5330     1.5930 H     1 <1>   0.0800 
 37 H        1.5780    -3.9540     3.2320 H     1 <1>   0.1500 
 38 H        6.0590    -1.4480    -0.1740 H     1 <1>   0.1500 
 39 H        2.0340    -3.3340    -1.5840 H     1 <1>   0.1500 
 40 H        2.6800    -6.0630     3.5910 H     1 <1>   0.1500 
 41 H        4.2030    -7.5580    -0.3610 H     1 <1>   0.1500 
 42 H        3.0910    -4.6920    -3.2990 H     1 <1>   0.1500 
 43 H        8.5130     1.9070    -0.4650 H     1 <1>   0.4570 
 44 H        5.9270     4.1990     0.6210 H     1 <1>   0.0800 
 45 H        7.6310     3.9500     0.8030 H     1 <1>   0.0800 
 46 H        8.3860    -1.7630    -0.8110 H     1 <1>   0.0800 
 47 H        9.4570    -0.6160    -0.0540 H     1 <1>   0.0800 
 48 H        9.0240    -0.4370    -1.7440 H     1 <1>   0.0800 
 49 H        4.1830    -6.8030    -2.7150 H     1 <1>   0.1500 
 50 H        7.8720     3.9710    -1.7050 H     1 <1>   0.0800 
 51 H        6.1510     4.2140    -1.8390 H     1 <1>   0.0800 
 52 H        8.0850     6.1340    -0.4950 H     1 <1>   0.0800 
 53 H        6.3580     6.3740    -0.6410 H     1 <1>   0.0800 
 54 H        7.3590     6.3440    -2.0680 H     1 <1>   0.0800 
@<TRIPOS>BOND
  1   1   2  1   
  2   1  28  1   
  3   2   3  1   
  4   2   4  1   
  5   2  29  1   
  6   3   5  1   
  7   3   6  1   
  8   3  30  1   
  9   4   7  1   
 10   4  31  1   
 11   4  32  1   
 12   5   7  1   
 13   5  33  1   
 14   5  34  1   
 15   6   8  1   
 16   6  35  1   
 17   6  36  1   
 18   7   9  1   
 19   8  10  ar  
 20   8  11  ar  
 21   9  12  ar  
 22   9  13  ar  
 23  10  14  ar  
 24  10  15  ar  
 25  11  16  ar  
 26  11  37  1   
 27  12  17  ar  
 28  13  18  ar  
 29  13  38  1   
 30  14  19  ar  
 31  14  20  ar  
 32  15  21  ar  
 33  15  39  1   
 34  16  19  ar  
 35  16  40  1   
 36  17  22  ar  
 37  17  23  1   
 38  18  22  ar  
 39  18  24  1   
 40  20  25  ar  
 41  20  41  1   
 42  21  25  ar  
 43  21  42  1   
 44  22  43  1   
 45  23  26  1   
 46  23  44  1   
 47  23  45  1   
 48  24  46  1   
 49  24  47  1   
 50  24  48  1   
 51  25  49  1   
 52  26  27  1   
 53  26  50  1   
 54  26  51  1   
 55  27  52  1   
 56  27  53  1   
 57  27  54  1   
@<TRIPOS>SUBSTRUCTURE
  1 ****   5 GROUP 4 **** **** 0

# MOE 2024.06 (io_trps.svl 2023.06)
