@<TRIPOS>MOLECULE
NONAME
50 53 1 0 0 
SMALL
USER_CHARGES


@<TRIPOS>ATOM
  1 O       -0.6940    -0.8280    -0.0670 O.3   1 <1>  -0.2800 
  2 C       -0.7020     0.3950    -0.4900 C.2   1 <1>   0.2980 
  3 C       -1.7570    -1.3500    -0.5920 C.2   1 <1>   0.2980 
  4 N       -1.7130     0.6370    -1.2370 N.2   1 <1>  -0.3380 
  5 C        0.4220     1.3430    -0.0730 C.3   1 <1>   0.1000 
  6 N       -2.4010    -0.5030    -1.3050 N.2   1 <1>  -0.3380 
  7 C       -2.0680    -2.8180    -0.2900 C.3   1 <1>   0.2900 
  8 C        0.1120     2.8070    -0.4200 C.3   1 <1>  -0.2400 
  9 C        1.7500     0.9240    -0.7200 C.3   1 <1>  -0.2400 
 10 N       -3.3940    -3.3060    -0.7540 N.3   1 <1>  -0.8100 
 11 C       -4.5340    -2.6330    -0.1050 C.3   1 <1>   0.1100 
 12 C       -3.5830    -4.7290    -0.4680 C.3   1 <1>   0.1100 
 13 C       -4.9450    -3.4950     1.0960 C.3   1 <1>   0.2000 
 14 C       -4.1610    -4.8000     0.9460 C.3   1 <1>  -0.0800 
 15 O       -4.5830    -2.8810     2.2840 O.3   1 <1>  -0.6800 
 16 C       -5.0160    -6.0490     1.2180 C.3   1 <1>  -0.0170 
 17 C       -4.1780    -7.3190     1.0910 C.ar  1 <1>  -0.1440 
 18 C       -4.1090    -8.1030    -0.0870 C.ar  1 <1>   0.0000 
 19 C       -3.4360    -7.7250     2.1610 C.ar  1 <1>  -0.1500 
 20 C       -3.2500    -9.2300    -0.0730 C.ar  1 <1>   0.3100 
 21 C       -4.8330    -7.8460    -1.2750 C.ar  1 <1>  -0.1500 
 22 C       -2.6290    -8.8650     2.0730 C.ar  1 <1>   0.1600 
 23 N       -2.5200    -9.5960     1.0110 N.ar  1 <1>  -0.6200 
 24 C       -3.1380   -10.0180    -1.2300 C.ar  1 <1>  -0.1500 
 25 C       -4.7040    -8.6360    -2.3850 C.ar  1 <1>  -0.1500 
 26 C       -3.8440    -9.7350    -2.3660 C.ar  1 <1>  -0.1500 
 27 H        0.5250     1.2680     0.9960 H     1 <1>   0.0800 
 28 H       -1.9810    -2.9660     0.7700 H     1 <1>   0.0800 
 29 H       -1.3040    -3.4070    -0.7660 H     1 <1>   0.0800 
 30 H        0.0080     2.9260    -1.4840 H     1 <1>   0.0800 
 31 H        0.8990     3.4520    -0.0730 H     1 <1>   0.0800 
 32 H       -0.8090     3.1090     0.0470 H     1 <1>   0.0800 
 33 H        1.6720     0.9720    -1.7920 H     1 <1>   0.0800 
 34 H        1.9980    -0.0840    -0.4400 H     1 <1>   0.0800 
 35 H        2.5460     1.5730    -0.4000 H     1 <1>   0.0800 
 36 H       -4.3170    -1.6170     0.1760 H     1 <1>   0.0800 
 37 H       -5.3480    -2.6170    -0.8080 H     1 <1>   0.0800 
 38 H       -4.2950    -5.1140    -1.1760 H     1 <1>   0.0800 
 39 H       -2.6680    -5.2910    -0.5640 H     1 <1>   0.0800 
 40 H       -6.0110    -3.6450     1.1090 H     1 <1>   0.0800 
 41 H       -3.3310    -4.8050     1.6310 H     1 <1>   0.0800 
 42 H       -3.6700    -2.5440     2.2190 H     1 <1>   0.4000 
 43 H       -5.8730    -6.0750     0.5720 H     1 <1>   0.0800 
 44 H       -5.3950    -5.9850     2.2240 H     1 <1>   0.0800 
 45 H       -3.4450    -7.1840     3.0900 H     1 <1>   0.1500 
 46 H       -5.5070    -7.0130    -1.3190 H     1 <1>   0.1500 
 47 H       -2.0620    -9.1490     2.9430 H     1 <1>   0.1500 
 48 H       -2.4730   -10.8620    -1.1900 H     1 <1>   0.1500 
 49 H       -5.2600    -8.4240    -3.2820 H     1 <1>   0.1500 
 50 H       -3.7490   -10.3490    -3.2460 H     1 <1>   0.1500 
@<TRIPOS>BOND
  1   1   2  1   
  2   1   3  1   
  3   2   4  2   
  4   2   5  1   
  5   3   6  2   
  6   3   7  1   
  7   4   6  1   
  8   5   8  1   
  9   5   9  1   
 10   5  27  1   
 11   7  10  1   
 12   7  28  1   
 13   7  29  1   
 14   8  30  1   
 15   8  31  1   
 16   8  32  1   
 17   9  33  1   
 18   9  34  1   
 19   9  35  1   
 20  10  11  1   
 21  10  12  1   
 22  11  13  1   
 23  11  36  1   
 24  11  37  1   
 25  12  14  1   
 26  12  38  1   
 27  12  39  1   
 28  13  14  1   
 29  13  15  1   
 30  13  40  1   
 31  14  16  1   
 32  14  41  1   
 33  15  42  1   
 34  16  17  1   
 35  16  43  1   
 36  16  44  1   
 37  17  18  ar  
 38  17  19  ar  
 39  18  20  ar  
 40  18  21  ar  
 41  19  22  ar  
 42  19  45  1   
 43  20  23  ar  
 44  20  24  ar  
 45  21  25  ar  
 46  21  46  1   
 47  22  23  ar  
 48  22  47  1   
 49  24  26  ar  
 50  24  48  1   
 51  25  26  ar  
 52  25  49  1   
 53  26  50  1   
@<TRIPOS>SUBSTRUCTURE
  1 ****  12 GROUP 4 **** **** 0

# MOE 2024.06 (io_trps.svl 2023.06)
