@<TRIPOS>MOLECULE
NONAME
31 33 1 0 0 
SMALL
USER_CHARGES


@<TRIPOS>ATOM
  1 CL      -2.5190    -0.2440    -2.9330 Cl    1 <1>  -0.1770 
  2 C       -2.7350     0.5940    -1.4160 C.ar  1 <1>   0.1770 
  3 C       -2.9710    -0.1220    -0.2400 C.ar  1 <1>   0.0860 
  4 C       -2.6740     1.9740    -1.4360 C.ar  1 <1>  -0.1500 
  5 C       -3.0210    -1.5650    -0.2220 C.2   1 <1>   0.5440 
  6 C       -3.1580     0.6080     0.9380 C.ar  1 <1>  -0.1500 
  7 C       -2.8600     2.6510    -0.2480 C.ar  1 <1>   0.1900 
  8 O       -1.9980    -2.2050    -0.3820 O.2   1 <1>  -0.5700 
  9 N       -4.2010    -2.2150     0.0130 N.am  1 <1>  -0.6600 
 10 C       -3.1050     1.9920     0.9430 C.ar  1 <1>  -0.1500 
 11 F       -2.8050     3.9530    -0.2480 F     1 <1>  -0.1900 
 12 C       -5.5240    -1.5540     0.1860 C.3   1 <1>   0.2350 
 13 C       -4.3130    -3.6790     0.2570 C.3   1 <1>   0.2350 
 14 C       -6.5500    -2.6700     0.1550 C.3   1 <1>  -0.2420 
 15 C       -5.8020    -3.9830     0.2120 C.3   1 <1>  -0.2420 
 16 C       -7.8640    -2.2010     0.7890 C.2   1 <1>   0.9470 
 17 C       -6.6070    -3.6260    -1.0100 C.3   1 <1>  -0.2000 
 18 C       -6.1150    -5.2790     0.9630 C.2   1 <1>   0.9470 
 19 O       -7.8160    -1.5570     1.8470 O.co2 1 <1>  -0.9000 
 20 O       -8.9230    -2.3050     0.1570 O.co2 1 <1>  -0.9000 
 21 O       -6.5800    -6.2450     0.3420 O.co2 1 <1>  -0.9000 
 22 O       -5.7530    -5.3910     2.1420 O.co2 1 <1>  -0.9000 
 23 H       -2.4890     2.5070    -2.3510 H     1 <1>   0.1500 
 24 H       -3.3500     0.0710     1.8530 H     1 <1>   0.1500 
 25 H       -3.2510     2.5510     1.8500 H     1 <1>   0.1500 
 26 H       -5.5480    -1.0550     1.1400 H     1 <1>   0.0800 
 27 H       -5.7150    -0.8480    -0.6020 H     1 <1>   0.0800 
 28 H       -3.7830    -4.2370    -0.4950 H     1 <1>   0.0800 
 29 H       -3.9120    -3.9090     1.2290 H     1 <1>   0.0800 
 30 H       -6.1010    -3.3810    -1.9240 H     1 <1>   0.1000 
 31 H       -7.5250    -4.1660    -1.1760 H     1 <1>   0.1000 
@<TRIPOS>BOND
  1   1   2  1   
  2   2   3  ar  
  3   2   4  ar  
  4   3   5  1   
  5   3   6  ar  
  6   4   7  ar  
  7   4  23  1   
  8   5   8  2   
  9   5   9  am  
 10   6  10  ar  
 11   6  24  1   
 12   7  10  ar  
 13   7  11  1   
 14   9  12  1   
 15   9  13  1   
 16  10  25  1   
 17  12  14  1   
 18  12  26  1   
 19  12  27  1   
 20  13  15  1   
 21  13  28  1   
 22  13  29  1   
 23  14  15  1   
 24  14  16  1   
 25  14  17  1   
 26  15  17  1   
 27  15  18  1   
 28  16  19  ar  
 29  16  20  ar  
 30  17  30  1   
 31  17  31  1   
 32  18  21  ar  
 33  18  22  ar  
@<TRIPOS>SUBSTRUCTURE
  1 ****  12 GROUP 4 **** **** 0

# MOE 2024.06 (io_trps.svl 2023.06)
