@<TRIPOS>MOLECULE
NONAME
52 55 1 0 0 
SMALL
USER_CHARGES


@<TRIPOS>ATOM
  1 O       -0.4730    -3.1090    -1.9460 O.co2 1 <1>  -0.9000 
  2 C       -0.4550    -2.2640    -1.0350 C.2   1 <1>   1.0330 
  3 O       -1.1540    -1.2420    -1.1500 O.co2 1 <1>  -0.9000 
  4 C        0.3220    -2.4730     0.1390 C.2   1 <1>  -0.2330 
  5 C       -0.0470    -3.2840     1.2110 C.2   1 <1>   0.3720 
  6 C        1.5400    -1.9940     0.4980 C.2   1 <1>   0.0870 
  7 N        0.8660    -3.2990     2.1160 N.2   1 <1>  -0.4100 
  8 N       -1.2290    -4.0160     1.3430 N.pl3 1 <1>  -0.8210 
  9 O        1.8140    -2.5150     1.6720 O.3   1 <1>  -0.0190 
 10 C        2.4850    -1.1040    -0.1370 C.ar  1 <1>   0.0530 
 11 C       -1.2700    -5.2210     0.4680 C.3   1 <1>   0.2090 
 12 C       -2.4730    -3.2100     1.2190 C.3   1 <1>   0.2090 
 13 C        3.8330    -1.1140     0.2260 C.ar  1 <1>  -0.1500 
 14 C        2.1030    -0.1980    -1.1280 C.ar  1 <1>  -0.1500 
 15 C       -2.4200    -6.1320     0.9150 C.3   1 <1>   0.1000 
 16 C       -3.6590    -4.0570     1.6930 C.3   1 <1>  -0.1600 
 17 C        4.7540    -0.2710    -0.3680 C.ar  1 <1>  -0.1500 
 18 C        3.0180     0.6470    -1.7290 C.ar  1 <1>  -0.1500 
 19 C       -2.4780    -7.3850     0.0560 C.2   1 <1>   0.2980 
 20 C       -3.7620    -5.3710     0.8970 C.3   1 <1>  -0.1600 
 21 C        4.3470     0.6140    -1.3500 C.ar  1 <1>  -0.1500 
 22 O       -2.6780    -7.2700    -1.2350 O.3   1 <1>  -0.0190 
 23 N       -2.3560    -8.5780     0.4850 N.2   1 <1>  -0.5650 
 24 N       -2.6860    -8.4960    -1.6620 N.2   1 <1>  -0.4100 
 25 C       -2.4980    -9.2450    -0.6510 C.2   1 <1>   0.3350 
 26 C       -2.4310   -10.7610    -0.6970 C.3   1 <1>   0.0210 
 27 C       -3.8240   -11.4230    -0.7210 C.3   1 <1>  -0.0800 
 28 C       -4.6210   -11.1300     0.5590 C.3   1 <1>  -0.2400 
 29 C       -3.6910   -12.9400    -0.9080 C.3   1 <1>  -0.2400 
 30 H       -0.3340    -5.7490     0.5410 H     1 <1>   0.0800 
 31 H       -1.4120    -4.9250    -0.5580 H     1 <1>   0.0800 
 32 H       -2.6290    -2.9180     0.1930 H     1 <1>   0.0800 
 33 H       -2.3850    -2.3170     1.8150 H     1 <1>   0.0800 
 34 H        4.1640    -1.8000     0.9860 H     1 <1>   0.1500 
 35 H        1.0730    -0.1480    -1.4350 H     1 <1>   0.1500 
 36 H       -2.2110    -6.4380     1.9240 H     1 <1>   0.0800 
 37 H       -4.5650    -3.4890     1.5770 H     1 <1>   0.0800 
 38 H       -3.5300    -4.2690     2.7400 H     1 <1>   0.0800 
 39 H        5.7860    -0.3030    -0.0680 H     1 <1>   0.1500 
 40 H        2.6870     1.3300    -2.4920 H     1 <1>   0.1500 
 41 H       -4.5370    -5.9910     1.3100 H     1 <1>   0.0800 
 42 H       -4.0240    -5.1400    -0.1220 H     1 <1>   0.0800 
 43 H        5.0590     1.2710    -1.8180 H     1 <1>   0.1500 
 44 H       -1.8700   -11.1110     0.1510 H     1 <1>   0.0800 
 45 H       -1.8920   -11.0380    -1.5840 H     1 <1>   0.0800 
 46 H       -4.3710   -11.0250    -1.5600 H     1 <1>   0.0800 
 47 H       -4.0900   -11.4810     1.4270 H     1 <1>   0.0800 
 48 H       -5.5800   -11.6170     0.5220 H     1 <1>   0.0800 
 49 H       -4.7900   -10.0730     0.6660 H     1 <1>   0.0800 
 50 H       -3.1520   -13.3790    -0.0870 H     1 <1>   0.0800 
 51 H       -3.1690   -13.1620    -1.8220 H     1 <1>   0.0800 
 52 H       -4.6650   -13.3950    -0.9600 H     1 <1>   0.0800 
@<TRIPOS>BOND
  1   1   2  ar  
  2   2   3  ar  
  3   2   4  1   
  4   4   5  1   
  5   4   6  2   
  6   5   7  2   
  7   5   8  1   
  8   6   9  1   
  9   6  10  1   
 10   7   9  1   
 11   8  11  1   
 12   8  12  1   
 13  10  13  ar  
 14  10  14  ar  
 15  11  15  1   
 16  11  30  1   
 17  11  31  1   
 18  12  16  1   
 19  12  32  1   
 20  12  33  1   
 21  13  17  ar  
 22  13  34  1   
 23  14  18  ar  
 24  14  35  1   
 25  15  19  1   
 26  15  20  1   
 27  15  36  1   
 28  16  20  1   
 29  16  37  1   
 30  16  38  1   
 31  17  21  ar  
 32  17  39  1   
 33  18  21  ar  
 34  18  40  1   
 35  19  22  1   
 36  19  23  2   
 37  20  41  1   
 38  20  42  1   
 39  21  43  1   
 40  22  24  1   
 41  23  25  1   
 42  24  25  2   
 43  25  26  1   
 44  26  27  1   
 45  26  44  1   
 46  26  45  1   
 47  27  28  1   
 48  27  29  1   
 49  27  46  1   
 50  28  47  1   
 51  28  48  1   
 52  28  49  1   
 53  29  50  1   
 54  29  51  1   
 55  29  52  1   
@<TRIPOS>SUBSTRUCTURE
  1 ****  11 GROUP 4 **** **** 0

# MOE 2024.06 (io_trps.svl 2023.06)
