@<TRIPOS>MOLECULE
NONAME
50 53 1 0 0 
SMALL
USER_CHARGES


@<TRIPOS>ATOM
  1 O       -0.3400     0.1960    -0.4020 O.2   1 <1>  -0.5700 
  2 C       -1.3580     0.8490    -0.2490 C.2   1 <1>   0.7150 
  3 N       -2.5600     0.1650    -0.2230 N.am  1 <1>  -0.6600 
  4 C       -1.2360     2.2820    -0.1040 C.2   1 <1>   0.0550 
  5 C       -3.9160     0.7460    -0.0500 C.3   1 <1>   0.1400 
  6 C       -2.6430    -1.3120    -0.3430 C.3   1 <1>   0.1400 
  7 O       -2.2630     3.0820     0.0790 O.3   1 <1>  -0.0190 
  8 C       -0.1460     3.0820    -0.1160 C.2   1 <1>  -0.1500 
  9 C       -4.8750    -0.4450    -0.0940 C.3   1 <1>   0.2000 
 10 C       -4.0230    -1.6760     0.2060 C.3   1 <1>  -0.0800 
 11 N       -1.9290     4.3310     0.1860 N.2   1 <1>  -0.4100 
 12 C       -0.6460     4.3620     0.0720 C.2   1 <1>   0.1080 
 13 O       -5.8800    -0.3250     0.8530 O.3   1 <1>  -0.6800 
 14 C       -4.6100    -2.9650    -0.3910 C.3   1 <1>  -0.0170 
 15 C        0.2060     5.6260     0.1340 C.3   1 <1>   0.1010 
 16 C       -3.7270    -4.1640    -0.0920 C.ar  1 <1>   0.1670 
 17 C        0.0600     6.3140     1.4960 C.3   1 <1>  -0.2400 
 18 C       -0.1690     6.5910    -0.9970 C.3   1 <1>  -0.2400 
 19 N       -2.7780    -4.4310    -0.9350 N.ar  1 <1>  -0.6200 
 20 C       -3.9680    -4.9110     1.0720 C.ar  1 <1>  -0.1500 
 21 C       -1.9720    -5.4900    -0.6660 C.ar  1 <1>   0.3100 
 22 C       -3.1770    -5.9800     1.3650 C.ar  1 <1>  -0.1500 
 23 C       -2.1340    -6.2990     0.4800 C.ar  1 <1>   0.0000 
 24 C       -0.9320    -5.7970    -1.5580 C.ar  1 <1>  -0.1500 
 25 C       -1.2520    -7.3790     0.6870 C.ar  1 <1>  -0.1500 
 26 C       -0.0850    -6.8500    -1.3390 C.ar  1 <1>  -0.1500 
 27 C       -0.2480    -7.6500    -0.2030 C.ar  1 <1>  -0.1500 
 28 H       -3.9710     1.2500     0.9000 H     1 <1>   0.0800 
 29 H       -4.1330     1.4340    -0.8490 H     1 <1>   0.0800 
 30 H       -2.5560    -1.5860    -1.3810 H     1 <1>   0.0800 
 31 H       -1.8570    -1.7960     0.2140 H     1 <1>   0.0800 
 32 H        0.8820     2.7960    -0.2420 H     1 <1>   0.1500 
 33 H       -5.3310    -0.5100    -1.0670 H     1 <1>   0.0800 
 34 H       -3.9180    -1.7910     1.2700 H     1 <1>   0.0800 
 35 H       -5.4970    -0.2400     1.7480 H     1 <1>   0.4000 
 36 H       -4.7110    -2.8630    -1.4580 H     1 <1>   0.0800 
 37 H       -5.5940    -3.1320     0.0110 H     1 <1>   0.0800 
 38 H        1.2380     5.3440     0.0080 H     1 <1>   0.0800 
 39 H       -0.9600     6.6190     1.6520 H     1 <1>   0.0800 
 40 H        0.6940     7.1800     1.5510 H     1 <1>   0.0800 
 41 H        0.3360     5.6340     2.2830 H     1 <1>   0.0800 
 42 H       -1.1940     6.9030    -0.8960 H     1 <1>   0.0800 
 43 H       -0.0540     6.1050    -1.9490 H     1 <1>   0.0800 
 44 H        0.4620     7.4610    -0.9740 H     1 <1>   0.0800 
 45 H       -4.7760    -4.6290     1.7210 H     1 <1>   0.1500 
 46 H       -3.3300    -6.5770     2.2470 H     1 <1>   0.1500 
 47 H       -0.8230    -5.1700    -2.4230 H     1 <1>   0.1500 
 48 H       -1.3830    -7.9890     1.5630 H     1 <1>   0.1500 
 49 H        0.7090    -7.0730    -2.0310 H     1 <1>   0.1500 
 50 H        0.4250    -8.4740    -0.0420 H     1 <1>   0.1500 
@<TRIPOS>BOND
  1   1   2  2   
  2   2   3  am  
  3   2   4  1   
  4   3   5  1   
  5   3   6  1   
  6   4   7  1   
  7   4   8  2   
  8   5   9  1   
  9   5  28  1   
 10   5  29  1   
 11   6  10  1   
 12   6  30  1   
 13   6  31  1   
 14   7  11  1   
 15   8  12  1   
 16   8  32  1   
 17   9  10  1   
 18   9  13  1   
 19   9  33  1   
 20  10  14  1   
 21  10  34  1   
 22  11  12  2   
 23  12  15  1   
 24  13  35  1   
 25  14  16  1   
 26  14  36  1   
 27  14  37  1   
 28  15  17  1   
 29  15  18  1   
 30  15  38  1   
 31  16  19  ar  
 32  16  20  ar  
 33  17  39  1   
 34  17  40  1   
 35  17  41  1   
 36  18  42  1   
 37  18  43  1   
 38  18  44  1   
 39  19  21  ar  
 40  20  22  ar  
 41  20  45  1   
 42  21  23  ar  
 43  21  24  ar  
 44  22  23  ar  
 45  22  46  1   
 46  23  25  ar  
 47  24  26  ar  
 48  24  47  1   
 49  25  27  ar  
 50  25  48  1   
 51  26  27  ar  
 52  26  49  1   
 53  27  50  1   
@<TRIPOS>SUBSTRUCTURE
  1 ****   6 GROUP 4 **** **** 0

# MOE 2024.06 (io_trps.svl 2023.06)
