@<TRIPOS>MOLECULE
NONAME
51 54 1 0 0 
SMALL
USER_CHARGES


@<TRIPOS>ATOM
  1 O        0.4740     0.6360    -0.4270 O.3   1 <1>  -0.5600 
  2 C        0.5470     2.0050    -0.6940 C.3   1 <1>   0.2950 
  3 C        1.7060     0.0190    -0.2060 C.3   1 <1>   0.2000 
  4 C       -0.8860     2.5270    -0.8310 C.3   1 <1>  -0.1950 
  5 C        1.3680     2.2490    -1.9800 C.3   1 <1>   0.2090 
  6 C        2.5880     0.1410    -1.4740 C.3   1 <1>   0.2090 
  7 C        1.4090    -1.4330     0.1860 C.3   1 <1>  -0.1600 
  8 C       -1.2240     3.9530    -0.5250 C.3   1 <1>  -0.2000 
  9 C       -1.7090     2.8510     0.3750 C.3   1 <1>  -0.2000 
 10 N        2.7100     1.5670    -1.9350 N.pl3 1 <1>  -0.8380 
 11 C        2.6640    -2.2180     0.6020 C.3   1 <1>  -0.1600 
 12 C        3.8080     2.2900    -1.5960 C.ar  1 <1>   0.7710 
 13 C        2.2930    -3.6270     1.0770 C.3   1 <1>  -0.1600 
 14 N        4.9050     2.1090    -2.3800 N.ar  1 <1>  -0.1790 
 15 N        3.7790     3.1030    -0.5750 N.ar  1 <1>  -0.5670 
 16 C        3.5400    -4.4160     1.4890 C.3   1 <1>  -0.2400 
 17 C        6.0670     2.7400    -2.1680 C.ar  1 <1>   0.4610 
 18 C        4.9400     3.7590    -0.3240 C.ar  1 <1>   0.1050 
 19 N        7.1200     2.5290    -2.9750 N.pl3 1 <1>  -0.9000 
 20 C        6.0840     3.6120    -1.0730 C.ar  1 <1>   0.0000 
 21 N        5.2290     4.6510     0.6570 N.pl3 1 <1>   0.3140 
 22 C        7.0080     4.4670    -0.4530 C.2   1 <1>   0.1390 
 23 N        6.5110     5.0810     0.5660 N.2   1 <1>  -0.7070 
 24 C        4.3370     5.1450     1.7180 C.3   1 <1>   0.0160 
 25 H        1.0250     2.4860     0.1430 H     1 <1>   0.0800 
 26 H        2.1830     0.5160     0.6220 H     1 <1>   0.0800 
 27 H       -1.4020     2.0680    -1.6570 H     1 <1>   0.1000 
 28 H        1.4920     3.3100    -2.1150 H     1 <1>   0.0800 
 29 H        0.8090     1.8770    -2.8210 H     1 <1>   0.0800 
 30 H        2.1480    -0.4510    -2.2590 H     1 <1>   0.0800 
 31 H        3.5630    -0.2630    -1.2620 H     1 <1>   0.0800 
 32 H        0.7210    -1.4190     1.0140 H     1 <1>   0.0800 
 33 H        0.9260    -1.9330    -0.6360 H     1 <1>   0.0800 
 34 H       -0.4670     4.6180    -0.1450 H     1 <1>   0.1000 
 35 H       -1.9460     4.4620    -1.1410 H     1 <1>   0.1000 
 36 H       -2.7530     2.5890     0.3660 H     1 <1>   0.1000 
 37 H       -1.2670     2.7350     1.3500 H     1 <1>   0.1000 
 38 H        3.3430    -2.3020    -0.2270 H     1 <1>   0.0800 
 39 H        3.1640    -1.6980     1.4020 H     1 <1>   0.0800 
 40 H        1.6230    -3.5630     1.9190 H     1 <1>   0.0800 
 41 H        1.7850    -4.1560     0.2890 H     1 <1>   0.0800 
 42 H        4.7610     1.4860    -3.1630 H     1 <1>   0.4570 
 43 H        4.0520    -3.9200     2.2950 H     1 <1>   0.0800 
 44 H        4.2150    -4.5180     0.6570 H     1 <1>   0.0800 
 45 H        3.2580    -5.4000     1.8200 H     1 <1>   0.0800 
 46 H        7.1580     1.9060    -3.7910 H     1 <1>   0.4000 
 47 H        8.0210     3.0060    -2.8330 H     1 <1>   0.4000 
 48 H        8.0250     4.6030    -0.7840 H     1 <1>   0.1500 
 49 H        3.3910     4.6400     1.6650 H     1 <1>   0.0800 
 50 H        4.1940     6.2020     1.5900 H     1 <1>   0.0800 
 51 H        4.7950     4.9600     2.6720 H     1 <1>   0.0800 
@<TRIPOS>BOND
  1   1   2  1   
  2   1   3  1   
  3   2   4  1   
  4   2   5  1   
  5   2  25  1   
  6   3   6  1   
  7   3   7  1   
  8   3  26  1   
  9   4   8  1   
 10   4   9  1   
 11   4  27  1   
 12   5  10  1   
 13   5  28  1   
 14   5  29  1   
 15   6  10  1   
 16   6  30  1   
 17   6  31  1   
 18   7  11  1   
 19   7  32  1   
 20   7  33  1   
 21   8   9  1   
 22   8  34  1   
 23   8  35  1   
 24   9  36  1   
 25   9  37  1   
 26  10  12  1   
 27  11  13  1   
 28  11  38  1   
 29  11  39  1   
 30  12  14  ar  
 31  12  15  ar  
 32  13  16  1   
 33  13  40  1   
 34  13  41  1   
 35  14  17  ar  
 36  14  42  1   
 37  15  18  ar  
 38  16  43  1   
 39  16  44  1   
 40  16  45  1   
 41  17  19  1   
 42  17  20  ar  
 43  18  20  ar  
 44  18  21  1   
 45  19  46  1   
 46  19  47  1   
 47  20  22  1   
 48  21  23  1   
 49  21  24  1   
 50  22  23  2   
 51  22  48  1   
 52  24  49  1   
 53  24  50  1   
 54  24  51  1   
@<TRIPOS>SUBSTRUCTURE
  1 ****  12 GROUP 4 **** **** 0

# MOE 2024.06 (io_trps.svl 2023.06)
