@<TRIPOS>MOLECULE
NONAME
52 54 1 0 0 
SMALL
USER_CHARGES


@<TRIPOS>ATOM
  1 O       -2.0740     1.2490     1.3700 O.2   1 <1>  -0.5700 
  2 C       -1.3670     2.2300     1.3540 C.2   1 <1>   0.5690 
  3 N       -1.7950     3.4300     0.8520 N.am  1 <1>  -0.6600 
  4 C        0.0620     2.0950     1.8900 C.3   1 <1>   0.1810 
  5 C       -0.8870     4.6210     0.8300 C.3   1 <1>   0.3640 
  6 C       -3.2150     3.6810     0.4710 C.3   1 <1>   0.0600 
  7 O        0.6510     3.3260     2.2320 O.3   1 <1>  -0.5600 
  8 C       -0.9110     5.3410    -0.5270 C.ar  1 <1>  -0.1430 
  9 C        0.5780     4.3050     1.2130 C.3   1 <1>   0.2610 
 10 C       -0.7630     4.7180    -1.7710 C.ar  1 <1>  -0.1430 
 11 C       -1.0610     6.7220    -0.4850 C.ar  1 <1>  -0.1500 
 12 C        1.2660     5.6160     1.6330 C.2   1 <1>   0.5690 
 13 C       -0.7680     5.4900    -2.9240 C.ar  1 <1>  -0.1500 
 14 C       -0.5980     3.2110    -1.9530 C.3   1 <1>  -0.0960 
 15 C       -1.0560     7.4810    -1.6380 C.ar  1 <1>  -0.1500 
 16 O        0.8880     6.1470     2.6550 O.2   1 <1>  -0.5700 
 17 N        2.2440     6.2080     0.8640 N.am  1 <1>  -0.6600 
 18 C       -0.9100     6.8630    -2.8630 C.ar  1 <1>  -0.1500 
 19 C        2.8680     7.4860     1.3110 C.3   1 <1>   0.2840 
 20 C        2.6340     5.7710    -0.5030 C.3   1 <1>   0.1400 
 21 C        2.1640     8.6590     0.6490 C.ar  1 <1>  -0.1430 
 22 C        3.7840     4.7730    -0.4060 C.3   1 <1>  -0.2400 
 23 C        0.9320     9.0830     1.1250 C.ar  1 <1>   0.1600 
 24 C        2.7230     9.3200    -0.4280 C.ar  1 <1>  -0.1500 
 25 N        0.2240    10.0820     0.6190 N.ar  1 <1>  -0.6200 
 26 C        2.0020    10.3640    -0.9650 C.ar  1 <1>  -0.1500 
 27 C        0.7770    10.6980    -0.4120 C.ar  1 <1>   0.1600 
 28 H        0.6770     1.6160     1.1510 H     1 <1>   0.0800 
 29 H        0.0490     1.4860     2.7750 H     1 <1>   0.0800 
 30 H       -1.2660     5.2970     1.5770 H     1 <1>   0.0800 
 31 H       -3.2750     3.9800    -0.5600 H     1 <1>   0.0800 
 32 H       -3.6240     4.4620     1.0870 H     1 <1>   0.0800 
 33 H       -3.8080     2.7920     0.6050 H     1 <1>   0.0800 
 34 H        1.0870     3.8960     0.3670 H     1 <1>   0.0800 
 35 H       -1.1760     7.2340     0.4560 H     1 <1>   0.1500 
 36 H       -0.6620     5.0260    -3.8890 H     1 <1>   0.1500 
 37 H       -0.2320     2.9800    -2.9370 H     1 <1>   0.0800 
 38 H       -1.5480     2.7230    -1.8290 H     1 <1>   0.0800 
 39 H        0.0950     2.8020    -1.2450 H     1 <1>   0.0800 
 40 H       -1.1630     8.5510    -1.5730 H     1 <1>   0.1500 
 41 H       -0.9090     7.4500    -3.7650 H     1 <1>   0.1500 
 42 H        2.8010     7.5810     2.3820 H     1 <1>   0.0800 
 43 H        3.9130     7.4840     1.0540 H     1 <1>   0.0800 
 44 H        1.7960     5.3320    -1.0140 H     1 <1>   0.0800 
 45 H        2.9400     6.6220    -1.0870 H     1 <1>   0.0800 
 46 H        3.4930     3.9130     0.1700 H     1 <1>   0.0800 
 47 H        4.6400     5.2320     0.0540 H     1 <1>   0.0800 
 48 H        4.0620     4.4450    -1.3910 H     1 <1>   0.0800 
 49 H        0.5030     8.5680     1.9690 H     1 <1>   0.1500 
 50 H        3.6770     9.0370    -0.8360 H     1 <1>   0.1500 
 51 H        2.3810    10.9170    -1.8040 H     1 <1>   0.1500 
 52 H        0.2240    11.5160    -0.8400 H     1 <1>   0.1500 
@<TRIPOS>BOND
  1   1   2  2   
  2   2   3  am  
  3   2   4  1   
  4   3   5  1   
  5   3   6  1   
  6   4   7  1   
  7   4  28  1   
  8   4  29  1   
  9   5   8  1   
 10   5   9  1   
 11   5  30  1   
 12   6  31  1   
 13   6  32  1   
 14   6  33  1   
 15   7   9  1   
 16   8  10  ar  
 17   8  11  ar  
 18   9  12  1   
 19   9  34  1   
 20  10  13  ar  
 21  10  14  1   
 22  11  15  ar  
 23  11  35  1   
 24  12  16  2   
 25  12  17  am  
 26  13  18  ar  
 27  13  36  1   
 28  14  37  1   
 29  14  38  1   
 30  14  39  1   
 31  15  18  ar  
 32  15  40  1   
 33  17  19  1   
 34  17  20  1   
 35  18  41  1   
 36  19  21  1   
 37  19  42  1   
 38  19  43  1   
 39  20  22  1   
 40  20  44  1   
 41  20  45  1   
 42  21  23  ar  
 43  21  24  ar  
 44  22  46  1   
 45  22  47  1   
 46  22  48  1   
 47  23  25  ar  
 48  23  49  1   
 49  24  26  ar  
 50  24  50  1   
 51  25  27  ar  
 52  26  27  ar  
 53  26  51  1   
 54  27  52  1   
@<TRIPOS>SUBSTRUCTURE
  1 ****   8 GROUP 4 **** **** 0

# MOE 2024.06 (io_trps.svl 2023.06)
