@<TRIPOS>MOLECULE
NONAME
46 48 1 0 0 
SMALL
USER_CHARGES


@<TRIPOS>ATOM
  1 O       -3.0120     1.0730    -2.8820 O.2   1 <1>  -0.5700 
  2 C       -2.3840     1.2030    -1.8590 C.2   1 <1>   0.5690 
  3 N       -1.9240     0.1290    -1.1680 N.am  1 <1>  -0.7300 
  4 C       -2.1200     2.6070    -1.3270 C.3   1 <1>   0.1810 
  5 C       -2.1080    -1.2910    -1.5370 C.3   1 <1>   0.2200 
  6 O       -1.5430     2.5590    -0.0290 O.3   1 <1>  -0.3630 
  7 C       -3.1550    -1.9580    -0.6550 C.3   1 <1>  -0.0800 
  8 C       -0.8640    -2.0720    -1.1330 C.3   1 <1>   0.1200 
  9 C       -1.2170     3.6880     0.6520 C.ar  1 <1>   0.0820 
 10 C       -2.3540    -2.3560     0.5900 C.3   1 <1>   0.1200 
 11 C       -4.4150    -1.1250    -0.3550 C.3   1 <1>  -0.0160 
 12 O       -1.0010    -2.3020     0.2370 O.3   1 <1>  -0.5600 
 13 C       -0.6100     3.5340     1.8960 C.ar  1 <1>  -0.1440 
 14 C       -1.4660     4.9670     0.1590 C.ar  1 <1>  -0.1500 
 15 C       -5.4140    -1.9260     0.4650 C.ar  1 <1>  -0.1440 
 16 C       -0.2600     4.6570     2.6300 C.ar  1 <1>  -0.1500 
 17 C       -0.3240     2.1480     2.4560 C.3   1 <1>  -0.0970 
 18 C       -1.1120     6.0800     0.9000 C.ar  1 <1>  -0.1500 
 19 C       -6.2540    -2.8530    -0.1190 C.ar  1 <1>  -0.1500 
 20 C       -5.5330    -1.7700     1.8310 C.ar  1 <1>  -0.1500 
 21 C       -0.5090     5.9250     2.1360 C.ar  1 <1>  -0.1500 
 22 C       -7.1430    -3.5640     0.6710 C.ar  1 <1>   0.1600 
 23 C       -6.4560    -2.5320     2.5290 C.ar  1 <1>   0.1600 
 24 N       -7.2620    -3.4270     1.9820 N.ar  1 <1>  -0.6200 
 25 H       -1.4210     0.2900    -0.2890 H     1 <1>   0.3700 
 26 H       -3.0490     3.1420    -1.2680 H     1 <1>   0.0800 
 27 H       -1.4390     3.1150    -1.9840 H     1 <1>   0.0800 
 28 H       -2.3280    -1.3840    -2.5870 H     1 <1>   0.0800 
 29 H       -3.4620    -2.8670    -1.1410 H     1 <1>   0.0800 
 30 H        0.0470    -1.5320    -1.3230 H     1 <1>   0.0800 
 31 H       -0.8370    -3.0270    -1.6270 H     1 <1>   0.0800 
 32 H       -2.5930    -3.3530     0.9170 H     1 <1>   0.0800 
 33 H       -2.5050    -1.6620     1.3980 H     1 <1>   0.0800 
 34 H       -4.8730    -0.8240    -1.2820 H     1 <1>   0.0800 
 35 H       -4.1550    -0.2280     0.1800 H     1 <1>   0.0800 
 36 H       -1.9320     5.1220    -0.7950 H     1 <1>   0.1500 
 37 H        0.2100     4.5510     3.5920 H     1 <1>   0.1500 
 38 H        0.1420     2.2070     3.4230 H     1 <1>   0.0800 
 39 H        0.3320     1.6150     1.7920 H     1 <1>   0.0800 
 40 H       -1.2420     1.5970     2.5520 H     1 <1>   0.0800 
 41 H       -1.3050     7.0670     0.5190 H     1 <1>   0.1500 
 42 H       -6.2260    -3.0280    -1.1780 H     1 <1>   0.1500 
 43 H       -4.9190    -1.0650     2.3600 H     1 <1>   0.1500 
 44 H       -0.2340     6.7900     2.7130 H     1 <1>   0.1500 
 45 H       -7.7900    -4.2830     0.1990 H     1 <1>   0.1500 
 46 H       -6.5350    -2.3980     3.5940 H     1 <1>   0.1500 
@<TRIPOS>BOND
  1   1   2  2   
  2   2   3  am  
  3   2   4  1   
  4   3   5  1   
  5   3  25  1   
  6   4   6  1   
  7   4  26  1   
  8   4  27  1   
  9   5   7  1   
 10   5   8  1   
 11   5  28  1   
 12   6   9  1   
 13   7  10  1   
 14   7  11  1   
 15   7  29  1   
 16   8  12  1   
 17   8  30  1   
 18   8  31  1   
 19   9  13  ar  
 20   9  14  ar  
 21  10  12  1   
 22  10  32  1   
 23  10  33  1   
 24  11  15  1   
 25  11  34  1   
 26  11  35  1   
 27  13  16  ar  
 28  13  17  1   
 29  14  18  ar  
 30  14  36  1   
 31  15  19  ar  
 32  15  20  ar  
 33  16  21  ar  
 34  16  37  1   
 35  17  38  1   
 36  17  39  1   
 37  17  40  1   
 38  18  21  ar  
 39  18  41  1   
 40  19  22  ar  
 41  19  42  1   
 42  20  23  ar  
 43  20  43  1   
 44  21  44  1   
 45  22  24  ar  
 46  22  45  1   
 47  23  24  ar  
 48  23  46  1   
@<TRIPOS>SUBSTRUCTURE
  1 ****   3 GROUP 4 **** **** 0

# MOE 2024.06 (io_trps.svl 2023.06)
