@<TRIPOS>MOLECULE
NONAME
45 47 1 0 0 
SMALL
USER_CHARGES


@<TRIPOS>ATOM
  1 O       -0.0170    -4.0050     2.1970 O.2   1 <1>  -0.5700 
  2 C        0.9370    -3.4140     1.7320 C.2   1 <1>   0.6900 
  3 N        0.8870    -2.8060     0.4890 N.am  1 <1>  -0.4690 
  4 N        2.0950    -3.3570     2.4360 N.am  1 <1>  -0.4900 
  5 C        2.0150    -2.1880    -0.0390 C.2   1 <1>  -0.0410 
  6 C       -0.3820    -2.8560    -0.3070 C.3   1 <1>   0.2010 
  7 C        3.2210    -2.7530     1.9700 C.2   1 <1>   0.6160 
  8 C        3.1690    -2.1490     0.6700 C.2   1 <1>  -0.1240 
  9 C       -0.5790    -4.1910    -1.0210 C.2   1 <1>   0.5690 
 10 O        4.2080    -2.7590     2.6770 O.2   1 <1>  -0.5700 
 11 C        4.4250    -1.4830     0.1250 C.3   1 <1>  -0.1020 
 12 O       -0.6700    -4.2030    -2.2250 O.2   1 <1>  -0.5700 
 13 N       -0.6550    -5.3320    -0.2900 N.am  1 <1>  -0.7300 
 14 C       -0.7460    -6.7060    -0.8340 C.3   1 <1>   0.2200 
 15 C       -2.0060    -7.4090    -0.3530 C.3   1 <1>  -0.0800 
 16 C        0.3270    -7.5710    -0.1860 C.3   1 <1>   0.1200 
 17 C       -1.5940    -7.9430     1.0220 C.3   1 <1>   0.1200 
 18 C       -3.2880    -6.5560    -0.3420 C.3   1 <1>  -0.0170 
 19 O       -0.1960    -7.9630     1.0480 O.3   1 <1>  -0.5600 
 20 C       -4.4970    -7.4010     0.0320 C.ar  1 <1>  -0.1430 
 21 C       -4.9990    -7.4380     1.3170 C.ar  1 <1>  -0.1500 
 22 C       -5.1550    -8.1770    -0.9010 C.ar  1 <1>  -0.1500 
 23 C       -6.0990    -8.2310     1.6000 C.ar  1 <1>   0.1600 
 24 C       -6.2480    -8.9340    -0.5140 C.ar  1 <1>   0.1600 
 25 N       -6.7350    -8.9810     0.7160 N.ar  1 <1>  -0.6200 
 26 H        2.1330    -3.8060     3.3440 H     1 <1>   0.3700 
 27 H        1.9280    -1.7540    -1.0220 H     1 <1>   0.1500 
 28 H       -1.2190    -2.6890     0.3460 H     1 <1>   0.0800 
 29 H       -0.3760    -2.0710    -1.0400 H     1 <1>   0.0800 
 30 H        4.7310    -0.6870     0.7820 H     1 <1>   0.0800 
 31 H        4.2540    -1.0750    -0.8550 H     1 <1>   0.0800 
 32 H        5.2240    -2.2010     0.0650 H     1 <1>   0.0800 
 33 H       -0.5280    -5.2800     0.7330 H     1 <1>   0.3700 
 34 H       -0.6610    -6.6950    -1.9080 H     1 <1>   0.0800 
 35 H       -2.1710    -8.2580    -0.9920 H     1 <1>   0.0800 
 36 H        1.2530    -7.0450    -0.0370 H     1 <1>   0.0800 
 37 H        0.4980    -8.4610    -0.7660 H     1 <1>   0.0800 
 38 H       -1.9650    -8.9390     1.1930 H     1 <1>   0.0800 
 39 H       -1.9210    -7.2910     1.8130 H     1 <1>   0.0800 
 40 H       -3.4410    -6.1300    -1.3190 H     1 <1>   0.0800 
 41 H       -3.1920    -5.7410     0.3540 H     1 <1>   0.0800 
 42 H       -4.5460    -6.8600     2.1020 H     1 <1>   0.1500 
 43 H       -4.8280    -8.1990    -1.9240 H     1 <1>   0.1500 
 44 H       -6.4760    -8.2480     2.6090 H     1 <1>   0.1500 
 45 H       -6.7480    -9.5330    -1.2550 H     1 <1>   0.1500 
@<TRIPOS>BOND
  1   1   2  2   
  2   2   3  am  
  3   2   4  am  
  4   3   5  1   
  5   3   6  1   
  6   4   7  am  
  7   4  26  1   
  8   5   8  2   
  9   5  27  1   
 10   6   9  1   
 11   6  28  1   
 12   6  29  1   
 13   7   8  1   
 14   7  10  2   
 15   8  11  1   
 16   9  12  2   
 17   9  13  am  
 18  11  30  1   
 19  11  31  1   
 20  11  32  1   
 21  13  14  1   
 22  13  33  1   
 23  14  15  1   
 24  14  16  1   
 25  14  34  1   
 26  15  17  1   
 27  15  18  1   
 28  15  35  1   
 29  16  19  1   
 30  16  36  1   
 31  16  37  1   
 32  17  19  1   
 33  17  38  1   
 34  17  39  1   
 35  18  20  1   
 36  18  40  1   
 37  18  41  1   
 38  20  21  ar  
 39  20  22  ar  
 40  21  23  ar  
 41  21  42  1   
 42  22  24  ar  
 43  22  43  1   
 44  23  25  ar  
 45  23  44  1   
 46  24  25  ar  
 47  24  45  1   
@<TRIPOS>SUBSTRUCTURE
  1 ****  13 GROUP 4 **** **** 0

# MOE 2024.06 (io_trps.svl 2023.06)
