@<TRIPOS>MOLECULE
NONAME
55 57 1 0 0 
SMALL
USER_CHARGES


@<TRIPOS>ATOM
  1 O       -1.0540     0.2430    -1.7620 O.2   1 <1>  -0.5700 
  2 C       -1.0080     0.2620    -0.5550 C.2   1 <1>   0.5690 
  3 N       -1.3390    -0.8330     0.1720 N.am  1 <1>  -0.7300 
  4 C       -0.5910     1.5320     0.1920 C.3   1 <1>  -0.0190 
  5 C       -1.8410    -2.1090    -0.3870 C.3   1 <1>   0.2200 
  6 C       -1.6860     1.9870     1.1800 C.3   1 <1>  -0.1600 
  7 C       -0.2370     2.6940    -0.7610 C.3   1 <1>  -0.1600 
  8 C       -3.3580    -2.1990    -0.2750 C.3   1 <1>  -0.0800 
  9 C       -1.4310    -3.2390     0.5470 C.3   1 <1>   0.1200 
 10 C       -1.2920     3.2710     1.9140 C.3   1 <1>   0.1400 
 11 C        0.1240     3.9760    -0.0050 C.3   1 <1>   0.1400 
 12 C       -3.5680    -2.6920     1.1620 C.3   1 <1>   0.1200 
 13 C       -4.1410    -0.9200    -0.6290 C.3   1 <1>  -0.0170 
 14 O       -2.3300    -3.1660     1.6110 O.3   1 <1>  -0.5600 
 15 N       -0.9890     4.3340     0.9180 N.am  1 <1>  -0.6600 
 16 C       -5.6400    -1.1440    -0.5110 C.ar  1 <1>  -0.1440 
 17 C       -1.7500     5.4820     0.8620 C.2   1 <1>   0.5690 
 18 C       -6.3520    -1.8260    -1.4760 C.ar  1 <1>  -0.1500 
 19 C       -6.3650    -0.6760     0.5660 C.ar  1 <1>  -0.1500 
 20 O       -2.7150     5.6220     1.5790 O.2   1 <1>  -0.5700 
 21 C       -1.4120     6.6240    -0.1160 C.3   1 <1>  -0.0190 
 22 C       -7.7160    -2.0080    -1.3190 C.ar  1 <1>   0.1600 
 23 C       -7.7290    -0.9120     0.6270 C.ar  1 <1>   0.1600 
 24 C       -1.8840     8.0020     0.3840 C.3   1 <1>  -0.2400 
 25 C       -2.0110     6.3590    -1.5090 C.3   1 <1>  -0.2400 
 26 N       -8.4210    -1.5690    -0.2890 N.ar  1 <1>  -0.6200 
 27 H       -1.3350    -0.8090     1.1940 H     1 <1>   0.3700 
 28 H        0.2920     1.2880     0.7550 H     1 <1>   0.0800 
 29 H       -1.4840    -2.2520    -1.3940 H     1 <1>   0.0800 
 30 H       -1.8720     1.2200     1.9100 H     1 <1>   0.0800 
 31 H       -2.6050     2.1650     0.6490 H     1 <1>   0.0800 
 32 H       -1.0730     2.8990    -1.4070 H     1 <1>   0.0800 
 33 H        0.5910     2.4070    -1.3860 H     1 <1>   0.0800 
 34 H       -3.6880    -2.9840    -0.9330 H     1 <1>   0.0800 
 35 H       -0.4240    -3.1380     0.9110 H     1 <1>   0.0800 
 36 H       -1.5570    -4.1960     0.0700 H     1 <1>   0.0800 
 37 H       -0.4200     3.1000     2.5210 H     1 <1>   0.0800 
 38 H       -2.0930     3.5710     2.5680 H     1 <1>   0.0800 
 39 H        0.3190     4.7550    -0.7170 H     1 <1>   0.0800 
 40 H        1.0210     3.8210     0.5710 H     1 <1>   0.0800 
 41 H       -4.2880    -3.4920     1.2070 H     1 <1>   0.0800 
 42 H       -3.8700    -1.8950     1.8180 H     1 <1>   0.0800 
 43 H       -3.9020    -0.6220    -1.6360 H     1 <1>   0.0800 
 44 H       -3.8560    -0.1110     0.0200 H     1 <1>   0.0800 
 45 H       -5.8600    -2.2150    -2.3480 H     1 <1>   0.1500 
 46 H       -5.8870    -0.1300     1.3580 H     1 <1>   0.1500 
 47 H       -0.3440     6.6880    -0.2020 H     1 <1>   0.0800 
 48 H       -8.2560    -2.5420    -2.0820 H     1 <1>   0.1500 
 49 H       -8.2790    -0.5390     1.4740 H     1 <1>   0.1500 
 50 H       -2.9580     8.0260     0.4630 H     1 <1>   0.0800 
 51 H       -1.5700     8.7790    -0.2890 H     1 <1>   0.0800 
 52 H       -1.4700     8.2010     1.3570 H     1 <1>   0.0800 
 53 H       -3.0840     6.3210    -1.4460 H     1 <1>   0.0800 
 54 H       -1.6630     5.4200    -1.8990 H     1 <1>   0.0800 
 55 H       -1.7310     7.1390    -2.1940 H     1 <1>   0.0800 
@<TRIPOS>BOND
  1   1   2  2   
  2   2   3  am  
  3   2   4  1   
  4   3   5  1   
  5   3  27  1   
  6   4   6  1   
  7   4   7  1   
  8   4  28  1   
  9   5   8  1   
 10   5   9  1   
 11   5  29  1   
 12   6  10  1   
 13   6  30  1   
 14   6  31  1   
 15   7  11  1   
 16   7  32  1   
 17   7  33  1   
 18   8  12  1   
 19   8  13  1   
 20   8  34  1   
 21   9  14  1   
 22   9  35  1   
 23   9  36  1   
 24  10  15  1   
 25  10  37  1   
 26  10  38  1   
 27  11  15  1   
 28  11  39  1   
 29  11  40  1   
 30  12  14  1   
 31  12  41  1   
 32  12  42  1   
 33  13  16  1   
 34  13  43  1   
 35  13  44  1   
 36  15  17  am  
 37  16  18  ar  
 38  16  19  ar  
 39  17  20  2   
 40  17  21  1   
 41  18  22  ar  
 42  18  45  1   
 43  19  23  ar  
 44  19  46  1   
 45  21  24  1   
 46  21  25  1   
 47  21  47  1   
 48  22  26  ar  
 49  22  48  1   
 50  23  26  ar  
 51  23  49  1   
 52  24  50  1   
 53  24  51  1   
 54  24  52  1   
 55  25  53  1   
 56  25  54  1   
 57  25  55  1   
@<TRIPOS>SUBSTRUCTURE
  1 ****   6 GROUP 4 **** **** 0

# MOE 2024.06 (io_trps.svl 2023.06)
