@<TRIPOS>MOLECULE
NONAME
49 51 1 0 0 
SMALL
USER_CHARGES


@<TRIPOS>ATOM
  1 S        0.1550    -0.3850     1.1770 S.3   1 <1>  -0.0800 
  2 C       -1.4700    -0.9010     0.8660 C.2   1 <1>   0.4420 
  3 C       -0.4210     1.2440     1.0860 C.2   1 <1>   0.1980 
  4 N       -2.2730     0.0900     0.7250 N.2   1 <1>  -0.3380 
  5 N       -1.6800    -2.2600     0.8040 N.am  1 <1>  -0.4940 
  6 N       -1.6680     1.3100     0.8530 N.2   1 <1>  -0.3380 
  7 C        0.5700     2.3750     1.2880 C.3   1 <1>   0.0200 
  8 C       -2.8460    -2.9620     0.6490 C.2   1 <1>   0.7160 
  9 C        1.5140     2.5240     0.0860 C.3   1 <1>  -0.1600 
 10 O       -3.9170    -2.3950     0.6570 O.2   1 <1>  -0.5700 
 11 C       -2.7760    -4.3930     0.4940 C.2   1 <1>  -0.0860 
 12 C        2.4940     3.6890     0.2820 C.3   1 <1>  -0.1600 
 13 C       -1.7090    -5.2090     0.2640 C.2   1 <1>  -0.0100 
 14 C       -3.8690    -5.2820     0.5510 C.2   1 <1>  -0.1500 
 15 C        3.4300     3.8290    -0.9240 C.3   1 <1>  -0.1600 
 16 O       -2.0740    -6.4650     0.1860 O.3   1 <1>  -0.2800 
 17 C       -3.3790    -6.5230     0.3540 C.2   1 <1>  -0.0400 
 18 C        4.4070     4.9920    -0.7290 C.3   1 <1>  -0.2400 
 19 C       -4.0590    -7.8850     0.3100 C.3   1 <1>   0.2900 
 20 N       -5.5270    -7.7660     0.2370 N.3   1 <1>  -0.8100 
 21 C       -6.1810    -9.0480     0.5610 C.3   1 <1>   0.1100 
 22 C       -5.9710    -7.3150    -1.1000 C.3   1 <1>   0.1100 
 23 C       -7.7110    -8.9360     0.4300 C.3   1 <1>   0.1200 
 24 C       -7.5070    -7.2570    -1.1820 C.3   1 <1>   0.1200 
 25 O       -8.0620    -8.4990    -0.8520 O.3   1 <1>  -0.5600 
 26 H       -0.8510    -2.8300     0.9120 H     1 <1>   0.3700 
 27 H        1.1350     2.1910     2.1840 H     1 <1>   0.0800 
 28 H        0.0180     3.2890     1.4260 H     1 <1>   0.0800 
 29 H        0.9260     2.6950    -0.8000 H     1 <1>   0.0800 
 30 H        2.0670     1.6110    -0.0520 H     1 <1>   0.0800 
 31 H        3.0800     3.5220     1.1700 H     1 <1>   0.0800 
 32 H        1.9420     4.6050     0.4120 H     1 <1>   0.0800 
 33 H       -0.6670    -4.9750     0.1380 H     1 <1>   0.1500 
 34 H       -4.8920    -4.9900     0.7250 H     1 <1>   0.1500 
 35 H        2.8500     4.0010    -1.8150 H     1 <1>   0.0800 
 36 H        3.9880     2.9180    -1.0590 H     1 <1>   0.0800 
 37 H        3.8720     5.9180    -0.6140 H     1 <1>   0.0800 
 38 H        5.0540     5.0750    -1.5840 H     1 <1>   0.0800 
 39 H        5.0150     4.8310     0.1450 H     1 <1>   0.0800 
 40 H       -3.7840    -8.4180     1.2030 H     1 <1>   0.0800 
 41 H       -3.6950    -8.4400    -0.5380 H     1 <1>   0.0800 
 42 H       -5.9380    -9.3280     1.5710 H     1 <1>   0.0800 
 43 H       -5.8310    -9.8220    -0.1000 H     1 <1>   0.0800 
 44 H       -5.6090    -7.9890    -1.8580 H     1 <1>   0.0800 
 45 H       -5.5750    -6.3370    -1.3070 H     1 <1>   0.0800 
 46 H       -8.1010    -8.2380     1.1510 H     1 <1>   0.0800 
 47 H       -8.1720    -9.8940     0.5880 H     1 <1>   0.0800 
 48 H       -7.8180    -7.0120    -2.1810 H     1 <1>   0.0800 
 49 H       -7.8910    -6.5150    -0.5040 H     1 <1>   0.0800 
@<TRIPOS>BOND
  1   1   2  1   
  2   1   3  1   
  3   2   4  2   
  4   2   5  1   
  5   3   6  2   
  6   3   7  1   
  7   4   6  1   
  8   5   8  am  
  9   5  26  1   
 10   7   9  1   
 11   7  27  1   
 12   7  28  1   
 13   8  10  2   
 14   8  11  1   
 15   9  12  1   
 16   9  29  1   
 17   9  30  1   
 18  11  13  2   
 19  11  14  1   
 20  12  15  1   
 21  12  31  1   
 22  12  32  1   
 23  13  16  1   
 24  13  33  1   
 25  14  17  2   
 26  14  34  1   
 27  15  18  1   
 28  15  35  1   
 29  15  36  1   
 30  16  17  1   
 31  17  19  1   
 32  18  37  1   
 33  18  38  1   
 34  18  39  1   
 35  19  20  1   
 36  19  40  1   
 37  19  41  1   
 38  20  21  1   
 39  20  22  1   
 40  21  23  1   
 41  21  42  1   
 42  21  43  1   
 43  22  24  1   
 44  22  44  1   
 45  22  45  1   
 46  23  25  1   
 47  23  46  1   
 48  23  47  1   
 49  24  25  1   
 50  24  48  1   
 51  24  49  1   
@<TRIPOS>SUBSTRUCTURE
  1 ****   8 GROUP 4 **** **** 0

# MOE 2024.06 (io_trps.svl 2023.06)
