@<TRIPOS>MOLECULE
NONAME
53 55 1 0 0 
SMALL
USER_CHARGES


@<TRIPOS>ATOM
  1 O        1.4260     0.6280    -0.7260 O.2   1 <1>  -0.5700 
  2 C        2.2210    -0.2850    -0.7270 C.2   1 <1>   0.5690 
  3 N        3.5550    -0.0480    -0.9650 N.am  1 <1>  -0.6600 
  4 C        1.7020    -1.7040    -0.4470 C.3   1 <1>  -0.0190 
  5 C        4.6590    -1.0600    -0.9100 C.3   1 <1>   0.1400 
  6 C        4.0220     1.3250    -1.3000 C.3   1 <1>   0.1400 
  7 C        0.1840    -1.8840    -0.5560 C.3   1 <1>  -0.1600 
  8 C        2.0080    -2.2120     0.9680 C.3   1 <1>  -0.1600 
  9 C        5.5130    -0.9360     0.3640 C.3   1 <1>   0.1400 
 10 C        4.2870     2.1510    -0.0340 C.3   1 <1>  -0.1600 
 11 C       -0.0980    -3.1970     0.1700 C.3   1 <1>  -0.1600 
 12 C        0.9680    -3.2990     1.2650 C.3   1 <1>  -0.1600 
 13 N        6.0220     0.4550     0.5820 N.am  1 <1>  -0.6600 
 14 C        4.9940     1.4000     1.1030 C.3   1 <1>   0.1400 
 15 C        7.3440     0.7770     0.3820 C.2   1 <1>   0.5690 
 16 O        8.1410    -0.0640     0.0260 O.2   1 <1>  -0.5700 
 17 C        7.8570     2.2150     0.6090 C.3   1 <1>   0.2610 
 18 O        8.1760     2.4130     1.9580 O.3   1 <1>  -0.6800 
 19 C        9.0790     2.5580    -0.2610 C.3   1 <1>  -0.0170 
 20 C        9.3350     4.0590    -0.3370 C.ar  1 <1>  -0.1440 
 21 C        8.9260     4.7820    -1.4480 C.ar  1 <1>  -0.1500 
 22 C        9.9770     4.7170     0.7000 C.ar  1 <1>  -0.1500 
 23 C        9.1570     6.1450    -1.5200 C.ar  1 <1>  -0.1500 
 24 C       10.2090     6.0800     0.6300 C.ar  1 <1>  -0.1500 
 25 C        9.7990     6.7950    -0.4810 C.ar  1 <1>  -0.1500 
 26 H        2.1410    -2.3750    -1.1610 H     1 <1>   0.0800 
 27 H        4.2660    -2.0570    -0.9640 H     1 <1>   0.0800 
 28 H        5.2990    -0.9320    -1.7660 H     1 <1>   0.0800 
 29 H        4.9250     1.2630    -1.8820 H     1 <1>   0.0800 
 30 H        3.2820     1.8230    -1.9050 H     1 <1>   0.0800 
 31 H       -0.3200    -1.0840    -0.0390 H     1 <1>   0.0800 
 32 H       -0.1480    -1.9020    -1.5800 H     1 <1>   0.0800 
 33 H        3.0080    -2.5950     1.0520 H     1 <1>   0.0800 
 34 H        1.8820    -1.4020     1.6670 H     1 <1>   0.0800 
 35 H        6.3380    -1.6240     0.2930 H     1 <1>   0.0800 
 36 H        4.9300    -1.2350     1.2160 H     1 <1>   0.0800 
 37 H        3.3450     2.5130     0.3380 H     1 <1>   0.0800 
 38 H        4.8620     3.0160    -0.3050 H     1 <1>   0.0800 
 39 H       -1.0950    -3.2170     0.5760 H     1 <1>   0.0800 
 40 H        0.0150    -4.0180    -0.5180 H     1 <1>   0.0800 
 41 H        1.4200    -4.2760     1.2500 H     1 <1>   0.0800 
 42 H        0.5310    -3.1350     2.2350 H     1 <1>   0.0800 
 43 H        4.2570     0.8440     1.6570 H     1 <1>   0.0800 
 44 H        5.4390     2.1010     1.7880 H     1 <1>   0.0800 
 45 H        7.0750     2.9090     0.3650 H     1 <1>   0.0800 
 46 H        8.8110     1.7260     2.2410 H     1 <1>   0.4000 
 47 H        9.9500     2.0460     0.1090 H     1 <1>   0.0800 
 48 H        8.9020     2.1920    -1.2570 H     1 <1>   0.0800 
 49 H        8.4280     4.2900    -2.2640 H     1 <1>   0.1500 
 50 H       10.2940     4.1700     1.5710 H     1 <1>   0.1500 
 51 H        8.8380     6.6990    -2.3850 H     1 <1>   0.1500 
 52 H       10.7060     6.5820     1.4400 H     1 <1>   0.1500 
 53 H        9.9790     7.8540    -0.5370 H     1 <1>   0.1500 
@<TRIPOS>BOND
  1   1   2  2   
  2   2   3  am  
  3   2   4  1   
  4   3   5  1   
  5   3   6  1   
  6   4   7  1   
  7   4   8  1   
  8   4  26  1   
  9   5   9  1   
 10   5  27  1   
 11   5  28  1   
 12   6  10  1   
 13   6  29  1   
 14   6  30  1   
 15   7  11  1   
 16   7  31  1   
 17   7  32  1   
 18   8  12  1   
 19   8  33  1   
 20   8  34  1   
 21   9  13  1   
 22   9  35  1   
 23   9  36  1   
 24  10  14  1   
 25  10  37  1   
 26  10  38  1   
 27  11  12  1   
 28  11  39  1   
 29  11  40  1   
 30  12  41  1   
 31  12  42  1   
 32  13  14  1   
 33  13  15  am  
 34  14  43  1   
 35  14  44  1   
 36  15  16  2   
 37  15  17  1   
 38  17  18  1   
 39  17  19  1   
 40  17  45  1   
 41  18  46  1   
 42  19  20  1   
 43  19  47  1   
 44  19  48  1   
 45  20  21  ar  
 46  20  22  ar  
 47  21  23  ar  
 48  21  49  1   
 49  22  24  ar  
 50  22  50  1   
 51  23  25  ar  
 52  23  51  1   
 53  24  25  ar  
 54  24  52  1   
 55  25  53  1   
@<TRIPOS>SUBSTRUCTURE
  1 ****  13 GROUP 4 **** **** 0

# MOE 2024.06 (io_trps.svl 2023.06)
