@<TRIPOS>MOLECULE
NONAME
58 60 1 0 0 
SMALL
USER_CHARGES


@<TRIPOS>ATOM
  1 O       -1.7600     1.9040     3.3050 O.2   1 <1>  -0.5700 
  2 C       -1.8210     2.1020     2.1040 C.2   1 <1>   0.5440 
  3 N       -2.4890     1.1650     1.3340 N.am  1 <1>  -0.6600 
  4 C       -1.2290     3.3130     1.5670 C.ar  1 <1>   0.0860 
  5 C       -3.1390     1.4690     0.0220 C.3   1 <1>   0.2200 
  6 C       -2.2940    -0.2770     1.6730 C.3   1 <1>   0.0600 
  7 C       -0.3460     3.3150     0.4770 C.ar  1 <1>   0.0820 
  8 C       -1.5390     4.5400     2.1560 C.ar  1 <1>  -0.1500 
  9 C       -3.8530     2.8220     0.0110 C.3   1 <1>  -0.1600 
 10 C       -4.2720     0.4920    -0.2980 C.3   1 <1>  -0.1600 
 11 O       -0.0160     2.1220    -0.0760 O.3   1 <1>  -0.3620 
 12 C        0.1710     4.5160    -0.0050 C.ar  1 <1>  -0.1500 
 13 C       -1.0230     5.7280     1.6770 C.ar  1 <1>  -0.1500 
 14 C       -4.9440     2.7210    -1.0630 C.3   1 <1>  -0.0800 
 15 C       -5.1970     1.2220    -1.2790 C.3   1 <1>  -0.0800 
 16 C        0.9090     1.9900    -1.1300 C.3   1 <1>   0.1200 
 17 C       -0.1680     5.7160     0.5900 C.ar  1 <1>  -0.1500 
 18 C       -6.2820     3.3330    -0.6280 C.3   1 <1>  -0.1600 
 19 C       -6.6860     0.9880    -0.9910 C.3   1 <1>  -0.1600 
 20 C        1.0180     0.5050    -1.4750 C.3   1 <1>  -0.1600 
 21 C       -7.0720     2.1470    -0.0780 C.3   1 <1>   0.4230 
 22 C        2.0000     0.2690    -2.6280 C.3   1 <1>  -0.2400 
 23 N       -8.5490     2.3600     0.0110 N.4   1 <1>  -0.9590 
 24 C       -9.2200     2.7490    -1.2730 C.3   1 <1>   0.2630 
 25 C       -8.8670     3.3550     1.0810 C.3   1 <1>   0.2630 
 26 H       -2.4050     1.4360    -0.7670 H     1 <1>   0.0800 
 27 H       -1.9840    -0.8230     0.7990 H     1 <1>   0.0800 
 28 H       -3.2090    -0.6910     2.0570 H     1 <1>   0.0800 
 29 H       -1.5300    -0.3860     2.4240 H     1 <1>   0.0800 
 30 H       -2.1940     4.5500     3.0100 H     1 <1>   0.1500 
 31 H       -4.2890     2.9930     0.9800 H     1 <1>   0.0800 
 32 H       -3.1770     3.6240    -0.2260 H     1 <1>   0.0800 
 33 H       -3.8950    -0.4190    -0.7280 H     1 <1>   0.0800 
 34 H       -4.8040     0.2680     0.6100 H     1 <1>   0.0800 
 35 H        0.8430     4.5400    -0.8420 H     1 <1>   0.1500 
 36 H       -1.2810     6.6600     2.1490 H     1 <1>   0.1500 
 37 H       -4.5930     3.1740    -1.9770 H     1 <1>   0.0800 
 38 H       -4.9480     0.9410    -2.2900 H     1 <1>   0.0800 
 39 H        0.5480     2.5500    -1.9740 H     1 <1>   0.0800 
 40 H        1.8580     2.3760    -0.8000 H     1 <1>   0.0800 
 41 H        0.2350     6.6410     0.2140 H     1 <1>   0.1500 
 42 H       -6.7550     3.7440    -1.5010 H     1 <1>   0.0800 
 43 H       -6.1480     4.1090     0.1040 H     1 <1>   0.0800 
 44 H       -6.8620     0.0320    -0.5300 H     1 <1>   0.0800 
 45 H       -7.2150     1.0380    -1.9250 H     1 <1>   0.0800 
 46 H        1.3550    -0.0350    -0.6060 H     1 <1>   0.0800 
 47 H        0.0470     0.1340    -1.7540 H     1 <1>   0.0800 
 48 H       -6.6850     1.9240     0.9050 H     1 <1>   0.0800 
 49 H        2.9830     0.6180    -2.3620 H     1 <1>   0.0800 
 50 H        1.6750     0.7870    -3.5130 H     1 <1>   0.0800 
 51 H        2.0600    -0.7820    -2.8490 H     1 <1>   0.0800 
 52 H       -8.9460     1.4550     0.3030 H     1 <1>   0.4500 
 53 H       -8.8540     3.7020    -1.6170 H     1 <1>   0.0800 
 54 H      -10.2860     2.8250    -1.1280 H     1 <1>   0.0800 
 55 H       -9.0350     2.0120    -2.0370 H     1 <1>   0.0800 
 56 H       -8.4710     4.3240     0.8200 H     1 <1>   0.0800 
 57 H       -8.4320     3.0480     2.0190 H     1 <1>   0.0800 
 58 H       -9.9340     3.4410     1.2090 H     1 <1>   0.0800 
@<TRIPOS>BOND
  1   1   2  2   
  2   2   3  am  
  3   2   4  1   
  4   3   5  1   
  5   3   6  1   
  6   4   7  ar  
  7   4   8  ar  
  8   5   9  1   
  9   5  10  1   
 10   5  26  1   
 11   6  27  1   
 12   6  28  1   
 13   6  29  1   
 14   7  11  1   
 15   7  12  ar  
 16   8  13  ar  
 17   8  30  1   
 18   9  14  1   
 19   9  31  1   
 20   9  32  1   
 21  10  15  1   
 22  10  33  1   
 23  10  34  1   
 24  11  16  1   
 25  12  17  ar  
 26  12  35  1   
 27  13  17  ar  
 28  13  36  1   
 29  14  15  1   
 30  14  18  1   
 31  14  37  1   
 32  15  19  1   
 33  15  38  1   
 34  16  20  1   
 35  16  39  1   
 36  16  40  1   
 37  17  41  1   
 38  18  21  1   
 39  18  42  1   
 40  18  43  1   
 41  19  21  1   
 42  19  44  1   
 43  19  45  1   
 44  20  22  1   
 45  20  46  1   
 46  20  47  1   
 47  21  23  1   
 48  21  48  1   
 49  22  49  1   
 50  22  50  1   
 51  22  51  1   
 52  23  24  1   
 53  23  25  1   
 54  23  52  1   
 55  24  53  1   
 56  24  54  1   
 57  24  55  1   
 58  25  56  1   
 59  25  57  1   
 60  25  58  1   
@<TRIPOS>SUBSTRUCTURE
  1 ****   9 GROUP 4 **** **** 0

# MOE 2024.06 (io_trps.svl 2023.06)
