@<TRIPOS>MOLECULE
NONAME
49 51 1 0 0 
SMALL
USER_CHARGES


@<TRIPOS>ATOM
  1 S       -0.1950     0.2780    -1.0620 S.o2  1 <1>   1.3330 
  2 O       -1.1120    -0.7850    -0.7190 O.2   1 <1>  -0.6500 
  3 O        0.3680     0.3390    -2.3920 O.2   1 <1>  -0.6500 
  4 N        1.0890     0.2210     0.0480 N.am  1 <1>  -0.8490 
  5 C       -0.9760     1.8600    -0.7280 C.3   1 <1>  -0.0550 
  6 C        0.6830    -0.2150     1.3890 C.3   1 <1>   0.1160 
  7 C        2.2010    -0.6070    -0.4270 C.3   1 <1>   0.1160 
  8 C       -0.1060     3.0860    -1.0850 C.3   1 <1>  -0.0800 
  9 C       -0.8430     4.4250    -0.9990 C.3   1 <1>   0.2000 
 10 C        1.1300     3.2770    -0.1940 C.3   1 <1>   0.1400 
 11 O       -1.5790     4.4630     0.1760 O.3   1 <1>  -0.6800 
 12 C        0.2830     5.4510    -0.8860 C.3   1 <1>   0.1400 
 13 N        1.3320     4.7450    -0.1060 N.am  1 <1>  -0.6600 
 14 C        2.2880     5.3050     0.6910 C.2   1 <1>   0.5690 
 15 O        2.9890     4.6240     1.4010 O.2   1 <1>  -0.5700 
 16 C        2.4730     6.8120     0.7040 C.3   1 <1>  -0.0990 
 17 C        3.8500     7.2410     1.2350 C.3   1 <1>   0.0200 
 18 C        4.0090     8.7450     1.1680 C.2   1 <1>   0.2980 
 19 O        3.3370     9.4870     2.0100 O.3   1 <1>  -0.0190 
 20 N        4.7410     9.3760     0.3470 N.2   1 <1>  -0.5650 
 21 N        3.6690    10.7000     1.6970 N.2   1 <1>  -0.4100 
 22 C        4.5010    10.6400     0.7160 C.2   1 <1>   0.5150 
 23 C        5.1310    11.7580     0.0490 C.2   1 <1>   0.1410 
 24 O        4.8730    13.0130     0.4090 O.3   1 <1>  -0.2800 
 25 C        6.0250    11.7800    -0.9780 C.2   1 <1>  -0.1500 
 26 C        5.5730    13.8240    -0.3560 C.2   1 <1>  -0.0100 
 27 C        6.3110    13.1220    -1.2400 C.2   1 <1>  -0.1500 
 28 H       -1.8770     1.9140    -1.3080 H     1 <1>   0.0800 
 29 H       -1.2610     1.9040     0.3040 H     1 <1>   0.0800 
 30 H        1.5150    -0.1400     2.0690 H     1 <1>   0.0800 
 31 H        0.3400    -1.2360     1.3660 H     1 <1>   0.0800 
 32 H       -0.1130     0.4080     1.7590 H     1 <1>   0.0800 
 33 H        3.0020    -0.6050     0.2910 H     1 <1>   0.0800 
 34 H        2.5820    -0.2160    -1.3560 H     1 <1>   0.0800 
 35 H        1.8700    -1.6200    -0.5890 H     1 <1>   0.0800 
 36 H        0.2430     2.9740    -2.0970 H     1 <1>   0.0800 
 37 H       -1.5050     4.6080    -1.8280 H     1 <1>   0.0800 
 38 H        1.9990     2.7990    -0.6160 H     1 <1>   0.0800 
 39 H        0.9620     2.8870     0.7960 H     1 <1>   0.0800 
 40 H       -0.9600     4.4640     0.9340 H     1 <1>   0.4000 
 41 H       -0.0510     6.3530    -0.4030 H     1 <1>   0.0800 
 42 H        0.6690     5.6810    -1.8640 H     1 <1>   0.0800 
 43 H        2.3650     7.1860    -0.2970 H     1 <1>   0.0800 
 44 H        1.7020     7.2430     1.3150 H     1 <1>   0.0800 
 45 H        4.6230     6.7800     0.6460 H     1 <1>   0.0800 
 46 H        3.9740     6.9200     2.2550 H     1 <1>   0.0800 
 47 H        6.4400    10.9340    -1.4970 H     1 <1>   0.1500 
 48 H        5.4860    14.8860    -0.2040 H     1 <1>   0.1500 
 49 H        6.9840    13.4870    -1.9970 H     1 <1>   0.1500 
@<TRIPOS>BOND
  1   1   2  2   
  2   1   3  2   
  3   1   4  am  
  4   1   5  1   
  5   4   6  1   
  6   4   7  1   
  7   5   8  1   
  8   5  28  1   
  9   5  29  1   
 10   6  30  1   
 11   6  31  1   
 12   6  32  1   
 13   7  33  1   
 14   7  34  1   
 15   7  35  1   
 16   8   9  1   
 17   8  10  1   
 18   8  36  1   
 19   9  11  1   
 20   9  12  1   
 21   9  37  1   
 22  10  13  1   
 23  10  38  1   
 24  10  39  1   
 25  11  40  1   
 26  12  13  1   
 27  12  41  1   
 28  12  42  1   
 29  13  14  am  
 30  14  15  2   
 31  14  16  1   
 32  16  17  1   
 33  16  43  1   
 34  16  44  1   
 35  17  18  1   
 36  17  45  1   
 37  17  46  1   
 38  18  19  1   
 39  18  20  2   
 40  19  21  1   
 41  20  22  1   
 42  21  22  2   
 43  22  23  1   
 44  23  24  1   
 45  23  25  2   
 46  24  26  1   
 47  25  27  1   
 48  25  47  1   
 49  26  27  2   
 50  26  48  1   
 51  27  49  1   
@<TRIPOS>SUBSTRUCTURE
  1 ****  14 GROUP 4 **** **** 0

# MOE 2024.06 (io_trps.svl 2023.06)
