@<TRIPOS>MOLECULE
NONAME
43 45 1 0 0 
SMALL
USER_CHARGES


@<TRIPOS>ATOM
  1 S       -0.9490    -1.6570     0.0480 S.3   1 <1>  -0.4600 
  2 C       -2.0650    -0.5780     0.9880 C.3   1 <1>   0.0700 
  3 C        0.3390    -0.6010    -0.7130 C.3   1 <1>   0.0700 
  4 C       -3.2120    -0.1610     0.0440 C.3   1 <1>   0.4230 
  5 C       -0.0730     0.8650    -0.9020 C.3   1 <1>   0.0700 
  6 N       -4.5560    -0.1770     0.7260 N.4   1 <1>  -0.9590 
  7 C       -2.9060     1.2060    -0.5970 C.3   1 <1>   0.0700 
  8 S       -1.6180     0.9870    -1.8540 S.3   1 <1>  -0.4600 
  9 C       -5.6970     0.1920    -0.1870 C.3   1 <1>   0.3430 
 10 C       -4.9090    -1.5240     1.2970 C.3   1 <1>   0.3430 
 11 C       -6.8450    -0.7690     0.1340 C.3   1 <1>   0.2000 
 12 C       -6.1180    -2.0500     0.5160 C.3   1 <1>  -0.0800 
 13 O       -7.5000    -0.2910     1.2600 O.3   1 <1>  -0.6800 
 14 C       -5.7010    -2.8810    -0.7180 C.3   1 <1>   0.0200 
 15 C       -4.6130    -3.8670    -0.3500 C.2   1 <1>  -0.0400 
 16 O       -4.7870    -4.6770     0.6600 O.3   1 <1>  -0.0190 
 17 C       -3.3860    -4.0840    -0.8480 C.2   1 <1>  -0.1500 
 18 N       -3.7350    -5.4060     0.8790 N.2   1 <1>  -0.4100 
 19 C       -2.8760    -5.0770    -0.0180 C.2   1 <1>   0.1080 
 20 C       -1.4950    -5.6830    -0.1410 C.3   1 <1>  -0.0590 
 21 H       -2.4040    -1.1750     1.8140 H     1 <1>   0.0800 
 22 H       -1.4970     0.2520     1.3650 H     1 <1>   0.0800 
 23 H        1.2040    -0.6660    -0.0770 H     1 <1>   0.0800 
 24 H        0.5740    -1.0470    -1.6630 H     1 <1>   0.0800 
 25 H       -3.2490    -0.8870    -0.7530 H     1 <1>   0.0800 
 26 H        0.6760     1.3830    -1.4750 H     1 <1>   0.0800 
 27 H       -0.2040     1.3780     0.0330 H     1 <1>   0.0800 
 28 H       -4.5680     0.4890     1.5110 H     1 <1>   0.4500 
 29 H       -2.5480     1.9270     0.1170 H     1 <1>   0.0800 
 30 H       -3.7480     1.6060    -1.1300 H     1 <1>   0.0800 
 31 H       -6.0070     1.2150    -0.0510 H     1 <1>   0.0800 
 32 H       -5.4010     0.0460    -1.2130 H     1 <1>   0.0800 
 33 H       -4.0810    -2.2130     1.2570 H     1 <1>   0.0800 
 34 H       -5.1990    -1.4020     2.3290 H     1 <1>   0.0800 
 35 H       -7.5540    -0.8730    -0.6720 H     1 <1>   0.0800 
 36 H       -6.7210    -2.6740     1.1540 H     1 <1>   0.0800 
 37 H       -8.3280    -0.7890     1.4330 H     1 <1>   0.4000 
 38 H       -5.3330    -2.2540    -1.5100 H     1 <1>   0.0800 
 39 H       -6.5520    -3.4240    -1.0950 H     1 <1>   0.0800 
 40 H       -2.8690    -3.6240    -1.6700 H     1 <1>   0.1500 
 41 H       -0.7510    -4.9110    -0.0760 H     1 <1>   0.0800 
 42 H       -1.4010    -6.1880    -1.0840 H     1 <1>   0.0800 
 43 H       -1.3320    -6.3910     0.6510 H     1 <1>   0.0800 
@<TRIPOS>BOND
  1   1   2  1   
  2   1   3  1   
  3   2   4  1   
  4   2  21  1   
  5   2  22  1   
  6   3   5  1   
  7   3  23  1   
  8   3  24  1   
  9   4   6  1   
 10   4   7  1   
 11   4  25  1   
 12   5   8  1   
 13   5  26  1   
 14   5  27  1   
 15   6   9  1   
 16   6  10  1   
 17   6  28  1   
 18   7   8  1   
 19   7  29  1   
 20   7  30  1   
 21   9  11  1   
 22   9  31  1   
 23   9  32  1   
 24  10  12  1   
 25  10  33  1   
 26  10  34  1   
 27  11  12  1   
 28  11  13  1   
 29  11  35  1   
 30  12  14  1   
 31  12  36  1   
 32  13  37  1   
 33  14  15  1   
 34  14  38  1   
 35  14  39  1   
 36  15  16  1   
 37  15  17  2   
 38  16  18  1   
 39  17  19  1   
 40  17  40  1   
 41  18  19  2   
 42  19  20  1   
 43  20  41  1   
 44  20  42  1   
 45  20  43  1   
@<TRIPOS>SUBSTRUCTURE
  1 ****   4 GROUP 4 **** **** 0

# MOE 2024.06 (io_trps.svl 2023.06)
