@<TRIPOS>MOLECULE
NONAME
59 61 1 0 0 
SMALL
USER_CHARGES


@<TRIPOS>ATOM
  1 O        0.4950     0.9680     1.7020 O.2   1 <1>  -0.5700 
  2 C        0.4690     1.8940     0.9270 C.2   1 <1>   0.5690 
  3 N       -0.6800     2.5910     0.6530 N.am  1 <1>  -0.6600 
  4 C        1.7890     2.2670     0.2780 C.3   1 <1>  -0.0990 
  5 C       -1.9780     2.1780     1.2820 C.3   1 <1>   0.1400 
  6 C       -0.7390     3.7570    -0.2830 C.3   1 <1>   0.1400 
  7 C        2.5620     3.2710     1.1470 C.3   1 <1>  -0.0990 
  8 C       -3.1410     2.2550     0.2740 C.3   1 <1>   0.0000 
  9 C       -2.0280     4.5640    -0.1000 C.3   1 <1>  -0.1600 
 10 C        3.8560     3.6800     0.4800 C.2   1 <1>   0.5690 
 11 C       -4.4290     1.6930     0.9040 C.3   1 <1>   0.2000 
 12 C       -3.2970     3.7080    -0.2730 C.3   1 <1>  -0.1600 
 13 C       -2.9460     1.2760    -0.9000 C.3   1 <1>  -0.1600 
 14 O        3.8160     4.5840    -0.3150 O.2   1 <1>  -0.5700 
 15 N        4.9830     2.9770     0.8030 N.am  1 <1>  -0.5470 
 16 O       -5.0450     2.6140     1.7550 O.3   1 <1>  -0.5600 
 17 C       -5.3210     1.3190    -0.2790 C.3   1 <1>  -0.1600 
 18 C       -4.3550     0.9440    -1.4110 C.3   1 <1>  -0.1600 
 19 C        6.3120     3.1030     0.3690 C.ar  1 <1>   0.1170 
 20 C       -6.0320     2.0830     2.5800 C.3   1 <1>   0.0400 
 21 C        6.8160     4.2560    -0.2240 C.ar  1 <1>  -0.1500 
 22 C        7.1730     2.0280     0.5540 C.ar  1 <1>  -0.1500 
 23 C        8.1370     4.3380    -0.6300 C.ar  1 <1>  -0.1440 
 24 C        8.4950     2.1000     0.1550 C.ar  1 <1>  -0.1500 
 25 C        8.9770     3.2540    -0.4360 C.ar  1 <1>  -0.1500 
 26 C        8.6620     5.6090    -1.2790 C.3   1 <1>  -0.0170 
 27 C        9.2310     6.5570    -0.2220 C.3   1 <1>  -0.2400 
 28 H        2.3720     1.3720     0.1630 H     1 <1>   0.0800 
 29 H        1.6280     2.6690    -0.7050 H     1 <1>   0.0800 
 30 H       -1.9010     1.1740     1.6630 H     1 <1>   0.0800 
 31 H       -2.1860     2.8270     2.1150 H     1 <1>   0.0800 
 32 H        0.1040     4.4040    -0.1140 H     1 <1>   0.0800 
 33 H       -0.6880     3.3930    -1.2950 H     1 <1>   0.0800 
 34 H        2.7640     2.8400     2.1110 H     1 <1>   0.0800 
 35 H        1.9670     4.1520     1.3030 H     1 <1>   0.0800 
 36 H       -2.0200     4.9930     0.8860 H     1 <1>   0.0800 
 37 H       -2.0460     5.3780    -0.8020 H     1 <1>   0.0800 
 38 H       -4.1870     0.8070     1.4690 H     1 <1>   0.0800 
 39 H       -3.5630     3.6810    -1.3150 H     1 <1>   0.0800 
 40 H       -4.0970     4.2230     0.2270 H     1 <1>   0.0800 
 41 H       -2.3220     1.6780    -1.6780 H     1 <1>   0.0800 
 42 H       -2.4860     0.3710    -0.5380 H     1 <1>   0.0800 
 43 H        4.8290     2.2010     1.4430 H     1 <1>   0.3700 
 44 H       -5.9690     0.4970    -0.0320 H     1 <1>   0.0800 
 45 H       -5.9080     2.1720    -0.5740 H     1 <1>   0.0800 
 46 H       -4.4300    -0.1010    -1.6580 H     1 <1>   0.0800 
 47 H       -4.5820     1.5250    -2.2890 H     1 <1>   0.0800 
 48 H       -6.4080     2.8770     3.2010 H     1 <1>   0.0800 
 49 H       -5.6050     1.3130     3.1980 H     1 <1>   0.0800 
 50 H       -6.8310     1.6890     1.9770 H     1 <1>   0.0800 
 51 H        6.1730     5.1040    -0.3680 H     1 <1>   0.1500 
 52 H        6.8120     1.1250     1.0100 H     1 <1>   0.1500 
 53 H        9.1520     1.2600     0.3030 H     1 <1>   0.1500 
 54 H       10.0070     3.3060    -0.7440 H     1 <1>   0.1500 
 55 H        9.4270     5.3620    -1.9940 H     1 <1>   0.0800 
 56 H        7.8650     6.0990    -1.8110 H     1 <1>   0.0800 
 57 H       10.0390     6.0830     0.3060 H     1 <1>   0.0800 
 58 H        8.4650     6.8220     0.4860 H     1 <1>   0.0800 
 59 H        9.5980     7.4540    -0.6870 H     1 <1>   0.0800 
@<TRIPOS>BOND
  1   1   2  2   
  2   2   3  am  
  3   2   4  1   
  4   3   5  1   
  5   3   6  1   
  6   4   7  1   
  7   4  28  1   
  8   4  29  1   
  9   5   8  1   
 10   5  30  1   
 11   5  31  1   
 12   6   9  1   
 13   6  32  1   
 14   6  33  1   
 15   7  10  1   
 16   7  34  1   
 17   7  35  1   
 18   8  11  1   
 19   8  12  1   
 20   8  13  1   
 21   9  12  1   
 22   9  36  1   
 23   9  37  1   
 24  10  14  2   
 25  10  15  am  
 26  11  16  1   
 27  11  17  1   
 28  11  38  1   
 29  12  39  1   
 30  12  40  1   
 31  13  18  1   
 32  13  41  1   
 33  13  42  1   
 34  15  19  1   
 35  15  43  1   
 36  16  20  1   
 37  17  18  1   
 38  17  44  1   
 39  17  45  1   
 40  18  46  1   
 41  18  47  1   
 42  19  21  ar  
 43  19  22  ar  
 44  20  48  1   
 45  20  49  1   
 46  20  50  1   
 47  21  23  ar  
 48  21  51  1   
 49  22  24  ar  
 50  22  52  1   
 51  23  25  ar  
 52  23  26  1   
 53  24  25  ar  
 54  24  53  1   
 55  25  54  1   
 56  26  27  1   
 57  26  55  1   
 58  26  56  1   
 59  27  57  1   
 60  27  58  1   
 61  27  59  1   
@<TRIPOS>SUBSTRUCTURE
  1 ****   4 GROUP 4 **** **** 0

# MOE 2024.06 (io_trps.svl 2023.06)
