@<TRIPOS>MOLECULE
NONAME
46 48 1 0 0 
SMALL
USER_CHARGES


@<TRIPOS>ATOM
  1 F       -2.0460    -0.2090     2.6870 F     1 <1>  -0.1900 
  2 C       -2.7940     0.3990     1.8060 C.ar  1 <1>   0.1900 
  3 C       -3.0190    -0.2090     0.5870 C.ar  1 <1>  -0.1500 
  4 C       -3.3360     1.6250     2.1260 C.ar  1 <1>  -0.1500 
  5 C       -3.8190     0.4250    -0.3550 C.ar  1 <1>  -0.1440 
  6 C       -4.1260     2.2600     1.1850 C.ar  1 <1>  -0.1500 
  7 C       -4.3700     1.6730    -0.0520 C.ar  1 <1>  -0.1430 
  8 C       -4.0580    -0.2910    -1.6900 C.3   1 <1>   0.0440 
  9 C       -5.2380     2.4380    -1.0430 C.3   1 <1>  -0.0960 
 10 C       -4.4210    -1.7630    -1.5400 C.2   1 <1>   0.5690 
 11 O       -3.6860    -2.5790    -2.0450 O.2   1 <1>  -0.5700 
 12 N       -5.5520    -2.1460    -0.8690 N.am  1 <1>  -0.6600 
 13 C       -6.5020    -1.2540    -0.1570 C.3   1 <1>   0.1400 
 14 C       -5.9130    -3.5690    -0.6620 C.3   1 <1>   0.1400 
 15 C       -7.6160    -2.1790     0.3270 C.3   1 <1>   0.2000 
 16 C       -6.9720    -3.5580     0.4420 C.3   1 <1>  -0.0800 
 17 O       -8.1170    -1.7770     1.5540 O.3   1 <1>  -0.6800 
 18 C       -7.9830    -4.7100     0.3370 C.3   1 <1>   0.0210 
 19 C       -7.2800    -6.0530     0.3330 C.2   1 <1>   0.1080 
 20 N       -6.5870    -6.4860     1.3400 N.2   1 <1>  -0.7070 
 21 C       -7.2840    -6.9510    -0.7280 C.2   1 <1>  -0.1500 
 22 N       -6.1250    -7.6870     0.9430 N.pl3 1 <1>   0.3000 
 23 C       -6.5330    -7.9900    -0.3070 C.2   1 <1>  -0.3320 
 24 C       -6.1720    -9.2730    -1.0340 C.3   1 <1>  -0.0600 
 25 H       -2.5690    -1.1670     0.3890 H     1 <1>   0.1500 
 26 H       -3.1400     2.0700     3.0850 H     1 <1>   0.1500 
 27 H       -4.5490     3.2200     1.4250 H     1 <1>   0.1500 
 28 H       -3.1590    -0.2210    -2.2740 H     1 <1>   0.0800 
 29 H       -4.8400     0.1700    -2.2570 H     1 <1>   0.0800 
 30 H       -5.4850     3.4150    -0.6680 H     1 <1>   0.0800 
 31 H       -6.1550     1.9060    -1.2210 H     1 <1>   0.0800 
 32 H       -4.7140     2.5640    -1.9730 H     1 <1>   0.0800 
 33 H       -6.0010    -0.7970     0.6790 H     1 <1>   0.0800 
 34 H       -6.8890    -0.5020    -0.8210 H     1 <1>   0.0800 
 35 H       -6.3120    -3.9650    -1.5800 H     1 <1>   0.0800 
 36 H       -5.0510    -4.1480    -0.3710 H     1 <1>   0.0800 
 37 H       -8.4230    -2.1790    -0.3860 H     1 <1>   0.0800 
 38 H       -6.4480    -3.6370     1.3790 H     1 <1>   0.0800 
 39 H       -7.4380    -1.8890     2.2480 H     1 <1>   0.4000 
 40 H       -8.5650    -4.6110    -0.5610 H     1 <1>   0.0800 
 41 H       -8.6540    -4.6740     1.1760 H     1 <1>   0.0800 
 42 H       -7.7840    -6.8210    -1.6710 H     1 <1>   0.1500 
 43 H       -5.5340    -8.2710     1.5470 H     1 <1>   0.2700 
 44 H       -6.6160    -9.2800    -2.0140 H     1 <1>   0.0800 
 45 H       -6.5360   -10.1250    -0.4870 H     1 <1>   0.0800 
 46 H       -5.1050    -9.3530    -1.1410 H     1 <1>   0.0800 
@<TRIPOS>BOND
  1   1   2  1   
  2   2   3  ar  
  3   2   4  ar  
  4   3   5  ar  
  5   3  25  1   
  6   4   6  ar  
  7   4  26  1   
  8   5   7  ar  
  9   5   8  1   
 10   6   7  ar  
 11   6  27  1   
 12   7   9  1   
 13   8  10  1   
 14   8  28  1   
 15   8  29  1   
 16   9  30  1   
 17   9  31  1   
 18   9  32  1   
 19  10  11  2   
 20  10  12  am  
 21  12  13  1   
 22  12  14  1   
 23  13  15  1   
 24  13  33  1   
 25  13  34  1   
 26  14  16  1   
 27  14  35  1   
 28  14  36  1   
 29  15  16  1   
 30  15  17  1   
 31  15  37  1   
 32  16  18  1   
 33  16  38  1   
 34  17  39  1   
 35  18  19  1   
 36  18  40  1   
 37  18  41  1   
 38  19  20  2   
 39  19  21  1   
 40  20  22  1   
 41  21  23  2   
 42  21  42  1   
 43  22  23  1   
 44  22  43  1   
 45  23  24  1   
 46  24  44  1   
 47  24  45  1   
 48  24  46  1   
@<TRIPOS>SUBSTRUCTURE
  1 ****  12 GROUP 4 **** **** 0

# MOE 2024.06 (io_trps.svl 2023.06)
