@<TRIPOS>MOLECULE
NONAME
46 49 1 0 0 
SMALL
USER_CHARGES


@<TRIPOS>ATOM
  1 S       -0.1220    -0.0620     0.6650 S.3   1 <1>  -0.0800 
  2 C       -1.6190    -0.0660    -0.2690 C.2   1 <1>   0.0400 
  3 C        0.2240     1.6050     0.2430 C.2   1 <1>  -0.1400 
  4 C       -2.4020    -1.2680    -0.2980 C.2   1 <1>  -0.1520 
  5 C       -1.7810     1.1540    -0.8380 C.2   1 <1>  -0.1500 
  6 C       -0.7460     2.0940    -0.5500 C.2   1 <1>  -0.1500 
  7 C        1.4920     2.2150     0.8030 C.3   1 <1>  -0.0600 
  8 N       -3.5700    -1.3980    -0.9660 N.pl3 1 <1>   0.3000 
  9 C       -2.2020    -2.4790     0.2780 C.2   1 <1>  -0.1500 
 10 N       -4.1180    -2.6150    -0.8440 N.2   1 <1>  -0.7070 
 11 C       -3.2810    -3.2960    -0.0740 C.2   1 <1>   0.2030 
 12 C       -3.3980    -4.6870     0.3720 C.2   1 <1>   0.7160 
 13 O       -2.4670    -5.2100     0.9650 O.2   1 <1>  -0.5700 
 14 N       -4.5190    -5.4720     0.1640 N.am  1 <1>  -0.6600 
 15 C       -5.7800    -5.0470    -0.4950 C.3   1 <1>   0.1400 
 16 C       -4.5640    -6.9200     0.4830 C.3   1 <1>   0.1400 
 17 C       -6.7560    -6.1930    -0.2310 C.3   1 <1>   0.2000 
 18 C       -5.8540    -7.4310    -0.1710 C.3   1 <1>  -0.0800 
 19 O       -7.3410    -5.9860     1.0100 O.3   1 <1>  -0.6800 
 20 C       -6.4710    -8.6510     0.5380 C.3   1 <1>   0.0200 
 21 C       -5.6010    -9.8940     0.4510 C.2   1 <1>  -0.0400 
 22 O       -5.9450   -10.9480     1.1420 O.3   1 <1>  -0.0190 
 23 C       -4.4780   -10.1970    -0.2210 C.2   1 <1>  -0.1500 
 24 N       -5.1130   -11.9350     0.9730 N.2   1 <1>  -0.4100 
 25 C       -4.2180   -11.5110     0.1570 C.2   1 <1>   0.1080 
 26 C       -3.0450   -12.3370    -0.3220 C.3   1 <1>  -0.0590 
 27 H       -2.6060     1.4400    -1.4630 H     1 <1>   0.1500 
 28 H       -0.7760     3.0920    -0.9510 H     1 <1>   0.1500 
 29 H        1.5900     3.2330     0.4740 H     1 <1>   0.0800 
 30 H        2.3460     1.6560     0.4660 H     1 <1>   0.0800 
 31 H        1.4640     2.1960     1.8770 H     1 <1>   0.0800 
 32 H       -4.0050    -0.6480    -1.5150 H     1 <1>   0.2700 
 33 H       -1.3760    -2.7850     0.8960 H     1 <1>   0.1500 
 34 H       -6.1470    -4.1150    -0.0990 H     1 <1>   0.0800 
 35 H       -5.6040    -4.9440    -1.5520 H     1 <1>   0.0800 
 36 H       -3.6930    -7.4210     0.0980 H     1 <1>   0.0800 
 37 H       -4.5980    -7.0420     1.5530 H     1 <1>   0.0800 
 38 H       -7.5350    -6.2640    -0.9700 H     1 <1>   0.0800 
 39 H       -5.6200    -7.7080    -1.1840 H     1 <1>   0.0800 
 40 H       -6.6470    -5.7150     1.6450 H     1 <1>   0.4000 
 41 H       -7.4270    -8.8740     0.0990 H     1 <1>   0.0800 
 42 H       -6.6370    -8.4270     1.5780 H     1 <1>   0.0800 
 43 H       -3.8870    -9.6080    -0.8970 H     1 <1>   0.1500 
 44 H       -3.0640   -12.4130    -1.3940 H     1 <1>   0.0800 
 45 H       -3.0970   -13.3250     0.0980 H     1 <1>   0.0800 
 46 H       -2.1250   -11.8760    -0.0140 H     1 <1>   0.0800 
@<TRIPOS>BOND
  1   1   2  1   
  2   1   3  1   
  3   2   4  1   
  4   2   5  2   
  5   3   6  2   
  6   3   7  1   
  7   4   8  1   
  8   4   9  2   
  9   5   6  1   
 10   5  27  1   
 11   6  28  1   
 12   7  29  1   
 13   7  30  1   
 14   7  31  1   
 15   8  10  1   
 16   8  32  1   
 17   9  11  1   
 18   9  33  1   
 19  10  11  2   
 20  11  12  1   
 21  12  13  2   
 22  12  14  am  
 23  14  15  1   
 24  14  16  1   
 25  15  17  1   
 26  15  34  1   
 27  15  35  1   
 28  16  18  1   
 29  16  36  1   
 30  16  37  1   
 31  17  18  1   
 32  17  19  1   
 33  17  38  1   
 34  18  20  1   
 35  18  39  1   
 36  19  40  1   
 37  20  21  1   
 38  20  41  1   
 39  20  42  1   
 40  21  22  1   
 41  21  23  2   
 42  22  24  1   
 43  23  25  1   
 44  23  43  1   
 45  24  25  2   
 46  25  26  1   
 47  26  44  1   
 48  26  45  1   
 49  26  46  1   
@<TRIPOS>SUBSTRUCTURE
  1 ****  12 GROUP 4 **** **** 0

# MOE 2024.06 (io_trps.svl 2023.06)
