@<TRIPOS>MOLECULE
NONAME
49 50 1 0 0 
SMALL
USER_CHARGES


@<TRIPOS>ATOM
  1 O       -3.3460     0.9150    -1.4160 O.2   1 <1>  -0.5700 
  2 C       -2.2630     1.2880    -1.0300 C.2   1 <1>   0.5690 
  3 N       -1.2800     0.4440    -0.6230 N.am  1 <1>  -0.7300 
  4 C       -1.9650     2.7900    -0.9860 C.3   1 <1>   0.1710 
  5 C       -1.3130    -1.0240    -0.4750 C.3   1 <1>   0.2200 
  6 N       -0.9700     3.2010     0.0590 N.3   1 <1>  -0.8100 
  7 C       -1.4460    -1.6710    -1.8600 C.3   1 <1>  -0.1600 
  8 C       -2.3990    -1.4120     0.5400 C.3   1 <1>  -0.1600 
  9 C       -0.5250     4.5860    -0.2080 C.3   1 <1>   0.1100 
 10 C       -1.5480     3.0520     1.4100 C.3   1 <1>   0.1100 
 11 C       -1.4850    -3.2080    -1.8510 C.3   1 <1>  -0.1600 
 12 C       -2.2200    -2.8440     1.0700 C.3   1 <1>  -0.1600 
 13 C        0.7070     4.9620     0.6190 C.3   1 <1>   0.0960 
 14 C       -0.5720     2.2810     2.2940 C.3   1 <1>  -0.2400 
 15 C       -2.8150    -3.7540    -1.3120 C.3   1 <1>  -0.1600 
 16 C       -2.8730    -3.9390     0.2130 C.3   1 <1>  -0.1600 
 17 N        1.1970     6.2850     0.2040 N.pl3 1 <1>   0.3140 
 18 N        0.4980     7.4090     0.4470 N.2   1 <1>  -0.7070 
 19 C        2.3470     6.5560    -0.4460 C.2   1 <1>  -0.3020 
 20 C        1.2220     8.3660    -0.0500 C.2   1 <1>   0.1390 
 21 C        2.3940     7.8930    -0.6250 C.2   1 <1>  -0.1500 
 22 H       -0.4590     0.9150    -0.2310 H     1 <1>   0.3700 
 23 H       -2.8900     3.3200    -0.8370 H     1 <1>   0.0800 
 24 H       -1.5910     3.0550    -1.9580 H     1 <1>   0.0800 
 25 H       -0.3610    -1.3190    -0.0680 H     1 <1>   0.0800 
 26 H       -0.6030    -1.3610    -2.4510 H     1 <1>   0.0800 
 27 H       -2.3330    -1.3040    -2.3450 H     1 <1>   0.0800 
 28 H       -3.3790    -1.2900     0.1120 H     1 <1>   0.0800 
 29 H       -2.3220    -0.7430     1.3780 H     1 <1>   0.0800 
 30 H       -1.3250     5.2790    -0.0050 H     1 <1>   0.0800 
 31 H       -0.2590     4.6740    -1.2490 H     1 <1>   0.0800 
 32 H       -2.4740     2.5010     1.3710 H     1 <1>   0.0800 
 33 H       -1.7630     4.0140     1.8450 H     1 <1>   0.0800 
 34 H       -0.6540    -3.6120    -1.2990 H     1 <1>   0.0800 
 35 H       -1.3830    -3.5390    -2.8700 H     1 <1>   0.0800 
 36 H       -2.6510    -2.9010     2.0550 H     1 <1>   0.0800 
 37 H       -1.1710    -3.0560     1.1810 H     1 <1>   0.0800 
 38 H        1.4860     4.2390     0.4680 H     1 <1>   0.0800 
 39 H        0.4560     5.0160     1.6600 H     1 <1>   0.0800 
 40 H       -0.4100     1.2950     1.9010 H     1 <1>   0.0800 
 41 H       -0.9850     2.1840     3.2810 H     1 <1>   0.0800 
 42 H        0.3700     2.7910     2.3720 H     1 <1>   0.0800 
 43 H       -3.0020    -4.7120    -1.7650 H     1 <1>   0.0800 
 44 H       -3.6180    -3.1070    -1.6230 H     1 <1>   0.0800 
 45 H       -3.9100    -4.0190     0.4910 H     1 <1>   0.0800 
 46 H       -2.4100    -4.8770     0.4650 H     1 <1>   0.0800 
 47 H        3.0530     5.8000    -0.7380 H     1 <1>   0.1500 
 48 H        0.9360     9.4040    -0.0150 H     1 <1>   0.1500 
 49 H        3.1530     8.4890    -1.1010 H     1 <1>   0.1500 
@<TRIPOS>BOND
  1   1   2  2   
  2   2   3  am  
  3   2   4  1   
  4   3   5  1   
  5   3  22  1   
  6   4   6  1   
  7   4  23  1   
  8   4  24  1   
  9   5   7  1   
 10   5   8  1   
 11   5  25  1   
 12   6   9  1   
 13   6  10  1   
 14   7  11  1   
 15   7  26  1   
 16   7  27  1   
 17   8  12  1   
 18   8  28  1   
 19   8  29  1   
 20   9  13  1   
 21   9  30  1   
 22   9  31  1   
 23  10  14  1   
 24  10  32  1   
 25  10  33  1   
 26  11  15  1   
 27  11  34  1   
 28  11  35  1   
 29  12  16  1   
 30  12  36  1   
 31  12  37  1   
 32  13  17  1   
 33  13  38  1   
 34  13  39  1   
 35  14  40  1   
 36  14  41  1   
 37  14  42  1   
 38  15  16  1   
 39  15  43  1   
 40  15  44  1   
 41  16  45  1   
 42  16  46  1   
 43  17  18  1   
 44  17  19  1   
 45  18  20  2   
 46  19  21  2   
 47  19  47  1   
 48  20  21  1   
 49  20  48  1   
 50  21  49  1   
@<TRIPOS>SUBSTRUCTURE
  1 ****   6 GROUP 4 **** **** 0

# MOE 2024.06 (io_trps.svl 2023.06)
