@<TRIPOS>MOLECULE
NONAME
44 46 1 0 0 
SMALL
USER_CHARGES


@<TRIPOS>ATOM
  1 CL      -0.8800     0.7040    -2.2010 Cl    1 <1>  -0.1770 
  2 C       -1.7080     1.3170    -0.7730 C.ar  1 <1>   0.1770 
  3 C       -1.2030     2.4520    -0.0750 C.ar  1 <1>   0.4100 
  4 C       -2.8600     0.7260    -0.3510 C.ar  1 <1>   0.2170 
  5 N       -1.8680     2.9680     0.9480 N.ar  1 <1>  -0.6200 
  6 N       -0.0350     3.0720    -0.3980 N.pl3 1 <1>  -0.8380 
  7 N       -3.4770     1.2830     0.7250 N.ar  1 <1>  -0.1790 
  8 C       -3.5230    -0.4920    -0.9860 C.3   1 <1>  -0.0970 
  9 C       -2.9780     2.3750     1.3300 C.ar  1 <1>   0.7710 
 10 C        1.2660     2.3720    -0.6720 C.3   1 <1>   0.2090 
 11 C        0.1490     4.5640    -0.3240 C.3   1 <1>   0.2090 
 12 N       -3.6080     2.9120     2.3700 N.pl3 1 <1>  -0.9000 
 13 C        2.3590     2.7590     0.3470 C.3   1 <1>   0.2090 
 14 C        1.2300     4.9640     0.6990 C.3   1 <1>   0.2090 
 15 N        2.5200     4.2370     0.4770 N.pl3 1 <1>  -0.8380 
 16 C        3.5210     4.8410    -0.2510 C.ar  1 <1>   0.4100 
 17 N        3.1570     5.4120    -1.3810 N.ar  1 <1>  -0.6200 
 18 C        4.8500     4.8330     0.1670 C.ar  1 <1>  -0.1430 
 19 C        4.1300     5.9510    -2.0830 C.ar  1 <1>   0.4700 
 20 C        5.7720     5.4210    -0.6720 C.ar  1 <1>   0.1670 
 21 C        5.2490     4.2050     1.5050 C.3   1 <1>  -0.0970 
 22 N        5.4190     5.9900    -1.8060 N.ar  1 <1>  -0.6200 
 23 C        7.2590     5.4670    -0.3670 C.3   1 <1>  -0.0970 
 24 H       -4.3410     0.9040     1.1010 H     1 <1>   0.4570 
 25 H       -2.9510    -0.8700    -1.8150 H     1 <1>   0.0800 
 26 H       -4.5010    -0.2370    -1.3530 H     1 <1>   0.0800 
 27 H       -3.6160    -1.2860    -0.2660 H     1 <1>   0.0800 
 28 H        1.6060     2.6330    -1.6600 H     1 <1>   0.0800 
 29 H        1.1360     1.3060    -0.6330 H     1 <1>   0.0800 
 30 H       -0.7760     5.0480    -0.0690 H     1 <1>   0.0800 
 31 H        0.4470     4.9270    -1.2920 H     1 <1>   0.0800 
 32 H       -4.4740     2.6180     2.8270 H     1 <1>   0.4000 
 33 H       -3.1820     3.7410     2.7990 H     1 <1>   0.4000 
 34 H        3.2930     2.3220     0.0400 H     1 <1>   0.0800 
 35 H        2.1040     2.3510     1.3080 H     1 <1>   0.0800 
 36 H        0.8720     4.7480     1.6900 H     1 <1>   0.0800 
 37 H        1.4020     6.0250     0.6350 H     1 <1>   0.0800 
 38 H        3.8370     6.4210    -3.0070 H     1 <1>   0.1500 
 39 H        4.4270     4.2210     2.1970 H     1 <1>   0.0800 
 40 H        6.0560     4.7480     1.9600 H     1 <1>   0.0800 
 41 H        5.5520     3.1850     1.3530 H     1 <1>   0.0800 
 42 H        7.5800     4.5750     0.1360 H     1 <1>   0.0800 
 43 H        7.4740     6.3220     0.2460 H     1 <1>   0.0800 
 44 H        7.8190     5.5510    -1.2810 H     1 <1>   0.0800 
@<TRIPOS>BOND
  1   1   2  1   
  2   2   3  ar  
  3   2   4  ar  
  4   3   5  ar  
  5   3   6  1   
  6   4   7  ar  
  7   4   8  1   
  8   5   9  ar  
  9   6  10  1   
 10   6  11  1   
 11   7   9  ar  
 12   7  24  1   
 13   8  25  1   
 14   8  26  1   
 15   8  27  1   
 16   9  12  1   
 17  10  13  1   
 18  10  28  1   
 19  10  29  1   
 20  11  14  1   
 21  11  30  1   
 22  11  31  1   
 23  12  32  1   
 24  12  33  1   
 25  13  15  1   
 26  13  34  1   
 27  13  35  1   
 28  14  15  1   
 29  14  36  1   
 30  14  37  1   
 31  15  16  1   
 32  16  17  ar  
 33  16  18  ar  
 34  17  19  ar  
 35  18  20  ar  
 36  18  21  1   
 37  19  22  ar  
 38  19  38  1   
 39  20  22  ar  
 40  20  23  1   
 41  21  39  1   
 42  21  40  1   
 43  21  41  1   
 44  23  42  1   
 45  23  43  1   
 46  23  44  1   
@<TRIPOS>SUBSTRUCTURE
  1 ****  10 GROUP 4 **** **** 0

# MOE 2024.06 (io_trps.svl 2023.06)
