@<TRIPOS>MOLECULE
NONAME
34 36 1 0 0 
SMALL
USER_CHARGES


@<TRIPOS>ATOM
  1 O        2.1100     3.2040    -1.8620 O.co2 1 <1>  -0.9000 
  2 C        1.5970     2.5440    -0.9410 C.2   1 <1>   0.9470 
  3 O        0.5600     2.8810    -0.3750 O.co2 1 <1>  -0.9000 
  4 C        2.4310     1.4330    -0.3370 C.3   1 <1>  -0.2420 
  5 C        3.0880     0.0030    -0.0270 C.3   1 <1>  -0.2420 
  6 C        3.2690     2.3240     0.5380 C.3   1 <1>   0.4380 
  7 C        1.9080     0.1760    -0.8920 C.3   1 <1>  -0.2000 
  8 C        3.3890    -1.4730    -0.0690 C.2   1 <1>   0.9470 
  9 C        4.2090     0.3550     0.9330 C.3   1 <1>   0.4380 
 10 N        4.5580     1.6630     0.4110 N.4   1 <1>  -0.9590 
 11 O        4.2540    -1.8480    -0.8630 O.co2 1 <1>  -0.9000 
 12 O        2.9360    -2.1850     0.8260 O.co2 1 <1>  -0.9000 
 13 C        5.7710     2.4340     0.7680 C.3   1 <1>   0.4860 
 14 C        5.7380     3.7640     0.0070 C.ar  1 <1>  -0.1440 
 15 C        5.0340     3.8770    -1.1870 C.ar  1 <1>  -0.1500 
 16 C        6.3300     4.9090     0.5280 C.ar  1 <1>  -0.1500 
 17 C        4.7660     5.1070    -1.7370 C.ar  1 <1>   0.0820 
 18 C        6.1660     6.1360    -0.1020 C.ar  1 <1>  -0.1500 
 19 O        3.8300     5.1610    -2.6960 O.3   1 <1>  -0.5320 
 20 C        5.3650     6.2440    -1.2280 C.ar  1 <1>  -0.1500 
 21 H        2.9180     2.2840     1.5560 H     1 <1>   0.0800 
 22 H        3.2710     3.3520     0.2090 H     1 <1>   0.0800 
 23 H        2.0150    -0.0040    -1.9480 H     1 <1>   0.1000 
 24 H        0.9570    -0.1800    -0.5300 H     1 <1>   0.1000 
 25 H        5.0300    -0.3460     0.8840 H     1 <1>   0.0800 
 26 H        3.8390     0.4250     1.9430 H     1 <1>   0.0800 
 27 H        4.6140     1.4850    -0.6000 H     1 <1>   0.4500 
 28 H        5.7860     2.6210     1.8290 H     1 <1>   0.0800 
 29 H        6.6530     1.8770     0.4970 H     1 <1>   0.0800 
 30 H        4.6130     3.0300    -1.6980 H     1 <1>   0.1500 
 31 H        6.9120     4.8630     1.4330 H     1 <1>   0.1500 
 32 H        6.6380     7.0170     0.2980 H     1 <1>   0.1500 
 33 H        3.1310     4.4480    -2.5580 H     1 <1>   0.4500 
 34 H        5.1810     7.1930    -1.6980 H     1 <1>   0.1500 
@<TRIPOS>BOND
  1   1   2  ar  
  2   2   3  ar  
  3   2   4  1   
  4   4   5  1   
  5   4   6  1   
  6   4   7  1   
  7   5   7  1   
  8   5   8  1   
  9   5   9  1   
 10   6  10  1   
 11   6  21  1   
 12   6  22  1   
 13   7  23  1   
 14   7  24  1   
 15   8  11  ar  
 16   8  12  ar  
 17   9  10  1   
 18   9  25  1   
 19   9  26  1   
 20  10  13  1   
 21  10  27  1   
 22  13  14  1   
 23  13  28  1   
 24  13  29  1   
 25  14  15  ar  
 26  14  16  ar  
 27  15  17  ar  
 28  15  30  1   
 29  16  18  ar  
 30  16  31  1   
 31  17  19  1   
 32  17  20  ar  
 33  18  20  ar  
 34  18  32  1   
 35  19  33  1   
 36  20  34  1   
@<TRIPOS>SUBSTRUCTURE
  1 ****   6 GROUP 4 **** **** 0

# MOE 2024.06 (io_trps.svl 2023.06)
