@<TRIPOS>MOLECULE
NONAME
48 50 1 0 0 
SMALL
USER_CHARGES


@<TRIPOS>ATOM
  1 O        3.0190    -0.8030    -2.0150 O.2   1 <1>  -0.5700 
  2 C        2.3820    -0.9110    -0.9830 C.2   1 <1>   0.5440 
  3 N        2.1890     0.2180    -0.2520 N.am  1 <1>  -0.7300 
  4 C        1.8910    -2.2080    -0.5420 C.ar  1 <1>   0.0860 
  5 C        2.4760     1.5970    -0.6800 C.3   1 <1>   0.4950 
  6 C        0.8090    -2.3870     0.3380 C.ar  1 <1>   0.0830 
  7 C        2.5230    -3.3610    -1.0110 C.ar  1 <1>  -0.1500 
  8 C        3.5840     2.1790     0.2070 C.2   1 <1>   0.0060 
  9 C        1.1790     2.4370    -0.6370 C.3   1 <1>  -0.1950 
 10 O        0.1560    -1.2860     0.8010 O.3   1 <1>  -0.3630 
 11 C        0.4100    -3.6670     0.7210 C.ar  1 <1>  -0.1500 
 12 C        2.1400    -4.6320    -0.6330 C.ar  1 <1>   0.0830 
 13 N        3.4170     3.1000     1.1120 N.2   1 <1>  -0.5650 
 14 N        4.8730     1.7590     0.1080 N.pl3 1 <1>   0.0480 
 15 C        0.1340     2.3150     0.4330 C.3   1 <1>  -0.2000 
 16 C       -0.1770     1.8890    -0.9760 C.3   1 <1>  -0.2000 
 17 C       -1.0770    -1.3470     1.4870 C.3   1 <1>   0.0400 
 18 C        1.0570    -4.7990     0.2400 C.ar  1 <1>   0.0830 
 19 O        2.8690    -5.6500    -1.1720 O.3   1 <1>  -0.3630 
 20 C        4.6460     3.2850     1.6240 C.2   1 <1>   0.0770 
 21 C        5.5450     2.4770     1.0250 C.2   1 <1>  -0.3020 
 22 C        5.4570     0.7340    -0.7790 C.3   1 <1>   0.0160 
 23 O        0.6540    -6.0540     0.5820 O.3   1 <1>  -0.3630 
 24 C        3.2430    -6.7500    -0.3710 C.3   1 <1>   0.0400 
 25 C       -0.5410    -6.3090     1.2870 C.3   1 <1>   0.0400 
 26 H        1.5660     0.1690     0.5560 H     1 <1>   0.3700 
 27 H        2.8260     1.5930    -1.6970 H     1 <1>   0.0800 
 28 H        3.3480    -3.2660    -1.6940 H     1 <1>   0.1500 
 29 H        1.3860     3.4420    -0.9610 H     1 <1>   0.1000 
 30 H       -0.4070    -3.7820     1.4000 H     1 <1>   0.1500 
 31 H       -0.2940     3.2240     0.8180 H     1 <1>   0.1000 
 32 H        0.2620     1.5720     1.2000 H     1 <1>   0.1000 
 33 H       -0.2900     0.8380    -1.1830 H     1 <1>   0.1000 
 34 H       -0.8410     2.4950    -1.5670 H     1 <1>   0.1000 
 35 H       -1.4270    -0.3400     1.6340 H     1 <1>   0.0800 
 36 H       -0.9260    -1.8210     2.4400 H     1 <1>   0.0800 
 37 H       -1.7840    -1.8930     0.8880 H     1 <1>   0.0800 
 38 H        4.8210     4.0010     2.4090 H     1 <1>   0.1500 
 39 H        6.6000     2.3780     1.2000 H     1 <1>   0.1500 
 40 H        5.0900     0.8690    -1.7800 H     1 <1>   0.0800 
 41 H        5.1770    -0.2410    -0.4250 H     1 <1>   0.0800 
 42 H        6.5270     0.8220    -0.7780 H     1 <1>   0.0800 
 43 H        4.1160    -7.2000    -0.8080 H     1 <1>   0.0800 
 44 H        2.4370    -7.4620    -0.3600 H     1 <1>   0.0800 
 45 H        3.4620    -6.4060     0.6240 H     1 <1>   0.0800 
 46 H       -0.6680    -7.3750     1.3500 H     1 <1>   0.0800 
 47 H       -1.3650    -5.8760     0.7470 H     1 <1>   0.0800 
 48 H       -0.4610    -5.8930     2.2750 H     1 <1>   0.0800 
@<TRIPOS>BOND
  1   1   2  2   
  2   2   3  am  
  3   2   4  1   
  4   3   5  1   
  5   3  26  1   
  6   4   6  ar  
  7   4   7  ar  
  8   5   8  1   
  9   5   9  1   
 10   5  27  1   
 11   6  10  1   
 12   6  11  ar  
 13   7  12  ar  
 14   7  28  1   
 15   8  13  2   
 16   8  14  1   
 17   9  15  1   
 18   9  16  1   
 19   9  29  1   
 20  10  17  1   
 21  11  18  ar  
 22  11  30  1   
 23  12  18  ar  
 24  12  19  1   
 25  13  20  1   
 26  14  21  1   
 27  14  22  1   
 28  15  16  1   
 29  15  31  1   
 30  15  32  1   
 31  16  33  1   
 32  16  34  1   
 33  17  35  1   
 34  17  36  1   
 35  17  37  1   
 36  18  23  1   
 37  19  24  1   
 38  20  21  2   
 39  20  38  1   
 40  21  39  1   
 41  22  40  1   
 42  22  41  1   
 43  22  42  1   
 44  23  25  1   
 45  24  43  1   
 46  24  44  1   
 47  24  45  1   
 48  25  46  1   
 49  25  47  1   
 50  25  48  1   
@<TRIPOS>SUBSTRUCTURE
  1 ****   2 GROUP 4 **** **** 0

# MOE 2024.06 (io_trps.svl 2023.06)
