@<TRIPOS>MOLECULE
NONAME
54 56 1 0 0 
SMALL
USER_CHARGES


@<TRIPOS>ATOM
  1 O        3.8520    -0.9540    -0.2690 O.2   1 <1>  -0.5700 
  2 C        2.6630    -1.0030    -0.0570 C.2   1 <1>   0.5690 
  3 N        1.8330     0.0750    -0.0370 N.am  1 <1>  -0.4930 
  4 C        2.0240    -2.3640     0.2300 C.3   1 <1>   0.1710 
  5 C        2.0480     1.4680    -0.1910 C.2   1 <1>   0.0630 
  6 N        0.5390    -2.3970     0.0610 N.3   1 <1>  -0.8100 
  7 C        2.9990     2.1760    -0.9360 C.2   1 <1>   0.1080 
  8 C        1.2850     2.4250     0.3840 C.2   1 <1>  -0.3320 
  9 C        0.1210    -2.3340    -1.3500 C.3   1 <1>   0.1100 
 10 C       -0.0560    -3.6340     0.6030 C.3   1 <1>   0.1100 
 11 N        2.8470     3.4590    -0.8300 N.2   1 <1>  -0.7070 
 12 C        4.0930     1.5920    -1.8020 C.3   1 <1>  -0.0590 
 13 N        1.7940     3.6190    -0.0120 N.pl3 1 <1>   0.3140 
 14 C        0.0830     2.2710     1.3060 C.3   1 <1>  -0.0600 
 15 C       -1.2980    -2.8900    -1.3450 C.3   1 <1>   0.2000 
 16 C       -1.2140    -4.0300    -0.3330 C.3   1 <1>  -0.0800 
 17 C        1.3170     4.9710     0.3490 C.3   1 <1>   0.0960 
 18 O       -2.1270    -1.9150    -0.8220 O.3   1 <1>  -0.6800 
 19 C       -0.9520    -5.3770    -1.0350 C.3   1 <1>   0.0210 
 20 C        1.9850     5.4700     1.6370 C.3   1 <1>  -0.2400 
 21 C       -0.7540    -6.5140    -0.0480 C.2   1 <1>   0.1080 
 22 N       -1.5630    -6.7460     0.9390 N.2   1 <1>  -0.7070 
 23 C        0.2990    -7.4220    -0.0860 C.2   1 <1>  -0.1500 
 24 N       -1.0460    -7.8230     1.5590 N.pl3 1 <1>   0.3000 
 25 C        0.0840    -8.2500     0.9580 C.2   1 <1>  -0.3320 
 26 C        0.8980    -9.4430     1.4240 C.3   1 <1>  -0.0600 
 27 H        0.8690    -0.1910     0.1730 H     1 <1>   0.3700 
 28 H        2.2650    -2.6150     1.2480 H     1 <1>   0.0800 
 29 H        2.4830    -3.1010    -0.4060 H     1 <1>   0.0800 
 30 H        0.1520    -1.3310    -1.7400 H     1 <1>   0.0800 
 31 H        0.7490    -2.9680    -1.9520 H     1 <1>   0.0800 
 32 H        0.6780    -4.4200     0.6550 H     1 <1>   0.0800 
 33 H       -0.4270    -3.4510     1.5980 H     1 <1>   0.0800 
 34 H        3.7240     0.7380    -2.3370 H     1 <1>   0.0800 
 35 H        4.9200     1.2970    -1.1840 H     1 <1>   0.0800 
 36 H        4.4300     2.3270    -2.5090 H     1 <1>   0.0800 
 37 H       -0.1110     1.2340     1.5120 H     1 <1>   0.0800 
 38 H       -0.7920     2.6970     0.8480 H     1 <1>   0.0800 
 39 H        0.2680     2.7700     2.2410 H     1 <1>   0.0800 
 40 H       -1.6640    -3.1740    -2.3160 H     1 <1>   0.0800 
 41 H       -2.1320    -4.1200     0.2230 H     1 <1>   0.0800 
 42 H        1.5550     5.6330    -0.4640 H     1 <1>   0.0800 
 43 H        0.2500     4.9440     0.4630 H     1 <1>   0.0800 
 44 H       -1.7240    -1.6280     0.0230 H     1 <1>   0.4000 
 45 H       -0.0830    -5.3050    -1.6630 H     1 <1>   0.0800 
 46 H       -1.7940    -5.6200    -1.6570 H     1 <1>   0.0800 
 47 H        3.0530     5.5020     1.5040 H     1 <1>   0.0800 
 48 H        1.7510     4.8190     2.4590 H     1 <1>   0.0800 
 49 H        1.6390     6.4600     1.8690 H     1 <1>   0.0800 
 50 H        1.0970    -7.4420    -0.8060 H     1 <1>   0.1500 
 51 H       -1.4910    -8.2440     2.3840 H     1 <1>   0.2700 
 52 H        1.7510    -9.5820     0.7830 H     1 <1>   0.0800 
 53 H        0.2990   -10.3360     1.3940 H     1 <1>   0.0800 
 54 H        1.2470    -9.2870     2.4290 H     1 <1>   0.0800 
@<TRIPOS>BOND
  1   1   2  2   
  2   2   3  am  
  3   2   4  1   
  4   3   5  1   
  5   3  27  1   
  6   4   6  1   
  7   4  28  1   
  8   4  29  1   
  9   5   7  1   
 10   5   8  2   
 11   6   9  1   
 12   6  10  1   
 13   7  11  2   
 14   7  12  1   
 15   8  13  1   
 16   8  14  1   
 17   9  15  1   
 18   9  30  1   
 19   9  31  1   
 20  10  16  1   
 21  10  32  1   
 22  10  33  1   
 23  11  13  1   
 24  12  34  1   
 25  12  35  1   
 26  12  36  1   
 27  13  17  1   
 28  14  37  1   
 29  14  38  1   
 30  14  39  1   
 31  15  16  1   
 32  15  18  1   
 33  15  40  1   
 34  16  19  1   
 35  16  41  1   
 36  17  20  1   
 37  17  42  1   
 38  17  43  1   
 39  18  44  1   
 40  19  21  1   
 41  19  45  1   
 42  19  46  1   
 43  20  47  1   
 44  20  48  1   
 45  20  49  1   
 46  21  22  2   
 47  21  23  1   
 48  22  24  1   
 49  23  25  2   
 50  23  50  1   
 51  24  25  1   
 52  24  51  1   
 53  25  26  1   
 54  26  52  1   
 55  26  53  1   
 56  26  54  1   
@<TRIPOS>SUBSTRUCTURE
  1 ****   6 GROUP 4 **** **** 0

# MOE 2024.06 (io_trps.svl 2023.06)
