@<TRIPOS>MOLECULE
NONAME
50 52 1 0 0 
SMALL
USER_CHARGES


@<TRIPOS>ATOM
  1 O        0.8670    -0.9700    -1.5220 O.2   1 <1>  -0.5700 
  2 C        1.8870    -1.4980    -1.1410 C.2   1 <1>   0.5690 
  3 N        1.8690    -2.4950    -0.1940 N.am  1 <1>  -0.6600 
  4 C        3.2100    -1.0300    -1.7750 C.3   1 <1>   0.2700 
  5 C        3.1320    -3.1270     0.2950 C.3   1 <1>   0.1400 
  6 C        0.6150    -2.8920     0.4990 C.3   1 <1>   0.1400 
  7 N        4.4670    -1.6690    -1.2330 N.pl3 1 <1>  -0.8380 
  8 C        4.2580    -3.0670    -0.7510 C.3   1 <1>   0.2090 
  9 C       -0.0650    -4.0350    -0.2550 C.3   1 <1>  -0.0160 
 10 C        5.4160    -0.8670    -0.6400 C.ar  1 <1>   0.4100 
 11 C       -1.3260    -4.4700     0.4740 C.ar  1 <1>  -0.1440 
 12 N        5.7700    -1.1510     0.6090 N.ar  1 <1>  -0.6200 
 13 C        5.9640     0.2040    -1.3430 C.ar  1 <1>  -0.1500 
 14 C       -2.5080    -3.7700     0.2890 C.ar  1 <1>  -0.1500 
 15 C       -1.3070    -5.5600     1.3300 C.ar  1 <1>  -0.1500 
 16 C        6.6700    -0.3550     1.1600 C.ar  1 <1>   0.1600 
 17 C        6.8990     1.0200    -0.7540 C.ar  1 <1>  -0.1500 
 18 C       -3.6600    -4.1560     0.9520 C.ar  1 <1>  -0.1500 
 19 C       -2.4590    -5.9470     1.9940 C.ar  1 <1>  -0.1500 
 20 C        7.2850     0.7400     0.5550 C.ar  1 <1>   0.0860 
 21 C       -3.6360    -5.2450     1.8050 C.ar  1 <1>  -0.1500 
 22 C        8.2650     1.5220     1.2750 C.2   1 <1>   0.5440 
 23 O        8.3310     1.4630     2.4880 O.2   1 <1>  -0.5700 
 24 N        9.1440     2.3380     0.6150 N.am  1 <1>  -0.7300 
 25 C       10.1860     3.1670     1.2520 C.3   1 <1>   0.1400 
 26 C       11.4710     3.0420     0.4430 C.3   1 <1>  -0.2400 
 27 H        3.2640     0.0350    -1.6460 H     1 <1>   0.0800 
 28 H        3.1540    -1.2280    -2.8290 H     1 <1>   0.0800 
 29 H        2.9470    -4.1560     0.5460 H     1 <1>   0.0800 
 30 H        3.4570    -2.6180     1.1860 H     1 <1>   0.0800 
 31 H       -0.0540    -2.0490     0.5470 H     1 <1>   0.0800 
 32 H        0.8350    -3.1950     1.5080 H     1 <1>   0.0800 
 33 H        4.0030    -3.6950    -1.5870 H     1 <1>   0.0800 
 34 H        5.1690    -3.4500    -0.3230 H     1 <1>   0.0800 
 35 H        0.6100    -4.8670    -0.3410 H     1 <1>   0.0800 
 36 H       -0.3210    -3.7030    -1.2460 H     1 <1>   0.0800 
 37 H        5.6450     0.3750    -2.3530 H     1 <1>   0.1500 
 38 H       -2.5350    -2.9210    -0.3720 H     1 <1>   0.1500 
 39 H       -0.3980    -6.1140     1.4850 H     1 <1>   0.1500 
 40 H        6.9520    -0.5830     2.1750 H     1 <1>   0.1500 
 41 H        7.3140     1.8520    -1.2930 H     1 <1>   0.1500 
 42 H       -4.5750    -3.6080     0.8040 H     1 <1>   0.1500 
 43 H       -2.4400    -6.7950     2.6570 H     1 <1>   0.1500 
 44 H       -4.5320    -5.5450     2.3210 H     1 <1>   0.1500 
 45 H        9.1520     2.3470    -0.4040 H     1 <1>   0.3700 
 46 H       10.3550     2.8380     2.2650 H     1 <1>   0.0800 
 47 H        9.8590     4.1930     1.2780 H     1 <1>   0.0800 
 48 H       11.7950     2.0160     0.4210 H     1 <1>   0.0800 
 49 H       12.2430     3.6320     0.9020 H     1 <1>   0.0800 
 50 H       11.3220     3.3970    -0.5610 H     1 <1>   0.0800 
@<TRIPOS>BOND
  1   1   2  2   
  2   2   3  am  
  3   2   4  1   
  4   3   5  1   
  5   3   6  1   
  6   4   7  1   
  7   4  27  1   
  8   4  28  1   
  9   5   8  1   
 10   5  29  1   
 11   5  30  1   
 12   6   9  1   
 13   6  31  1   
 14   6  32  1   
 15   7   8  1   
 16   7  10  1   
 17   8  33  1   
 18   8  34  1   
 19   9  11  1   
 20   9  35  1   
 21   9  36  1   
 22  10  12  ar  
 23  10  13  ar  
 24  11  14  ar  
 25  11  15  ar  
 26  12  16  ar  
 27  13  17  ar  
 28  13  37  1   
 29  14  18  ar  
 30  14  38  1   
 31  15  19  ar  
 32  15  39  1   
 33  16  20  ar  
 34  16  40  1   
 35  17  20  ar  
 36  17  41  1   
 37  18  21  ar  
 38  18  42  1   
 39  19  21  ar  
 40  19  43  1   
 41  20  22  1   
 42  21  44  1   
 43  22  23  2   
 44  22  24  am  
 45  24  25  1   
 46  24  45  1   
 47  25  26  1   
 48  25  46  1   
 49  25  47  1   
 50  26  48  1   
 51  26  49  1   
 52  26  50  1   
@<TRIPOS>SUBSTRUCTURE
  1 ****   5 GROUP 4 **** **** 0

# MOE 2024.06 (io_trps.svl 2023.06)
