@<TRIPOS>MOLECULE
NONAME
37 38 1 0 0 
SMALL
USER_CHARGES


@<TRIPOS>ATOM
  1 O       -0.1210     0.3010    -0.1340 O.2   1 <1>  -0.5700 
  2 C       -0.1860     1.5310    -0.0220 C.2   1 <1>   0.3890 
  3 C       -1.4180     2.2050     0.0060 C.3   1 <1>  -0.7150 
  4 C        1.0550     2.2670     0.0310 C.ar  1 <1>   0.0860 
  5 C       -1.4090     3.6080    -0.0780 C.2   1 <1>   0.5350 
  6 C       -2.6230     1.4940     0.1320 C.2   1 <1>   0.5350 
  7 C        1.0190     3.6680     0.0830 C.ar  1 <1>   0.1170 
  8 C        2.2990     1.6280     0.0230 C.ar  1 <1>  -0.1500 
  9 O       -2.4260     4.2600    -0.3340 O.2   1 <1>  -0.5700 
 10 N       -0.2260     4.3160     0.1090 N.am  1 <1>  -0.4770 
 11 O       -2.8100     0.6390     0.9920 O.2   1 <1>  -0.5700 
 12 N       -3.6520     1.8190    -0.6960 N.am  1 <1>  -0.7300 
 13 C        2.2280     4.3730     0.0960 C.ar  1 <1>  -0.1500 
 14 C        3.4800     2.3380     0.0510 C.ar  1 <1>  -0.1500 
 15 C       -0.3170     5.7700     0.4240 C.3   1 <1>   0.0600 
 16 C       -5.0490     1.3940    -0.4900 C.3   1 <1>   0.1400 
 17 C        3.4430     3.7220     0.0840 C.ar  1 <1>  -0.1500 
 18 C       -5.8710     2.5270     0.1470 C.3   1 <1>  -0.0800 
 19 C       -7.2710     2.0200     0.5190 C.3   1 <1>  -0.2400 
 20 C       -5.9940     3.7460    -0.7800 C.3   1 <1>  -0.2400 
 21 H        2.3210     0.5530    -0.0070 H     1 <1>   0.1500 
 22 H       -3.5240     2.7820    -1.0230 H     1 <1>   0.3700 
 23 H        2.2260     5.4450     0.1090 H     1 <1>   0.1500 
 24 H        4.4230     1.8210     0.0450 H     1 <1>   0.1500 
 25 H       -1.3040     6.0240     0.7680 H     1 <1>   0.0800 
 26 H       -0.0980     6.3400    -0.4600 H     1 <1>   0.0800 
 27 H        0.3750     6.0210     1.2070 H     1 <1>   0.0800 
 28 H       -5.0660     0.5270     0.1470 H     1 <1>   0.0800 
 29 H       -5.4700     1.1170    -1.4400 H     1 <1>   0.0800 
 30 H        4.3620     4.2820     0.0980 H     1 <1>   0.1500 
 31 H       -5.3690     2.8250     1.0530 H     1 <1>   0.0800 
 32 H       -7.8040     1.7030    -0.3590 H     1 <1>   0.0800 
 33 H       -7.8310     2.7990     1.0040 H     1 <1>   0.0800 
 34 H       -7.1920     1.1880     1.1960 H     1 <1>   0.0800 
 35 H       -6.4510     3.4700    -1.7130 H     1 <1>   0.0800 
 36 H       -5.0220     4.1610    -0.9830 H     1 <1>   0.0800 
 37 H       -6.5870     4.5120    -0.3140 H     1 <1>   0.0800 
@<TRIPOS>BOND
  1   1   2  2   
  2   2   3  1   
  3   2   4  1   
  4   3   5  1   
  5   3   6  1   
  6   4   7  ar  
  7   4   8  ar  
  8   5   9  2   
  9   5  10  am  
 10   6  11  2   
 11   6  12  am  
 12   7  10  1   
 13   7  13  ar  
 14   8  14  ar  
 15   8  21  1   
 16  10  15  1   
 17  12  16  1   
 18  12  22  1   
 19  13  17  ar  
 20  13  23  1   
 21  14  17  ar  
 22  14  24  1   
 23  15  25  1   
 24  15  26  1   
 25  15  27  1   
 26  16  18  1   
 27  16  28  1   
 28  16  29  1   
 29  17  30  1   
 30  18  19  1   
 31  18  20  1   
 32  18  31  1   
 33  19  32  1   
 34  19  33  1   
 35  19  34  1   
 36  20  35  1   
 37  20  36  1   
 38  20  37  1   
@<TRIPOS>SUBSTRUCTURE
  1 ****   3 GROUP 4 **** **** 0

# MOE 2024.06 (io_trps.svl 2023.06)
