@<TRIPOS>MOLECULE
NONAME
56 57 1 0 0 
SMALL
USER_CHARGES


@<TRIPOS>ATOM
  1 S       -1.1200    -0.2440    -0.1870 S.o2  1 <1>   1.3330 
  2 O       -0.4780     1.0390    -0.0660 O.2   1 <1>  -0.6500 
  3 O       -0.9610    -1.2530     0.8290 O.2   1 <1>  -0.6500 
  4 N       -0.4080    -0.9120    -1.5200 N.am  1 <1>  -0.9780 
  5 C       -2.8470    -0.0500    -0.6400 C.3   1 <1>  -0.0550 
  6 C       -3.5550    -1.3720    -0.9840 C.3   1 <1>  -0.1600 
  7 C       -5.0550    -1.1590    -1.2450 C.3   1 <1>  -0.0990 
  8 C       -5.7580    -2.4650    -1.5790 C.2   1 <1>   0.5690 
  9 O       -5.9030    -2.7240    -2.7500 O.2   1 <1>  -0.5700 
 10 N       -6.2020    -3.3100    -0.5940 N.am  1 <1>  -0.6600 
 11 C       -6.8220    -4.6280    -0.9440 C.3   1 <1>   0.1400 
 12 C       -6.1470    -3.0370     0.8720 C.3   1 <1>   0.1400 
 13 C       -8.3530    -4.6190    -0.8080 C.3   1 <1>   0.1400 
 14 C       -7.3810    -2.2620     1.3550 C.3   1 <1>  -0.1600 
 15 N       -8.8020    -4.1390     0.5410 N.am  1 <1>  -0.6600 
 16 C       -8.7050    -2.6620     0.6940 C.3   1 <1>   0.1400 
 17 C       -9.3550    -4.9060     1.5460 C.2   1 <1>   0.5690 
 18 O       -9.6190    -4.3970     2.6160 O.2   1 <1>  -0.5700 
 19 C       -9.5520    -6.4230     1.4030 C.3   1 <1>   0.2370 
 20 N      -10.5130    -6.7430     0.3150 N.pl3 1 <1>   0.3140 
 21 C       -9.9940    -7.1360     2.7000 C.3   1 <1>  -0.2400 
 22 N      -11.6360    -6.0300     0.0920 N.2   1 <1>  -0.7070 
 23 C      -10.4000    -7.7540    -0.5850 C.2   1 <1>  -0.3320 
 24 C      -12.2010    -6.5900    -0.9270 C.2   1 <1>   0.1080 
 25 C      -11.4750    -7.6760    -1.3970 C.2   1 <1>  -0.1500 
 26 C       -9.2730    -8.7720    -0.6420 C.3   1 <1>  -0.0600 
 27 C      -13.5020    -6.0860    -1.5040 C.3   1 <1>  -0.0590 
 28 H        0.0360    -1.7540    -1.1590 H     1 <1>   0.4200 
 29 H        0.3500    -0.2670    -1.7350 H     1 <1>   0.4200 
 30 H       -2.9140     0.6110    -1.4830 H     1 <1>   0.0800 
 31 H       -3.3600     0.4160     0.1790 H     1 <1>   0.0800 
 32 H       -3.4230    -2.0690    -0.1740 H     1 <1>   0.0800 
 33 H       -3.1020    -1.8040    -1.8610 H     1 <1>   0.0800 
 34 H       -5.1780    -0.4940    -2.0810 H     1 <1>   0.0800 
 35 H       -5.5260    -0.6980    -0.3990 H     1 <1>   0.0800 
 36 H       -6.4130    -5.3930    -0.3090 H     1 <1>   0.0800 
 37 H       -6.5710    -4.8940    -1.9560 H     1 <1>   0.0800 
 38 H       -5.2540    -2.4950     1.1240 H     1 <1>   0.0800 
 39 H       -6.1030    -3.9750     1.3990 H     1 <1>   0.0800 
 40 H       -8.7170    -5.6050    -1.0100 H     1 <1>   0.0800 
 41 H       -8.7660    -3.9780    -1.5680 H     1 <1>   0.0800 
 42 H       -7.2290    -1.2100     1.1980 H     1 <1>   0.0800 
 43 H       -7.4750    -2.4040     2.4170 H     1 <1>   0.0800 
 44 H       -8.7780    -2.1960    -0.2730 H     1 <1>   0.0800 
 45 H       -9.5310    -2.3020     1.2860 H     1 <1>   0.0800 
 46 H       -8.6000    -6.8240     1.1210 H     1 <1>   0.0800 
 47 H      -10.9510    -6.7560     3.0150 H     1 <1>   0.0800 
 48 H       -9.2810    -6.9490     3.4830 H     1 <1>   0.0800 
 49 H      -10.0680    -8.1960     2.5430 H     1 <1>   0.0800 
 50 H      -11.7430    -8.3010    -2.2300 H     1 <1>   0.1500 
 51 H       -9.2120    -9.3140     0.2840 H     1 <1>   0.0800 
 52 H       -8.3330    -8.2840    -0.8300 H     1 <1>   0.0800 
 53 H       -9.4530    -9.4760    -1.4350 H     1 <1>   0.0800 
 54 H      -13.3880    -5.0590    -1.7960 H     1 <1>   0.0800 
 55 H      -14.2720    -6.1540    -0.7590 H     1 <1>   0.0800 
 56 H      -13.7850    -6.6690    -2.3610 H     1 <1>   0.0800 
@<TRIPOS>BOND
  1   1   2  2   
  2   1   3  2   
  3   1   4  am  
  4   1   5  1   
  5   4  28  1   
  6   4  29  1   
  7   5   6  1   
  8   5  30  1   
  9   5  31  1   
 10   6   7  1   
 11   6  32  1   
 12   6  33  1   
 13   7   8  1   
 14   7  34  1   
 15   7  35  1   
 16   8   9  2   
 17   8  10  am  
 18  10  11  1   
 19  10  12  1   
 20  11  13  1   
 21  11  36  1   
 22  11  37  1   
 23  12  14  1   
 24  12  38  1   
 25  12  39  1   
 26  13  15  1   
 27  13  40  1   
 28  13  41  1   
 29  14  16  1   
 30  14  42  1   
 31  14  43  1   
 32  15  16  1   
 33  15  17  am  
 34  16  44  1   
 35  16  45  1   
 36  17  18  2   
 37  17  19  1   
 38  19  20  1   
 39  19  21  1   
 40  19  46  1   
 41  20  22  1   
 42  20  23  1   
 43  21  47  1   
 44  21  48  1   
 45  21  49  1   
 46  22  24  2   
 47  23  25  2   
 48  23  26  1   
 49  24  25  1   
 50  24  27  1   
 51  25  50  1   
 52  26  51  1   
 53  26  52  1   
 54  26  53  1   
 55  27  54  1   
 56  27  55  1   
 57  27  56  1   
@<TRIPOS>SUBSTRUCTURE
  1 ****  11 GROUP 4 **** **** 0

# MOE 2024.06 (io_trps.svl 2023.06)
