@<TRIPOS>MOLECULE
NONAME
50 52 1 0 0 
SMALL
USER_CHARGES


@<TRIPOS>ATOM
  1 O       -0.1400     0.0630     0.7870 O.3   1 <1>  -0.6800 
  2 C        0.7120    -0.1900    -0.2810 C.3   1 <1>   0.2000 
  3 C        1.4390    -1.5070    -0.0040 C.3   1 <1>  -0.0800 
  4 C        1.8360     0.8440    -0.2330 C.3   1 <1>   0.3430 
  5 C        2.6620    -1.1100     0.8420 C.3   1 <1>   0.3430 
  6 C        1.8500    -2.2170    -1.3140 C.3   1 <1>  -0.0170 
  7 N        2.6880     0.3820     0.8970 N.4   1 <1>  -0.9590 
  8 C        2.8370    -3.3500    -1.0510 C.ar  1 <1>  -0.1440 
  9 C        4.0650     0.9540     0.9500 C.3   1 <1>   0.3430 
 10 C        2.4590    -4.5590    -0.4180 C.ar  1 <1>   0.0000 
 11 C        4.1460    -3.2120    -1.4160 C.ar  1 <1>  -0.1500 
 12 C        4.0450     2.4600     1.2120 C.3   1 <1>  -0.0220 
 13 C        3.4800    -5.5010    -0.1400 C.ar  1 <1>   0.3100 
 14 C        1.1350    -4.8940    -0.0510 C.ar  1 <1>  -0.1500 
 15 C        5.0710    -4.2200    -1.1210 C.ar  1 <1>   0.1600 
 16 C        5.4740     2.9690     1.2820 C.2   1 <1>  -0.2880 
 17 N        4.7750    -5.3120    -0.4940 N.ar  1 <1>  -0.6200 
 18 C        3.1470    -6.6910     0.5260 C.ar  1 <1>  -0.1500 
 19 C        0.8420    -6.0660     0.5930 C.ar  1 <1>  -0.1500 
 20 C        6.1500     3.6740     0.3670 C.2   1 <1>  -0.2760 
 21 C        1.8600    -6.9740     0.8930 C.ar  1 <1>  -0.1500 
 22 C        7.5840     4.1170     0.6140 C.3   1 <1>  -0.1020 
 23 C        5.6440     4.1350    -0.9950 C.3   1 <1>  -0.1020 
 24 H       -0.9670    -0.4600     0.7200 H     1 <1>   0.4000 
 25 H        0.1480    -0.1660    -1.1990 H     1 <1>   0.0800 
 26 H        0.8170    -2.1720     0.5680 H     1 <1>   0.0800 
 27 H        1.4460     1.8360    -0.0690 H     1 <1>   0.0800 
 28 H        2.3950     0.8190    -1.1530 H     1 <1>   0.0800 
 29 H        3.5660    -1.4840     0.3900 H     1 <1>   0.0800 
 30 H        2.5800    -1.5200     1.8360 H     1 <1>   0.0800 
 31 H        2.3040    -1.5090    -1.9860 H     1 <1>   0.0800 
 32 H        0.9800    -2.6060    -1.8150 H     1 <1>   0.0800 
 33 H        2.1650     0.6440     1.7480 H     1 <1>   0.4500 
 34 H        4.6240     0.4770     1.7390 H     1 <1>   0.0800 
 35 H        4.5780     0.7660     0.0210 H     1 <1>   0.0800 
 36 H        4.5090    -2.3410    -1.9300 H     1 <1>   0.1500 
 37 H        3.5060     2.9670     0.4360 H     1 <1>   0.0800 
 38 H        3.5590     2.6690     2.1490 H     1 <1>   0.0800 
 39 H        0.3300    -4.2270    -0.2880 H     1 <1>   0.1500 
 40 H        6.0940    -4.0770    -1.4270 H     1 <1>   0.1500 
 41 H        5.9410     2.6940     2.2150 H     1 <1>   0.1500 
 42 H        3.9440    -7.3800     0.7380 H     1 <1>   0.1500 
 43 H       -0.1700    -6.3100     0.8710 H     1 <1>   0.1500 
 44 H        1.6180    -7.8910     1.4030 H     1 <1>   0.1500 
 45 H        8.2380     3.7050    -0.1330 H     1 <1>   0.0800 
 46 H        7.9290     3.7930     1.5800 H     1 <1>   0.0800 
 47 H        7.6520     5.1900     0.5780 H     1 <1>   0.0800 
 48 H        6.2940     3.7710    -1.7700 H     1 <1>   0.0800 
 49 H        5.6390     5.2100    -1.0350 H     1 <1>   0.0800 
 50 H        4.6520     3.7890    -1.2060 H     1 <1>   0.0800 
@<TRIPOS>BOND
  1   1   2  1   
  2   1  24  1   
  3   2   3  1   
  4   2   4  1   
  5   2  25  1   
  6   3   5  1   
  7   3   6  1   
  8   3  26  1   
  9   4   7  1   
 10   4  27  1   
 11   4  28  1   
 12   5   7  1   
 13   5  29  1   
 14   5  30  1   
 15   6   8  1   
 16   6  31  1   
 17   6  32  1   
 18   7   9  1   
 19   7  33  1   
 20   8  10  ar  
 21   8  11  ar  
 22   9  12  1   
 23   9  34  1   
 24   9  35  1   
 25  10  13  ar  
 26  10  14  ar  
 27  11  15  ar  
 28  11  36  1   
 29  12  16  1   
 30  12  37  1   
 31  12  38  1   
 32  13  17  ar  
 33  13  18  ar  
 34  14  19  ar  
 35  14  39  1   
 36  15  17  ar  
 37  15  40  1   
 38  16  20  2   
 39  16  41  1   
 40  18  21  ar  
 41  18  42  1   
 42  19  21  ar  
 43  19  43  1   
 44  20  22  1   
 45  20  23  1   
 46  21  44  1   
 47  22  45  1   
 48  22  46  1   
 49  22  47  1   
 50  23  48  1   
 51  23  49  1   
 52  23  50  1   
@<TRIPOS>SUBSTRUCTURE
  1 ****   5 GROUP 4 **** **** 0

# MOE 2024.06 (io_trps.svl 2023.06)
