@<TRIPOS>MOLECULE
NONAME
48 50 1 0 0 
SMALL
USER_CHARGES


@<TRIPOS>ATOM
  1 O       -0.5550     1.1930    -0.4710 O.2   1 <1>  -0.5700 
  2 C       -0.3940     2.3850    -0.5370 C.2   1 <1>   0.5690 
  3 N       -0.5740     3.1700     0.5460 N.am  1 <1>  -0.7300 
  4 C       -0.0180     3.0390    -1.8660 C.3   1 <1>   0.1810 
  5 C       -0.4980     4.6530     0.5190 C.3   1 <1>   0.3640 
  6 O        0.5690     4.3090    -1.6920 O.3   1 <1>  -0.5600 
  7 C       -1.8270     5.1900     1.0520 C.ar  1 <1>  -0.1440 
  8 C       -0.1880     5.2190    -0.8980 C.3   1 <1>   0.2610 
  9 C       -1.8350     6.1840     2.0210 C.ar  1 <1>  -0.1500 
 10 C       -3.0410     4.7000     0.5840 C.ar  1 <1>  -0.1500 
 11 C        0.5500     6.5650    -0.8100 C.2   1 <1>   0.5690 
 12 C       -3.0300     6.6790     2.5130 C.ar  1 <1>  -0.1500 
 13 C       -4.2360     5.1950     1.0760 C.ar  1 <1>  -0.1500 
 14 O        0.3050     7.3450     0.0820 O.2   1 <1>  -0.5700 
 15 N        1.4880     6.8590    -1.7520 N.am  1 <1>  -0.7300 
 16 C       -4.2320     6.1850     2.0410 C.ar  1 <1>  -0.1500 
 17 C        2.2180     8.1400    -1.8680 C.3   1 <1>   0.1400 
 18 C        3.4770     8.0980    -1.0080 C.3   1 <1>  -0.0990 
 19 C        4.0760     9.4850    -0.9240 C.2   1 <1>   0.5690 
 20 O        4.9200     9.7830    -1.7350 O.2   1 <1>  -0.5700 
 21 N        3.6480    10.3640     0.0310 N.am  1 <1>  -0.6600 
 22 C        2.5900    10.1290     1.0430 C.3   1 <1>   0.1400 
 23 C        4.1900    11.7350     0.1390 C.3   1 <1>   0.1400 
 24 C        2.2910    11.5090     1.6160 C.3   1 <1>  -0.1600 
 25 C        3.5850    12.2950     1.4210 C.3   1 <1>  -0.1600 
 26 H       -0.8920     2.7380     1.4150 H     1 <1>   0.3700 
 27 H       -0.8960     3.1480    -2.4770 H     1 <1>   0.0800 
 28 H        0.6910     2.4170    -2.3810 H     1 <1>   0.0800 
 29 H        0.2930     4.9510     1.1850 H     1 <1>   0.0800 
 30 H       -1.1140     5.3950    -1.4130 H     1 <1>   0.0800 
 31 H       -0.9090     6.5870     2.3940 H     1 <1>   0.1500 
 32 H       -3.0680     3.9270    -0.1630 H     1 <1>   0.1500 
 33 H       -3.0230     7.4510     3.2630 H     1 <1>   0.1500 
 34 H       -5.1710     4.8080     0.7080 H     1 <1>   0.1500 
 35 H        1.7370     6.1150    -2.4140 H     1 <1>   0.3700 
 36 H       -5.1610     6.5700     2.4240 H     1 <1>   0.1500 
 37 H        2.4770     8.3240    -2.8970 H     1 <1>   0.0800 
 38 H        1.5760     8.9400    -1.5370 H     1 <1>   0.0800 
 39 H        4.1970     7.4340    -1.4510 H     1 <1>   0.0800 
 40 H        3.2480     7.7430    -0.0210 H     1 <1>   0.0800 
 41 H        1.7100     9.6880     0.6060 H     1 <1>   0.0800 
 42 H        2.9760     9.4820     1.8120 H     1 <1>   0.0800 
 43 H        5.2660    11.7180     0.1760 H     1 <1>   0.0800 
 44 H        3.8680    12.3050    -0.7160 H     1 <1>   0.0800 
 45 H        1.5000    11.9590     1.0420 H     1 <1>   0.0800 
 46 H        1.9910    11.4570     2.6470 H     1 <1>   0.0800 
 47 H        4.2590    12.1010     2.2380 H     1 <1>   0.0800 
 48 H        3.4160    13.3550     1.3520 H     1 <1>   0.0800 
@<TRIPOS>BOND
  1   1   2  2   
  2   2   3  am  
  3   2   4  1   
  4   3   5  1   
  5   3  26  1   
  6   4   6  1   
  7   4  27  1   
  8   4  28  1   
  9   5   7  1   
 10   5   8  1   
 11   5  29  1   
 12   6   8  1   
 13   7   9  ar  
 14   7  10  ar  
 15   8  11  1   
 16   8  30  1   
 17   9  12  ar  
 18   9  31  1   
 19  10  13  ar  
 20  10  32  1   
 21  11  14  2   
 22  11  15  am  
 23  12  16  ar  
 24  12  33  1   
 25  13  16  ar  
 26  13  34  1   
 27  15  17  1   
 28  15  35  1   
 29  16  36  1   
 30  17  18  1   
 31  17  37  1   
 32  17  38  1   
 33  18  19  1   
 34  18  39  1   
 35  18  40  1   
 36  19  20  2   
 37  19  21  am  
 38  21  22  1   
 39  21  23  1   
 40  22  24  1   
 41  22  41  1   
 42  22  42  1   
 43  23  25  1   
 44  23  43  1   
 45  23  44  1   
 46  24  25  1   
 47  24  45  1   
 48  24  46  1   
 49  25  47  1   
 50  25  48  1   
@<TRIPOS>SUBSTRUCTURE
  1 ****  14 GROUP 4 **** **** 0

# MOE 2024.06 (io_trps.svl 2023.06)
