@<TRIPOS>MOLECULE
NONAME
51 53 1 0 0 
SMALL
USER_CHARGES


@<TRIPOS>ATOM
  1 O       -0.7560     1.0150     2.1560 O.2   1 <1>  -0.5700 
  2 C       -1.5200     1.5420     1.3680 C.2   1 <1>   0.7160 
  3 N       -2.8190     1.0740     1.2770 N.am  1 <1>  -0.6600 
  4 C       -1.0520     2.6490     0.5700 C.2   1 <1>  -0.0860 
  5 C       -3.9030     1.9000     0.6640 C.3   1 <1>   0.2200 
  6 C       -3.1900    -0.1760     2.0100 C.3   1 <1>   0.0600 
  7 C       -0.9150     2.7630    -0.7800 C.2   1 <1>  -0.0400 
  8 C       -0.6260     3.8970     1.0660 C.2   1 <1>  -0.1500 
  9 C       -5.0270     2.2500     1.6400 C.3   1 <1>  -0.1600 
 10 C       -4.6070     1.2090    -0.5040 C.3   1 <1>  -0.1600 
 11 O       -0.4790     3.9530    -1.1110 O.3   1 <1>  -0.2800 
 12 C       -1.1600     1.7570    -1.8840 C.3   1 <1>  -0.0600 
 13 C       -0.2970     4.6430    -0.0070 C.2   1 <1>  -0.0400 
 14 C       -6.2220     2.5940     0.7410 C.3   1 <1>  -0.0800 
 15 C       -5.9640     1.9190    -0.6110 C.3   1 <1>  -0.0800 
 16 C        0.2240     6.0590    -0.1130 C.3   1 <1>  -0.0600 
 17 C       -7.5820     2.0650     1.2230 C.3   1 <1>  -0.1600 
 18 C       -7.1710     1.0020    -0.8570 C.3   1 <1>  -0.1600 
 19 C       -8.3180     1.6080    -0.0410 C.3   1 <1>   0.4230 
 20 N       -8.9270     2.7770    -0.7550 N.4   1 <1>  -0.9590 
 21 C       -9.9760     3.4710     0.0620 C.3   1 <1>   0.2630 
 22 C       -9.5320     2.4020    -2.0750 C.3   1 <1>   0.2630 
 23 H       -3.5020     2.8300     0.2970 H     1 <1>   0.0800 
 24 H       -4.0810    -0.6190     1.6060 H     1 <1>   0.0800 
 25 H       -3.3480     0.0520     3.0500 H     1 <1>   0.0800 
 26 H       -2.3900    -0.8940     1.9380 H     1 <1>   0.0800 
 27 H       -0.5850     4.1550     2.1090 H     1 <1>   0.1500 
 28 H       -5.2600     1.4070     2.2630 H     1 <1>   0.0800 
 29 H       -4.7490     3.0810     2.2640 H     1 <1>   0.0800 
 30 H       -4.0420     1.3150    -1.4120 H     1 <1>   0.0800 
 31 H       -4.7390     0.1640    -0.2960 H     1 <1>   0.0800 
 32 H       -1.5000     0.8230    -1.4750 H     1 <1>   0.0800 
 33 H       -0.2460     1.5870    -2.4230 H     1 <1>   0.0800 
 34 H       -1.8980     2.1380    -2.5660 H     1 <1>   0.0800 
 35 H       -6.2640     3.6610     0.5950 H     1 <1>   0.0800 
 36 H       -5.9100     2.6790    -1.3740 H     1 <1>   0.0800 
 37 H        0.3250     6.4920     0.8650 H     1 <1>   0.0800 
 38 H       -0.4570     6.6530    -0.6930 H     1 <1>   0.0800 
 39 H        1.1840     6.0550    -0.5960 H     1 <1>   0.0800 
 40 H       -8.1090     2.7820     1.8220 H     1 <1>   0.0800 
 41 H       -7.4310     1.1910     1.8330 H     1 <1>   0.0800 
 42 H       -6.9690     0.0290    -0.4450 H     1 <1>   0.0800 
 43 H       -7.3770     0.8670    -1.9020 H     1 <1>   0.0800 
 44 H       -9.0730     0.8710     0.1860 H     1 <1>   0.0800 
 45 H       -8.1570     3.4390    -0.9260 H     1 <1>   0.4500 
 46 H      -10.7550     2.7780     0.3360 H     1 <1>   0.0800 
 47 H      -10.4150     4.2770    -0.5020 H     1 <1>   0.0800 
 48 H       -9.5500     3.8850     0.9600 H     1 <1>   0.0800 
 49 H      -10.2800     1.6370    -1.9400 H     1 <1>   0.0800 
 50 H       -8.7780     2.0340    -2.7510 H     1 <1>   0.0800 
 51 H       -9.9970     3.2610    -2.5300 H     1 <1>   0.0800 
@<TRIPOS>BOND
  1   1   2  2   
  2   2   3  am  
  3   2   4  1   
  4   3   5  1   
  5   3   6  1   
  6   4   7  2   
  7   4   8  1   
  8   5   9  1   
  9   5  10  1   
 10   5  23  1   
 11   6  24  1   
 12   6  25  1   
 13   6  26  1   
 14   7  11  1   
 15   7  12  1   
 16   8  13  2   
 17   8  27  1   
 18   9  14  1   
 19   9  28  1   
 20   9  29  1   
 21  10  15  1   
 22  10  30  1   
 23  10  31  1   
 24  11  13  1   
 25  12  32  1   
 26  12  33  1   
 27  12  34  1   
 28  13  16  1   
 29  14  15  1   
 30  14  17  1   
 31  14  35  1   
 32  15  18  1   
 33  15  36  1   
 34  16  37  1   
 35  16  38  1   
 36  16  39  1   
 37  17  19  1   
 38  17  40  1   
 39  17  41  1   
 40  18  19  1   
 41  18  42  1   
 42  18  43  1   
 43  19  20  1   
 44  19  44  1   
 45  20  21  1   
 46  20  22  1   
 47  20  45  1   
 48  21  46  1   
 49  21  47  1   
 50  21  48  1   
 51  22  49  1   
 52  22  50  1   
 53  22  51  1   
@<TRIPOS>SUBSTRUCTURE
  1 ****   5 GROUP 4 **** **** 0

# MOE 2024.06 (io_trps.svl 2023.06)
