@<TRIPOS>MOLECULE
NONAME
49 52 1 0 0 
SMALL
USER_CHARGES


@<TRIPOS>ATOM
  1 O       -0.6750     0.9100     0.1200 O.2   1 <1>  -0.5700 
  2 C       -1.8300     1.2380    -0.0500 C.2   1 <1>   0.5440 
  3 N       -2.0430     2.5600    -0.2520 N.am  1 <1>  -0.8000 
  4 C       -2.9000     0.2660    -0.0560 C.ar  1 <1>   0.0860 
  5 C       -4.2210     0.6220     0.2120 C.ar  1 <1>   0.1600 
  6 C       -2.6670    -1.0790    -0.3280 C.ar  1 <1>  -0.1500 
  7 N       -5.2660    -0.1840     0.2060 N.ar  1 <1>  -0.6200 
  8 C       -3.7410    -1.9360    -0.3340 C.ar  1 <1>  -0.1500 
  9 C       -5.0250    -1.4610    -0.0760 C.ar  1 <1>   0.4100 
 10 N       -6.1010    -2.3210    -0.1100 N.pl3 1 <1>  -0.8380 
 11 C       -6.3970    -3.0610    -1.3630 C.3   1 <1>   0.2090 
 12 C       -7.3180    -2.0200     0.6900 C.3   1 <1>   0.2090 
 13 C       -7.0590    -4.3920    -1.0090 C.3   1 <1>  -0.1600 
 14 C       -8.0010    -3.3330     1.0700 C.3   1 <1>  -0.1600 
 15 C       -8.3270    -4.1850    -0.1680 C.3   1 <1>   0.4240 
 16 O       -9.2000    -3.4490    -0.9940 O.3   1 <1>  -0.5600 
 17 C       -8.9360    -5.5460     0.2350 C.ar  1 <1>  -0.1440 
 18 C      -10.5590    -3.4870    -0.6900 C.3   1 <1>   0.1200 
 19 C      -10.2370    -5.8890    -0.1250 C.ar  1 <1>  -0.1440 
 20 C       -8.1930    -6.4590     0.9760 C.ar  1 <1>  -0.1500 
 21 C      -11.0730    -4.9050    -0.9190 C.3   1 <1>  -0.0170 
 22 C      -10.7720    -7.1150     0.2370 C.ar  1 <1>  -0.1500 
 23 C       -8.7280    -7.6810     1.3400 C.ar  1 <1>  -0.1500 
 24 C      -10.0170    -8.0210     0.9740 C.ar  1 <1>   0.0830 
 25 O      -10.4660    -9.2390     1.3680 O.3   1 <1>  -0.3630 
 26 C      -11.7570    -9.6900     1.0270 C.3   1 <1>   0.0400 
 27 H       -1.2280     3.1770    -0.2700 H     1 <1>   0.3700 
 28 H       -2.9160     2.9590    -0.5920 H     1 <1>   0.3700 
 29 H       -4.4250     1.6500     0.4540 H     1 <1>   0.1500 
 30 H       -1.6670    -1.4270    -0.5240 H     1 <1>   0.1500 
 31 H       -3.6070    -2.9820    -0.5290 H     1 <1>   0.1500 
 32 H       -5.4940    -3.2380    -1.9200 H     1 <1>   0.0800 
 33 H       -7.0580    -2.4700    -1.9760 H     1 <1>   0.0800 
 34 H       -7.9830    -1.4020     0.1100 H     1 <1>   0.0800 
 35 H       -7.0460    -1.4820     1.5830 H     1 <1>   0.0800 
 36 H       -6.3460    -4.9850    -0.4690 H     1 <1>   0.0800 
 37 H       -7.3160    -4.9240    -1.9060 H     1 <1>   0.0800 
 38 H       -8.8930    -3.1350     1.6320 H     1 <1>   0.0800 
 39 H       -7.3350    -3.8750     1.7140 H     1 <1>   0.0800 
 40 H      -11.0610    -2.7940    -1.3410 H     1 <1>   0.0800 
 41 H      -10.7040    -3.1800     0.3310 H     1 <1>   0.0800 
 42 H       -7.1880    -6.2260     1.2800 H     1 <1>   0.1500 
 43 H      -11.0140    -5.1410    -1.9660 H     1 <1>   0.0800 
 44 H      -12.1020    -4.9600    -0.6150 H     1 <1>   0.0800 
 45 H      -11.7760    -7.3510    -0.0600 H     1 <1>   0.1500 
 46 H       -8.1470    -8.3810     1.9120 H     1 <1>   0.1500 
 47 H      -11.8850   -10.6760     1.4360 H     1 <1>   0.0800 
 48 H      -11.8440    -9.7250    -0.0440 H     1 <1>   0.0800 
 49 H      -12.4840    -9.0210     1.4530 H     1 <1>   0.0800 
@<TRIPOS>BOND
  1   1   2  2   
  2   2   3  am  
  3   2   4  1   
  4   3  27  1   
  5   3  28  1   
  6   4   5  ar  
  7   4   6  ar  
  8   5   7  ar  
  9   5  29  1   
 10   6   8  ar  
 11   6  30  1   
 12   7   9  ar  
 13   8   9  ar  
 14   8  31  1   
 15   9  10  1   
 16  10  11  1   
 17  10  12  1   
 18  11  13  1   
 19  11  32  1   
 20  11  33  1   
 21  12  14  1   
 22  12  34  1   
 23  12  35  1   
 24  13  15  1   
 25  13  36  1   
 26  13  37  1   
 27  14  15  1   
 28  14  38  1   
 29  14  39  1   
 30  15  16  1   
 31  15  17  1   
 32  16  18  1   
 33  17  19  ar  
 34  17  20  ar  
 35  18  21  1   
 36  18  40  1   
 37  18  41  1   
 38  19  21  1   
 39  19  22  ar  
 40  20  23  ar  
 41  20  42  1   
 42  21  43  1   
 43  21  44  1   
 44  22  24  ar  
 45  22  45  1   
 46  23  24  ar  
 47  23  46  1   
 48  24  25  1   
 49  25  26  1   
 50  26  47  1   
 51  26  48  1   
 52  26  49  1   
@<TRIPOS>SUBSTRUCTURE
  1 ****  14 GROUP 4 **** **** 0

# MOE 2024.06 (io_trps.svl 2023.06)
