@<TRIPOS>MOLECULE
NONAME
49 51 1 0 0 
SMALL
USER_CHARGES


@<TRIPOS>ATOM
  1 CL      -2.3880    -0.9020    -2.7480 Cl    1 <1>  -0.1770 
  2 C       -2.5670     0.1900    -1.3950 C.ar  1 <1>   0.1770 
  3 C       -3.0100    -0.2730    -0.1560 C.ar  1 <1>   0.0860 
  4 C       -2.2430     1.5170    -1.6060 C.ar  1 <1>  -0.1500 
  5 C       -3.3720    -1.6550     0.0780 C.2   1 <1>   0.5440 
  6 C       -3.0910     0.6610     0.8770 C.ar  1 <1>  -0.1500 
  7 C       -2.3470     2.4230    -0.5660 C.ar  1 <1>  -0.1500 
  8 O       -2.9110    -2.2520     1.0340 O.2   1 <1>  -0.5700 
  9 N       -4.2860    -2.3280    -0.7040 N.am  1 <1>  -0.6600 
 10 C       -2.7700     1.9950     0.6820 C.ar  1 <1>  -0.1430 
 11 C       -4.3930    -3.8060    -0.6280 C.3   1 <1>   0.1400 
 12 C       -5.4770    -1.6600    -1.2920 C.3   1 <1>   0.1400 
 13 C       -2.8700     2.9910     1.8230 C.3   1 <1>  -0.0970 
 14 C       -5.5880    -4.1660     0.2790 C.3   1 <1>   0.4230 
 15 C       -6.6910    -2.0020    -0.4170 C.3   1 <1>  -0.1600 
 16 N       -5.6880    -5.6490     0.6100 N.4   1 <1>  -0.9590 
 17 C       -6.9200    -3.5330    -0.2290 C.3   1 <1>   0.0000 
 18 C       -7.0310    -6.0720     1.1230 C.3   1 <1>   0.3430 
 19 C       -5.2310    -6.5840    -0.4710 C.3   1 <1>   0.2630 
 20 C       -8.0290    -3.7450     0.8440 C.3   1 <1>  -0.1600 
 21 C       -7.3390    -4.1810    -1.5800 C.3   1 <1>   0.1200 
 22 C       -7.7450    -4.9110     1.8120 C.3   1 <1>  -0.1600 
 23 O       -8.4120    -3.5220    -2.1560 O.3   1 <1>  -0.6800 
 24 H       -1.9090     1.8370    -2.5770 H     1 <1>   0.1500 
 25 H       -3.4100     0.3230     1.8480 H     1 <1>   0.1500 
 26 H       -2.0930     3.4570    -0.7280 H     1 <1>   0.1500 
 27 H       -4.5150    -4.1920    -1.6220 H     1 <1>   0.0800 
 28 H       -3.4850    -4.2130    -0.2170 H     1 <1>   0.0800 
 29 H       -5.3400    -0.5920    -1.3200 H     1 <1>   0.0800 
 30 H       -5.6230    -2.0000    -2.3040 H     1 <1>   0.0800 
 31 H       -3.4280     3.8560     1.5120 H     1 <1>   0.0800 
 32 H       -1.8850     3.3040     2.1210 H     1 <1>   0.0800 
 33 H       -3.3630     2.5550     2.6740 H     1 <1>   0.0800 
 34 H       -5.3790    -3.6660     1.2120 H     1 <1>   0.0800 
 35 H       -6.5310    -1.5380     0.5420 H     1 <1>   0.0800 
 36 H       -7.5630    -1.5350    -0.8390 H     1 <1>   0.0800 
 37 H       -5.0330    -5.7690     1.3980 H     1 <1>   0.4500 
 38 H       -7.6440    -6.4110     0.3030 H     1 <1>   0.0800 
 39 H       -6.9170    -6.8930     1.8130 H     1 <1>   0.0800 
 40 H       -5.8440    -6.4740    -1.3500 H     1 <1>   0.0800 
 41 H       -5.2960    -7.6050    -0.1320 H     1 <1>   0.0800 
 42 H       -4.2060    -6.3820    -0.7370 H     1 <1>   0.0800 
 43 H       -8.1520    -2.8570     1.4420 H     1 <1>   0.0800 
 44 H       -8.9790    -3.9130     0.3670 H     1 <1>   0.0800 
 45 H       -7.6270    -5.2090    -1.4520 H     1 <1>   0.0800 
 46 H       -6.5410    -4.1400    -2.3000 H     1 <1>   0.0800 
 47 H       -8.6770    -5.2610     2.2230 H     1 <1>   0.0800 
 48 H       -7.1460    -4.5700     2.6390 H     1 <1>   0.0800 
 49 H       -9.2110    -3.5500    -1.5930 H     1 <1>   0.4000 
@<TRIPOS>BOND
  1   1   2  1   
  2   2   3  ar  
  3   2   4  ar  
  4   3   5  1   
  5   3   6  ar  
  6   4   7  ar  
  7   4  24  1   
  8   5   8  2   
  9   5   9  am  
 10   6  10  ar  
 11   6  25  1   
 12   7  10  ar  
 13   7  26  1   
 14   9  11  1   
 15   9  12  1   
 16  10  13  1   
 17  11  14  1   
 18  11  27  1   
 19  11  28  1   
 20  12  15  1   
 21  12  29  1   
 22  12  30  1   
 23  13  31  1   
 24  13  32  1   
 25  13  33  1   
 26  14  16  1   
 27  14  17  1   
 28  14  34  1   
 29  15  17  1   
 30  15  35  1   
 31  15  36  1   
 32  16  18  1   
 33  16  19  1   
 34  16  37  1   
 35  17  20  1   
 36  17  21  1   
 37  18  22  1   
 38  18  38  1   
 39  18  39  1   
 40  19  40  1   
 41  19  41  1   
 42  19  42  1   
 43  20  22  1   
 44  20  43  1   
 45  20  44  1   
 46  21  23  1   
 47  21  45  1   
 48  21  46  1   
 49  22  47  1   
 50  22  48  1   
 51  23  49  1   
@<TRIPOS>SUBSTRUCTURE
  1 ****   9 GROUP 4 **** **** 0

# MOE 2024.06 (io_trps.svl 2023.06)
