@<TRIPOS>MOLECULE
NONAME
49 52 1 0 0 
SMALL
USER_CHARGES


@<TRIPOS>ATOM
  1 O        2.3600    -0.7220    -3.4440 O.2   1 <1>  -0.5700 
  2 C        2.3840    -1.3200    -2.3810 C.2   1 <1>   0.5440 
  3 N        2.8530    -0.6350    -1.2720 N.am  1 <1>  -0.6600 
  4 C        1.9400    -2.7110    -2.3500 C.ar  1 <1>   0.3960 
  5 C        2.8750     0.8560    -1.2130 C.3   1 <1>   0.1400 
  6 C        3.2070    -1.2550     0.0390 C.3   1 <1>   0.1400 
  7 N        1.1940    -3.1710    -1.3330 N.ar  1 <1>  -0.6200 
  8 C        2.3060    -3.5340    -3.4170 C.ar  1 <1>   0.1600 
  9 C        2.0240     1.3470    -0.0270 C.3   1 <1>   0.1200 
 10 C        2.3170    -0.6720     1.1460 C.3   1 <1>   0.1200 
 11 C        0.8600    -4.4480    -1.4360 C.ar  1 <1>   0.4100 
 12 N        1.9990    -4.8170    -3.5410 N.ar  1 <1>  -0.6200 
 13 O        2.4180     0.7260     1.1670 O.3   1 <1>  -0.5600 
 14 N        0.0900    -4.9600    -0.3940 N.pl3 1 <1>  -0.8380 
 15 C        1.2750    -5.2380    -2.5240 C.ar  1 <1>   0.1600 
 16 C       -0.5940    -4.0630     0.5840 C.3   1 <1>   0.2090 
 17 C       -0.6750    -6.2260    -0.5230 C.3   1 <1>   0.2090 
 18 C       -1.8140    -4.8430     1.0820 C.3   1 <1>   0.2000 
 19 C       -1.5480    -6.3030     0.7290 C.3   1 <1>  -0.0800 
 20 O       -1.9880    -4.7180     2.4540 O.3   1 <1>  -0.6800 
 21 C       -2.8420    -7.1140     0.5430 C.3   1 <1>  -0.0170 
 22 C       -2.5600    -8.5720     0.2140 C.ar  1 <1>   0.1670 
 23 N       -2.1860    -8.8390    -1.0280 N.ar  1 <1>  -0.6200 
 24 C       -2.7020    -9.5480     1.2000 C.ar  1 <1>   0.1600 
 25 C       -1.9730   -10.1310    -1.2160 C.ar  1 <1>   0.1600 
 26 N       -2.4830   -10.8390     1.0140 N.ar  1 <1>  -0.6200 
 27 C       -2.1160   -11.0980    -0.2290 C.ar  1 <1>   0.1600 
 28 H        3.8890     1.1940    -1.0920 H     1 <1>   0.0800 
 29 H        2.4900     1.2810    -2.1230 H     1 <1>   0.0800 
 30 H        3.1070    -2.3240     0.0120 H     1 <1>   0.0800 
 31 H        4.2350    -1.0330     0.2660 H     1 <1>   0.0800 
 32 H        2.8890    -3.0970    -4.2100 H     1 <1>   0.1500 
 33 H        0.9840     1.1330    -0.1990 H     1 <1>   0.0800 
 34 H        2.1430     2.4080     0.0990 H     1 <1>   0.0800 
 35 H        2.6290    -1.0380     2.1070 H     1 <1>   0.0800 
 36 H        1.2880    -0.9450     0.9860 H     1 <1>   0.0800 
 37 H        0.9860    -6.2710    -2.5370 H     1 <1>   0.1500 
 38 H        0.0830    -3.8410     1.3900 H     1 <1>   0.0800 
 39 H       -0.9100    -3.1490     0.1100 H     1 <1>   0.0800 
 40 H       -1.2870    -6.1870    -1.4090 H     1 <1>   0.0800 
 41 H       -0.0130    -7.0740    -0.5790 H     1 <1>   0.0800 
 42 H       -2.7000    -4.4750     0.5930 H     1 <1>   0.0800 
 43 H       -0.9490    -6.7540     1.5010 H     1 <1>   0.0800 
 44 H       -1.1830    -5.0080     2.9240 H     1 <1>   0.4000 
 45 H       -3.4320    -6.6880    -0.2500 H     1 <1>   0.0800 
 46 H       -3.4260    -7.0540     1.4450 H     1 <1>   0.0800 
 47 H       -3.0080    -9.2480     2.1870 H     1 <1>   0.1500 
 48 H       -1.6690   -10.4420    -2.2010 H     1 <1>   0.1500 
 49 H       -1.9180   -12.1250    -0.4790 H     1 <1>   0.1500 
@<TRIPOS>BOND
  1   1   2  2   
  2   2   3  am  
  3   2   4  1   
  4   3   5  1   
  5   3   6  1   
  6   4   7  ar  
  7   4   8  ar  
  8   5   9  1   
  9   5  28  1   
 10   5  29  1   
 11   6  10  1   
 12   6  30  1   
 13   6  31  1   
 14   7  11  ar  
 15   8  12  ar  
 16   8  32  1   
 17   9  13  1   
 18   9  33  1   
 19   9  34  1   
 20  10  13  1   
 21  10  35  1   
 22  10  36  1   
 23  11  14  1   
 24  11  15  ar  
 25  12  15  ar  
 26  14  16  1   
 27  14  17  1   
 28  15  37  1   
 29  16  18  1   
 30  16  38  1   
 31  16  39  1   
 32  17  19  1   
 33  17  40  1   
 34  17  41  1   
 35  18  19  1   
 36  18  20  1   
 37  18  42  1   
 38  19  21  1   
 39  19  43  1   
 40  20  44  1   
 41  21  22  1   
 42  21  45  1   
 43  21  46  1   
 44  22  23  ar  
 45  22  24  ar  
 46  23  25  ar  
 47  24  26  ar  
 48  24  47  1   
 49  25  27  ar  
 50  25  48  1   
 51  26  27  ar  
 52  27  49  1   
@<TRIPOS>SUBSTRUCTURE
  1 ****  14 GROUP 4 **** **** 0

# MOE 2024.06 (io_trps.svl 2023.06)
