@<TRIPOS>MOLECULE
NONAME
59 61 1 0 0 
SMALL
USER_CHARGES


@<TRIPOS>ATOM
  1 O        0.7110     0.4000     1.1490 O.2   1 <1>  -0.5700 
  2 C        1.8600     0.0890     0.9100 C.2   1 <1>   0.7150 
  3 N        2.7950     1.0580     1.0160 N.am  1 <1>  -0.8000 
  4 C        2.2080    -1.2620     0.5360 C.2   1 <1>   0.0550 
  5 O        3.4670    -1.6300     0.3410 O.3   1 <1>  -0.2800 
  6 C        1.4160    -2.3440     0.3240 C.2   1 <1>  -0.1500 
  7 C        3.5190    -2.9050     0.0120 C.2   1 <1>  -0.0400 
  8 C        2.2580    -3.4110    -0.0020 C.2   1 <1>  -0.1810 
  9 C        4.9200    -3.4850    -0.2590 C.3   1 <1>   0.1800 
 10 C        1.7420    -4.8020    -0.2870 C.3   1 <1>   0.5240 
 11 C        4.8900    -4.9520    -0.7110 C.3   1 <1>  -0.2400 
 12 C        5.7570    -3.3900     1.0240 C.3   1 <1>  -0.2400 
 13 C        5.5980    -2.6620    -1.3640 C.3   1 <1>  -0.2400 
 14 N        1.7430    -5.5530     0.9970 N.4   1 <1>  -0.9590 
 15 C        1.7980    -7.0420     0.8110 C.3   1 <1>   0.3430 
 16 C        0.6470    -5.1040     1.9160 C.3   1 <1>   0.2630 
 17 C        0.4760    -7.6940     0.3660 C.3   1 <1>  -0.0800 
 18 C        0.6500    -9.2080     0.2550 C.3   1 <1>   0.2090 
 19 C       -0.0490    -7.2820    -1.0140 C.3   1 <1>  -0.1600 
 20 N       -0.2650    -9.6380    -0.8190 N.pl3 1 <1>  -0.8380 
 21 C       -0.8790    -8.4690    -1.4820 C.3   1 <1>   0.2090 
 22 C       -1.1120   -10.7050    -0.5320 C.ar  1 <1>   0.1000 
 23 C       -0.9530   -11.9020    -1.2150 C.ar  1 <1>  -0.1500 
 24 C       -2.1170   -10.6110     0.4250 C.ar  1 <1>  -0.1500 
 25 C       -1.7750   -12.9830    -0.9520 C.ar  1 <1>  -0.1500 
 26 C       -2.9420   -11.6890     0.6920 C.ar  1 <1>  -0.1500 
 27 C       -2.7710   -12.8780     0.0030 C.ar  1 <1>  -0.1500 
 28 H        2.5160     2.0040     1.2710 H     1 <1>   0.3700 
 29 H        3.7790     0.8830     0.8180 H     1 <1>   0.3700 
 30 H        0.3410    -2.3570     0.3940 H     1 <1>   0.1500 
 31 H        2.3830    -5.2870    -1.0030 H     1 <1>   0.0800 
 32 H        0.7480    -4.7500    -0.7000 H     1 <1>   0.0800 
 33 H        4.4640    -5.5800     0.0470 H     1 <1>   0.0800 
 34 H        5.8920    -5.2980    -0.8970 H     1 <1>   0.0800 
 35 H        4.3370    -5.0520    -1.6280 H     1 <1>   0.0800 
 36 H        5.2970    -3.9470     1.8190 H     1 <1>   0.0800 
 37 H        5.8450    -2.3650     1.3390 H     1 <1>   0.0800 
 38 H        6.7480    -3.7750     0.8620 H     1 <1>   0.0800 
 39 H        5.0130    -2.6920    -2.2660 H     1 <1>   0.0800 
 40 H        6.5800    -3.0440    -1.5790 H     1 <1>   0.0800 
 41 H        5.6970    -1.6340    -1.0640 H     1 <1>   0.0800 
 42 H        2.6270    -5.2630     1.4410 H     1 <1>   0.4500 
 43 H        2.0900    -7.4940     1.7460 H     1 <1>   0.0800 
 44 H        2.5620    -7.2830     0.0890 H     1 <1>   0.0800 
 45 H       -0.3170    -5.2770     1.4660 H     1 <1>   0.0800 
 46 H        0.7440    -4.0510     2.1280 H     1 <1>   0.0800 
 47 H        0.6950    -5.6430     2.8480 H     1 <1>   0.0800 
 48 H       -0.2880    -7.5300     1.1050 H     1 <1>   0.0800 
 49 H        0.4200    -9.7060     1.1840 H     1 <1>   0.0800 
 50 H        1.6520    -9.4690    -0.0410 H     1 <1>   0.0800 
 51 H        0.7610    -7.1550    -1.7100 H     1 <1>   0.0800 
 52 H       -0.6500    -6.3900    -0.9880 H     1 <1>   0.0800 
 53 H       -0.8410    -8.5840    -2.5530 H     1 <1>   0.0800 
 54 H       -1.9060    -8.3670    -1.1730 H     1 <1>   0.0800 
 55 H       -0.1780   -11.9750    -1.9560 H     1 <1>   0.1500 
 56 H       -2.2540    -9.6910     0.9590 H     1 <1>   0.1500 
 57 H       -1.6390   -13.9050    -1.4900 H     1 <1>   0.1500 
 58 H       -3.7170   -11.6070     1.4340 H     1 <1>   0.1500 
 59 H       -3.4110   -13.7180     0.2090 H     1 <1>   0.1500 
@<TRIPOS>BOND
  1   1   2  2   
  2   2   3  am  
  3   2   4  1   
  4   3  28  1   
  5   3  29  1   
  6   4   5  1   
  7   4   6  2   
  8   5   7  1   
  9   6   8  1   
 10   6  30  1   
 11   7   8  2   
 12   7   9  1   
 13   8  10  1   
 14   9  11  1   
 15   9  12  1   
 16   9  13  1   
 17  10  14  1   
 18  10  31  1   
 19  10  32  1   
 20  11  33  1   
 21  11  34  1   
 22  11  35  1   
 23  12  36  1   
 24  12  37  1   
 25  12  38  1   
 26  13  39  1   
 27  13  40  1   
 28  13  41  1   
 29  14  15  1   
 30  14  16  1   
 31  14  42  1   
 32  15  17  1   
 33  15  43  1   
 34  15  44  1   
 35  16  45  1   
 36  16  46  1   
 37  16  47  1   
 38  17  18  1   
 39  17  19  1   
 40  17  48  1   
 41  18  20  1   
 42  18  49  1   
 43  18  50  1   
 44  19  21  1   
 45  19  51  1   
 46  19  52  1   
 47  20  21  1   
 48  20  22  1   
 49  21  53  1   
 50  21  54  1   
 51  22  23  ar  
 52  22  24  ar  
 53  23  25  ar  
 54  23  55  1   
 55  24  26  ar  
 56  24  56  1   
 57  25  27  ar  
 58  25  57  1   
 59  26  27  ar  
 60  26  58  1   
 61  27  59  1   
@<TRIPOS>SUBSTRUCTURE
  1 ****  14 GROUP 4 **** **** 0

# MOE 2024.06 (io_trps.svl 2023.06)
