@<TRIPOS>MOLECULE
NONAME
36 37 1 0 0 
SMALL
USER_CHARGES


@<TRIPOS>ATOM
  1 O       -2.7180     0.8230    -1.6940 O.2   1 <1>  -0.5700 
  2 C       -2.4440     0.6390    -0.5340 C.2   1 <1>   0.5690 
  3 N       -2.2480    -0.6030    -0.0330 N.am  1 <1>  -0.7300 
  4 C       -2.3170     1.8290     0.3860 C.3   1 <1>  -0.0990 
  5 C       -2.2920    -1.8540    -0.8260 C.3   1 <1>   0.2200 
  6 C       -0.9540     2.4850     0.1910 C.3   1 <1>   0.1200 
  7 C       -3.5670    -2.6400    -0.5540 C.3   1 <1>  -0.0800 
  8 C       -1.2500    -2.8180    -0.2770 C.3   1 <1>   0.1200 
  9 O       -0.8460     3.5470     1.0710 O.3   1 <1>  -0.6800 
 10 C       -3.2210    -3.4360     0.7100 C.3   1 <1>   0.1200 
 11 C       -4.8610    -1.8100    -0.4480 C.3   1 <1>  -0.0170 
 12 O       -1.8330    -3.3640     0.8660 O.3   1 <1>  -0.5600 
 13 C       -6.0720    -2.7140    -0.2790 C.ar  1 <1>  -0.1440 
 14 C       -6.6710    -3.3310    -1.3580 C.ar  1 <1>  -0.1500 
 15 C       -6.6340    -2.9670     0.9570 C.ar  1 <1>  -0.1500 
 16 C       -7.7680    -4.1510    -1.1550 C.ar  1 <1>   0.1600 
 17 C       -7.7320    -3.8050     1.0500 C.ar  1 <1>   0.1600 
 18 N       -8.3120    -4.4060     0.0240 N.ar  1 <1>  -0.6200 
 19 H       -2.0300    -0.7490     0.9560 H     1 <1>   0.3700 
 20 H       -3.0980     2.5260     0.1470 H     1 <1>   0.0800 
 21 H       -2.4280     1.5100     1.4050 H     1 <1>   0.0800 
 22 H       -2.1460    -1.6460    -1.8730 H     1 <1>   0.0800 
 23 H       -0.8370     2.8550    -0.8140 H     1 <1>   0.0800 
 24 H       -0.1610     1.7900     0.4110 H     1 <1>   0.0800 
 25 H       -3.6910    -3.3480    -1.3540 H     1 <1>   0.0800 
 26 H       -0.3240    -2.3340    -0.0200 H     1 <1>   0.0800 
 27 H       -1.0650    -3.6200    -0.9710 H     1 <1>   0.0800 
 28 H       -1.4560     4.2680     0.8210 H     1 <1>   0.4000 
 29 H       -3.5120    -4.4690     0.6220 H     1 <1>   0.0800 
 30 H       -3.6690    -3.0060     1.5890 H     1 <1>   0.0800 
 31 H       -4.9790    -1.2190    -1.3400 H     1 <1>   0.0800 
 32 H       -4.8050    -1.1300     0.3840 H     1 <1>   0.0800 
 33 H       -6.2970    -3.1800    -2.3540 H     1 <1>   0.1500 
 34 H       -6.2300    -2.5220     1.8470 H     1 <1>   0.1500 
 35 H       -8.2230    -4.6240    -2.0100 H     1 <1>   0.1500 
 36 H       -8.1570    -3.9920     2.0220 H     1 <1>   0.1500 
@<TRIPOS>BOND
  1   1   2  2   
  2   2   3  am  
  3   2   4  1   
  4   3   5  1   
  5   3  19  1   
  6   4   6  1   
  7   4  20  1   
  8   4  21  1   
  9   5   7  1   
 10   5   8  1   
 11   5  22  1   
 12   6   9  1   
 13   6  23  1   
 14   6  24  1   
 15   7  10  1   
 16   7  11  1   
 17   7  25  1   
 18   8  12  1   
 19   8  26  1   
 20   8  27  1   
 21   9  28  1   
 22  10  12  1   
 23  10  29  1   
 24  10  30  1   
 25  11  13  1   
 26  11  31  1   
 27  11  32  1   
 28  13  14  ar  
 29  13  15  ar  
 30  14  16  ar  
 31  14  33  1   
 32  15  17  ar  
 33  15  34  1   
 34  16  18  ar  
 35  16  35  1   
 36  17  18  ar  
 37  17  36  1   
@<TRIPOS>SUBSTRUCTURE
  1 ****  11 GROUP 4 **** **** 0

# MOE 2024.06 (io_trps.svl 2023.06)
