@<TRIPOS>MOLECULE
NONAME
51 53 1 0 0 
SMALL
USER_CHARGES


@<TRIPOS>ATOM
  1 O       -0.7460    -0.3560     0.0730 O.2   1 <1>  -0.5700 
  2 C       -1.6760     0.4260     0.0380 C.2   1 <1>   0.7160 
  3 N       -2.8920    -0.0230     0.4500 N.am  1 <1>  -0.7300 
  4 C       -1.5250     1.7700    -0.4370 C.2   1 <1>  -0.0860 
  5 C       -3.2180    -1.3900     0.9140 C.3   1 <1>   0.1400 
  6 C       -2.5650     2.6870    -0.6530 C.2   1 <1>   0.3720 
  7 C       -0.4170     2.4670    -0.8170 C.2   1 <1>   0.0870 
  8 C       -3.3750    -2.3280    -0.2860 C.3   1 <1>   0.1400 
  9 N       -2.1200     3.7970    -1.1230 N.2   1 <1>  -0.4100 
 10 N       -3.9280     2.4620    -0.3990 N.pl3 1 <1>  -0.8210 
 11 O       -0.8270     3.6450    -1.2170 O.3   1 <1>  -0.0190 
 12 C        0.9930     2.1720    -0.8530 C.ar  1 <1>   0.0530 
 13 N       -3.8410    -3.6610     0.1680 N.am  1 <1>  -0.7300 
 14 C       -4.4730     3.3070     0.7010 C.3   1 <1>   0.2090 
 15 C       -4.7990     2.6350    -1.5980 C.3   1 <1>   0.2090 
 16 C        1.6360     1.4840     0.1770 C.ar  1 <1>  -0.1500 
 17 C        1.7760     2.5900    -1.9290 C.ar  1 <1>  -0.1500 
 18 C       -5.0710    -4.2120     0.0710 C.2   1 <1>   0.5690 
 19 C       -5.8750     3.7050     0.2630 C.3   1 <1>  -0.1600 
 20 C       -5.7830     3.7450    -1.2540 C.3   1 <1>  -0.1600 
 21 C        2.9910     1.2140     0.1340 C.ar  1 <1>  -0.1500 
 22 C        3.1320     2.3260    -1.9790 C.ar  1 <1>  -0.1500 
 23 O       -5.2710    -5.3140     0.5080 O.2   1 <1>  -0.5700 
 24 C       -6.2090    -3.4600    -0.5730 C.3   1 <1>  -0.1790 
 25 C        3.7530     1.6360    -0.9510 C.ar  1 <1>   0.0830 
 26 O        5.0830     1.4140    -1.0740 O.3   1 <1>  -0.3620 
 27 C        5.8000     0.6860    -0.1020 C.3   1 <1>   0.0400 
 28 H       -3.6660     0.6470     0.3160 H     1 <1>   0.3700 
 29 H       -4.1330    -1.3600     1.4800 H     1 <1>   0.0800 
 30 H       -2.4250    -1.7480     1.5490 H     1 <1>   0.0800 
 31 H       -2.4260    -2.4380    -0.7830 H     1 <1>   0.0800 
 32 H       -4.0790    -1.9090    -0.9820 H     1 <1>   0.0800 
 33 H       -3.1360    -4.2560     0.6110 H     1 <1>   0.3700 
 34 H       -3.8680     4.1900     0.8280 H     1 <1>   0.0800 
 35 H       -4.4950     2.7590     1.6270 H     1 <1>   0.0800 
 36 H       -5.3290     1.7160    -1.7760 H     1 <1>   0.0800 
 37 H       -4.2290     2.8860    -2.4790 H     1 <1>   0.0800 
 38 H        1.0640     1.1560     1.0260 H     1 <1>   0.1500 
 39 H        1.3130     3.1270    -2.7380 H     1 <1>   0.1500 
 40 H       -6.1710     4.6500     0.6820 H     1 <1>   0.0800 
 41 H       -6.5710     2.9450     0.5730 H     1 <1>   0.0800 
 42 H       -6.7360     3.6010    -1.7310 H     1 <1>   0.0800 
 43 H       -5.3680     4.6860    -1.5710 H     1 <1>   0.0800 
 44 H        3.4340     0.6770     0.9500 H     1 <1>   0.1500 
 45 H        3.7220     2.6540    -2.8160 H     1 <1>   0.1500 
 46 H       -6.3530    -2.5190    -0.0790 H     1 <1>   0.0800 
 47 H       -7.1130    -4.0360    -0.4920 H     1 <1>   0.0800 
 48 H       -5.9940    -3.2980    -1.6120 H     1 <1>   0.0800 
 49 H        6.8260     0.6280    -0.4180 H     1 <1>   0.0800 
 50 H        5.3830    -0.3020    -0.0280 H     1 <1>   0.0800 
 51 H        5.7360     1.2040     0.8390 H     1 <1>   0.0800 
@<TRIPOS>BOND
  1   1   2  2   
  2   2   3  am  
  3   2   4  1   
  4   3   5  1   
  5   3  28  1   
  6   4   6  1   
  7   4   7  2   
  8   5   8  1   
  9   5  29  1   
 10   5  30  1   
 11   6   9  2   
 12   6  10  1   
 13   7  11  1   
 14   7  12  1   
 15   8  13  1   
 16   8  31  1   
 17   8  32  1   
 18   9  11  1   
 19  10  14  1   
 20  10  15  1   
 21  12  16  ar  
 22  12  17  ar  
 23  13  18  am  
 24  13  33  1   
 25  14  19  1   
 26  14  34  1   
 27  14  35  1   
 28  15  20  1   
 29  15  36  1   
 30  15  37  1   
 31  16  21  ar  
 32  16  38  1   
 33  17  22  ar  
 34  17  39  1   
 35  18  23  2   
 36  18  24  1   
 37  19  20  1   
 38  19  40  1   
 39  19  41  1   
 40  20  42  1   
 41  20  43  1   
 42  21  25  ar  
 43  21  44  1   
 44  22  25  ar  
 45  22  45  1   
 46  24  46  1   
 47  24  47  1   
 48  24  48  1   
 49  25  26  1   
 50  26  27  1   
 51  27  49  1   
 52  27  50  1   
 53  27  51  1   
@<TRIPOS>SUBSTRUCTURE
  1 ****   2 GROUP 4 **** **** 0

# MOE 2024.06 (io_trps.svl 2023.06)
