@<TRIPOS>MOLECULE
NONAME
50 52 1 0 0 
SMALL
USER_CHARGES


@<TRIPOS>ATOM
  1 CL       4.5950     2.7960    -2.1120 Cl    1 <1>  -0.1770 
  2 C        4.8400     1.1560    -1.5490 C.ar  1 <1>   0.1770 
  3 C        4.7300     0.8250    -0.1950 C.ar  1 <1>   0.0860 
  4 C        5.1370     0.2090    -2.5110 C.ar  1 <1>  -0.1500 
  5 C        4.4340     1.7880     0.8460 C.2   1 <1>   0.5440 
  6 C        4.9260    -0.5130     0.1390 C.ar  1 <1>  -0.1500 
  7 C        5.3300    -1.1080    -2.1410 C.ar  1 <1>  -0.1500 
  8 O        3.6770     1.5050     1.7530 O.2   1 <1>  -0.5700 
  9 N        5.0230     3.0170     0.8570 N.am  1 <1>  -0.7300 
 10 C        5.2270    -1.4840    -0.8070 C.ar  1 <1>   0.1000 
 11 C        4.8010     4.0900     1.8560 C.3   1 <1>   0.1400 
 12 N        5.4130    -2.8000    -0.3970 N.pl3 1 <1>  -0.8380 
 13 C        6.0990     4.8790     2.1320 C.3   1 <1>   0.2000 
 14 C        4.2340    -3.5440     0.1180 C.3   1 <1>   0.2090 
 15 C        6.4460    -3.6530    -1.0400 C.3   1 <1>   0.2090 
 16 O        6.7470     5.2060     0.9130 O.3   1 <1>  -0.3630 
 17 C        7.0970     4.0570     2.9510 C.3   1 <1>  -0.2400 
 18 C        4.7000    -4.5910     1.1330 C.3   1 <1>  -0.1600 
 19 C        6.9320    -4.7030    -0.0360 C.3   1 <1>  -0.1600 
 20 C        6.2040     6.0470    -0.0050 C.ar  1 <1>   0.0830 
 21 C        5.7670    -5.5240     0.5390 C.3   1 <1>  -0.1600 
 22 C        6.6760     5.9680    -1.3100 C.ar  1 <1>   0.1600 
 23 C        5.2110     6.9680     0.2870 C.ar  1 <1>  -0.1500 
 24 N        6.2440     6.7010    -2.3260 N.ar  1 <1>  -0.6200 
 25 C        4.7500     7.7390    -0.7610 C.ar  1 <1>  -0.1500 
 26 C        5.2890     7.5680    -2.0260 C.ar  1 <1>   0.1600 
 27 H        5.2120     0.5030    -3.5430 H     1 <1>   0.1500 
 28 H        4.8510    -0.8100     1.1690 H     1 <1>   0.1500 
 29 H        5.5530    -1.8480    -2.8870 H     1 <1>   0.1500 
 30 H        5.6130     3.3000     0.0690 H     1 <1>   0.3700 
 31 H        4.4340     3.6640     2.7750 H     1 <1>   0.0800 
 32 H        4.0440     4.7560     1.4840 H     1 <1>   0.0800 
 33 H        5.8830     5.7890     2.6630 H     1 <1>   0.0800 
 34 H        3.7320    -4.0250    -0.7040 H     1 <1>   0.0800 
 35 H        3.5430    -2.8630     0.5850 H     1 <1>   0.0800 
 36 H        7.2740    -3.0420    -1.3570 H     1 <1>   0.0800 
 37 H        6.0220    -4.1380    -1.9030 H     1 <1>   0.0800 
 38 H        7.3520     3.1500     2.4320 H     1 <1>   0.0800 
 39 H        6.6670     3.7950     3.9000 H     1 <1>   0.0800 
 40 H        7.9890     4.6300     3.1270 H     1 <1>   0.0800 
 41 H        3.8540    -5.1680     1.4610 H     1 <1>   0.0800 
 42 H        5.1020    -4.0800     1.9900 H     1 <1>   0.0800 
 43 H        7.4460    -4.1970     0.7630 H     1 <1>   0.0800 
 44 H        7.6350    -5.3570    -0.5180 H     1 <1>   0.0800 
 45 H        5.3270    -6.1170    -0.2440 H     1 <1>   0.0800 
 46 H        6.1320    -6.1910     1.3000 H     1 <1>   0.0800 
 47 H        7.4520     5.2540    -1.5190 H     1 <1>   0.1500 
 48 H        4.8070     7.0980     1.2720 H     1 <1>   0.1500 
 49 H        3.9780     8.4700    -0.6030 H     1 <1>   0.1500 
 50 H        4.9170     8.1760    -2.8330 H     1 <1>   0.1500 
@<TRIPOS>BOND
  1   1   2  1   
  2   2   3  ar  
  3   2   4  ar  
  4   3   5  1   
  5   3   6  ar  
  6   4   7  ar  
  7   4  27  1   
  8   5   8  2   
  9   5   9  am  
 10   6  10  ar  
 11   6  28  1   
 12   7  10  ar  
 13   7  29  1   
 14   9  11  1   
 15   9  30  1   
 16  10  12  1   
 17  11  13  1   
 18  11  31  1   
 19  11  32  1   
 20  12  14  1   
 21  12  15  1   
 22  13  16  1   
 23  13  17  1   
 24  13  33  1   
 25  14  18  1   
 26  14  34  1   
 27  14  35  1   
 28  15  19  1   
 29  15  36  1   
 30  15  37  1   
 31  16  20  1   
 32  17  38  1   
 33  17  39  1   
 34  17  40  1   
 35  18  21  1   
 36  18  41  1   
 37  18  42  1   
 38  19  21  1   
 39  19  43  1   
 40  19  44  1   
 41  20  22  ar  
 42  20  23  ar  
 43  21  45  1   
 44  21  46  1   
 45  22  24  ar  
 46  22  47  1   
 47  23  25  ar  
 48  23  48  1   
 49  24  26  ar  
 50  25  26  ar  
 51  25  49  1   
 52  26  50  1   
@<TRIPOS>SUBSTRUCTURE
  1 ****   3 GROUP 4 **** **** 0

# MOE 2024.06 (io_trps.svl 2023.06)
