@<TRIPOS>MOLECULE
NONAME
51 54 1 0 0 
SMALL
USER_CHARGES


@<TRIPOS>ATOM
  1 O        0.1350     0.7940    -1.5660 O.2   1 <1>  -0.5700 
  2 C        0.0840     1.9690    -1.2600 C.2   1 <1>   0.5440 
  3 N       -1.1180     2.6410    -1.3360 N.am  1 <1>  -0.6600 
  4 C        1.2860     2.6270    -0.8190 C.ar  1 <1>   0.0860 
  5 C       -2.3460     2.0060    -1.8960 C.3   1 <1>   0.1400 
  6 C       -1.3550     4.0060    -0.7840 C.3   1 <1>   0.1400 
  7 C        1.8950     2.3810     0.4000 C.ar  1 <1>   0.1660 
  8 C        1.9080     3.5690    -1.6100 C.ar  1 <1>   0.1600 
  9 C       -3.4110     1.9120    -0.8010 C.3   1 <1>  -0.1600 
 10 C       -2.4020     3.9190     0.3280 C.3   1 <1>  -0.1600 
 11 N        2.9810     3.0120     0.7820 N.ar  1 <1>  -0.6200 
 12 C        1.3300     1.3580     1.3710 C.3   1 <1>  -0.0970 
 13 N        2.9910     4.2160    -1.2490 N.ar  1 <1>  -0.6200 
 14 C       -3.7040     3.2770    -0.1730 C.3   1 <1>   0.4180 
 15 C        3.5070     3.9140    -0.0530 C.ar  1 <1>   0.6200 
 16 O       -4.2470     4.0730    -1.1990 O.3   1 <1>  -0.5600 
 17 C       -4.7070     3.1140     0.9650 C.2   1 <1>  -0.2880 
 18 C        4.7100     4.6120     0.3660 C.ar  1 <1>   0.0000 
 19 C       -4.9970     5.1940    -0.8210 C.3   1 <1>   0.1200 
 20 C       -5.8680     3.7680     1.0410 C.2   1 <1>  -0.2760 
 21 C        5.5220     4.1120     1.3880 C.ar  1 <1>   0.1600 
 22 C        5.1250     5.8060    -0.2190 C.ar  1 <1>  -0.1500 
 23 C       -6.2440     4.7710    -0.0340 C.3   1 <1>  -0.0220 
 24 C       -6.8910     3.5820     2.1470 C.3   1 <1>  -0.1020 
 25 N        6.6340     4.6650     1.8470 N.ar  1 <1>  -0.6200 
 26 C        6.2790     6.4000     0.2420 C.ar  1 <1>  -0.1500 
 27 C        6.9880     5.7970     1.2640 C.ar  1 <1>   0.1600 
 28 H       -2.1320     1.0230    -2.2790 H     1 <1>   0.0800 
 29 H       -2.7120     2.6070    -2.7110 H     1 <1>   0.0800 
 30 H       -1.7120     4.6470    -1.5730 H     1 <1>   0.0800 
 31 H       -0.4510     4.4330    -0.3890 H     1 <1>   0.0800 
 32 H        1.4850     3.7910    -2.5760 H     1 <1>   0.1500 
 33 H       -3.0640     1.2310    -0.0460 H     1 <1>   0.0800 
 34 H       -4.3190     1.5100    -1.2100 H     1 <1>   0.0800 
 35 H       -2.6000     4.8950     0.7270 H     1 <1>   0.0800 
 36 H       -2.0030     3.3250     1.1290 H     1 <1>   0.0800 
 37 H        0.2590     1.4310     1.4210 H     1 <1>   0.0800 
 38 H        1.7280     1.5150     2.3570 H     1 <1>   0.0800 
 39 H        1.5970     0.3690     1.0440 H     1 <1>   0.0800 
 40 H       -4.3860     2.4020     1.7040 H     1 <1>   0.1500 
 41 H       -5.2800     5.7170    -1.7170 H     1 <1>   0.0800 
 42 H       -4.3760     5.8390    -0.2250 H     1 <1>   0.0800 
 43 H        5.2320     3.1880     1.8600 H     1 <1>   0.1500 
 44 H        4.5580     6.2590    -1.0140 H     1 <1>   0.1500 
 45 H       -6.9660     4.3360    -0.7020 H     1 <1>   0.0800 
 46 H       -6.6810     5.6480     0.4100 H     1 <1>   0.0800 
 47 H       -7.0480     4.5090     2.6700 H     1 <1>   0.0800 
 48 H       -6.5530     2.8450     2.8540 H     1 <1>   0.0800 
 49 H       -7.8270     3.2530     1.7330 H     1 <1>   0.0800 
 50 H        6.6300     7.3220    -0.1850 H     1 <1>   0.1500 
 51 H        7.8900     6.2670     1.6200 H     1 <1>   0.1500 
@<TRIPOS>BOND
  1   1   2  2   
  2   2   3  am  
  3   2   4  1   
  4   3   5  1   
  5   3   6  1   
  6   4   7  ar  
  7   4   8  ar  
  8   5   9  1   
  9   5  28  1   
 10   5  29  1   
 11   6  10  1   
 12   6  30  1   
 13   6  31  1   
 14   7  11  ar  
 15   7  12  1   
 16   8  13  ar  
 17   8  32  1   
 18   9  14  1   
 19   9  33  1   
 20   9  34  1   
 21  10  14  1   
 22  10  35  1   
 23  10  36  1   
 24  11  15  ar  
 25  12  37  1   
 26  12  38  1   
 27  12  39  1   
 28  13  15  ar  
 29  14  16  1   
 30  14  17  1   
 31  15  18  1   
 32  16  19  1   
 33  17  20  2   
 34  17  40  1   
 35  18  21  ar  
 36  18  22  ar  
 37  19  23  1   
 38  19  41  1   
 39  19  42  1   
 40  20  23  1   
 41  20  24  1   
 42  21  25  ar  
 43  21  43  1   
 44  22  26  ar  
 45  22  44  1   
 46  23  45  1   
 47  23  46  1   
 48  24  47  1   
 49  24  48  1   
 50  24  49  1   
 51  25  27  ar  
 52  26  27  ar  
 53  26  50  1   
 54  27  51  1   
@<TRIPOS>SUBSTRUCTURE
  1 ****   4 GROUP 4 **** **** 0

# MOE 2024.06 (io_trps.svl 2023.06)
