@<TRIPOS>MOLECULE
NONAME
56 59 1 0 0 
SMALL
USER_CHARGES


@<TRIPOS>ATOM
  1 O       -1.3880    -0.3970    -1.1640 O.3   1 <1>  -0.3630 
  2 C       -2.5010     0.2690    -0.7670 C.ar  1 <1>   0.0830 
  3 C       -0.2040    -0.3680    -0.3980 C.3   1 <1>   0.0400 
  4 C       -2.6080     0.9520     0.4410 C.ar  1 <1>  -0.1500 
  5 C       -3.5780     0.2520    -1.6390 C.ar  1 <1>  -0.1500 
  6 C       -3.7870     1.5970     0.7680 C.ar  1 <1>  -0.1500 
  7 C       -4.7550     0.8990    -1.3130 C.ar  1 <1>  -0.1500 
  8 C       -4.8730     1.5680    -0.1000 C.ar  1 <1>  -0.0230 
  9 N       -6.0920     2.1890     0.2580 N.pl3 1 <1>   0.3260 
 10 C       -7.1920     1.6000     0.7950 C.2   1 <1>   0.0060 
 11 C       -6.4370     3.4900     0.1690 C.2   1 <1>  -0.3020 
 12 N       -8.1740     2.4140     1.0410 N.2   1 <1>  -0.5650 
 13 C       -7.2210     0.1060     1.0780 C.3   1 <1>   0.5230 
 14 C       -7.6940     3.6100     0.6440 C.2   1 <1>   0.0770 
 15 N       -8.6350    -0.2840     1.3010 N.4   1 <1>  -0.9590 
 16 C       -9.3880    -0.4480     0.0380 C.3   1 <1>   0.3430 
 17 C       -8.8520    -1.5050     2.1150 C.3   1 <1>   0.3430 
 18 C      -10.6250    -1.2440     0.4350 C.3   1 <1>  -0.0800 
 19 C      -10.1360    -2.1510     1.5850 C.3   1 <1>  -0.0800 
 20 C      -11.3050    -1.9730    -0.7530 C.3   1 <1>   0.2800 
 21 C       -9.8680    -3.5940     1.1260 C.3   1 <1>  -0.1600 
 22 O      -10.3290    -2.3760    -1.6450 O.3   1 <1>  -0.6800 
 23 C      -12.0230    -3.2370    -0.2480 C.3   1 <1>  -0.1600 
 24 C      -12.2970    -1.0800    -1.5310 C.3   1 <1>  -0.1600 
 25 C      -11.1080    -4.2400     0.4860 C.3   1 <1>  -0.1600 
 26 C      -11.7160     0.1980    -2.1610 C.3   1 <1>  -0.2400 
 27 H        0.5480    -0.9300    -0.9230 H     1 <1>   0.0800 
 28 H       -0.3940    -0.8210     0.5590 H     1 <1>   0.0800 
 29 H        0.1160     0.6530    -0.2860 H     1 <1>   0.0800 
 30 H       -1.7860     0.9910     1.1310 H     1 <1>   0.1500 
 31 H       -3.4790    -0.2690    -2.5750 H     1 <1>   0.1500 
 32 H       -3.8590     2.1270     1.7030 H     1 <1>   0.1500 
 33 H       -5.5760     0.8830    -2.0100 H     1 <1>   0.1500 
 34 H       -5.7720     4.2390    -0.2230 H     1 <1>   0.1500 
 35 H       -6.6380    -0.0900     1.9630 H     1 <1>   0.0800 
 36 H       -6.8030    -0.4460     0.2530 H     1 <1>   0.0800 
 37 H       -8.2870     4.5090     0.7230 H     1 <1>   0.1500 
 38 H       -9.0470     0.5440     1.7670 H     1 <1>   0.4500 
 39 H       -9.6410     0.5050    -0.3980 H     1 <1>   0.0800 
 40 H       -8.8010    -1.0180    -0.6640 H     1 <1>   0.0800 
 41 H       -8.0280    -2.1880     1.9860 H     1 <1>   0.0800 
 42 H       -8.9460    -1.2570     3.1600 H     1 <1>   0.0800 
 43 H      -11.3370    -0.5560     0.8540 H     1 <1>   0.0800 
 44 H      -10.8750    -2.1760     2.3680 H     1 <1>   0.0800 
 45 H       -9.0740    -3.5920     0.3980 H     1 <1>   0.0800 
 46 H       -9.5420    -4.2000     1.9550 H     1 <1>   0.0800 
 47 H      -10.7430    -2.9080    -2.3530 H     1 <1>   0.4000 
 48 H      -12.7900    -2.9250     0.4390 H     1 <1>   0.0800 
 49 H      -12.5240    -3.7360    -1.0590 H     1 <1>   0.0800 
 50 H      -12.7470    -1.6670    -2.3130 H     1 <1>   0.0800 
 51 H      -13.0960    -0.7930    -0.8690 H     1 <1>   0.0800 
 52 H      -11.6870    -4.7400     1.2450 H     1 <1>   0.0800 
 53 H      -10.7770    -4.9940    -0.2080 H     1 <1>   0.0800 
 54 H      -10.8670    -0.0290    -2.7830 H     1 <1>   0.0800 
 55 H      -11.4280     0.9070    -1.4080 H     1 <1>   0.0800 
 56 H      -12.4640     0.6650    -2.7790 H     1 <1>   0.0800 
@<TRIPOS>BOND
  1   1   2  1   
  2   1   3  1   
  3   2   4  ar  
  4   2   5  ar  
  5   3  27  1   
  6   3  28  1   
  7   3  29  1   
  8   4   6  ar  
  9   4  30  1   
 10   5   7  ar  
 11   5  31  1   
 12   6   8  ar  
 13   6  32  1   
 14   7   8  ar  
 15   7  33  1   
 16   8   9  1   
 17   9  10  1   
 18   9  11  1   
 19  10  12  2   
 20  10  13  1   
 21  11  14  2   
 22  11  34  1   
 23  12  14  1   
 24  13  15  1   
 25  13  35  1   
 26  13  36  1   
 27  14  37  1   
 28  15  16  1   
 29  15  17  1   
 30  15  38  1   
 31  16  18  1   
 32  16  39  1   
 33  16  40  1   
 34  17  19  1   
 35  17  41  1   
 36  17  42  1   
 37  18  19  1   
 38  18  20  1   
 39  18  43  1   
 40  19  21  1   
 41  19  44  1   
 42  20  22  1   
 43  20  23  1   
 44  20  24  1   
 45  21  25  1   
 46  21  45  1   
 47  21  46  1   
 48  22  47  1   
 49  23  25  1   
 50  23  48  1   
 51  23  49  1   
 52  24  26  1   
 53  24  50  1   
 54  24  51  1   
 55  25  52  1   
 56  25  53  1   
 57  26  54  1   
 58  26  55  1   
 59  26  56  1   
@<TRIPOS>SUBSTRUCTURE
  1 ****  13 GROUP 4 **** **** 0

# MOE 2024.06 (io_trps.svl 2023.06)
