@<TRIPOS>MOLECULE
NONAME
51 54 1 0 0 
SMALL
USER_CHARGES


@<TRIPOS>ATOM
  1 S        1.3420     0.0350    -3.4710 S.3   1 <1>  -0.0800 
  2 C        1.0030    -0.7300    -1.9400 C.2   1 <1>   0.1980 
  3 C        1.7330     1.4950    -2.6150 C.2   1 <1>  -0.1100 
  4 N        1.1720     0.0230    -0.9250 N.2   1 <1>  -0.5650 
  5 C        0.5450    -2.1840    -1.9710 C.3   1 <1>   0.5230 
  6 C        1.5870     1.3090    -1.2860 C.2   1 <1>   0.1730 
  7 N       -0.0260    -2.5630    -0.6420 N.4   1 <1>  -0.9590 
  8 C        1.8110     2.3010    -0.2510 C.ar  1 <1>   0.0540 
  9 C       -1.3390    -1.9190    -0.3930 C.3   1 <1>   0.3430 
 10 C       -0.2070    -4.0190    -0.4170 C.3   1 <1>   0.3430 
 11 C        1.5730     3.6560    -0.4960 C.ar  1 <1>  -0.1500 
 12 C        2.2720     1.9350     1.0170 C.ar  1 <1>  -0.1500 
 13 C       -1.9530    -2.7320     0.7390 C.3   1 <1>  -0.0800 
 14 C       -1.4180    -4.1630     0.5120 C.3   1 <1>  -0.0800 
 15 C        1.7850     4.6140     0.4810 C.ar  1 <1>  -0.1500 
 16 C        2.4900     2.8790     2.0070 C.ar  1 <1>  -0.1500 
 17 C       -3.4950    -2.5980     0.8340 C.3   1 <1>   0.2800 
 18 C       -2.4660    -5.1020    -0.1090 C.3   1 <1>  -0.1600 
 19 C        2.2420     4.2060     1.7190 C.ar  1 <1>   0.1900 
 20 O       -4.0090    -2.4920    -0.4440 O.3   1 <1>  -0.6800 
 21 C       -4.0890    -3.8660     1.4720 C.3   1 <1>  -0.1600 
 22 C       -3.9550    -1.3500     1.6210 C.3   1 <1>  -0.1600 
 23 C       -3.7510    -5.1760     0.7310 C.3   1 <1>  -0.1600 
 24 F        2.4440     5.1030     2.6450 F     1 <1>  -0.1900 
 25 C       -3.5000     0.0140     1.0720 C.3   1 <1>  -0.2400 
 26 H        2.0370     2.3500    -3.1910 H     1 <1>   0.1500 
 27 H        1.3930    -2.8060    -2.1990 H     1 <1>   0.0800 
 28 H       -0.1960    -2.3140    -2.7420 H     1 <1>   0.0800 
 29 H        0.6170    -2.1710     0.0630 H     1 <1>   0.4500 
 30 H       -1.2280    -0.8790    -0.1320 H     1 <1>   0.0800 
 31 H       -1.9570    -2.0000    -1.2730 H     1 <1>   0.0800 
 32 H       -0.4170    -4.5140    -1.3510 H     1 <1>   0.0800 
 33 H        0.6740    -4.4560     0.0240 H     1 <1>   0.0800 
 34 H        1.2120     3.9680    -1.4600 H     1 <1>   0.1500 
 35 H        2.4660     0.8990     1.2280 H     1 <1>   0.1500 
 36 H       -1.5330    -2.3770     1.6630 H     1 <1>   0.0800 
 37 H       -1.1010    -4.5830     1.4510 H     1 <1>   0.0800 
 38 H        1.6020     5.6560     0.2940 H     1 <1>   0.1500 
 39 H        2.8460     2.5980     2.9810 H     1 <1>   0.1500 
 40 H       -2.7250    -4.7420    -1.0910 H     1 <1>   0.0800 
 41 H       -2.0620    -6.0940    -0.2260 H     1 <1>   0.0800 
 42 H       -4.9850    -2.4830    -0.3970 H     1 <1>   0.4000 
 43 H       -3.6970    -3.9430     2.4720 H     1 <1>   0.0800 
 44 H       -5.1570    -3.7750     1.5700 H     1 <1>   0.0800 
 45 H       -5.0310    -1.3510     1.6670 H     1 <1>   0.0800 
 46 H       -3.6090    -1.4340     2.6370 H     1 <1>   0.0800 
 47 H       -3.6640    -5.9680     1.4550 H     1 <1>   0.0800 
 48 H       -4.5680    -5.4350     0.0770 H     1 <1>   0.0800 
 49 H       -3.7550     0.1170     0.0320 H     1 <1>   0.0800 
 50 H       -2.4420     0.1510     1.1970 H     1 <1>   0.0800 
 51 H       -3.9940     0.8010     1.6150 H     1 <1>   0.0800 
@<TRIPOS>BOND
  1   1   2  1   
  2   1   3  1   
  3   2   4  2   
  4   2   5  1   
  5   3   6  2   
  6   3  26  1   
  7   4   6  1   
  8   5   7  1   
  9   5  27  1   
 10   5  28  1   
 11   6   8  1   
 12   7   9  1   
 13   7  10  1   
 14   7  29  1   
 15   8  11  ar  
 16   8  12  ar  
 17   9  13  1   
 18   9  30  1   
 19   9  31  1   
 20  10  14  1   
 21  10  32  1   
 22  10  33  1   
 23  11  15  ar  
 24  11  34  1   
 25  12  16  ar  
 26  12  35  1   
 27  13  14  1   
 28  13  17  1   
 29  13  36  1   
 30  14  18  1   
 31  14  37  1   
 32  15  19  ar  
 33  15  38  1   
 34  16  19  ar  
 35  16  39  1   
 36  17  20  1   
 37  17  21  1   
 38  17  22  1   
 39  18  23  1   
 40  18  40  1   
 41  18  41  1   
 42  19  24  1   
 43  20  42  1   
 44  21  23  1   
 45  21  43  1   
 46  21  44  1   
 47  22  25  1   
 48  22  45  1   
 49  22  46  1   
 50  23  47  1   
 51  23  48  1   
 52  25  49  1   
 53  25  50  1   
 54  25  51  1   
@<TRIPOS>SUBSTRUCTURE
  1 ****   9 GROUP 4 **** **** 0

# MOE 2024.06 (io_trps.svl 2023.06)
