@<TRIPOS>MOLECULE
NONAME
29 29 1 0 0 
SMALL
USER_CHARGES


@<TRIPOS>ATOM
  1 O        5.5630    -2.2690    -0.7880 O.3   1 <1>  -0.5600 
  2 C        4.7320    -1.9220     0.2870 C.3   1 <1>   0.1200 
  3 C        6.8100    -2.7930    -0.4490 C.3   1 <1>   0.1200 
  4 C        5.2410    -0.6650     1.0190 C.3   1 <1>   0.3430 
  5 C        7.8570    -1.6770    -0.5290 C.3   1 <1>  -0.1600 
  6 N        6.2500     0.0660     0.1850 N.4   1 <1>  -0.9590 
  7 C        7.6120    -0.4890     0.4050 C.3   1 <1>   0.3430 
  8 C        6.2090     1.5450     0.3430 C.3   1 <1>   0.3430 
  9 C        4.9520     2.1130    -0.3140 C.3   1 <1>  -0.1600 
 10 C        4.9290     3.6350    -0.1870 C.3   1 <1>   0.1200 
 11 O        3.7030     4.0750    -0.6340 O.3   1 <1>  -0.6800 
 12 H        4.6410    -2.7590     0.9590 H     1 <1>   0.0800 
 13 H        3.7570    -1.7220    -0.1230 H     1 <1>   0.0800 
 14 H        7.0410    -3.5600    -1.1700 H     1 <1>   0.0800 
 15 H        6.7740    -3.2460     0.5280 H     1 <1>   0.0800 
 16 H        5.6770    -0.9480     1.9620 H     1 <1>   0.0800 
 17 H        4.3960    -0.0330     1.2340 H     1 <1>   0.0800 
 18 H        7.9190    -1.3290    -1.5450 H     1 <1>   0.0800 
 19 H        8.8160    -2.0990    -0.2900 H     1 <1>   0.0800 
 20 H        6.0070    -0.1930    -0.7890 H     1 <1>   0.4500 
 21 H        8.3540     0.2660     0.1980 H     1 <1>   0.0800 
 22 H        7.7250    -0.7950     1.4330 H     1 <1>   0.0800 
 23 H        7.0730     1.9810    -0.1320 H     1 <1>   0.0800 
 24 H        6.2310     1.8060     1.3890 H     1 <1>   0.0800 
 25 H        4.0750     1.7240     0.1720 H     1 <1>   0.0800 
 26 H        4.9350     1.8470    -1.3560 H     1 <1>   0.0800 
 27 H        5.7000     4.1070    -0.7740 H     1 <1>   0.0800 
 28 H        5.0230     3.9410     0.8420 H     1 <1>   0.0800 
 29 H        3.6350     4.0390    -1.6090 H     1 <1>   0.4000 
@<TRIPOS>BOND
  1   1   2  1   
  2   1   3  1   
  3   2   4  1   
  4   2  12  1   
  5   2  13  1   
  6   3   5  1   
  7   3  14  1   
  8   3  15  1   
  9   4   6  1   
 10   4  16  1   
 11   4  17  1   
 12   5   7  1   
 13   5  18  1   
 14   5  19  1   
 15   6   7  1   
 16   6   8  1   
 17   6  20  1   
 18   7  21  1   
 19   7  22  1   
 20   8   9  1   
 21   8  23  1   
 22   8  24  1   
 23   9  10  1   
 24   9  25  1   
 25   9  26  1   
 26  10  11  1   
 27  10  27  1   
 28  10  28  1   
 29  11  29  1   
@<TRIPOS>SUBSTRUCTURE
  1 ****   6 GROUP 4 **** **** 0

# MOE 2024.06 (io_trps.svl 2023.06)
