@<TRIPOS>MOLECULE
NONAME
46 49 1 0 0 
SMALL
USER_CHARGES


@<TRIPOS>ATOM
  1 S       -0.2380     0.0340    -0.5110 S.3   1 <1>  -0.0800 
  2 C       -0.1200    -1.4900     0.3420 C.2   1 <1>  -0.0450 
  3 C        0.8970     0.7420     0.6060 C.2   1 <1>   0.1980 
  4 C        0.7630    -1.3090     1.3520 C.2   1 <1>   0.0460 
  5 C       -0.8740    -2.6310    -0.1080 C.2   1 <1>   0.7150 
  6 N        1.3180    -0.0560     1.5000 N.2   1 <1>  -0.5650 
  7 C        1.2590     2.1950     0.4100 C.3   1 <1>  -0.0600 
  8 C        1.2070    -2.3610     2.3470 C.3   1 <1>  -0.0590 
  9 O       -0.2790    -3.6610    -0.3660 O.2   1 <1>  -0.5700 
 10 N       -2.2520    -2.6140    -0.2190 N.am  1 <1>  -0.6600 
 11 C       -3.1160    -1.5970     0.4640 C.3   1 <1>   0.1400 
 12 C       -3.0000    -3.7980    -0.7370 C.3   1 <1>   0.1400 
 13 C       -4.2610    -1.1160    -0.4490 C.3   1 <1>   0.1430 
 14 C       -4.1530    -3.3550    -1.6460 C.3   1 <1>  -0.1600 
 15 C       -5.1110    -0.1340     0.3350 C.ar  1 <1>   0.1670 
 16 C       -5.0670    -2.3300    -0.9540 C.3   1 <1>  -0.1600 
 17 C       -3.7460    -0.2400    -1.6230 C.3   1 <1>  -0.1600 
 18 N       -5.9420    -0.4480     1.3050 N.ar  1 <1>  -0.6200 
 19 C       -4.9010     1.1490    -0.0710 C.ar  1 <1>  -0.1430 
 20 C       -3.8850     1.2280    -1.1830 C.3   1 <1>  -0.0170 
 21 C       -6.5680     0.5870     1.8470 C.ar  1 <1>   0.4770 
 22 C       -5.6030     2.1450     0.5610 C.ar  1 <1>   0.1600 
 23 N       -6.4500     1.8700     1.5310 N.ar  1 <1>  -0.6200 
 24 C       -7.5400     0.2650     2.9560 C.3   1 <1>  -0.0970 
 25 H        1.7000     2.3330    -0.5590 H     1 <1>   0.0800 
 26 H        1.9660     2.4950     1.1620 H     1 <1>   0.0800 
 27 H        0.3790     2.8050     0.4930 H     1 <1>   0.0800 
 28 H        0.7240    -3.3020     2.1560 H     1 <1>   0.0800 
 29 H        0.9660    -2.0400     3.3440 H     1 <1>   0.0800 
 30 H        2.2700    -2.4970     2.2740 H     1 <1>   0.0800 
 31 H       -2.5410    -0.7520     0.7950 H     1 <1>   0.0800 
 32 H       -3.5460    -2.0520     1.3410 H     1 <1>   0.0800 
 33 H       -3.3890    -4.3540     0.0990 H     1 <1>   0.0800 
 34 H       -2.3440    -4.4470    -1.2920 H     1 <1>   0.0800 
 35 H       -4.7310    -4.2190    -1.9240 H     1 <1>   0.0800 
 36 H       -3.7430    -2.9380    -2.5490 H     1 <1>   0.0800 
 37 H       -5.8430    -2.0080    -1.6260 H     1 <1>   0.0800 
 38 H       -5.5470    -2.8030    -0.1140 H     1 <1>   0.0800 
 39 H       -4.3800    -0.3850    -2.4800 H     1 <1>   0.0800 
 40 H       -2.7400    -0.4840    -1.9120 H     1 <1>   0.0800 
 41 H       -4.2230     1.8530    -1.9910 H     1 <1>   0.0800 
 42 H       -2.9520     1.6000    -0.7960 H     1 <1>   0.0800 
 43 H       -5.4720     3.1740     0.2730 H     1 <1>   0.1500 
 44 H       -7.2050    -0.5970     3.5010 H     1 <1>   0.0800 
 45 H       -8.5050     0.0630     2.5320 H     1 <1>   0.0800 
 46 H       -7.6180     1.0960     3.6320 H     1 <1>   0.0800 
@<TRIPOS>BOND
  1   1   2  1   
  2   1   3  1   
  3   2   4  2   
  4   2   5  1   
  5   3   6  2   
  6   3   7  1   
  7   4   6  1   
  8   4   8  1   
  9   5   9  2   
 10   5  10  am  
 11   7  25  1   
 12   7  26  1   
 13   7  27  1   
 14   8  28  1   
 15   8  29  1   
 16   8  30  1   
 17  10  11  1   
 18  10  12  1   
 19  11  13  1   
 20  11  31  1   
 21  11  32  1   
 22  12  14  1   
 23  12  33  1   
 24  12  34  1   
 25  13  15  1   
 26  13  16  1   
 27  13  17  1   
 28  14  16  1   
 29  14  35  1   
 30  14  36  1   
 31  15  18  ar  
 32  15  19  ar  
 33  16  37  1   
 34  16  38  1   
 35  17  20  1   
 36  17  39  1   
 37  17  40  1   
 38  18  21  ar  
 39  19  20  1   
 40  19  22  ar  
 41  20  41  1   
 42  20  42  1   
 43  21  23  ar  
 44  21  24  1   
 45  22  23  ar  
 46  22  43  1   
 47  24  44  1   
 48  24  45  1   
 49  24  46  1   
@<TRIPOS>SUBSTRUCTURE
  1 ****  11 GROUP 4 **** **** 0

# MOE 2024.06 (io_trps.svl 2023.06)
