@<TRIPOS>MOLECULE
NONAME
47 49 1 0 0 
SMALL
USER_CHARGES


@<TRIPOS>ATOM
  1 S       -2.7120     2.0930     0.3570 S.3   1 <1>  -0.0800 
  2 C       -2.3450     0.5240    -0.3420 C.2   1 <1>  -0.1400 
  3 C       -1.6570     1.7790     1.7240 C.2   1 <1>  -0.1100 
  4 C       -1.4770    -0.1480     0.4380 C.2   1 <1>  -0.1500 
  5 C       -3.0270     0.1700    -1.6560 C.3   1 <1>   0.0810 
  6 C       -1.0870     0.5650     1.6150 C.2   1 <1>  -0.1500 
  7 C       -3.2560    -1.3280    -1.8040 C.2   1 <1>   0.5690 
  8 O       -2.6290    -1.8920    -2.6690 O.2   1 <1>  -0.5700 
  9 N       -4.1390    -2.0080    -0.9920 N.am  1 <1>  -0.6600 
 10 C       -4.3260    -3.4930    -1.1160 C.3   1 <1>   0.1400 
 11 C       -5.0460    -1.3540    -0.0050 C.3   1 <1>   0.1400 
 12 C       -4.1530    -4.2190     0.2430 C.3   1 <1>   0.0000 
 13 C       -4.8750    -2.0060     1.3650 C.3   1 <1>  -0.1600 
 14 C       -5.0990    -3.5150     1.2520 C.3   1 <1>   0.2000 
 15 C       -4.6480    -5.6820     0.1110 C.3   1 <1>   0.1200 
 16 C       -2.6670    -4.1580     0.7200 C.3   1 <1>  -0.0160 
 17 O       -4.9880    -4.0600     2.5200 O.3   1 <1>  -0.6800 
 18 O       -4.1190    -6.3060    -1.0110 O.3   1 <1>  -0.6800 
 19 C       -1.6960    -5.0710    -0.0220 C.ar  1 <1>  -0.1440 
 20 C       -1.4100    -6.3340     0.4760 C.ar  1 <1>  -0.1500 
 21 C       -1.0880    -4.6560    -1.1960 C.ar  1 <1>  -0.1500 
 22 C       -0.5430    -7.1760    -0.1990 C.ar  1 <1>  -0.1500 
 23 C       -0.2220    -5.4960    -1.8730 C.ar  1 <1>  -0.1500 
 24 C        0.0510    -6.7570    -1.3760 C.ar  1 <1>  -0.1500 
 25 H       -1.5730     2.5480     2.4710 H     1 <1>   0.1500 
 26 H       -1.0830    -1.1280     0.2320 H     1 <1>   0.1500 
 27 H       -3.9730     0.6720    -1.7320 H     1 <1>   0.0800 
 28 H       -2.4140     0.5160    -2.4670 H     1 <1>   0.0800 
 29 H       -0.3960     0.1340     2.3190 H     1 <1>   0.1500 
 30 H       -5.3150    -3.6790    -1.4960 H     1 <1>   0.0800 
 31 H       -3.6370    -3.9000    -1.8360 H     1 <1>   0.0800 
 32 H       -4.8500    -0.3010     0.0840 H     1 <1>   0.0800 
 33 H       -6.0630    -1.4720    -0.3390 H     1 <1>   0.0800 
 34 H       -5.6010    -1.5850     2.0380 H     1 <1>   0.0800 
 35 H       -3.8930    -1.7820     1.7390 H     1 <1>   0.0800 
 36 H       -6.1180    -3.6800     0.9400 H     1 <1>   0.0800 
 37 H       -5.7190    -5.7120     0.0080 H     1 <1>   0.0800 
 38 H       -4.3760    -6.2570     0.9790 H     1 <1>   0.0800 
 39 H       -2.3040    -3.1500     0.6450 H     1 <1>   0.0800 
 40 H       -2.6110    -4.4230     1.7600 H     1 <1>   0.0800 
 41 H       -4.1680    -3.7540     2.9510 H     1 <1>   0.4000 
 42 H       -3.1340    -6.2620    -0.9820 H     1 <1>   0.4000 
 43 H       -1.8630    -6.6740     1.3910 H     1 <1>   0.1500 
 44 H       -1.2830    -3.6770    -1.5950 H     1 <1>   0.1500 
 45 H       -0.3300    -8.1560     0.1910 H     1 <1>   0.1500 
 46 H        0.2390    -5.1630    -2.7870 H     1 <1>   0.1500 
 47 H        0.7230    -7.4100    -1.9040 H     1 <1>   0.1500 
@<TRIPOS>BOND
  1   1   2  1   
  2   1   3  1   
  3   2   4  2   
  4   2   5  1   
  5   3   6  2   
  6   3  25  1   
  7   4   6  1   
  8   4  26  1   
  9   5   7  1   
 10   5  27  1   
 11   5  28  1   
 12   6  29  1   
 13   7   8  2   
 14   7   9  am  
 15   9  10  1   
 16   9  11  1   
 17  10  12  1   
 18  10  30  1   
 19  10  31  1   
 20  11  13  1   
 21  11  32  1   
 22  11  33  1   
 23  12  14  1   
 24  12  15  1   
 25  12  16  1   
 26  13  14  1   
 27  13  34  1   
 28  13  35  1   
 29  14  17  1   
 30  14  36  1   
 31  15  18  1   
 32  15  37  1   
 33  15  38  1   
 34  16  19  1   
 35  16  39  1   
 36  16  40  1   
 37  17  41  1   
 38  18  42  1   
 39  19  20  ar  
 40  19  21  ar  
 41  20  22  ar  
 42  20  43  1   
 43  21  23  ar  
 44  21  44  1   
 45  22  24  ar  
 46  22  45  1   
 47  23  24  ar  
 48  23  46  1   
 49  24  47  1   
@<TRIPOS>SUBSTRUCTURE
  1 ****  16 GROUP 4 **** **** 0

# MOE 2024.06 (io_trps.svl 2023.06)
