@<TRIPOS>MOLECULE
NONAME
50 53 1 0 0 
SMALL
USER_CHARGES


@<TRIPOS>ATOM
  1 O       -0.0790     0.6670     1.8160 O.3   1 <1>  -0.5600 
  2 C        0.8200     0.9250     0.7770 C.3   1 <1>   0.1200 
  3 C       -1.3970     0.8270     1.3730 C.3   1 <1>   0.1200 
  4 C        0.0890     1.8540    -0.1840 C.3   1 <1>   0.2890 
  5 C       -1.3250     1.3050    -0.0810 C.3   1 <1>  -0.0800 
  6 N        0.1560     3.2450     0.3350 N.pl3 1 <1>  -0.8690 
  7 C       -2.4500     2.2750    -0.4860 C.3   1 <1>  -0.0170 
  8 C        0.4280     4.3500    -0.4310 C.ar  1 <1>   0.4100 
  9 C       -3.8070     1.5920    -0.4180 C.ar  1 <1>  -0.1430 
 10 N        0.3270     4.2320    -1.7410 N.ar  1 <1>  -0.6200 
 11 C        0.7810     5.5400     0.1540 C.ar  1 <1>  -0.1500 
 12 C       -4.2620     0.7790    -1.4360 C.ar  1 <1>  -0.1500 
 13 C       -4.6520     1.7470     0.6620 C.ar  1 <1>  -0.1500 
 14 C        0.5960     5.3280    -2.4230 C.ar  1 <1>   0.4700 
 15 C        1.0330     6.6180    -0.6580 C.ar  1 <1>   0.4100 
 16 C       -5.5020     0.1720    -1.3250 C.ar  1 <1>   0.1600 
 17 C       -5.8740     1.0950     0.6750 C.ar  1 <1>   0.1600 
 18 N        0.9450     6.5150    -1.9730 N.ar  1 <1>  -0.6200 
 19 N        1.3790     7.8430    -0.1250 N.pl3 1 <1>  -0.8380 
 20 N       -6.3190     0.3090    -0.2920 N.ar  1 <1>  -0.6200 
 21 C        0.4020     8.5380     0.7490 C.3   1 <1>   0.2090 
 22 C        2.2510     8.7600    -0.9070 C.3   1 <1>   0.2090 
 23 C        1.1510     9.4450     1.7310 C.3   1 <1>  -0.1600 
 24 C        3.0180     9.6760     0.0520 C.3   1 <1>  -0.1600 
 25 C        2.0720    10.4320     0.9980 C.3   1 <1>  -0.1600 
 26 H        1.7200     1.3610     1.1720 H     1 <1>   0.0800 
 27 H        1.0450    -0.0120     0.2990 H     1 <1>   0.0800 
 28 H       -1.9170    -0.1100     1.4630 H     1 <1>   0.0800 
 29 H       -1.8610     1.5650     2.0040 H     1 <1>   0.0800 
 30 H        0.4880     1.7890    -1.1820 H     1 <1>   0.0800 
 31 H       -1.3860     0.4350    -0.7100 H     1 <1>   0.0800 
 32 H        0.2930     3.2950     1.3480 H     1 <1>   0.4000 
 33 H       -2.2730     2.6250    -1.4880 H     1 <1>   0.0800 
 34 H       -2.4500     3.1380     0.1560 H     1 <1>   0.0800 
 35 H        0.8670     5.6320     1.2150 H     1 <1>   0.1500 
 36 H       -3.6640     0.6120    -2.3130 H     1 <1>   0.1500 
 37 H       -4.3720     2.3680     1.4930 H     1 <1>   0.1500 
 38 H        0.5210     5.2410    -3.4940 H     1 <1>   0.1500 
 39 H       -5.8410    -0.4590    -2.1280 H     1 <1>   0.1500 
 40 H       -6.5190     1.2270     1.5260 H     1 <1>   0.1500 
 41 H       -0.2590     9.1270     0.1370 H     1 <1>   0.0800 
 42 H       -0.1900     7.8220     1.2920 H     1 <1>   0.0800 
 43 H        2.9480     8.1860    -1.4950 H     1 <1>   0.0800 
 44 H        1.6420     9.3430    -1.5760 H     1 <1>   0.0800 
 45 H        0.4400     9.9880     2.3270 H     1 <1>   0.0800 
 46 H        1.7340     8.8280     2.3920 H     1 <1>   0.0800 
 47 H        3.7000     9.0740     0.6260 H     1 <1>   0.0800 
 48 H        3.5990    10.3780    -0.5180 H     1 <1>   0.0800 
 49 H        2.6460    10.9960     1.7130 H     1 <1>   0.0800 
 50 H        1.4740    11.1210     0.4270 H     1 <1>   0.0800 
@<TRIPOS>BOND
  1   1   2  1   
  2   1   3  1   
  3   2   4  1   
  4   2  26  1   
  5   2  27  1   
  6   3   5  1   
  7   3  28  1   
  8   3  29  1   
  9   4   5  1   
 10   4   6  1   
 11   4  30  1   
 12   5   7  1   
 13   5  31  1   
 14   6   8  1   
 15   6  32  1   
 16   7   9  1   
 17   7  33  1   
 18   7  34  1   
 19   8  10  ar  
 20   8  11  ar  
 21   9  12  ar  
 22   9  13  ar  
 23  10  14  ar  
 24  11  15  ar  
 25  11  35  1   
 26  12  16  ar  
 27  12  36  1   
 28  13  17  ar  
 29  13  37  1   
 30  14  18  ar  
 31  14  38  1   
 32  15  18  ar  
 33  15  19  1   
 34  16  20  ar  
 35  16  39  1   
 36  17  20  ar  
 37  17  40  1   
 38  19  21  1   
 39  19  22  1   
 40  21  23  1   
 41  21  41  1   
 42  21  42  1   
 43  22  24  1   
 44  22  43  1   
 45  22  44  1   
 46  23  25  1   
 47  23  45  1   
 48  23  46  1   
 49  24  25  1   
 50  24  47  1   
 51  24  48  1   
 52  25  49  1   
 53  25  50  1   
@<TRIPOS>SUBSTRUCTURE
  1 ****   8 GROUP 4 **** **** 0

# MOE 2024.06 (io_trps.svl 2023.06)
