@<TRIPOS>MOLECULE
NONAME
48 49 1 0 0 
SMALL
USER_CHARGES


@<TRIPOS>ATOM
  1 S        0.0930     0.4270     0.3720 S.o2  1 <1>   1.3330 
  2 O       -1.3210     0.6040     0.6130 O.2   1 <1>  -0.6500 
  3 O        1.0070     0.3450     1.4890 O.2   1 <1>  -0.6500 
  4 N        0.3060    -0.9630    -0.5790 N.am  1 <1>  -0.8490 
  5 C        0.6270     1.7430    -0.7200 C.3   1 <1>  -0.0550 
  6 C       -0.6410    -2.0250    -0.2290 C.3   1 <1>   0.1160 
  7 C        1.6760    -1.4870    -0.5470 C.3   1 <1>   0.1160 
  8 C        0.4330     3.1460    -0.1210 C.3   1 <1>  -0.0800 
  9 C        0.8050     4.2520    -1.1050 C.3   1 <1>   0.2000 
 10 C        1.3020     3.4350     1.1060 C.3   1 <1>   0.1400 
 11 O       -0.2610     4.5090    -1.9510 O.3   1 <1>  -0.6800 
 12 C        1.1600     5.4670    -0.2470 C.3   1 <1>   0.1400 
 13 N        1.5160     4.9010     1.0790 N.am  1 <1>  -0.6600 
 14 C        2.0260     5.5930     2.1480 C.2   1 <1>   0.5690 
 15 O        2.3250     5.0260     3.1720 O.2   1 <1>  -0.5700 
 16 C        2.1890     7.1100     2.1050 C.3   1 <1>   0.1810 
 17 O        3.0330     7.5210     1.0390 O.3   1 <1>  -0.3630 
 18 C        3.2410     8.8350     0.7760 C.ar  1 <1>   0.0820 
 19 C        4.0020     9.1330    -0.3430 C.ar  1 <1>  -0.1500 
 20 C        2.7350     9.8710     1.5570 C.ar  1 <1>  -0.1500 
 21 C        4.2600    10.4470    -0.6950 C.ar  1 <1>  -0.1440 
 22 C        2.9900    11.1850     1.2060 C.ar  1 <1>  -0.1500 
 23 C        3.7480    11.4720     0.0840 C.ar  1 <1>  -0.1500 
 24 C        5.0920    10.7680    -1.9230 C.3   1 <1>  -0.0970 
 25 H        1.6590     1.6020    -0.9730 H     1 <1>   0.0800 
 26 H        0.0570     1.6810    -1.6280 H     1 <1>   0.0800 
 27 H       -0.4900    -2.8840    -0.8600 H     1 <1>   0.0800 
 28 H       -1.6520    -1.6790    -0.3710 H     1 <1>   0.0800 
 29 H       -0.5170    -2.3140     0.8020 H     1 <1>   0.0800 
 30 H        1.7730    -2.3090    -1.2360 H     1 <1>   0.0800 
 31 H        1.9270    -1.8280     0.4440 H     1 <1>   0.0800 
 32 H        2.3740    -0.7190    -0.8340 H     1 <1>   0.0800 
 33 H       -0.5940     3.2670     0.1810 H     1 <1>   0.0800 
 34 H        1.6550     3.9750    -1.7050 H     1 <1>   0.0800 
 35 H        2.2570     2.9420     1.0360 H     1 <1>   0.0800 
 36 H        0.8160     3.1350     2.0200 H     1 <1>   0.0800 
 37 H       -1.0660     4.7160    -1.4370 H     1 <1>   0.4000 
 38 H        0.3170     6.1270    -0.1400 H     1 <1>   0.0800 
 39 H        1.9960     5.9930    -0.6730 H     1 <1>   0.0800 
 40 H        2.6280     7.4460     3.0260 H     1 <1>   0.0800 
 41 H        1.2260     7.5650     1.9710 H     1 <1>   0.0800 
 42 H        4.3900     8.3240    -0.9340 H     1 <1>   0.1500 
 43 H        2.1480     9.6810     2.4350 H     1 <1>   0.1500 
 44 H        2.6000    11.9880     1.8070 H     1 <1>   0.1500 
 45 H        3.9390    12.4970    -0.1800 H     1 <1>   0.1500 
 46 H        5.7470    11.5970    -1.7220 H     1 <1>   0.0800 
 47 H        4.4470    11.0250    -2.7440 H     1 <1>   0.0800 
 48 H        5.6930     9.9220    -2.2070 H     1 <1>   0.0800 
@<TRIPOS>BOND
  1   1   2  2   
  2   1   3  2   
  3   1   4  am  
  4   1   5  1   
  5   4   6  1   
  6   4   7  1   
  7   5   8  1   
  8   5  25  1   
  9   5  26  1   
 10   6  27  1   
 11   6  28  1   
 12   6  29  1   
 13   7  30  1   
 14   7  31  1   
 15   7  32  1   
 16   8   9  1   
 17   8  10  1   
 18   8  33  1   
 19   9  11  1   
 20   9  12  1   
 21   9  34  1   
 22  10  13  1   
 23  10  35  1   
 24  10  36  1   
 25  11  37  1   
 26  12  13  1   
 27  12  38  1   
 28  12  39  1   
 29  13  14  am  
 30  14  15  2   
 31  14  16  1   
 32  16  17  1   
 33  16  40  1   
 34  16  41  1   
 35  17  18  1   
 36  18  19  ar  
 37  18  20  ar  
 38  19  21  ar  
 39  19  42  1   
 40  20  22  ar  
 41  20  43  1   
 42  21  23  ar  
 43  21  24  1   
 44  22  23  ar  
 45  22  44  1   
 46  23  45  1   
 47  24  46  1   
 48  24  47  1   
 49  24  48  1   
@<TRIPOS>SUBSTRUCTURE
  1 ****  13 GROUP 4 **** **** 0

# MOE 2024.06 (io_trps.svl 2023.06)
