@<TRIPOS>MOLECULE
NONAME
44 46 1 0 0 
SMALL
USER_CHARGES


@<TRIPOS>ATOM
  1 O        0.3420    -0.1120     0.3880 O.3   1 <1>  -0.6800 
  2 C        1.6620    -0.0800    -0.0460 C.3   1 <1>   0.2000 
  3 C        2.3630    -1.4020     0.2650 C.3   1 <1>  -0.0800 
  4 C        2.4750     0.9780     0.6980 C.3   1 <1>   0.2090 
  5 C        3.8400    -1.0200     0.3920 C.3   1 <1>   0.2090 
  6 C        2.1030    -2.4920    -0.7860 C.3   1 <1>  -0.0170 
  7 N        3.8480     0.4140     0.7600 N.pl3 1 <1>  -0.8380 
  8 C        2.8590    -3.7690    -0.4540 C.ar  1 <1>  -0.1440 
  9 C        4.9860     1.1830     0.7460 C.ar  1 <1>   0.7200 
 10 C        2.4060    -4.6510     0.5070 C.ar  1 <1>  -0.1500 
 11 C        4.0360    -4.1110    -1.0890 C.ar  1 <1>  -0.1500 
 12 N        6.1360     0.5500     0.5260 N.ar  1 <1>  -0.6200 
 13 N        4.8330     2.4890     0.9530 N.ar  1 <1>  -0.6200 
 14 C        3.1300    -5.8000     0.7770 C.ar  1 <1>   0.1600 
 15 C        4.6830    -5.2860    -0.7430 C.ar  1 <1>   0.1600 
 16 C        7.2140     1.2960     0.5260 C.ar  1 <1>   0.1600 
 17 C        5.9300     3.2060     0.9460 C.ar  1 <1>   0.1600 
 18 N        4.2580    -6.1390     0.1740 N.ar  1 <1>  -0.6200 
 19 C        7.1730     2.6550     0.7350 C.ar  1 <1>  -0.1440 
 20 C        8.4340     3.5040     0.7300 C.3   1 <1>  -0.0170 
 21 C        8.7300     4.0170    -0.6840 C.3   1 <1>  -0.1600 
 22 C        9.9970     4.8770    -0.7150 C.3   1 <1>  -0.2400 
 23 H       -0.1670    -0.7790    -0.1090 H     1 <1>   0.4000 
 24 H        1.6770     0.1380    -1.1000 H     1 <1>   0.0800 
 25 H        2.0430    -1.7450     1.2340 H     1 <1>   0.0800 
 26 H        2.1050     1.1080     1.7000 H     1 <1>   0.0800 
 27 H        2.4590     1.9160     0.1700 H     1 <1>   0.0800 
 28 H        4.3520    -1.1440    -0.5470 H     1 <1>   0.0800 
 29 H        4.3350    -1.6080     1.1470 H     1 <1>   0.0800 
 30 H        2.3990    -2.1400    -1.7590 H     1 <1>   0.0800 
 31 H        1.0500    -2.7100    -0.8260 H     1 <1>   0.0800 
 32 H        1.4990    -4.4550     1.0480 H     1 <1>   0.1500 
 33 H        4.4580    -3.4790    -1.8480 H     1 <1>   0.1500 
 34 H        2.7610    -6.4760     1.5290 H     1 <1>   0.1500 
 35 H        5.6010    -5.5360    -1.2480 H     1 <1>   0.1500 
 36 H        8.1570     0.8080     0.3530 H     1 <1>   0.1500 
 37 H        5.8340     4.2650     1.1130 H     1 <1>   0.1500 
 38 H        8.3100     4.3370     1.4010 H     1 <1>   0.0800 
 39 H        9.2640     2.9190     1.0860 H     1 <1>   0.0800 
 40 H        8.8520     3.1800    -1.3510 H     1 <1>   0.0800 
 41 H        7.8950     4.6000    -1.0360 H     1 <1>   0.0800 
 42 H       10.8500     4.3060    -0.3910 H     1 <1>   0.0800 
 43 H        9.8880     5.7340    -0.0740 H     1 <1>   0.0800 
 44 H       10.1800     5.2230    -1.7180 H     1 <1>   0.0800 
@<TRIPOS>BOND
  1   1   2  1   
  2   1  23  1   
  3   2   3  1   
  4   2   4  1   
  5   2  24  1   
  6   3   5  1   
  7   3   6  1   
  8   3  25  1   
  9   4   7  1   
 10   4  26  1   
 11   4  27  1   
 12   5   7  1   
 13   5  28  1   
 14   5  29  1   
 15   6   8  1   
 16   6  30  1   
 17   6  31  1   
 18   7   9  1   
 19   8  10  ar  
 20   8  11  ar  
 21   9  12  ar  
 22   9  13  ar  
 23  10  14  ar  
 24  10  32  1   
 25  11  15  ar  
 26  11  33  1   
 27  12  16  ar  
 28  13  17  ar  
 29  14  18  ar  
 30  14  34  1   
 31  15  18  ar  
 32  15  35  1   
 33  16  19  ar  
 34  16  36  1   
 35  17  19  ar  
 36  17  37  1   
 37  19  20  1   
 38  20  21  1   
 39  20  38  1   
 40  20  39  1   
 41  21  22  1   
 42  21  40  1   
 43  21  41  1   
 44  22  42  1   
 45  22  43  1   
 46  22  44  1   
@<TRIPOS>SUBSTRUCTURE
  1 ****   5 GROUP 4 **** **** 0

# MOE 2024.06 (io_trps.svl 2023.06)
