@<TRIPOS>MOLECULE
NONAME
51 53 1 0 0 
SMALL
USER_CHARGES


@<TRIPOS>ATOM
  1 F        0.9740     2.0560    -0.0730 F     1 <1>  -0.3400 
  2 C        1.9930     1.8550     0.7550 C.3   1 <1>   1.1640 
  3 F        1.6730     2.4580     1.8930 F     1 <1>  -0.3400 
  4 F        2.0080     0.5520     1.0140 F     1 <1>  -0.3400 
  5 C        3.3300     2.3710     0.1940 C.ar  1 <1>  -0.1440 
  6 C        3.3690     3.4860    -0.6360 C.ar  1 <1>  -0.1500 
  7 C        4.5300     1.7400     0.5080 C.ar  1 <1>  -0.1500 
  8 C        4.5700     3.9550    -1.1390 C.ar  1 <1>  -0.1500 
  9 C        5.7310     2.2090     0.0050 C.ar  1 <1>  -0.1500 
 10 C        5.7610     3.3240    -0.8180 C.ar  1 <1>  -0.1430 
 11 C        7.0840     3.8440    -1.3730 C.3   1 <1>   0.0450 
 12 C        7.2790     5.3440    -1.1760 C.2   1 <1>   0.5690 
 13 O        7.6040     6.0090    -2.1310 O.2   1 <1>  -0.5700 
 14 N        7.1600     5.9480     0.0490 N.am  1 <1>  -0.6600 
 15 C        6.9570     7.4300     0.1360 C.3   1 <1>   0.1400 
 16 C        7.4070     5.2750     1.3490 C.3   1 <1>   0.1400 
 17 C        8.2780     8.1980    -0.0540 C.3   1 <1>   0.3430 
 18 C        8.8870     5.4200     1.7340 C.3   1 <1>  -0.1600 
 19 N        9.4740     7.3580     0.2920 N.4   1 <1>  -0.9590 
 20 C        9.4420     6.8520     1.6940 C.3   1 <1>   0.3430 
 21 C       10.7980     7.9330    -0.0810 C.3   1 <1>   0.4230 
 22 C       11.0360     9.3150     0.5290 C.3   1 <1>  -0.1600 
 23 C       10.8940     8.1580    -1.5900 C.3   1 <1>  -0.1600 
 24 C       10.5890    10.3520    -0.5080 C.3   1 <1>  -0.1600 
 25 C       10.5680     9.6330    -1.8610 C.3   1 <1>  -0.1600 
 26 H        2.4590     4.0000    -0.9010 H     1 <1>   0.1500 
 27 H        4.5370     0.8730     1.1480 H     1 <1>   0.1500 
 28 H        4.5680     4.8160    -1.7860 H     1 <1>   0.1500 
 29 H        6.6400     1.6920     0.2590 H     1 <1>   0.1500 
 30 H        7.1140     3.6320    -2.4270 H     1 <1>   0.0800 
 31 H        7.9100     3.3300    -0.9200 H     1 <1>   0.0800 
 32 H        6.5220     7.6860     1.0860 H     1 <1>   0.0800 
 33 H        6.2600     7.7420    -0.6240 H     1 <1>   0.0800 
 34 H        7.1490     4.2320     1.2900 H     1 <1>   0.0800 
 35 H        6.7780     5.7130     2.1060 H     1 <1>   0.0800 
 36 H        8.2640     9.1010     0.5330 H     1 <1>   0.0800 
 37 H        8.3380     8.4810    -1.0910 H     1 <1>   0.0800 
 38 H        9.4860     4.7850     1.1060 H     1 <1>   0.0800 
 39 H        8.9980     5.0500     2.7380 H     1 <1>   0.0800 
 40 H        9.3360     6.5320    -0.3100 H     1 <1>   0.4500 
 41 H       10.4430     6.8430     2.0960 H     1 <1>   0.0800 
 42 H        8.8430     7.5010     2.3120 H     1 <1>   0.0800 
 43 H       11.5750     7.2530     0.2300 H     1 <1>   0.0800 
 44 H       12.0970     9.4300     0.6730 H     1 <1>   0.0800 
 45 H       10.5550     9.4520     1.4810 H     1 <1>   0.0800 
 46 H       10.2660     7.4900    -2.1550 H     1 <1>   0.0800 
 47 H       11.9140     7.9840    -1.8850 H     1 <1>   0.0800 
 48 H       11.2650    11.1910    -0.5270 H     1 <1>   0.0800 
 49 H        9.6060    10.7220    -0.2740 H     1 <1>   0.0800 
 50 H        9.6000     9.7320    -2.3230 H     1 <1>   0.0800 
 51 H       11.3000    10.0590    -2.5280 H     1 <1>   0.0800 
@<TRIPOS>BOND
  1   1   2  1   
  2   2   3  1   
  3   2   4  1   
  4   2   5  1   
  5   5   6  ar  
  6   5   7  ar  
  7   6   8  ar  
  8   6  26  1   
  9   7   9  ar  
 10   7  27  1   
 11   8  10  ar  
 12   8  28  1   
 13   9  10  ar  
 14   9  29  1   
 15  10  11  1   
 16  11  12  1   
 17  11  30  1   
 18  11  31  1   
 19  12  13  2   
 20  12  14  am  
 21  14  15  1   
 22  14  16  1   
 23  15  17  1   
 24  15  32  1   
 25  15  33  1   
 26  16  18  1   
 27  16  34  1   
 28  16  35  1   
 29  17  19  1   
 30  17  36  1   
 31  17  37  1   
 32  18  20  1   
 33  18  38  1   
 34  18  39  1   
 35  19  20  1   
 36  19  21  1   
 37  19  40  1   
 38  20  41  1   
 39  20  42  1   
 40  21  22  1   
 41  21  23  1   
 42  21  43  1   
 43  22  24  1   
 44  22  44  1   
 45  22  45  1   
 46  23  25  1   
 47  23  46  1   
 48  23  47  1   
 49  24  25  1   
 50  24  48  1   
 51  24  49  1   
 52  25  50  1   
 53  25  51  1   
@<TRIPOS>SUBSTRUCTURE
  1 ****  14 GROUP 4 **** **** 0

# MOE 2024.06 (io_trps.svl 2023.06)
