@<TRIPOS>MOLECULE
NONAME
50 51 1 0 0 
SMALL
USER_CHARGES


@<TRIPOS>ATOM
  1 S        0.3050     0.1890    -0.8710 S.o2  1 <1>   1.3330 
  2 O       -0.7660     1.0180    -1.3750 O.2   1 <1>  -0.6500 
  3 O        0.5960    -1.0720    -1.5150 O.2   1 <1>  -0.6500 
  4 N       -0.0390    -0.1310     0.7630 N.am  1 <1>  -0.8490 
  5 C        1.8190     1.1490    -0.8200 C.3   1 <1>  -0.0550 
  6 C       -0.6690     0.9970     1.4560 C.3   1 <1>   0.1160 
  7 C       -0.8600    -1.3340     0.9260 C.3   1 <1>   0.1160 
  8 C        3.0530     0.3680    -0.3180 C.3   1 <1>  -0.0800 
  9 C        4.3700     1.1150    -0.4550 C.3   1 <1>   0.2200 
 10 C        3.0300     0.0020     1.1690 C.3   1 <1>   0.1200 
 11 N        4.2140     2.5380    -0.0690 N.am  1 <1>  -0.7300 
 12 C        5.2180     0.3980     0.5880 C.3   1 <1>   0.1200 
 13 O        4.3460     0.0880     1.6330 O.3   1 <1>  -0.5600 
 14 C        4.1780     3.5920    -0.9340 C.2   1 <1>   0.6160 
 15 O        4.1050     3.3310    -2.1220 O.2   1 <1>  -0.5700 
 16 C        4.1820     4.9600    -0.4700 C.2   1 <1>   0.0290 
 17 C        5.0720     5.3000     0.6050 C.2   1 <1>   0.6160 
 18 C        3.3860     5.9510    -1.0060 C.2   1 <1>  -0.1380 
 19 O        5.7350     4.4460     1.1910 O.2   1 <1>  -0.5700 
 20 N        5.1800     6.6280     1.0230 N.am  1 <1>  -0.4690 
 21 C        3.5020     7.2720    -0.5290 C.2   1 <1>  -0.1500 
 22 C        2.3610     5.7110    -2.1100 C.3   1 <1>  -0.1020 
 23 C        4.3780     7.5990     0.4600 C.2   1 <1>  -0.0290 
 24 C        6.1560     6.9780     2.1030 C.3   1 <1>   0.0600 
 25 C        4.4700     9.0370     0.9510 C.3   1 <1>  -0.1020 
 26 H        2.0300     1.4920    -1.8150 H     1 <1>   0.0800 
 27 H        1.6680     2.0180    -0.2110 H     1 <1>   0.0800 
 28 H       -0.7840     0.7700     2.5030 H     1 <1>   0.0800 
 29 H       -1.6390     1.2060     1.0340 H     1 <1>   0.0800 
 30 H       -0.0570     1.8780     1.3680 H     1 <1>   0.0800 
 31 H       -1.0500    -1.5200     1.9690 H     1 <1>   0.0800 
 32 H       -0.3460    -2.1900     0.5210 H     1 <1>   0.0800 
 33 H       -1.7990    -1.2200     0.4080 H     1 <1>   0.0800 
 34 H        3.1330    -0.5470    -0.8790 H     1 <1>   0.0800 
 35 H        4.7930     1.0330    -1.4430 H     1 <1>   0.0800 
 36 H        2.6630    -0.9970     1.3320 H     1 <1>   0.0800 
 37 H        2.4430     0.7010     1.7390 H     1 <1>   0.0800 
 38 H        4.5240     2.7420     0.8910 H     1 <1>   0.3700 
 39 H        6.0270     1.0040     0.9560 H     1 <1>   0.0800 
 40 H        5.6000    -0.5280     0.1950 H     1 <1>   0.0800 
 41 H        2.8770     8.0280    -0.9710 H     1 <1>   0.1500 
 42 H        1.5650     6.4320    -2.0610 H     1 <1>   0.0800 
 43 H        1.9200     4.7340    -2.0250 H     1 <1>   0.0800 
 44 H        2.8370     5.7880    -3.0720 H     1 <1>   0.0800 
 45 H        6.6980     7.8670     1.8390 H     1 <1>   0.0800 
 46 H        6.8760     6.1930     2.2530 H     1 <1>   0.0800 
 47 H        5.6270     7.1400     3.0250 H     1 <1>   0.0800 
 48 H        4.2860     9.0830     2.0090 H     1 <1>   0.0800 
 49 H        3.7420     9.6560     0.4590 H     1 <1>   0.0800 
 50 H        5.4440     9.4400     0.7410 H     1 <1>   0.0800 
@<TRIPOS>BOND
  1   1   2  2   
  2   1   3  2   
  3   1   4  am  
  4   1   5  1   
  5   4   6  1   
  6   4   7  1   
  7   5   8  1   
  8   5  26  1   
  9   5  27  1   
 10   6  28  1   
 11   6  29  1   
 12   6  30  1   
 13   7  31  1   
 14   7  32  1   
 15   7  33  1   
 16   8   9  1   
 17   8  10  1   
 18   8  34  1   
 19   9  11  1   
 20   9  12  1   
 21   9  35  1   
 22  10  13  1   
 23  10  36  1   
 24  10  37  1   
 25  11  14  am  
 26  11  38  1   
 27  12  13  1   
 28  12  39  1   
 29  12  40  1   
 30  14  15  2   
 31  14  16  1   
 32  16  17  1   
 33  16  18  2   
 34  17  19  2   
 35  17  20  am  
 36  18  21  1   
 37  18  22  1   
 38  20  23  1   
 39  20  24  1   
 40  21  23  2   
 41  21  41  1   
 42  22  42  1   
 43  22  43  1   
 44  22  44  1   
 45  23  25  1   
 46  24  45  1   
 47  24  46  1   
 48  24  47  1   
 49  25  48  1   
 50  25  49  1   
 51  25  50  1   
@<TRIPOS>SUBSTRUCTURE
  1 ****  11 GROUP 4 **** **** 0

# MOE 2024.06 (io_trps.svl 2023.06)
