@<TRIPOS>MOLECULE
NONAME
47 50 1 0 0 
SMALL
USER_CHARGES


@<TRIPOS>ATOM
  1 S       -0.8310     1.3010    -2.5570 S.3   1 <1>  -0.0800 
  2 C       -1.2340     1.3340    -0.8470 C.2   1 <1>  -0.1400 
  3 C       -2.1910     0.2370    -2.8890 C.2   1 <1>  -0.1100 
  4 C       -2.3240     0.5960    -0.6030 C.2   1 <1>  -0.1810 
  5 C       -0.4200     2.1160     0.1770 C.3   1 <1>   0.4600 
  6 C       -2.8730    -0.0400    -1.7610 C.2   1 <1>  -0.1500 
  7 C       -2.8580     0.5000     0.8090 C.3   1 <1>   0.0210 
  8 O       -0.9140     1.8210     1.4700 O.3   1 <1>  -0.5600 
  9 C       -0.5240     3.6290    -0.0590 C.3   1 <1>  -0.1600 
 10 C        1.0460     1.6710     0.1680 C.3   1 <1>  -0.1600 
 11 C       -2.3070     1.6790     1.6350 C.3   1 <1>   0.1200 
 12 C        0.3330     4.4080     0.9410 C.3   1 <1>   0.1400 
 13 C        1.8880     2.4830     1.1550 C.3   1 <1>   0.1400 
 14 N        1.7430     3.9350     0.8430 N.am  1 <1>  -0.6600 
 15 C        2.8330     4.7050     0.4950 C.2   1 <1>   0.5690 
 16 O        3.9480     4.2260     0.5060 O.2   1 <1>  -0.5700 
 17 C        2.6620     6.1930     0.0910 C.3   1 <1>   0.2810 
 18 N        3.8840     7.0570     0.0860 N.am  1 <1>  -0.6600 
 19 C        2.1120     6.3450    -1.3310 C.3   1 <1>  -0.1600 
 20 C        4.6240     7.3320     1.1960 C.2   1 <1>   0.6900 
 21 C        3.9270     7.9190    -1.1140 C.3   1 <1>   0.1400 
 22 C        2.5730     7.7270    -1.7860 C.3   1 <1>  -0.1600 
 23 O        5.2390     8.3700     1.3160 O.2   1 <1>  -0.5700 
 24 N        4.7110     6.4280     2.1730 N.am  1 <1>  -0.8000 
 25 H       -2.3370    -0.0740    -3.9080 H     1 <1>   0.1500 
 26 H       -3.7450    -0.6670    -1.6930 H     1 <1>   0.1500 
 27 H       -2.5530    -0.4320     1.2510 H     1 <1>   0.0800 
 28 H       -3.9320     0.5400     0.8020 H     1 <1>   0.0800 
 29 H       -0.1840     3.8540    -1.0530 H     1 <1>   0.0800 
 30 H       -1.5480     3.9430     0.0060 H     1 <1>   0.0800 
 31 H        1.1000     0.6260     0.4120 H     1 <1>   0.0800 
 32 H        1.4600     1.7980    -0.8150 H     1 <1>   0.0800 
 33 H       -2.4970     1.5180     2.6810 H     1 <1>   0.0800 
 34 H       -2.7810     2.5970     1.3360 H     1 <1>   0.0800 
 35 H       -0.0250     4.2310     1.9420 H     1 <1>   0.0800 
 36 H        0.2480     5.4590     0.7440 H     1 <1>   0.0800 
 37 H        2.9160     2.1720     1.0870 H     1 <1>   0.0800 
 38 H        1.5530     2.3020     2.1620 H     1 <1>   0.0800 
 39 H        1.9790     6.6500     0.7820 H     1 <1>   0.0800 
 40 H        2.5560     5.5910    -1.9590 H     1 <1>   0.0800 
 41 H        1.0430     6.2410    -1.3670 H     1 <1>   0.0800 
 42 H        4.0960     8.9500    -0.8520 H     1 <1>   0.0800 
 43 H        4.7210     7.5770    -1.7560 H     1 <1>   0.0800 
 44 H        1.8950     8.4800    -1.4250 H     1 <1>   0.0800 
 45 H        2.6460     7.8050    -2.8570 H     1 <1>   0.0800 
 46 H        5.4160     6.6040     2.8830 H     1 <1>   0.3700 
 47 H        4.6200     5.4470     1.8850 H     1 <1>   0.3700 
@<TRIPOS>BOND
  1   1   2  1   
  2   1   3  1   
  3   2   4  2   
  4   2   5  1   
  5   3   6  2   
  6   3  25  1   
  7   4   6  1   
  8   4   7  1   
  9   5   8  1   
 10   5   9  1   
 11   5  10  1   
 12   6  26  1   
 13   7  11  1   
 14   7  27  1   
 15   7  28  1   
 16   8  11  1   
 17   9  12  1   
 18   9  29  1   
 19   9  30  1   
 20  10  13  1   
 21  10  31  1   
 22  10  32  1   
 23  11  33  1   
 24  11  34  1   
 25  12  14  1   
 26  12  35  1   
 27  12  36  1   
 28  13  14  1   
 29  13  37  1   
 30  13  38  1   
 31  14  15  am  
 32  15  16  2   
 33  15  17  1   
 34  17  18  1   
 35  17  19  1   
 36  17  39  1   
 37  18  20  am  
 38  18  21  1   
 39  19  22  1   
 40  19  40  1   
 41  19  41  1   
 42  20  23  2   
 43  20  24  am  
 44  21  22  1   
 45  21  42  1   
 46  21  43  1   
 47  22  44  1   
 48  22  45  1   
 49  24  46  1   
 50  24  47  1   
@<TRIPOS>SUBSTRUCTURE
  1 ****  14 GROUP 4 **** **** 0

# MOE 2024.06 (io_trps.svl 2023.06)
