@<TRIPOS>MOLECULE
NONAME
55 58 1 0 0 
SMALL
USER_CHARGES


@<TRIPOS>ATOM
  1 O       -2.7930     1.7490    -3.4690 O.2   1 <1>  -0.5700 
  2 C       -2.5530     2.2760    -2.3990 C.2   1 <1>   0.5440 
  3 N       -3.5440     2.1880    -1.4280 N.am  1 <1>  -0.6600 
  4 C       -1.2460     2.9060    -2.1960 C.ar  1 <1>   0.3960 
  5 C       -4.4640     1.0130    -1.3960 C.3   1 <1>   0.1400 
  6 C       -3.5350     2.9360    -0.1370 C.3   1 <1>   0.1400 
  7 N       -0.7020     2.9520    -0.9670 N.ar  1 <1>  -0.6200 
  8 C       -0.5750     3.4210    -3.3110 C.ar  1 <1>   0.1600 
  9 C       -4.0250     0.0540    -0.2710 C.3   1 <1>   0.3430 
 10 C       -3.0580     1.9960     0.9870 C.3   1 <1>   0.3430 
 11 C        0.4950     3.5060    -0.9350 C.ar  1 <1>   0.4100 
 12 N        0.6210     3.9910    -3.2940 N.ar  1 <1>  -0.6200 
 13 N       -3.9040     0.7450     1.0710 N.4   1 <1>  -0.9590 
 14 N        1.0760     3.5610     0.3140 N.pl3 1 <1>  -0.8380 
 15 C        1.1320     4.0090    -2.0800 C.ar  1 <1>   0.1600 
 16 C       -3.3530    -0.1910     2.0970 C.3   1 <1>   0.2630 
 17 C        0.8390     4.7850     1.1280 C.3   1 <1>   0.3530 
 18 C        2.3890     2.8840     0.5100 C.3   1 <1>   0.1290 
 19 C        1.9310     5.8250     0.9030 C.ar  1 <1>  -0.1440 
 20 C        3.0120     5.9050     1.7680 C.ar  1 <1>  -0.1500 
 21 C        1.8520     6.7130    -0.1590 C.ar  1 <1>  -0.1500 
 22 C        4.0020     6.8510     1.5690 C.ar  1 <1>  -0.1500 
 23 C        2.8420     7.6580    -0.3570 C.ar  1 <1>  -0.1500 
 24 C        3.9350     7.7410     0.4990 C.ar  1 <1>  -0.0230 
 25 N        4.9560     8.7140     0.2850 N.pl3 1 <1>   0.5930 
 26 N        4.7230     9.9480    -0.2330 N.2   1 <1>  -0.7070 
 27 C        6.2810     8.5750     0.5440 C.2   1 <1>  -0.3020 
 28 C        5.8770    10.5370    -0.2750 C.2   1 <1>   0.1390 
 29 C        6.8980     9.7240     0.2000 C.2   1 <1>  -0.1500 
 30 H       -4.4490     0.4870    -2.3350 H     1 <1>   0.0800 
 31 H       -5.4730     1.3480    -1.2310 H     1 <1>   0.0800 
 32 H       -4.5280     3.2890     0.0780 H     1 <1>   0.0800 
 33 H       -2.9000     3.8010    -0.1990 H     1 <1>   0.0800 
 34 H       -1.0600     3.3500    -4.2710 H     1 <1>   0.1500 
 35 H       -3.0710    -0.3630    -0.5460 H     1 <1>   0.0800 
 36 H       -4.7310    -0.7570    -0.2040 H     1 <1>   0.0800 
 37 H       -3.0870     2.5240     1.9260 H     1 <1>   0.0800 
 38 H       -2.0300     1.7310     0.7910 H     1 <1>   0.0800 
 39 H       -4.8510     1.0300     1.3570 H     1 <1>   0.4500 
 40 H        2.1070     4.4460    -1.9560 H     1 <1>   0.1500 
 41 H       -2.3580    -0.5020     1.8220 H     1 <1>   0.0800 
 42 H       -3.9770    -1.0660     2.1810 H     1 <1>   0.0800 
 43 H       -3.3090     0.2920     3.0600 H     1 <1>   0.0800 
 44 H        0.8020     4.5130     2.1690 H     1 <1>   0.0800 
 45 H       -0.1150     5.2100     0.8680 H     1 <1>   0.0800 
 46 H        2.4220     1.9750    -0.0670 H     1 <1>   0.0800 
 47 H        2.5230     2.6380     1.5480 H     1 <1>   0.0800 
 48 H        3.1940     3.5250     0.1920 H     1 <1>   0.0800 
 49 H        3.0880     5.2310     2.6030 H     1 <1>   0.1500 
 50 H        1.0170     6.6770    -0.8390 H     1 <1>   0.1500 
 51 H        4.8270     6.8990     2.2570 H     1 <1>   0.1500 
 52 H        2.7670     8.3450    -1.1850 H     1 <1>   0.1500 
 53 H        6.6970     7.6730     0.9500 H     1 <1>   0.1500 
 54 H        6.0190    11.5410    -0.6390 H     1 <1>   0.1500 
 55 H        7.9390     9.9860     0.2630 H     1 <1>   0.1500 
@<TRIPOS>BOND
  1   1   2  2   
  2   2   3  am  
  3   2   4  1   
  4   3   5  1   
  5   3   6  1   
  6   4   7  ar  
  7   4   8  ar  
  8   5   9  1   
  9   5  30  1   
 10   5  31  1   
 11   6  10  1   
 12   6  32  1   
 13   6  33  1   
 14   7  11  ar  
 15   8  12  ar  
 16   8  34  1   
 17   9  13  1   
 18   9  35  1   
 19   9  36  1   
 20  10  13  1   
 21  10  37  1   
 22  10  38  1   
 23  11  14  1   
 24  11  15  ar  
 25  12  15  ar  
 26  13  16  1   
 27  13  39  1   
 28  14  17  1   
 29  14  18  1   
 30  15  40  1   
 31  16  41  1   
 32  16  42  1   
 33  16  43  1   
 34  17  19  1   
 35  17  44  1   
 36  17  45  1   
 37  18  46  1   
 38  18  47  1   
 39  18  48  1   
 40  19  20  ar  
 41  19  21  ar  
 42  20  22  ar  
 43  20  49  1   
 44  21  23  ar  
 45  21  50  1   
 46  22  24  ar  
 47  22  51  1   
 48  23  24  ar  
 49  23  52  1   
 50  24  25  1   
 51  25  26  1   
 52  25  27  1   
 53  26  28  2   
 54  27  29  2   
 55  27  53  1   
 56  28  29  1   
 57  28  54  1   
 58  29  55  1   
@<TRIPOS>SUBSTRUCTURE
  1 ****  11 GROUP 4 **** **** 0

# MOE 2024.06 (io_trps.svl 2023.06)
