@<TRIPOS>MOLECULE
NONAME
45 48 1 0 0 
SMALL
USER_CHARGES


@<TRIPOS>ATOM
  1 S       -0.2130     0.8220     1.9230 S.3   1 <1>  -0.0800 
  2 C       -0.1670     2.1090     0.7370 C.2   1 <1>  -0.1400 
  3 C        1.4730     1.1090     2.3290 C.2   1 <1>  -0.1100 
  4 C        1.0410     2.6820     0.6680 C.2   1 <1>  -0.1810 
  5 C       -1.3650     2.5000    -0.0840 C.3   1 <1>   0.0200 
  6 C        1.9840     2.1120     1.5880 C.2   1 <1>  -0.1500 
  7 C        1.3180     3.8230    -0.3150 C.3   1 <1>   0.4610 
  8 C       -1.0880     3.9010    -0.6530 C.3   1 <1>   0.1200 
  9 O        0.2130     3.9870    -1.1870 O.3   1 <1>  -0.5600 
 10 C        2.5140     3.4780    -1.2090 C.3   1 <1>  -0.1600 
 11 C        1.5690     5.1430     0.4270 C.3   1 <1>  -0.1600 
 12 C        2.8610     4.6270    -2.1560 C.3   1 <1>   0.1400 
 13 C        1.9210     6.2770    -0.5380 C.3   1 <1>   0.1400 
 14 N        3.0910     5.8650    -1.3600 N.am  1 <1>  -0.6600 
 15 C        4.3410     6.4450    -1.2620 C.2   1 <1>   0.5440 
 16 O        5.3140     5.8120    -1.6290 O.2   1 <1>  -0.5700 
 17 C        4.5280     7.7750    -0.7150 C.ar  1 <1>   0.0860 
 18 C        3.7900     8.8660    -1.1740 C.ar  1 <1>  -0.1500 
 19 C        5.4640     8.0090     0.2930 C.ar  1 <1>  -0.1500 
 20 C        3.9610    10.1270    -0.6350 C.ar  1 <1>  -0.1500 
 21 C        5.6420     9.2680     0.8370 C.ar  1 <1>  -0.1500 
 22 C        4.8840    10.3400     0.3760 C.ar  1 <1>   0.0830 
 23 O        4.9890    11.5990     0.8550 O.3   1 <1>  -0.3630 
 24 C        5.9200    11.9360     1.8590 C.3   1 <1>   0.0400 
 25 H        1.9080     0.4870     3.0900 H     1 <1>   0.1500 
 26 H       -2.2490     2.5210     0.5260 H     1 <1>   0.0800 
 27 H       -1.5090     1.7940    -0.8820 H     1 <1>   0.0800 
 28 H        2.9950     2.4760     1.6510 H     1 <1>   0.1500 
 29 H       -1.1910     4.6440     0.1170 H     1 <1>   0.0800 
 30 H       -1.7830     4.1240    -1.4420 H     1 <1>   0.0800 
 31 H        2.2910     2.5920    -1.7740 H     1 <1>   0.0800 
 32 H        3.3770     3.2700    -0.6040 H     1 <1>   0.0800 
 33 H        2.3900     5.0110     1.1080 H     1 <1>   0.0800 
 34 H        0.7110     5.4080     1.0140 H     1 <1>   0.0800 
 35 H        2.0500     4.7960    -2.8430 H     1 <1>   0.0800 
 36 H        3.7360     4.3750    -2.7320 H     1 <1>   0.0800 
 37 H        2.1360     7.1660     0.0270 H     1 <1>   0.0800 
 38 H        1.0870     6.4810    -1.1890 H     1 <1>   0.0800 
 39 H        3.0760     8.7160    -1.9660 H     1 <1>   0.1500 
 40 H        6.0560     7.1820     0.6450 H     1 <1>   0.1500 
 41 H        3.3840    10.9600    -0.9960 H     1 <1>   0.1500 
 42 H        6.3730     9.3960     1.6130 H     1 <1>   0.1500 
 43 H        5.8260    12.9870     2.0630 H     1 <1>   0.0800 
 44 H        6.9120    11.7200     1.5030 H     1 <1>   0.0800 
 45 H        5.6970    11.3700     2.7470 H     1 <1>   0.0800 
@<TRIPOS>BOND
  1   1   2  1   
  2   1   3  1   
  3   2   4  2   
  4   2   5  1   
  5   3   6  2   
  6   3  25  1   
  7   4   6  1   
  8   4   7  1   
  9   5   8  1   
 10   5  26  1   
 11   5  27  1   
 12   6  28  1   
 13   7   9  1   
 14   7  10  1   
 15   7  11  1   
 16   8   9  1   
 17   8  29  1   
 18   8  30  1   
 19  10  12  1   
 20  10  31  1   
 21  10  32  1   
 22  11  13  1   
 23  11  33  1   
 24  11  34  1   
 25  12  14  1   
 26  12  35  1   
 27  12  36  1   
 28  13  14  1   
 29  13  37  1   
 30  13  38  1   
 31  14  15  am  
 32  15  16  2   
 33  15  17  1   
 34  17  18  ar  
 35  17  19  ar  
 36  18  20  ar  
 37  18  39  1   
 38  19  21  ar  
 39  19  40  1   
 40  20  22  ar  
 41  20  41  1   
 42  21  22  ar  
 43  21  42  1   
 44  22  23  1   
 45  23  24  1   
 46  24  43  1   
 47  24  44  1   
 48  24  45  1   
@<TRIPOS>SUBSTRUCTURE
  1 ****  13 GROUP 4 **** **** 0

# MOE 2024.06 (io_trps.svl 2023.06)
