@<TRIPOS>MOLECULE
NONAME
51 53 1 0 0 
SMALL
USER_CHARGES


@<TRIPOS>ATOM
  1 O        1.0130     1.5980    -0.9590 O.3   1 <1>  -0.0190 
  2 N        1.8890     0.7290    -1.3640 N.2   1 <1>  -0.4100 
  3 C        1.0880     1.8000     0.3290 C.2   1 <1>  -0.0400 
  4 C        2.5220     0.3420    -0.3140 C.2   1 <1>   0.1080 
  5 C        2.0520     1.0050     0.8160 C.2   1 <1>  -0.1500 
  6 C        0.1780     2.8210     0.9860 C.3   1 <1>   0.0200 
  7 C        3.6260    -0.6920    -0.3200 C.3   1 <1>  -0.0590 
  8 C        0.1580     4.1240     0.1610 C.3   1 <1>  -0.0800 
  9 C       -0.4980     5.3360     0.8150 C.3   1 <1>   0.2000 
 10 C        1.5440     4.6310    -0.2330 C.3   1 <1>   0.3430 
 11 O       -0.0860     5.4580     2.1370 O.3   1 <1>  -0.6800 
 12 C        0.0480     6.5190     0.0060 C.3   1 <1>   0.3430 
 13 N        1.3770     6.0830    -0.5590 N.4   1 <1>  -0.9590 
 14 C        2.5410     6.8960    -0.0690 C.3   1 <1>   0.3430 
 15 C        2.5080     8.3420    -0.5690 C.3   1 <1>   0.1200 
 16 O        3.6300     8.9870    -0.0250 O.3   1 <1>  -0.3630 
 17 C        3.9240    10.2830    -0.3140 C.ar  1 <1>   0.0820 
 18 C        5.0940    10.8180     0.2220 C.ar  1 <1>  -0.1430 
 19 C        3.1070    11.0780    -1.1170 C.ar  1 <1>  -0.1500 
 20 C        5.4320    12.1330    -0.0560 C.ar  1 <1>  -0.1500 
 21 C        6.0230     9.9950     1.1080 C.3   1 <1>  -0.0170 
 22 C        3.4560    12.3900    -1.3840 C.ar  1 <1>  -0.1500 
 23 C        4.6190    12.9170    -0.8540 C.ar  1 <1>  -0.1500 
 24 C        7.0160     9.1990     0.2580 C.3   1 <1>  -0.2400 
 25 H        2.4080     0.8770     1.8220 H     1 <1>   0.1500 
 26 H       -0.8190     2.4180     1.0460 H     1 <1>   0.0800 
 27 H        0.5240     2.9900     1.9900 H     1 <1>   0.0800 
 28 H        4.5160    -0.2860     0.1230 H     1 <1>   0.0800 
 29 H        3.8450    -0.9910    -1.3290 H     1 <1>   0.0800 
 30 H        3.3160    -1.5580     0.2370 H     1 <1>   0.0800 
 31 H       -0.3700     3.9170    -0.7550 H     1 <1>   0.0800 
 32 H       -1.5750     5.2940     0.8040 H     1 <1>   0.0800 
 33 H        1.9380     4.0750    -1.0720 H     1 <1>   0.0800 
 34 H        2.2140     4.5140     0.6040 H     1 <1>   0.0800 
 35 H        0.8840     5.4510     2.2440 H     1 <1>   0.4000 
 36 H        0.1330     7.3930     0.6310 H     1 <1>   0.0800 
 37 H       -0.6310     6.7310    -0.8040 H     1 <1>   0.0800 
 38 H        1.3350     6.1610    -1.5860 H     1 <1>   0.4500 
 39 H        2.5480     6.9040     1.0090 H     1 <1>   0.0800 
 40 H        3.4590     6.4460    -0.4100 H     1 <1>   0.0800 
 41 H        1.6310     8.8590    -0.2230 H     1 <1>   0.0800 
 42 H        2.5870     8.3820    -1.6410 H     1 <1>   0.0800 
 43 H        2.1980    10.7070    -1.5460 H     1 <1>   0.1500 
 44 H        6.3350    12.5560     0.3480 H     1 <1>   0.1500 
 45 H        6.5660    10.6480     1.7700 H     1 <1>   0.0800 
 46 H        5.4510     9.3250     1.7250 H     1 <1>   0.0800 
 47 H        2.8260    13.0040    -2.0040 H     1 <1>   0.1500 
 48 H        4.8920    13.9370    -1.0620 H     1 <1>   0.1500 
 49 H        7.6110     9.8680    -0.3380 H     1 <1>   0.0800 
 50 H        6.4900     8.5290    -0.3980 H     1 <1>   0.0800 
 51 H        7.6700     8.6250     0.8910 H     1 <1>   0.0800 
@<TRIPOS>BOND
  1   1   2  1   
  2   1   3  1   
  3   2   4  2   
  4   3   5  2   
  5   3   6  1   
  6   4   5  1   
  7   4   7  1   
  8   5  25  1   
  9   6   8  1   
 10   6  26  1   
 11   6  27  1   
 12   7  28  1   
 13   7  29  1   
 14   7  30  1   
 15   8   9  1   
 16   8  10  1   
 17   8  31  1   
 18   9  11  1   
 19   9  12  1   
 20   9  32  1   
 21  10  13  1   
 22  10  33  1   
 23  10  34  1   
 24  11  35  1   
 25  12  13  1   
 26  12  36  1   
 27  12  37  1   
 28  13  14  1   
 29  13  38  1   
 30  14  15  1   
 31  14  39  1   
 32  14  40  1   
 33  15  16  1   
 34  15  41  1   
 35  15  42  1   
 36  16  17  1   
 37  17  18  ar  
 38  17  19  ar  
 39  18  20  ar  
 40  18  21  1   
 41  19  22  ar  
 42  19  43  1   
 43  20  23  ar  
 44  20  44  1   
 45  21  24  1   
 46  21  45  1   
 47  21  46  1   
 48  22  23  ar  
 49  22  47  1   
 50  23  48  1   
 51  24  49  1   
 52  24  50  1   
 53  24  51  1   
@<TRIPOS>SUBSTRUCTURE
  1 ****  14 GROUP 4 **** **** 0

# MOE 2024.06 (io_trps.svl 2023.06)
