@<TRIPOS>MOLECULE
NONAME
59 62 1 0 0 
SMALL
USER_CHARGES


@<TRIPOS>ATOM
  1 O        0.0840    -0.5370     0.2320 O.2   1 <1>  -0.5700 
  2 C       -0.1040    -1.7350     0.3730 C.2   1 <1>   0.5440 
  3 N        0.9620    -2.6110     0.4550 N.am  1 <1>  -0.4200 
  4 C       -1.4330    -2.2660     0.4570 C.ar  1 <1>   0.0860 
  5 C        0.7130    -3.9670     0.5840 C.2   1 <1>   0.4490 
  6 C        2.3550    -2.0770     0.3940 C.3   1 <1>   0.1400 
  7 C       -1.5650    -3.6470     0.6030 C.ar  1 <1>   0.1790 
  8 C       -2.5960    -1.4940     0.4010 C.ar  1 <1>  -0.1500 
  9 N       -0.4620    -4.4690     0.6580 N.2   1 <1>  -0.6290 
 10 C        1.8840    -4.9410     0.6310 C.3   1 <1>  -0.0990 
 11 C        3.0410    -2.4740    -0.9180 C.3   1 <1>  -0.1600 
 12 C       -2.8250    -4.2180     0.6900 C.ar  1 <1>  -0.1500 
 13 C       -3.8410    -2.0790     0.4830 C.ar  1 <1>  -0.1500 
 14 C        2.6500    -5.0170    -0.6990 C.3   1 <1>  -0.1600 
 15 C        3.6610    -3.8790    -0.8900 C.3   1 <1>  -0.1600 
 16 C       -3.9910    -3.4630     0.6230 C.ar  1 <1>   0.0860 
 17 C       -5.3080    -4.0720     0.6910 C.2   1 <1>   0.5440 
 18 O       -6.2900    -3.4190     0.9840 O.2   1 <1>  -0.5700 
 19 N       -5.4870    -5.3980     0.4040 N.am  1 <1>  -0.7300 
 20 C       -6.7760    -6.0910     0.5090 C.3   1 <1>   0.2200 
 21 C       -6.5470    -7.5490     0.8870 C.3   1 <1>  -0.1600 
 22 C       -7.5090    -5.9920    -0.8240 C.3   1 <1>  -0.1600 
 23 C       -7.8780    -8.2960     0.9230 C.3   1 <1>   0.3430 
 24 C       -8.8240    -6.7580    -0.7590 C.3   1 <1>   0.3430 
 25 N       -8.5760    -8.1950    -0.4020 N.4   1 <1>  -0.9590 
 26 C       -9.8250    -9.0140    -0.4520 C.3   1 <1>   0.4230 
 27 C       -9.5060   -10.4780    -0.1410 C.3   1 <1>  -0.2400 
 28 C      -10.4500    -8.9340    -1.8460 C.3   1 <1>  -0.2400 
 29 H        2.9200    -2.4320     1.2380 H     1 <1>   0.0800 
 30 H        2.3450    -1.0030     0.4610 H     1 <1>   0.0800 
 31 H       -2.5060    -0.4250     0.2930 H     1 <1>   0.1500 
 32 H        1.4910    -5.9200     0.8420 H     1 <1>   0.0800 
 33 H        2.5430    -4.6930     1.4420 H     1 <1>   0.0800 
 34 H        3.8380    -1.7720    -1.0960 H     1 <1>   0.0800 
 35 H        2.3480    -2.3800    -1.7370 H     1 <1>   0.0800 
 36 H       -2.8710    -5.2830     0.8210 H     1 <1>   0.1500 
 37 H       -4.7250    -1.4630     0.4390 H     1 <1>   0.1500 
 38 H        1.9500    -5.0290    -1.5180 H     1 <1>   0.0800 
 39 H        3.1900    -5.9480    -0.7270 H     1 <1>   0.0800 
 40 H        4.3990    -3.9260    -0.1070 H     1 <1>   0.0800 
 41 H        4.1780    -4.0400    -1.8210 H     1 <1>   0.0800 
 42 H       -4.6990    -5.9320     0.0350 H     1 <1>   0.3700 
 43 H       -7.3680    -5.6150     1.2760 H     1 <1>   0.0800 
 44 H       -6.0970    -7.5950     1.8640 H     1 <1>   0.0800 
 45 H       -5.8860    -8.0270     0.1860 H     1 <1>   0.0800 
 46 H       -6.9020    -6.3770    -1.6240 H     1 <1>   0.0800 
 47 H       -7.7220    -4.9570    -1.0300 H     1 <1>   0.0800 
 48 H       -8.5030    -7.8800     1.6960 H     1 <1>   0.0800 
 49 H       -7.6830    -9.3270     1.1660 H     1 <1>   0.0800 
 50 H       -9.3070    -6.6870    -1.7190 H     1 <1>   0.0800 
 51 H       -9.4690    -6.3040    -0.0230 H     1 <1>   0.0800 
 52 H       -7.9470    -8.5830    -1.1140 H     1 <1>   0.4500 
 53 H      -10.5340    -8.6470     0.2740 H     1 <1>   0.0800 
 54 H       -8.7260   -10.8520    -0.7820 H     1 <1>   0.0800 
 55 H      -10.3820   -11.0820    -0.3030 H     1 <1>   0.0800 
 56 H       -9.2300   -10.6150     0.8880 H     1 <1>   0.0800 
 57 H       -9.7380    -9.1970    -2.6090 H     1 <1>   0.0800 
 58 H      -10.8530    -7.9580    -2.0450 H     1 <1>   0.0800 
 59 H      -11.2740    -9.6220    -1.9140 H     1 <1>   0.0800 
@<TRIPOS>BOND
  1   1   2  2   
  2   2   3  am  
  3   2   4  1   
  4   3   5  1   
  5   3   6  1   
  6   4   7  ar  
  7   4   8  ar  
  8   5   9  2   
  9   5  10  1   
 10   6  11  1   
 11   6  29  1   
 12   6  30  1   
 13   7   9  1   
 14   7  12  ar  
 15   8  13  ar  
 16   8  31  1   
 17  10  14  1   
 18  10  32  1   
 19  10  33  1   
 20  11  15  1   
 21  11  34  1   
 22  11  35  1   
 23  12  16  ar  
 24  12  36  1   
 25  13  16  ar  
 26  13  37  1   
 27  14  15  1   
 28  14  38  1   
 29  14  39  1   
 30  15  40  1   
 31  15  41  1   
 32  16  17  1   
 33  17  18  2   
 34  17  19  am  
 35  19  20  1   
 36  19  42  1   
 37  20  21  1   
 38  20  22  1   
 39  20  43  1   
 40  21  23  1   
 41  21  44  1   
 42  21  45  1   
 43  22  24  1   
 44  22  46  1   
 45  22  47  1   
 46  23  25  1   
 47  23  48  1   
 48  23  49  1   
 49  24  25  1   
 50  24  50  1   
 51  24  51  1   
 52  25  26  1   
 53  25  52  1   
 54  26  27  1   
 55  26  28  1   
 56  26  53  1   
 57  27  54  1   
 58  27  55  1   
 59  27  56  1   
 60  28  57  1   
 61  28  58  1   
 62  28  59  1   
@<TRIPOS>SUBSTRUCTURE
  1 ****  12 GROUP 4 **** **** 0

# MOE 2024.06 (io_trps.svl 2023.06)
