@<TRIPOS>MOLECULE
NONAME
48 49 1 0 0 
SMALL
USER_CHARGES


@<TRIPOS>ATOM
  1 O       -0.6400     0.1610    -0.2630 O.2   1 <1>  -0.5700 
  2 C       -1.4010     1.0050     0.1490 C.2   1 <1>   0.5690 
  3 N       -2.7560     0.7780     0.2090 N.am  1 <1>  -0.6600 
  4 C       -0.8260     2.3450     0.5820 C.3   1 <1>  -0.0990 
  5 C       -3.3220    -0.5420    -0.2060 C.3   1 <1>   0.1400 
  6 C       -3.7650     1.7970     0.6170 C.3   1 <1>   0.1400 
  7 C        0.7000     2.3940     0.4880 C.3   1 <1>   0.1200 
  8 C       -4.2400    -0.4190    -1.4320 C.3   1 <1>   0.1400 
  9 C       -4.3490     2.4640    -0.6340 C.3   1 <1>  -0.1600 
 10 O        1.1260     3.6560     0.8690 O.3   1 <1>  -0.6800 
 11 N       -5.5290     0.2530    -1.0780 N.am  1 <1>  -0.6600 
 12 C       -5.5590     1.7390    -1.2450 C.3   1 <1>   0.1400 
 13 C       -6.6520    -0.4180    -0.6580 C.2   1 <1>   0.5690 
 14 O       -7.6770     0.1650    -0.3910 O.2   1 <1>  -0.5700 
 15 C       -6.6350    -1.9360    -0.5180 C.3   1 <1>  -0.0990 
 16 C       -7.8890    -2.5020     0.1600 C.3   1 <1>   0.0210 
 17 C       -7.8770    -4.0120     0.3920 C.2   1 <1>  -0.1810 
 18 C       -7.0400    -5.0240     0.0830 C.2   1 <1>  -0.0400 
 19 C       -8.9100    -4.6630     1.0730 C.2   1 <1>   0.1080 
 20 O       -7.5590    -6.1270     0.5520 O.3   1 <1>  -0.0190 
 21 C       -5.7150    -5.1650    -0.6430 C.3   1 <1>  -0.0600 
 22 N       -8.6900    -5.9240     1.1530 N.2   1 <1>  -0.4100 
 23 C      -10.1420    -4.0020     1.6550 C.3   1 <1>  -0.0590 
 24 H       -1.1040     2.5200     1.6050 H     1 <1>   0.0800 
 25 H       -1.2460     3.1100    -0.0420 H     1 <1>   0.0800 
 26 H       -3.8650    -0.9690     0.6180 H     1 <1>   0.0800 
 27 H       -2.5270    -1.2250    -0.4490 H     1 <1>   0.0800 
 28 H       -3.3090     2.5450     1.2390 H     1 <1>   0.0800 
 29 H       -4.5460     1.3340     1.1970 H     1 <1>   0.0800 
 30 H        1.0410     2.2030    -0.5160 H     1 <1>   0.0800 
 31 H        1.1440     1.6740     1.1560 H     1 <1>   0.0800 
 32 H       -4.4360    -1.4000    -1.8220 H     1 <1>   0.0800 
 33 H       -3.7330     0.1320    -2.2050 H     1 <1>   0.0800 
 34 H       -3.5810     2.5770    -1.3780 H     1 <1>   0.0800 
 35 H       -4.6720     3.4550    -0.3730 H     1 <1>   0.0800 
 36 H        0.9220     4.3150     0.1780 H     1 <1>   0.4000 
 37 H       -5.6250     1.9720    -2.2930 H     1 <1>   0.0800 
 38 H       -6.4460     2.1330    -0.7780 H     1 <1>   0.0800 
 39 H       -5.7810    -2.2180     0.0660 H     1 <1>   0.0800 
 40 H       -6.5560    -2.3570    -1.5020 H     1 <1>   0.0800 
 41 H       -8.7490    -2.2550    -0.4380 H     1 <1>   0.0800 
 42 H       -8.0080    -2.0160     1.1130 H     1 <1>   0.0800 
 43 H       -5.3590    -4.2330    -1.0310 H     1 <1>   0.0800 
 44 H       -5.8300    -5.8520    -1.4620 H     1 <1>   0.0800 
 45 H       -4.9780    -5.5600     0.0330 H     1 <1>   0.0800 
 46 H      -10.6850    -3.4920     0.8820 H     1 <1>   0.0800 
 47 H       -9.8560    -3.2990     2.4150 H     1 <1>   0.0800 
 48 H      -10.7830    -4.7450     2.0950 H     1 <1>   0.0800 
@<TRIPOS>BOND
  1   1   2  2   
  2   2   3  am  
  3   2   4  1   
  4   3   5  1   
  5   3   6  1   
  6   4   7  1   
  7   4  24  1   
  8   4  25  1   
  9   5   8  1   
 10   5  26  1   
 11   5  27  1   
 12   6   9  1   
 13   6  28  1   
 14   6  29  1   
 15   7  10  1   
 16   7  30  1   
 17   7  31  1   
 18   8  11  1   
 19   8  32  1   
 20   8  33  1   
 21   9  12  1   
 22   9  34  1   
 23   9  35  1   
 24  10  36  1   
 25  11  12  1   
 26  11  13  am  
 27  12  37  1   
 28  12  38  1   
 29  13  14  2   
 30  13  15  1   
 31  15  16  1   
 32  15  39  1   
 33  15  40  1   
 34  16  17  1   
 35  16  41  1   
 36  16  42  1   
 37  17  18  2   
 38  17  19  1   
 39  18  20  1   
 40  18  21  1   
 41  19  22  2   
 42  19  23  1   
 43  20  22  1   
 44  21  43  1   
 45  21  44  1   
 46  21  45  1   
 47  23  46  1   
 48  23  47  1   
 49  23  48  1   
@<TRIPOS>SUBSTRUCTURE
  1 ****   8 GROUP 4 **** **** 0

# MOE 2024.06 (io_trps.svl 2023.06)
