@<TRIPOS>MOLECULE
NONAME
50 53 1 0 0 
SMALL
USER_CHARGES


@<TRIPOS>ATOM
  1 O       -0.5280     0.2130     0.8220 O.2   1 <1>  -0.5700 
  2 C       -1.5170     0.9120     0.7240 C.2   1 <1>   0.7150 
  3 N       -2.7580     0.3260     0.6580 N.am  1 <1>  -0.6600 
  4 C       -1.3890     2.3430     0.6610 C.2   1 <1>  -0.2370 
  5 C       -3.8150     0.8190    -0.2670 C.3   1 <1>   0.1400 
  6 C       -2.9750    -1.1190     0.9190 C.3   1 <1>   0.1400 
  7 N       -2.3020     3.1910     1.2400 N.pl3 1 <1>   0.0330 
  8 C       -0.4160     3.1120     0.0910 C.2   1 <1>  -0.1500 
  9 C       -4.7300    -0.3810    -0.5500 C.3   1 <1>   0.2000 
 10 C       -3.8510    -1.5960    -0.2390 C.3   1 <1>  -0.0800 
 11 C       -1.9180     4.4860     1.0180 C.ar  1 <1>  -0.1520 
 12 C       -0.7310     4.4670     0.2960 C.ar  1 <1>   0.0000 
 13 O       -5.8080    -0.3640     0.3420 O.3   1 <1>  -0.5600 
 14 C       -4.6260    -2.8900     0.0680 C.3   1 <1>   0.0200 
 15 C       -2.5110     5.6940     1.3940 C.ar  1 <1>  -0.1500 
 16 C       -0.1160     5.6710    -0.0650 C.ar  1 <1>  -0.1500 
 17 C       -6.9230     0.3510    -0.0910 C.3   1 <1>   0.0400 
 18 C       -3.7230    -4.1060     0.2050 C.2   1 <1>  -0.0400 
 19 C       -1.8980     6.8710     1.0330 C.ar  1 <1>  -0.1500 
 20 C       -0.7010     6.8680     0.3030 C.ar  1 <1>   0.0820 
 21 O       -4.2530    -5.2440     0.5650 O.3   1 <1>  -0.0190 
 22 C       -2.4070    -4.3080     0.0260 C.2   1 <1>  -0.1500 
 23 O       -0.1870     8.0930     0.0030 O.3   1 <1>  -0.3620 
 24 N       -3.3660    -6.1940     0.6400 N.2   1 <1>  -0.4100 
 25 C       -2.2440    -5.6590     0.3210 C.2   1 <1>   0.1080 
 26 C        1.0230     8.2040    -0.7130 C.3   1 <1>   0.0400 
 27 C       -0.9280    -6.4010     0.2760 C.3   1 <1>  -0.0590 
 28 H       -4.3650     1.6310     0.1720 H     1 <1>   0.0800 
 29 H       -3.3530     1.1480    -1.1820 H     1 <1>   0.0800 
 30 H       -2.0480    -1.6630     0.9690 H     1 <1>   0.0800 
 31 H       -3.4980    -1.2250     1.8540 H     1 <1>   0.0800 
 32 H       -3.1110     2.8930     1.7940 H     1 <1>   0.2700 
 33 H        0.4590     2.7630    -0.4300 H     1 <1>   0.1500 
 34 H       -5.0990    -0.3990    -1.5610 H     1 <1>   0.0800 
 35 H       -3.2130    -1.7650    -1.0880 H     1 <1>   0.0800 
 36 H       -5.3300    -3.0800    -0.7220 H     1 <1>   0.0800 
 37 H       -5.1840    -2.7740     0.9810 H     1 <1>   0.0800 
 38 H       -3.4280     5.6960     1.9560 H     1 <1>   0.1500 
 39 H        0.7990     5.6190    -0.6210 H     1 <1>   0.1500 
 40 H       -7.6670     0.3100     0.6860 H     1 <1>   0.0800 
 41 H       -7.3130    -0.1050    -0.9850 H     1 <1>   0.0800 
 42 H       -6.6490     1.3740    -0.2750 H     1 <1>   0.0800 
 43 H       -2.3250     7.8190     1.3040 H     1 <1>   0.1500 
 44 H       -1.6300    -3.6300    -0.2720 H     1 <1>   0.1500 
 45 H        1.2440     9.2490    -0.8340 H     1 <1>   0.0800 
 46 H        0.9020     7.7420    -1.6770 H     1 <1>   0.0800 
 47 H        1.8060     7.7270    -0.1510 H     1 <1>   0.0800 
 48 H       -0.2280    -5.9440     0.9510 H     1 <1>   0.0800 
 49 H       -0.5290    -6.3750    -0.7210 H     1 <1>   0.0800 
 50 H       -1.0750    -7.4260     0.5670 H     1 <1>   0.0800 
@<TRIPOS>BOND
  1   1   2  2   
  2   2   3  am  
  3   2   4  1   
  4   3   5  1   
  5   3   6  1   
  6   4   7  1   
  7   4   8  2   
  8   5   9  1   
  9   5  28  1   
 10   5  29  1   
 11   6  10  1   
 12   6  30  1   
 13   6  31  1   
 14   7  11  1   
 15   7  32  1   
 16   8  12  1   
 17   8  33  1   
 18   9  10  1   
 19   9  13  1   
 20   9  34  1   
 21  10  14  1   
 22  10  35  1   
 23  11  12  ar  
 24  11  15  ar  
 25  12  16  ar  
 26  13  17  1   
 27  14  18  1   
 28  14  36  1   
 29  14  37  1   
 30  15  19  ar  
 31  15  38  1   
 32  16  20  ar  
 33  16  39  1   
 34  17  40  1   
 35  17  41  1   
 36  17  42  1   
 37  18  21  1   
 38  18  22  2   
 39  19  20  ar  
 40  19  43  1   
 41  20  23  1   
 42  21  24  1   
 43  22  25  1   
 44  22  44  1   
 45  23  26  1   
 46  24  25  2   
 47  25  27  1   
 48  26  45  1   
 49  26  46  1   
 50  26  47  1   
 51  27  48  1   
 52  27  49  1   
 53  27  50  1   
@<TRIPOS>SUBSTRUCTURE
  1 ****   3 GROUP 4 **** **** 0

# MOE 2024.06 (io_trps.svl 2023.06)
