@<TRIPOS>MOLECULE
NONAME
53 55 1 0 0 
SMALL
USER_CHARGES


@<TRIPOS>ATOM
  1 F       -1.3080    -0.5230    -1.3440 F     1 <1>  -0.1900 
  2 C       -1.9100     0.2940    -0.5140 C.ar  1 <1>   0.1900 
  3 C       -1.7410     1.6610    -0.6660 C.ar  1 <1>   0.1900 
  4 C       -2.6970    -0.2200     0.5060 C.ar  1 <1>  -0.1440 
  5 F       -0.9930     2.1160    -1.6420 F     1 <1>  -0.1900 
  6 C       -2.3470     2.5620     0.1980 C.ar  1 <1>  -0.1440 
  7 C       -3.3020     0.6800     1.3770 C.ar  1 <1>  -0.1500 
  8 C       -2.8920    -1.7200     0.6750 C.3   1 <1>   0.2540 
  9 C       -3.1300     2.0500     1.2240 C.ar  1 <1>  -0.1500 
 10 C       -2.1630     4.0630     0.0330 C.3   1 <1>  -0.0970 
 11 N       -3.8640    -2.2410    -0.3060 N.3   1 <1>  -0.8100 
 12 C       -3.9380    -3.7250    -0.2890 C.3   1 <1>   0.3330 
 13 C       -5.2100    -1.6600    -0.1150 C.3   1 <1>   0.1100 
 14 C       -2.5700    -4.3340    -0.6030 C.ar  1 <1>  -0.1430 
 15 C       -5.0130    -4.2430    -1.2850 C.3   1 <1>   0.2000 
 16 C       -6.2260    -2.2530    -1.1050 C.3   1 <1>   0.1200 
 17 C       -2.0430    -5.3220     0.2190 C.ar  1 <1>  -0.1500 
 18 C       -1.8450    -3.9200    -1.7120 C.ar  1 <1>  -0.1500 
 19 O       -6.2520    -3.6460    -0.9980 O.3   1 <1>  -0.5600 
 20 C       -5.2210    -5.7660    -1.2320 C.3   1 <1>   0.1200 
 21 C       -0.8180    -5.8980    -0.0660 C.ar  1 <1>   0.0830 
 22 C       -0.6110    -4.4790    -1.9950 C.ar  1 <1>  -0.1500 
 23 O       -4.1760    -6.4430    -1.8580 O.3   1 <1>  -0.6800 
 24 O       -0.3930    -6.8880     0.7560 O.3   1 <1>  -0.3630 
 25 C       -0.0820    -5.4570    -1.1700 C.ar  1 <1>   0.0830 
 26 C       -0.2880    -8.1730     0.1830 C.3   1 <1>   0.0400 
 27 O        1.1450    -5.9410    -1.4780 O.3   1 <1>  -0.3630 
 28 C        2.1800    -5.6320    -0.5700 C.3   1 <1>   0.0400 
 29 H       -3.9160     0.3160     2.1830 H     1 <1>   0.1500 
 30 H       -3.2260    -1.9420     1.6740 H     1 <1>   0.0800 
 31 H       -1.9350    -2.1940     0.5390 H     1 <1>   0.0800 
 32 H       -3.6140     2.7190     1.9150 H     1 <1>   0.1500 
 33 H       -2.7030     4.6060     0.7880 H     1 <1>   0.0800 
 34 H       -2.5200     4.3720    -0.9330 H     1 <1>   0.0800 
 35 H       -1.1200     4.3150     0.1110 H     1 <1>   0.0800 
 36 H       -4.2330    -4.0400     0.6970 H     1 <1>   0.0800 
 37 H       -5.5530    -1.8400     0.8890 H     1 <1>   0.0800 
 38 H       -5.1700    -0.5960    -0.2720 H     1 <1>   0.0800 
 39 H       -4.7460    -3.9680    -2.2900 H     1 <1>   0.0800 
 40 H       -5.9700    -1.9850    -2.1160 H     1 <1>   0.0800 
 41 H       -7.2140    -1.8870    -0.8890 H     1 <1>   0.0800 
 42 H       -2.5810    -5.6640     1.0850 H     1 <1>   0.1500 
 43 H       -2.2400    -3.1490    -2.3540 H     1 <1>   0.1500 
 44 H       -6.1250    -6.0300    -1.7530 H     1 <1>   0.0800 
 45 H       -5.2820    -6.1070    -0.2140 H     1 <1>   0.0800 
 46 H       -0.0500    -4.1490    -2.8510 H     1 <1>   0.1500 
 47 H       -3.3060    -6.1060    -1.5480 H     1 <1>   0.4000 
 48 H       -0.0600    -8.8730     0.9660 H     1 <1>   0.0800 
 49 H        0.4990    -8.1750    -0.5490 H     1 <1>   0.0800 
 50 H       -1.2260    -8.4270    -0.2780 H     1 <1>   0.0800 
 51 H        3.1050    -5.9940    -0.9800 H     1 <1>   0.0800 
 52 H        1.9830    -6.1120     0.3710 H     1 <1>   0.0800 
 53 H        2.2230    -4.5650    -0.4440 H     1 <1>   0.0800 
@<TRIPOS>BOND
  1   1   2  1   
  2   2   3  ar  
  3   2   4  ar  
  4   3   5  1   
  5   3   6  ar  
  6   4   7  ar  
  7   4   8  1   
  8   6   9  ar  
  9   6  10  1   
 10   7   9  ar  
 11   7  29  1   
 12   8  11  1   
 13   8  30  1   
 14   8  31  1   
 15   9  32  1   
 16  10  33  1   
 17  10  34  1   
 18  10  35  1   
 19  11  12  1   
 20  11  13  1   
 21  12  14  1   
 22  12  15  1   
 23  12  36  1   
 24  13  16  1   
 25  13  37  1   
 26  13  38  1   
 27  14  17  ar  
 28  14  18  ar  
 29  15  19  1   
 30  15  20  1   
 31  15  39  1   
 32  16  19  1   
 33  16  40  1   
 34  16  41  1   
 35  17  21  ar  
 36  17  42  1   
 37  18  22  ar  
 38  18  43  1   
 39  20  23  1   
 40  20  44  1   
 41  20  45  1   
 42  21  24  1   
 43  21  25  ar  
 44  22  25  ar  
 45  22  46  1   
 46  23  47  1   
 47  24  26  1   
 48  25  27  1   
 49  26  48  1   
 50  26  49  1   
 51  26  50  1   
 52  27  28  1   
 53  28  51  1   
 54  28  52  1   
 55  28  53  1   
@<TRIPOS>SUBSTRUCTURE
  1 ****  11 GROUP 4 **** **** 0

# MOE 2024.06 (io_trps.svl 2023.06)
