@<TRIPOS>MOLECULE
NONAME
45 48 1 0 0 
SMALL
USER_CHARGES


@<TRIPOS>ATOM
  1 S        0.6680     0.0370     1.5400 S.3   1 <1>  -0.0800 
  2 C        0.8600     1.5920     0.7230 C.ar  1 <1>   0.0400 
  3 C        1.2350    -0.8490     0.1150 C.2   1 <1>  -0.1400 
  4 C        1.3400     1.3970    -0.5630 C.ar  1 <1>   0.0000 
  5 C        0.5840     2.8400     1.2490 C.ar  1 <1>  -0.1500 
  6 C        1.5470     0.0090    -0.8750 C.2   1 <1>  -0.1500 
  7 C        1.3100    -2.3730     0.1780 C.3   1 <1>   0.4970 
  8 C        1.5510     2.5190    -1.3580 C.ar  1 <1>  -0.1500 
  9 C        0.7990     3.9440     0.4420 C.ar  1 <1>  -0.1500 
 10 N       -0.0210    -2.9610    -0.2920 N.4   1 <1>  -0.9590 
 11 C        1.8800    -2.9490     1.5080 C.2   1 <1>   0.9060 
 12 C        1.2800     3.7810    -0.8550 C.ar  1 <1>  -0.1500 
 13 C       -1.1250    -2.5490     0.6260 C.3   1 <1>   0.3430 
 14 C        0.1260    -4.4440    -0.3150 C.3   1 <1>   0.3430 
 15 O        1.0920    -3.3260     2.3930 O.co2 1 <1>  -0.9000 
 16 O        3.0910    -3.1730     1.5750 O.co2 1 <1>  -0.9000 
 17 C       -2.4450    -3.1560     0.1620 C.3   1 <1>  -0.1600 
 18 C       -1.1640    -5.0900    -0.8070 C.3   1 <1>  -0.1600 
 19 C       -2.3540    -4.6850     0.0740 C.3   1 <1>   0.1000 
 20 C       -3.6450    -5.2520    -0.4950 C.2   1 <1>   0.0060 
 21 N       -4.4720    -6.0570     0.1740 N.pl3 1 <1>   0.0330 
 22 N       -4.0820    -5.0180    -1.6840 N.2   1 <1>  -0.3380 
 23 C       -5.4460    -6.2930    -0.7040 C.2   1 <1>   0.0060 
 24 N       -5.2310    -5.6830    -1.8160 N.2   1 <1>  -0.3380 
 25 C       -6.6480    -7.1690    -0.4190 C.3   1 <1>  -0.0600 
 26 H        0.2170     2.9400     2.2540 H     1 <1>   0.1500 
 27 H        1.9290    -0.2600    -1.8440 H     1 <1>   0.1500 
 28 H        2.0480    -2.6550    -0.5500 H     1 <1>   0.0800 
 29 H        1.9250     2.4020    -2.3590 H     1 <1>   0.1500 
 30 H        0.5960     4.9320     0.8170 H     1 <1>   0.1500 
 31 H       -0.2170    -2.6010    -1.2290 H     1 <1>   0.4500 
 32 H        1.4430     4.6490    -1.4690 H     1 <1>   0.1500 
 33 H       -1.2160    -1.4760     0.6380 H     1 <1>   0.0800 
 34 H       -0.9130    -2.8780     1.6320 H     1 <1>   0.0800 
 35 H        0.3450    -4.8010     0.6810 H     1 <1>   0.0800 
 36 H        0.9430    -4.7260    -0.9590 H     1 <1>   0.0800 
 37 H       -2.7090    -2.7420    -0.7960 H     1 <1>   0.0800 
 38 H       -3.2190    -2.8830     0.8560 H     1 <1>   0.0800 
 39 H       -1.0530    -6.1600    -0.7850 H     1 <1>   0.0800 
 40 H       -1.3390    -4.8030    -1.8290 H     1 <1>   0.0800 
 41 H       -2.1990    -5.0790     1.0640 H     1 <1>   0.0800 
 42 H       -4.3890    -6.4120     1.1280 H     1 <1>   0.2700 
 43 H       -7.2090    -6.7730     0.4080 H     1 <1>   0.0800 
 44 H       -6.3320    -8.1710    -0.1910 H     1 <1>   0.0800 
 45 H       -7.2870    -7.2000    -1.2840 H     1 <1>   0.0800 
@<TRIPOS>BOND
  1   1   2  1   
  2   1   3  1   
  3   2   4  ar  
  4   2   5  ar  
  5   3   6  2   
  6   3   7  1   
  7   4   6  1   
  8   4   8  ar  
  9   5   9  ar  
 10   5  26  1   
 11   6  27  1   
 12   7  10  1   
 13   7  11  1   
 14   7  28  1   
 15   8  12  ar  
 16   8  29  1   
 17   9  12  ar  
 18   9  30  1   
 19  10  13  1   
 20  10  14  1   
 21  10  31  1   
 22  11  15  ar  
 23  11  16  ar  
 24  12  32  1   
 25  13  17  1   
 26  13  33  1   
 27  13  34  1   
 28  14  18  1   
 29  14  35  1   
 30  14  36  1   
 31  17  19  1   
 32  17  37  1   
 33  17  38  1   
 34  18  19  1   
 35  18  39  1   
 36  18  40  1   
 37  19  20  1   
 38  19  41  1   
 39  20  21  1   
 40  20  22  2   
 41  21  23  1   
 42  21  42  1   
 43  22  24  1   
 44  23  24  2   
 45  23  25  1   
 46  25  43  1   
 47  25  44  1   
 48  25  45  1   
@<TRIPOS>SUBSTRUCTURE
  1 ****  13 GROUP 4 **** **** 0

# MOE 2024.06 (io_trps.svl 2023.06)
