@<TRIPOS>MOLECULE
NONAME
38 39 1 0 0 
SMALL
USER_CHARGES


@<TRIPOS>ATOM
  1 CL       0.0590    -0.9910    -1.3450 Cl    1 <1>  -0.1770 
  2 C       -1.5200    -1.5550    -0.8610 C.ar  1 <1>   0.1770 
  3 C       -1.7790    -2.9110    -0.8440 C.ar  1 <1>  -0.1500 
  4 C       -2.4860    -0.6330    -0.5020 C.ar  1 <1>  -0.1500 
  5 C       -3.0310    -3.3620    -0.4600 C.ar  1 <1>   0.0830 
  6 C       -3.7390    -1.0810    -0.1180 C.ar  1 <1>  -0.1500 
  7 O       -3.2200    -4.7050    -0.4650 O.3   1 <1>  -0.3630 
  8 C       -4.0120    -2.4400    -0.0960 C.ar  1 <1>  -0.1500 
  9 C       -4.4550    -5.2760    -0.1000 C.3   1 <1>   0.1200 
 10 C       -4.3330    -6.7950    -0.2170 C.3   1 <1>  -0.1600 
 11 C       -5.6360    -7.4780     0.2080 C.3   1 <1>   0.1100 
 12 N       -5.5880    -8.9170    -0.0840 N.3   1 <1>  -0.8100 
 13 C       -6.9550    -9.4970    -0.1110 C.3   1 <1>   0.2900 
 14 C       -4.7220    -9.6470     0.8610 C.3   1 <1>   0.0300 
 15 C       -7.0000   -10.9470    -0.5870 C.2   1 <1>   0.2980 
 16 O       -6.6330   -11.2190    -1.8130 O.3   1 <1>  -0.0190 
 17 N       -7.3780   -11.9500     0.1040 N.2   1 <1>  -0.5650 
 18 N       -6.7880   -12.5040    -1.9150 N.2   1 <1>  -0.4100 
 19 C       -7.2210   -12.9400    -0.7890 C.2   1 <1>   0.3350 
 20 C       -7.5390   -14.4310    -0.4650 C.3   1 <1>   1.2010 
 21 F       -7.3170   -15.2570    -1.4860 F     1 <1>  -0.3400 
 22 F       -8.8110   -14.6220    -0.1190 F     1 <1>  -0.3400 
 23 F       -6.8110   -14.9050     0.5450 F     1 <1>  -0.3400 
 24 H       -1.0170    -3.6130    -1.1260 H     1 <1>   0.1500 
 25 H       -2.2560     0.4170    -0.5240 H     1 <1>   0.1500 
 26 H       -4.4990    -0.3740     0.1640 H     1 <1>   0.1500 
 27 H       -4.9920    -2.7590     0.2060 H     1 <1>   0.1500 
 28 H       -5.2120    -4.9030    -0.7690 H     1 <1>   0.0800 
 29 H       -4.6740    -4.9880     0.9130 H     1 <1>   0.0800 
 30 H       -3.5240    -7.1200     0.4100 H     1 <1>   0.0800 
 31 H       -4.1180    -7.0510    -1.2390 H     1 <1>   0.0800 
 32 H       -6.4420    -7.0330    -0.3520 H     1 <1>   0.0800 
 33 H       -5.8230    -7.3150     1.2570 H     1 <1>   0.0800 
 34 H       -7.5700    -8.9200    -0.7790 H     1 <1>   0.0800 
 35 H       -7.3880    -9.4410     0.8720 H     1 <1>   0.0800 
 36 H       -3.7170    -9.2680     0.8210 H     1 <1>   0.0800 
 37 H       -4.6820   -10.6910     0.6020 H     1 <1>   0.0800 
 38 H       -5.0940    -9.5520     1.8680 H     1 <1>   0.0800 
@<TRIPOS>BOND
  1   1   2  1   
  2   2   3  ar  
  3   2   4  ar  
  4   3   5  ar  
  5   3  24  1   
  6   4   6  ar  
  7   4  25  1   
  8   5   7  1   
  9   5   8  ar  
 10   6   8  ar  
 11   6  26  1   
 12   7   9  1   
 13   8  27  1   
 14   9  10  1   
 15   9  28  1   
 16   9  29  1   
 17  10  11  1   
 18  10  30  1   
 19  10  31  1   
 20  11  12  1   
 21  11  32  1   
 22  11  33  1   
 23  12  13  1   
 24  12  14  1   
 25  13  15  1   
 26  13  34  1   
 27  13  35  1   
 28  14  36  1   
 29  14  37  1   
 30  14  38  1   
 31  15  16  1   
 32  15  17  2   
 33  16  18  1   
 34  17  19  1   
 35  18  19  2   
 36  19  20  1   
 37  20  21  1   
 38  20  22  1   
 39  20  23  1   
@<TRIPOS>SUBSTRUCTURE
  1 ****  11 GROUP 4 **** **** 0

# MOE 2024.06 (io_trps.svl 2023.06)
