@<TRIPOS>MOLECULE
NONAME
54 57 1 0 0 
SMALL
USER_CHARGES


@<TRIPOS>ATOM
  1 O        1.3560    -1.2810    -0.2380 O.3   1 <1>  -0.5600 
  2 C        0.8720    -2.2740     0.6390 C.3   1 <1>   0.4180 
  3 C        1.6080    -0.0130     0.3080 C.3   1 <1>   0.1200 
  4 C       -0.1670    -1.6950     1.5890 C.2   1 <1>  -0.2880 
  5 C        2.0540    -2.8930     1.3930 C.3   1 <1>  -0.1600 
  6 C        0.2340    -3.3450    -0.2550 C.3   1 <1>  -0.1600 
  7 C        0.3130     0.6140     0.8400 C.3   1 <1>  -0.0220 
  8 C       -0.4460    -0.3930     1.6840 C.2   1 <1>  -0.2760 
  9 C        3.1300    -3.4330     0.4440 C.3   1 <1>   0.3430 
 10 C        1.2530    -4.2430    -0.9670 C.3   1 <1>   0.3430 
 11 C       -1.5070     0.1950     2.5980 C.3   1 <1>  -0.1020 
 12 N        2.5960    -3.6140    -0.9450 N.4   1 <1>  -0.9590 
 13 C        3.5750    -4.2400    -1.8830 C.3   1 <1>   0.5230 
 14 C        4.8350    -3.4000    -1.9520 C.2   1 <1>  -0.0400 
 15 O        5.6650    -3.4400    -0.9290 O.3   1 <1>  -0.2800 
 16 C        5.2950    -2.5510    -2.8960 C.2   1 <1>  -0.1500 
 17 C        6.6460    -2.5890    -1.1610 C.2   1 <1>  -0.0400 
 18 C        6.4820    -2.0180    -2.3750 C.2   1 <1>  -0.1500 
 19 C        7.7070    -2.4070    -0.0800 C.3   1 <1>   0.3800 
 20 O        7.0610    -2.0110     1.1000 O.3   1 <1>  -0.5600 
 21 C        8.7610    -1.3510    -0.4500 C.3   1 <1>  -0.1600 
 22 C        7.8870    -1.9270     2.2220 C.3   1 <1>   0.1200 
 23 C        9.7390    -1.1150     0.7080 C.3   1 <1>  -0.1600 
 24 C        8.9520    -0.8480     1.9950 C.3   1 <1>  -0.1600 
 25 H        2.0300     0.6060    -0.4650 H     1 <1>   0.0800 
 26 H        2.3290    -0.1130     1.1010 H     1 <1>   0.0800 
 27 H       -0.6690    -2.4400     2.1810 H     1 <1>   0.1500 
 28 H        1.6930    -3.7020     2.0020 H     1 <1>   0.0800 
 29 H        2.4880    -2.1770     2.0650 H     1 <1>   0.0800 
 30 H       -0.4020    -2.8630    -0.9760 H     1 <1>   0.0800 
 31 H       -0.3990    -3.9790     0.3390 H     1 <1>   0.0800 
 32 H       -0.3010     0.9400     0.0190 H     1 <1>   0.0800 
 33 H        0.5680     1.4770     1.4290 H     1 <1>   0.0800 
 34 H        3.5190    -4.3640     0.8240 H     1 <1>   0.0800 
 35 H        3.9430    -2.7240     0.4170 H     1 <1>   0.0800 
 36 H        0.9320    -4.4050    -1.9840 H     1 <1>   0.0800 
 37 H        1.2990    -5.1990    -0.4700 H     1 <1>   0.0800 
 38 H       -2.2410     0.7280     2.0190 H     1 <1>   0.0800 
 39 H       -1.0590     0.8750     3.3010 H     1 <1>   0.0800 
 40 H       -2.0070    -0.5820     3.1480 H     1 <1>   0.0800 
 41 H        2.4460    -2.6380    -1.2630 H     1 <1>   0.4500 
 42 H        3.1430    -4.3010    -2.8680 H     1 <1>   0.0800 
 43 H        3.8260    -5.2350    -1.5550 H     1 <1>   0.0800 
 44 H        4.8730    -2.2880    -3.8510 H     1 <1>   0.1500 
 45 H        7.1020    -1.2890    -2.8690 H     1 <1>   0.1500 
 46 H        8.1820    -3.3560     0.1040 H     1 <1>   0.0800 
 47 H        8.2590    -0.4300    -0.6900 H     1 <1>   0.0800 
 48 H        9.3030    -1.6730    -1.3220 H     1 <1>   0.0800 
 49 H        8.3370    -2.8910     2.3930 H     1 <1>   0.0800 
 50 H        7.2700    -1.6740     3.0660 H     1 <1>   0.0800 
 51 H       10.3830    -0.2800     0.4870 H     1 <1>   0.0800 
 52 H       10.3550    -1.9880     0.8400 H     1 <1>   0.0800 
 53 H        9.6230    -0.8220     2.8360 H     1 <1>   0.0800 
 54 H        8.4650     0.1100     1.9350 H     1 <1>   0.0800 
@<TRIPOS>BOND
  1   1   2  1   
  2   1   3  1   
  3   2   4  1   
  4   2   5  1   
  5   2   6  1   
  6   3   7  1   
  7   3  25  1   
  8   3  26  1   
  9   4   8  2   
 10   4  27  1   
 11   5   9  1   
 12   5  28  1   
 13   5  29  1   
 14   6  10  1   
 15   6  30  1   
 16   6  31  1   
 17   7   8  1   
 18   7  32  1   
 19   7  33  1   
 20   8  11  1   
 21   9  12  1   
 22   9  34  1   
 23   9  35  1   
 24  10  12  1   
 25  10  36  1   
 26  10  37  1   
 27  11  38  1   
 28  11  39  1   
 29  11  40  1   
 30  12  13  1   
 31  12  41  1   
 32  13  14  1   
 33  13  42  1   
 34  13  43  1   
 35  14  15  1   
 36  14  16  2   
 37  15  17  1   
 38  16  18  1   
 39  16  44  1   
 40  17  18  2   
 41  17  19  1   
 42  18  45  1   
 43  19  20  1   
 44  19  21  1   
 45  19  46  1   
 46  20  22  1   
 47  21  23  1   
 48  21  47  1   
 49  21  48  1   
 50  22  24  1   
 51  22  49  1   
 52  22  50  1   
 53  23  24  1   
 54  23  51  1   
 55  23  52  1   
 56  24  53  1   
 57  24  54  1   
@<TRIPOS>SUBSTRUCTURE
  1 ****   9 GROUP 4 **** **** 0

# MOE 2024.06 (io_trps.svl 2023.06)
