@<TRIPOS>MOLECULE
NONAME
44 46 1 0 0 
SMALL
USER_CHARGES


@<TRIPOS>ATOM
  1 S       -0.4740     0.3490    -0.8920 S.o2  1 <1>   1.3330 
  2 O       -1.6040    -0.5320    -0.7060 O.2   1 <1>  -0.6500 
  3 O        0.3060     0.2630    -2.1070 O.2   1 <1>  -0.6500 
  4 N        0.5810     0.0900     0.4150 N.am  1 <1>  -0.8490 
  5 C       -1.0150     2.0490    -0.7030 C.3   1 <1>  -0.0550 
  6 C        1.5140    -1.0100     0.1520 C.3   1 <1>   0.1160 
  7 C       -0.1180    -0.1530     1.6820 C.3   1 <1>   0.1160 
  8 C        0.0910     3.0960    -0.9550 C.3   1 <1>  -0.0800 
  9 C       -0.4090     4.5370    -1.0090 C.3   1 <1>   0.2000 
 10 C        1.2050     3.1210     0.1050 C.3   1 <1>   0.1100 
 11 O       -1.3030     4.7450     0.0260 O.3   1 <1>  -0.6800 
 12 C        0.8540     5.3210    -0.6810 C.3   1 <1>   0.1100 
 13 N        1.4860     4.5370     0.3930 N.3   1 <1>  -0.8100 
 14 C        2.9330     4.8200     0.5340 C.3   1 <1>   0.2900 
 15 C        3.2210     6.2870     0.8320 C.2   1 <1>   0.2980 
 16 O        2.8570     6.7780     1.9880 O.3   1 <1>  -0.0190 
 17 N        3.7930     7.1050     0.0470 N.2   1 <1>  -0.5650 
 18 N        3.2290     8.0200     1.9360 N.2   1 <1>  -0.4100 
 19 C        3.7790     8.2180     0.7900 C.2   1 <1>   0.5150 
 20 C        4.3210     9.4820     0.3390 C.2   1 <1>   0.1410 
 21 O        4.8780     9.6110    -0.8630 O.3   1 <1>  -0.2800 
 22 C        4.3760    10.6860     0.9710 C.2   1 <1>  -0.1500 
 23 C        5.2830    10.8550    -1.0090 C.2   1 <1>  -0.0100 
 24 C        5.0010    11.5770     0.0950 C.2   1 <1>  -0.1500 
 25 H       -1.8030     2.2280    -1.4080 H     1 <1>   0.0800 
 26 H       -1.4300     2.1880     0.2750 H     1 <1>   0.0800 
 27 H        2.1780    -1.1460     0.9880 H     1 <1>   0.0800 
 28 H        2.1100    -0.7900    -0.7180 H     1 <1>   0.0800 
 29 H        0.9730    -1.9260    -0.0240 H     1 <1>   0.0800 
 30 H        0.5920    -0.2310     2.4870 H     1 <1>   0.0800 
 31 H       -0.6890    -1.0670     1.6300 H     1 <1>   0.0800 
 32 H       -0.7890     0.6600     1.9010 H     1 <1>   0.0800 
 33 H        0.5520     2.8820    -1.9040 H     1 <1>   0.0800 
 34 H       -0.8720     4.8120    -1.9420 H     1 <1>   0.0800 
 35 H        2.0760     2.6060    -0.2680 H     1 <1>   0.0800 
 36 H        0.8860     2.6460     1.0160 H     1 <1>   0.0800 
 37 H       -0.7660     4.7840     0.8480 H     1 <1>   0.4000 
 38 H        0.6330     6.3270    -0.3670 H     1 <1>   0.0800 
 39 H        1.4930     5.3500    -1.5480 H     1 <1>   0.0800 
 40 H        3.3320     4.2250     1.3370 H     1 <1>   0.0800 
 41 H        3.4440     4.5480    -0.3730 H     1 <1>   0.0800 
 42 H        4.0130    10.9230     1.9550 H     1 <1>   0.1500 
 43 H        5.7610    11.1410    -1.9300 H     1 <1>   0.1500 
 44 H        5.2010    12.6160     0.2900 H     1 <1>   0.1500 
@<TRIPOS>BOND
  1   1   2  2   
  2   1   3  2   
  3   1   4  am  
  4   1   5  1   
  5   4   6  1   
  6   4   7  1   
  7   5   8  1   
  8   5  25  1   
  9   5  26  1   
 10   6  27  1   
 11   6  28  1   
 12   6  29  1   
 13   7  30  1   
 14   7  31  1   
 15   7  32  1   
 16   8   9  1   
 17   8  10  1   
 18   8  33  1   
 19   9  11  1   
 20   9  12  1   
 21   9  34  1   
 22  10  13  1   
 23  10  35  1   
 24  10  36  1   
 25  11  37  1   
 26  12  13  1   
 27  12  38  1   
 28  12  39  1   
 29  13  14  1   
 30  14  15  1   
 31  14  40  1   
 32  14  41  1   
 33  15  16  1   
 34  15  17  2   
 35  16  18  1   
 36  17  19  1   
 37  18  19  2   
 38  19  20  1   
 39  20  21  1   
 40  20  22  2   
 41  21  23  1   
 42  22  24  1   
 43  22  42  1   
 44  23  24  2   
 45  23  43  1   
 46  24  44  1   
@<TRIPOS>SUBSTRUCTURE
  1 ****  13 GROUP 4 **** **** 0

# MOE 2024.06 (io_trps.svl 2023.06)
