@<TRIPOS>MOLECULE
NONAME
51 52 1 0 0 
SMALL
USER_CHARGES


@<TRIPOS>ATOM
  1 S        0.9180     0.2810     0.5230 S.o2  1 <1>   1.3330 
  2 O        1.2790    -1.0930     0.7960 O.2   1 <1>  -0.6500 
  3 O        0.8510     1.2310     1.6090 O.2   1 <1>  -0.6500 
  4 N       -0.5820     0.2730    -0.2720 N.am  1 <1>  -0.8490 
  5 C        2.0310     0.9360    -0.7190 C.3   1 <1>  -0.0550 
  6 C       -1.7050     0.4030     0.6610 C.3   1 <1>   0.1160 
  7 C       -0.7820    -0.8960    -1.1350 C.3   1 <1>   0.1160 
  8 C        3.4590     1.1680    -0.1990 C.3   1 <1>  -0.0800 
  9 C        4.3870     1.7020    -1.2800 C.3   1 <1>   0.2200 
 10 C        4.1830    -0.0890     0.2720 C.3   1 <1>   0.1200 
 11 N        4.4910     3.1720    -1.1750 N.am  1 <1>  -0.7300 
 12 C        5.7180     0.9940    -1.0180 C.3   1 <1>   0.1200 
 13 O        5.5320     0.2030     0.1150 O.3   1 <1>  -0.5600 
 14 C        3.7780     4.0570    -1.9170 C.2   1 <1>   0.5690 
 15 O        2.9820     3.6830    -2.7460 O.2   1 <1>  -0.5700 
 16 C        3.9670     5.5550    -1.7010 C.3   1 <1>   0.1810 
 17 O        4.9860     5.8170    -0.7440 O.3   1 <1>  -0.3630 
 18 C        5.3240     7.0880    -0.4120 C.ar  1 <1>   0.0820 
 19 C        6.3400     7.2440     0.5150 C.ar  1 <1>  -0.1500 
 20 C        4.7120     8.2170    -0.9460 C.ar  1 <1>  -0.1500 
 21 C        6.7570     8.5030     0.9180 C.ar  1 <1>  -0.1440 
 22 C        5.1240     9.4760    -0.5480 C.ar  1 <1>  -0.1500 
 23 C        6.1420     9.6300     0.3810 C.ar  1 <1>  -0.1440 
 24 C        7.8790     8.6190     1.9400 C.3   1 <1>  -0.0970 
 25 C        6.5630    11.0350     0.7900 C.3   1 <1>  -0.0970 
 26 H        2.0600     0.2680    -1.5570 H     1 <1>   0.0800 
 27 H        1.6420     1.8750    -1.0670 H     1 <1>   0.0800 
 28 H       -2.6380     0.4120     0.1250 H     1 <1>   0.0800 
 29 H       -1.6240     1.3270     1.2090 H     1 <1>   0.0800 
 30 H       -1.7050    -0.4160     1.3630 H     1 <1>   0.0800 
 31 H       -1.7080    -0.8020    -1.6760 H     1 <1>   0.0800 
 32 H       -0.8100    -1.7990    -0.5460 H     1 <1>   0.0800 
 33 H        0.0210    -0.9730    -1.8480 H     1 <1>   0.0800 
 34 H        3.4300     1.8510     0.6330 H     1 <1>   0.0800 
 35 H        4.0390     1.4320    -2.2630 H     1 <1>   0.0800 
 36 H        3.9510    -0.9410    -0.3450 H     1 <1>   0.0800 
 37 H        3.9870    -0.3190     1.3060 H     1 <1>   0.0800 
 38 H        5.1050     3.5410    -0.4420 H     1 <1>   0.3700 
 39 H        6.5230     1.6820    -0.8290 H     1 <1>   0.0800 
 40 H        5.9700     0.3440    -1.8370 H     1 <1>   0.0800 
 41 H        3.0480     5.9790    -1.3430 H     1 <1>   0.0800 
 42 H        4.2480     6.0130    -2.6310 H     1 <1>   0.0800 
 43 H        6.8050     6.3640     0.9190 H     1 <1>   0.1500 
 44 H        3.9210     8.1440    -1.6670 H     1 <1>   0.1500 
 45 H        4.6430    10.3410    -0.9680 H     1 <1>   0.1500 
 46 H        8.2270     7.6490     2.2420 H     1 <1>   0.0800 
 47 H        7.5290     9.1390     2.8130 H     1 <1>   0.0800 
 48 H        8.7070     9.1590     1.5170 H     1 <1>   0.0800 
 49 H        5.9820    11.7780     0.2750 H     1 <1>   0.0800 
 50 H        7.5990    11.1930     0.5530 H     1 <1>   0.0800 
 51 H        6.4190    11.1690     1.8470 H     1 <1>   0.0800 
@<TRIPOS>BOND
  1   1   2  2   
  2   1   3  2   
  3   1   4  am  
  4   1   5  1   
  5   4   6  1   
  6   4   7  1   
  7   5   8  1   
  8   5  26  1   
  9   5  27  1   
 10   6  28  1   
 11   6  29  1   
 12   6  30  1   
 13   7  31  1   
 14   7  32  1   
 15   7  33  1   
 16   8   9  1   
 17   8  10  1   
 18   8  34  1   
 19   9  11  1   
 20   9  12  1   
 21   9  35  1   
 22  10  13  1   
 23  10  36  1   
 24  10  37  1   
 25  11  14  am  
 26  11  38  1   
 27  12  13  1   
 28  12  39  1   
 29  12  40  1   
 30  14  15  2   
 31  14  16  1   
 32  16  17  1   
 33  16  41  1   
 34  16  42  1   
 35  17  18  1   
 36  18  19  ar  
 37  18  20  ar  
 38  19  21  ar  
 39  19  43  1   
 40  20  22  ar  
 41  20  44  1   
 42  21  23  ar  
 43  21  24  1   
 44  22  23  ar  
 45  22  45  1   
 46  23  25  1   
 47  24  46  1   
 48  24  47  1   
 49  24  48  1   
 50  25  49  1   
 51  25  50  1   
 52  25  51  1   
@<TRIPOS>SUBSTRUCTURE
  1 ****  11 GROUP 4 **** **** 0

# MOE 2024.06 (io_trps.svl 2023.06)
