@<TRIPOS>MOLECULE
NONAME
48 51 1 0 0 
SMALL
USER_CHARGES


@<TRIPOS>ATOM
  1 O       -0.4120     0.2740    -0.1600 O.2   1 <1>  -0.5700 
  2 C       -1.4170     0.9020     0.1110 C.2   1 <1>   0.7150 
  3 N       -2.6130     0.2350     0.2350 N.am  1 <1>  -0.6600 
  4 C       -1.3480     2.3270     0.2940 C.2   1 <1>  -0.2370 
  5 C       -3.9160     0.8310    -0.1610 C.3   1 <1>   0.1400 
  6 C       -2.6850    -1.2480     0.1560 C.3   1 <1>   0.1400 
  7 N       -2.0910     2.9940     1.2370 N.pl3 1 <1>   0.0330 
  8 C       -0.5780     3.2510    -0.3520 C.2   1 <1>  -0.1500 
  9 C       -4.7190    -0.3290    -0.7440 C.3   1 <1>   0.2000 
 10 C       -4.1620    -1.5760    -0.0660 C.3   1 <1>  -0.0800 
 11 C       -1.8080     4.3320     1.1730 C.ar  1 <1>  -0.1520 
 12 C       -0.8570     4.5240     0.1780 C.ar  1 <1>   0.0000 
 13 O       -6.0720    -0.1990    -0.4770 O.3   1 <1>  -0.6800 
 14 C       -4.3910    -2.8640    -0.8700 C.3   1 <1>   0.0210 
 15 C       -2.3050     5.4100     1.9090 C.ar  1 <1>  -0.1500 
 16 C       -0.3860     5.8130    -0.0950 C.ar  1 <1>  -0.1500 
 17 C       -3.7300    -4.0490    -0.1940 C.2   1 <1>   0.1080 
 18 C       -1.8360     6.6720     1.6310 C.ar  1 <1>  -0.1500 
 19 C       -0.8760     6.8820     0.6300 C.ar  1 <1>   0.0820 
 20 N       -4.0170    -4.4180     1.0160 N.2   1 <1>  -0.7070 
 21 C       -2.7540    -4.8530    -0.7720 C.2   1 <1>  -0.1500 
 22 O       -0.4870     8.1740     0.4440 O.3   1 <1>  -0.3620 
 23 N       -3.2250    -5.4840     1.2420 N.pl3 1 <1>   0.3000 
 24 C       -2.4490    -5.7650     0.1750 C.2   1 <1>  -0.3320 
 25 C        0.4860     8.4940    -0.5250 C.3   1 <1>   0.0400 
 26 C       -1.4480    -6.9040     0.1240 C.3   1 <1>  -0.0600 
 27 H       -4.4040     1.2250     0.7120 H     1 <1>   0.0800 
 28 H       -3.7780     1.6060    -0.8950 H     1 <1>   0.0800 
 29 H       -2.0890    -1.5910    -0.6740 H     1 <1>   0.0800 
 30 H       -2.3170    -1.6980     1.0630 H     1 <1>   0.0800 
 31 H       -2.7170     2.5500     1.9160 H     1 <1>   0.2700 
 32 H        0.1330     3.0610    -1.1370 H     1 <1>   0.1500 
 33 H       -4.5830    -0.3640    -1.8120 H     1 <1>   0.0800 
 34 H       -4.6080    -1.6870     0.9080 H     1 <1>   0.0800 
 35 H       -6.2550    -0.3950     0.4620 H     1 <1>   0.4000 
 36 H       -3.9980    -2.7550    -1.8640 H     1 <1>   0.0800 
 37 H       -5.4460    -3.0560    -0.9470 H     1 <1>   0.0800 
 38 H       -3.0400     5.2490     2.6780 H     1 <1>   0.1500 
 39 H        0.3480     5.9230    -0.8680 H     1 <1>   0.1500 
 40 H       -2.1950     7.5260     2.1770 H     1 <1>   0.1500 
 41 H       -2.3470    -4.7490    -1.7620 H     1 <1>   0.1500 
 42 H       -3.2380    -5.9950     2.1330 H     1 <1>   0.2700 
 43 H        0.6460     9.5570    -0.4990 H     1 <1>   0.0800 
 44 H        0.1230     8.2020    -1.4940 H     1 <1>   0.0800 
 45 H        1.4000     7.9800    -0.2830 H     1 <1>   0.0800 
 46 H       -0.9550    -6.9210    -0.8320 H     1 <1>   0.0800 
 47 H       -1.9480    -7.8460     0.2680 H     1 <1>   0.0800 
 48 H       -0.7040    -6.7800     0.8910 H     1 <1>   0.0800 
@<TRIPOS>BOND
  1   1   2  2   
  2   2   3  am  
  3   2   4  1   
  4   3   5  1   
  5   3   6  1   
  6   4   7  1   
  7   4   8  2   
  8   5   9  1   
  9   5  27  1   
 10   5  28  1   
 11   6  10  1   
 12   6  29  1   
 13   6  30  1   
 14   7  11  1   
 15   7  31  1   
 16   8  12  1   
 17   8  32  1   
 18   9  10  1   
 19   9  13  1   
 20   9  33  1   
 21  10  14  1   
 22  10  34  1   
 23  11  12  ar  
 24  11  15  ar  
 25  12  16  ar  
 26  13  35  1   
 27  14  17  1   
 28  14  36  1   
 29  14  37  1   
 30  15  18  ar  
 31  15  38  1   
 32  16  19  ar  
 33  16  39  1   
 34  17  20  2   
 35  17  21  1   
 36  18  19  ar  
 37  18  40  1   
 38  19  22  1   
 39  20  23  1   
 40  21  24  2   
 41  21  41  1   
 42  22  25  1   
 43  23  24  1   
 44  23  42  1   
 45  24  26  1   
 46  25  43  1   
 47  25  44  1   
 48  25  45  1   
 49  26  46  1   
 50  26  47  1   
 51  26  48  1   
@<TRIPOS>SUBSTRUCTURE
  1 ****   3 GROUP 4 **** **** 0

# MOE 2024.06 (io_trps.svl 2023.06)
