@<TRIPOS>MOLECULE
NONAME
48 49 1 0 0 
SMALL
USER_CHARGES


@<TRIPOS>ATOM
  1 O        0.1190    -1.1990     0.8440 O.3   1 <1>  -0.3630 
  2 C       -0.2520    -2.4530     0.4750 C.ar  1 <1>   0.0830 
  3 C        0.6660    -0.9250     2.1140 C.3   1 <1>   0.0400 
  4 C       -0.6350    -2.6480    -0.8460 C.ar  1 <1>  -0.1440 
  5 C       -0.2600    -3.5290     1.3580 C.ar  1 <1>  -0.1500 
  6 C       -1.0300    -3.9070    -1.2620 C.ar  1 <1>  -0.1500 
  7 C       -0.6150    -1.4890    -1.8340 C.3   1 <1>  -0.0960 
  8 C       -0.6550    -4.7900     0.9430 C.ar  1 <1>  -0.1430 
  9 C       -1.0580    -4.9750    -0.3770 C.ar  1 <1>  -0.1430 
 10 C       -0.6300    -5.9270     1.9600 C.3   1 <1>  -0.0970 
 11 C       -1.5520    -6.3190    -0.8780 C.3   1 <1>   0.4860 
 12 N       -2.9640    -6.5130    -0.4470 N.4   1 <1>  -0.9590 
 13 C       -3.4850    -7.8690    -0.6870 C.3   1 <1>   0.5230 
 14 C       -3.9080    -5.4290    -0.8460 C.3   1 <1>   0.3430 
 15 C       -2.6410    -8.8030     0.1400 C.2   1 <1>  -0.3320 
 16 C       -4.1950    -4.5330     0.3750 C.3   1 <1>   0.1200 
 17 N       -1.8070    -9.7530    -0.3380 N.pl3 1 <1>   0.0480 
 18 C       -2.5580    -8.8590     1.4890 C.2   1 <1>   0.0770 
 19 O       -4.2560    -5.3210     1.5290 O.3   1 <1>  -0.6800 
 20 C       -1.2560   -10.3040     0.7670 C.2   1 <1>   0.0360 
 21 C       -1.5530   -10.1650    -1.7330 C.3   1 <1>   0.0160 
 22 N       -1.6740    -9.7890     1.8760 N.2   1 <1>  -0.5650 
 23 H        0.9350     0.1150     2.1450 H     1 <1>   0.0800 
 24 H        1.5430    -1.5330     2.2560 H     1 <1>   0.0800 
 25 H       -0.0740    -1.1320     2.8660 H     1 <1>   0.0800 
 26 H        0.0420    -3.3920     2.3780 H     1 <1>   0.1500 
 27 H       -1.3170    -4.0450    -2.2900 H     1 <1>   0.1500 
 28 H       -1.2680    -0.7060    -1.4920 H     1 <1>   0.0800 
 29 H       -0.9310    -1.7970    -2.8140 H     1 <1>   0.0800 
 30 H        0.3820    -1.0930    -1.9060 H     1 <1>   0.0800 
 31 H       -0.0040    -5.6720     2.7970 H     1 <1>   0.0800 
 32 H       -0.2340    -6.8300     1.5300 H     1 <1>   0.0800 
 33 H       -1.6190    -6.1170     2.3330 H     1 <1>   0.0800 
 34 H       -0.9280    -7.0980    -0.4710 H     1 <1>   0.0800 
 35 H       -1.4820    -6.3540    -1.9520 H     1 <1>   0.0800 
 36 H       -2.9550    -6.4140     0.5840 H     1 <1>   0.4500 
 37 H       -3.4350    -8.1220    -1.7330 H     1 <1>   0.0800 
 38 H       -4.5110    -7.9320    -0.3570 H     1 <1>   0.0800 
 39 H       -4.8400    -5.8550    -1.1780 H     1 <1>   0.0800 
 40 H       -3.5050    -4.8380    -1.6510 H     1 <1>   0.0800 
 41 H       -5.1310    -4.0150     0.2550 H     1 <1>   0.0800 
 42 H       -3.4090    -3.8060     0.5040 H     1 <1>   0.0800 
 43 H       -3.0890    -8.2710     2.2220 H     1 <1>   0.1500 
 44 H       -4.4750    -4.7670     2.3130 H     1 <1>   0.4000 
 45 H       -0.5370   -11.1040     0.7130 H     1 <1>   0.1500 
 46 H       -1.1550    -9.3380    -2.2910 H     1 <1>   0.0800 
 47 H       -2.4700   -10.5020    -2.1800 H     1 <1>   0.0800 
 48 H       -0.8420   -10.9720    -1.7450 H     1 <1>   0.0800 
@<TRIPOS>BOND
  1   1   2  1   
  2   1   3  1   
  3   2   4  ar  
  4   2   5  ar  
  5   3  23  1   
  6   3  24  1   
  7   3  25  1   
  8   4   6  ar  
  9   4   7  1   
 10   5   8  ar  
 11   5  26  1   
 12   6   9  ar  
 13   6  27  1   
 14   7  28  1   
 15   7  29  1   
 16   7  30  1   
 17   8   9  ar  
 18   8  10  1   
 19   9  11  1   
 20  10  31  1   
 21  10  32  1   
 22  10  33  1   
 23  11  12  1   
 24  11  34  1   
 25  11  35  1   
 26  12  13  1   
 27  12  14  1   
 28  12  36  1   
 29  13  15  1   
 30  13  37  1   
 31  13  38  1   
 32  14  16  1   
 33  14  39  1   
 34  14  40  1   
 35  15  17  1   
 36  15  18  2   
 37  16  19  1   
 38  16  41  1   
 39  16  42  1   
 40  17  20  1   
 41  17  21  1   
 42  18  22  1   
 43  18  43  1   
 44  19  44  1   
 45  20  22  2   
 46  20  45  1   
 47  21  46  1   
 48  21  47  1   
 49  21  48  1   
@<TRIPOS>SUBSTRUCTURE
  1 ****   9 GROUP 4 **** **** 0

# MOE 2024.06 (io_trps.svl 2023.06)
