@<TRIPOS>MOLECULE
NONAME
36 37 1 0 0 
SMALL
USER_CHARGES


@<TRIPOS>ATOM
  1 CL      -0.0480    -0.0320    -1.1850 Cl    1 <1>  -0.1770 
  2 C        1.1750    -1.1050    -0.5280 C.ar  1 <1>   0.1770 
  3 C        0.9210    -2.4610    -0.3570 C.ar  1 <1>   0.4100 
  4 C        2.4060    -0.6250    -0.1750 C.ar  1 <1>   0.1600 
  5 N        1.8530    -3.2580     0.1350 N.ar  1 <1>  -0.6200 
  6 N       -0.2950    -3.0230    -0.6830 N.pl3 1 <1>  -0.8690 
  7 N        3.3450    -1.4160     0.3190 N.ar  1 <1>  -0.6200 
  8 C        3.0060    -2.6890     0.4420 C.ar  1 <1>   0.4770 
  9 C       -0.5110    -4.4870    -0.8390 C.3   1 <1>   0.2090 
 10 C        4.0620    -3.6100     1.0060 C.3   1 <1>  -0.0970 
 11 C       -0.7440    -5.1510     0.5240 C.3   1 <1>   0.2090 
 12 N       -1.0970    -6.5950     0.3620 N.pl3 1 <1>  -0.8690 
 13 C       -2.3130    -7.1930     0.4240 C.ar  1 <1>   0.1000 
 14 C       -2.4230    -8.5960     0.4070 C.ar  1 <1>  -0.1430 
 15 C       -3.5050    -6.4580     0.5060 C.ar  1 <1>  -0.1500 
 16 C       -3.6600    -9.1890     0.4790 C.ar  1 <1>   0.2110 
 17 C       -1.1680    -9.4610     0.3130 C.3   1 <1>  -0.0970 
 18 C       -4.7190    -7.0880     0.5770 C.ar  1 <1>   0.2110 
 19 N       -4.7880    -8.4410     0.5650 N.ar  1 <1>  -0.1790 
 20 H        2.6310     0.4200    -0.2960 H     1 <1>   0.1500 
 21 H       -0.9430    -2.4220    -1.2050 H     1 <1>   0.4000 
 22 H        0.3500    -4.9280    -1.3120 H     1 <1>   0.0800 
 23 H       -1.3700    -4.6490    -1.4670 H     1 <1>   0.0800 
 24 H        4.1470    -4.4840     0.3880 H     1 <1>   0.0800 
 25 H        3.7820    -3.9060     1.9990 H     1 <1>   0.0800 
 26 H        5.0150    -3.1140     1.0420 H     1 <1>   0.0800 
 27 H       -1.5240    -4.6300     1.0490 H     1 <1>   0.0800 
 28 H        0.1540    -5.0750     1.1130 H     1 <1>   0.0800 
 29 H       -0.2600    -7.1810     0.2570 H     1 <1>   0.4000 
 30 H       -3.4630    -5.3850     0.5100 H     1 <1>   0.1500 
 31 H       -3.7600   -10.2620     0.4700 H     1 <1>   0.1500 
 32 H       -0.5200    -9.2630     1.1490 H     1 <1>   0.0800 
 33 H       -0.6360    -9.2420    -0.5970 H     1 <1>   0.0800 
 34 H       -1.4080   -10.5090     0.3160 H     1 <1>   0.0800 
 35 H       -5.6330    -6.5200     0.6430 H     1 <1>   0.1500 
 36 H       -5.7020    -8.9050     0.6200 H     1 <1>   0.4570 
@<TRIPOS>BOND
  1   1   2  1   
  2   2   3  ar  
  3   2   4  ar  
  4   3   5  ar  
  5   3   6  1   
  6   4   7  ar  
  7   4  20  1   
  8   5   8  ar  
  9   6   9  1   
 10   6  21  1   
 11   7   8  ar  
 12   8  10  1   
 13   9  11  1   
 14   9  22  1   
 15   9  23  1   
 16  10  24  1   
 17  10  25  1   
 18  10  26  1   
 19  11  12  1   
 20  11  27  1   
 21  11  28  1   
 22  12  13  1   
 23  12  29  1   
 24  13  14  ar  
 25  13  15  ar  
 26  14  16  ar  
 27  14  17  1   
 28  15  18  ar  
 29  15  30  1   
 30  16  19  ar  
 31  16  31  1   
 32  17  32  1   
 33  17  33  1   
 34  17  34  1   
 35  18  19  ar  
 36  18  35  1   
 37  19  36  1   
@<TRIPOS>SUBSTRUCTURE
  1 ****  11 GROUP 4 **** **** 0

# MOE 2024.06 (io_trps.svl 2023.06)
