@<TRIPOS>MOLECULE
NONAME
53 56 1 0 0 
SMALL
USER_CHARGES


@<TRIPOS>ATOM
  1 S       -0.2680     0.0340     0.2840 S.3   1 <1>  -0.0800 
  2 C        0.6360     0.9350    -0.9300 C.2   1 <1>   0.3250 
  3 C       -1.5480    -0.2340    -0.8600 C.2   1 <1>  -0.1400 
  4 N        0.0280     0.9620    -2.0660 N.2   1 <1>  -0.5650 
  5 C        1.9170     1.4950    -0.5820 C.ar  1 <1>   0.0530 
  6 C       -1.1870     0.3160    -2.0280 C.2   1 <1>   0.0770 
  7 C       -2.7740    -0.9830    -0.3960 C.3   1 <1>   0.5230 
  8 C        2.1340     2.2650     0.5720 C.ar  1 <1>   0.0830 
  9 C        3.0000     1.2750    -1.4330 C.ar  1 <1>  -0.1500 
 10 N       -3.7760    -0.0110     0.1180 N.4   1 <1>  -0.9590 
 11 O        1.0710     2.5310     1.3760 O.3   1 <1>  -0.3620 
 12 C        3.4090     2.7520     0.8570 C.ar  1 <1>  -0.1500 
 13 C        4.2590     1.7660    -1.1500 C.ar  1 <1>  -0.1500 
 14 C       -3.2930     0.8180     1.2670 C.3   1 <1>   0.3430 
 15 C       -5.1160    -0.6000     0.3640 C.3   1 <1>   0.3430 
 16 C        1.1720     3.3680     2.5080 C.3   1 <1>   0.0400 
 17 C        4.4650     2.5030     0.0010 C.ar  1 <1>  -0.1500 
 18 C       -4.3940     1.7530     1.7810 C.3   1 <1>  -0.1600 
 19 C       -6.1590     0.5140     0.5260 C.3   1 <1>  -0.1600 
 20 C       -5.5500     1.8980     0.7870 C.3   1 <1>   0.4180 
 21 O       -5.0330     2.3310    -0.4530 O.3   1 <1>  -0.5600 
 22 C       -6.6210     2.8550     1.2920 C.2   1 <1>  -0.2880 
 23 C       -4.8140     3.7090    -0.6110 C.3   1 <1>   0.1200 
 24 C       -6.9110     4.0220     0.7130 C.2   1 <1>  -0.2760 
 25 C       -6.1340     4.4840    -0.5050 C.3   1 <1>  -0.0220 
 26 C       -8.0040     4.9660     1.1810 C.3   1 <1>  -0.1020 
 27 H       -1.7650     0.3070    -2.9390 H     1 <1>   0.1500 
 28 H       -2.5050    -1.6930     0.3690 H     1 <1>   0.0800 
 29 H       -3.1910    -1.5210    -1.2320 H     1 <1>   0.0800 
 30 H        2.8450     0.7050    -2.3340 H     1 <1>   0.1500 
 31 H       -3.9360     0.6950    -0.6280 H     1 <1>   0.4500 
 32 H        3.6040     3.3320     1.7380 H     1 <1>   0.1500 
 33 H        5.0780     1.5780    -1.8230 H     1 <1>   0.1500 
 34 H       -2.4620     1.4210     0.9380 H     1 <1>   0.0800 
 35 H       -2.9490     0.1850     2.0690 H     1 <1>   0.0800 
 36 H       -5.0850    -1.1980     1.2610 H     1 <1>   0.0800 
 37 H       -5.4040    -1.2360    -0.4580 H     1 <1>   0.0800 
 38 H        0.1970     3.4510     2.9540 H     1 <1>   0.0800 
 39 H        1.5120     4.3400     2.1950 H     1 <1>   0.0800 
 40 H        1.8580     2.9270     3.2100 H     1 <1>   0.0800 
 41 H        5.4470     2.8840     0.2260 H     1 <1>   0.1500 
 42 H       -3.9770     2.7160     2.0130 H     1 <1>   0.0800 
 43 H       -4.7790     1.3590     2.7040 H     1 <1>   0.0800 
 44 H       -6.8020     0.2430     1.3440 H     1 <1>   0.0800 
 45 H       -6.7810     0.5660    -0.3500 H     1 <1>   0.0800 
 46 H       -7.1370     2.4970     2.1660 H     1 <1>   0.1500 
 47 H       -4.3680     3.8680    -1.5780 H     1 <1>   0.0800 
 48 H       -4.1250     4.0400     0.1460 H     1 <1>   0.0800 
 49 H       -6.7210     4.3330    -1.3940 H     1 <1>   0.0800 
 50 H       -5.9100     5.5330    -0.4280 H     1 <1>   0.0800 
 51 H       -8.7240     5.1190     0.3960 H     1 <1>   0.0800 
 52 H       -7.5840     5.9170     1.4570 H     1 <1>   0.0800 
 53 H       -8.5160     4.5600     2.0360 H     1 <1>   0.0800 
@<TRIPOS>BOND
  1   1   2  1   
  2   1   3  1   
  3   2   4  2   
  4   2   5  1   
  5   3   6  2   
  6   3   7  1   
  7   4   6  1   
  8   5   8  ar  
  9   5   9  ar  
 10   6  27  1   
 11   7  10  1   
 12   7  28  1   
 13   7  29  1   
 14   8  11  1   
 15   8  12  ar  
 16   9  13  ar  
 17   9  30  1   
 18  10  14  1   
 19  10  15  1   
 20  10  31  1   
 21  11  16  1   
 22  12  17  ar  
 23  12  32  1   
 24  13  17  ar  
 25  13  33  1   
 26  14  18  1   
 27  14  34  1   
 28  14  35  1   
 29  15  19  1   
 30  15  36  1   
 31  15  37  1   
 32  16  38  1   
 33  16  39  1   
 34  16  40  1   
 35  17  41  1   
 36  18  20  1   
 37  18  42  1   
 38  18  43  1   
 39  19  20  1   
 40  19  44  1   
 41  19  45  1   
 42  20  21  1   
 43  20  22  1   
 44  21  23  1   
 45  22  24  2   
 46  22  46  1   
 47  23  25  1   
 48  23  47  1   
 49  23  48  1   
 50  24  25  1   
 51  24  26  1   
 52  25  49  1   
 53  25  50  1   
 54  26  51  1   
 55  26  52  1   
 56  26  53  1   
@<TRIPOS>SUBSTRUCTURE
  1 ****  14 GROUP 4 **** **** 0

# MOE 2024.06 (io_trps.svl 2023.06)
