@<TRIPOS>MOLECULE
NONAME
31 32 1 0 0 
SMALL
USER_CHARGES


@<TRIPOS>ATOM
  1 F       -1.9020    -2.3450     2.1070 F     1 <1>  -0.3400 
  2 C       -0.8640    -1.9930     1.3570 C.3   1 <1>   1.1640 
  3 F        0.0110    -1.4420     2.1920 F     1 <1>  -0.3400 
  4 F       -1.2780    -1.0040     0.5700 F     1 <1>  -0.3400 
  5 C       -0.2740    -3.1740     0.5730 C.ar  1 <1>  -0.1440 
  6 C       -1.0160    -3.7820    -0.4410 C.ar  1 <1>   0.1000 
  7 C        0.9990    -3.6620     0.8610 C.ar  1 <1>  -0.1500 
  8 N       -2.2980    -3.3480    -0.7860 N.pl3 1 <1>  -0.6000 
  9 C       -0.4690    -4.8450    -1.1480 C.ar  1 <1>  -0.1500 
 10 C        1.5300    -4.7270     0.1540 C.ar  1 <1>  -0.1500 
 11 C       -3.5270    -3.9710    -0.6430 C.2   1 <1>  -0.0380 
 12 C        0.7940    -5.3190    -0.8550 C.ar  1 <1>  -0.1500 
 13 C       -3.8080    -5.0610     0.1330 C.2   1 <1>  -0.1240 
 14 C       -4.5830    -3.2660    -1.4820 C.3   1 <1>  -0.1020 
 15 C       -5.0130    -5.8030     0.3190 C.2   1 <1>   0.7060 
 16 C       -2.8030    -5.7390     1.0430 C.3   1 <1>  -0.0220 
 17 O       -6.0700    -5.7020    -0.2680 O.2   1 <1>  -0.5700 
 18 O       -4.9010    -6.7250     1.2670 O.3   1 <1>  -0.4300 
 19 C       -3.6470    -6.6810     1.8990 C.3   1 <1>   0.1200 
 20 H        1.5980    -3.2200     1.6400 H     1 <1>   0.1500 
 21 H       -2.3080    -2.4660    -1.3130 H     1 <1>   0.4000 
 22 H       -1.0460    -5.3010    -1.9330 H     1 <1>   0.1500 
 23 H        2.5160    -5.0930     0.3870 H     1 <1>   0.1500 
 24 H        1.2050    -6.1450    -1.4110 H     1 <1>   0.1500 
 25 H       -4.5330    -2.2040    -1.3210 H     1 <1>   0.0800 
 26 H       -5.5810    -3.5720    -1.2400 H     1 <1>   0.0800 
 27 H       -4.4130    -3.4660    -2.5240 H     1 <1>   0.0800 
 28 H       -2.2770    -5.0370     1.6650 H     1 <1>   0.0800 
 29 H       -2.0980    -6.3120     0.4700 H     1 <1>   0.0800 
 30 H       -3.7900    -6.2910     2.8920 H     1 <1>   0.0800 
 31 H       -3.2400    -7.6760     1.9390 H     1 <1>   0.0800 
@<TRIPOS>BOND
  1   1   2  1   
  2   2   3  1   
  3   2   4  1   
  4   2   5  1   
  5   5   6  ar  
  6   5   7  ar  
  7   6   8  1   
  8   6   9  ar  
  9   7  10  ar  
 10   7  20  1   
 11   8  11  1   
 12   8  21  1   
 13   9  12  ar  
 14   9  22  1   
 15  10  12  ar  
 16  10  23  1   
 17  11  13  2   
 18  11  14  1   
 19  12  24  1   
 20  13  15  1   
 21  13  16  1   
 22  14  25  1   
 23  14  26  1   
 24  14  27  1   
 25  15  17  2   
 26  15  18  1   
 27  16  19  1   
 28  16  28  1   
 29  16  29  1   
 30  18  19  1   
 31  19  30  1   
 32  19  31  1   
@<TRIPOS>SUBSTRUCTURE
  1 ****   6 GROUP 4 **** **** 0

# MOE 2024.06 (io_trps.svl 2023.06)
