@<TRIPOS>MOLECULE
NONAME
58 62 1 0 0 
SMALL
USER_CHARGES


@<TRIPOS>ATOM
  1 O       -0.6180    -1.9720     3.2320 O.2   1 <1>  -0.5700 
  2 C       -0.2920    -2.4580     2.1760 C.2   1 <1>   0.5690 
  3 N        0.4780    -1.7400     1.2970 N.am  1 <1>  -0.6600 
  4 C       -0.8030    -3.8690     1.9130 C.3   1 <1>  -0.0990 
  5 C        1.0430    -2.3290     0.0470 C.3   1 <1>   0.1400 
  6 C        0.8420    -0.3230     1.6790 C.3   1 <1>   0.3210 
  7 C       -0.1050    -4.7270     0.8530 C.3   1 <1>   0.1200 
  8 C        1.9440    -3.5760     0.3040 C.3   1 <1>   0.2800 
  9 C        1.2630     0.6060     0.5350 C.2   1 <1>   0.3350 
 10 O        1.2790    -4.6060     0.9740 O.3   1 <1>  -0.5600 
 11 C        2.4660    -4.1630    -1.0140 C.3   1 <1>  -0.1600 
 12 C        3.1430    -3.2480     1.2030 C.3   1 <1>  -0.1600 
 13 N        0.4790     1.4080    -0.0670 N.2   1 <1>  -0.4100 
 14 N        2.5160     0.6540     0.0770 N.2   1 <1>  -0.5650 
 15 C        3.4470    -3.2160    -1.7080 C.3   1 <1>   0.3430 
 16 C        4.1160    -2.2890     0.5330 C.3   1 <1>   0.3430 
 17 O        1.1820     2.0500    -0.9490 O.3   1 <1>  -0.0190 
 18 C        2.3870     1.5610    -0.8110 C.2   1 <1>   0.3930 
 19 N        4.5470    -2.8390    -0.7820 N.4   1 <1>  -0.9590 
 20 C        3.4910     2.1000    -1.7090 C.3   1 <1>  -0.0150 
 21 C        5.5740    -1.9640    -1.4070 C.3   1 <1>   0.5230 
 22 C        4.9420     2.0020    -1.3380 C.3   1 <1>  -0.2000 
 23 C        4.2460     3.3300    -1.3090 C.3   1 <1>  -0.2000 
 24 C        6.9150    -2.3110    -0.7760 C.2   1 <1>   0.0060 
 25 N        7.1120    -3.4140    -0.1190 N.2   1 <1>  -0.5650 
 26 N        8.0130    -1.5150    -0.8460 N.pl3 1 <1>   0.0480 
 27 C        8.4000    -3.3370     0.2630 C.2   1 <1>   0.0770 
 28 C        8.9600    -2.1880    -0.1700 C.2   1 <1>  -0.3020 
 29 C        8.2020    -0.2010    -1.4930 C.3   1 <1>   0.0160 
 30 H       -1.8450    -3.8010     1.6670 H     1 <1>   0.0800 
 31 H       -0.7430    -4.4020     2.8440 H     1 <1>   0.0800 
 32 H        1.6230    -1.6030    -0.4790 H     1 <1>   0.0800 
 33 H        0.2330    -2.5740    -0.6160 H     1 <1>   0.0800 
 34 H        1.6360    -0.3560     2.4030 H     1 <1>   0.0800 
 35 H       -0.0060     0.1330     2.1610 H     1 <1>   0.0800 
 36 H       -0.4160    -4.4860    -0.1480 H     1 <1>   0.0800 
 37 H       -0.3480    -5.7620     1.0260 H     1 <1>   0.0800 
 38 H        1.6430    -4.3610    -1.6770 H     1 <1>   0.0800 
 39 H        2.9640    -5.0970    -0.8210 H     1 <1>   0.0800 
 40 H        3.6700    -4.1530     1.4520 H     1 <1>   0.0800 
 41 H        2.8020    -2.8130     2.1250 H     1 <1>   0.0800 
 42 H        2.9250    -2.3290    -2.0290 H     1 <1>   0.0800 
 43 H        3.8530    -3.7040    -2.5800 H     1 <1>   0.0800 
 44 H        4.9760    -2.1520     1.1710 H     1 <1>   0.0800 
 45 H        3.6430    -1.3340     0.3950 H     1 <1>   0.0800 
 46 H        5.1100    -3.6820    -0.5470 H     1 <1>   0.4500 
 47 H        3.2330     2.0100    -2.7500 H     1 <1>   0.1000 
 48 H        5.3330    -0.9260    -1.2460 H     1 <1>   0.0800 
 49 H        5.6330    -2.1560    -2.4650 H     1 <1>   0.0800 
 50 H        5.6750     1.8420    -2.1080 H     1 <1>   0.1000 
 51 H        5.2230     1.5730    -0.3920 H     1 <1>   0.1000 
 52 H        4.0290     3.7820    -0.3560 H     1 <1>   0.1000 
 53 H        4.4750     4.0610    -2.0660 H     1 <1>   0.1000 
 54 H        8.8680    -4.1220     0.8370 H     1 <1>   0.1500 
 55 H        9.9650    -1.8290    -0.0330 H     1 <1>   0.1500 
 56 H        7.7080    -0.1860    -2.4470 H     1 <1>   0.0800 
 57 H        9.2530    -0.0260    -1.6420 H     1 <1>   0.0800 
 58 H        7.8050     0.5710    -0.8590 H     1 <1>   0.0800 
@<TRIPOS>BOND
  1   1   2  2   
  2   2   3  am  
  3   2   4  1   
  4   3   5  1   
  5   3   6  1   
  6   4   7  1   
  7   4  30  1   
  8   4  31  1   
  9   5   8  1   
 10   5  32  1   
 11   5  33  1   
 12   6   9  1   
 13   6  34  1   
 14   6  35  1   
 15   7  10  1   
 16   7  36  1   
 17   7  37  1   
 18   8  10  1   
 19   8  11  1   
 20   8  12  1   
 21   9  13  2   
 22   9  14  1   
 23  11  15  1   
 24  11  38  1   
 25  11  39  1   
 26  12  16  1   
 27  12  40  1   
 28  12  41  1   
 29  13  17  1   
 30  14  18  2   
 31  15  19  1   
 32  15  42  1   
 33  15  43  1   
 34  16  19  1   
 35  16  44  1   
 36  16  45  1   
 37  17  18  1   
 38  18  20  1   
 39  19  21  1   
 40  19  46  1   
 41  20  22  1   
 42  20  23  1   
 43  20  47  1   
 44  21  24  1   
 45  21  48  1   
 46  21  49  1   
 47  22  23  1   
 48  22  50  1   
 49  22  51  1   
 50  23  52  1   
 51  23  53  1   
 52  24  25  2   
 53  24  26  1   
 54  25  27  1   
 55  26  28  1   
 56  26  29  1   
 57  27  28  2   
 58  27  54  1   
 59  28  55  1   
 60  29  56  1   
 61  29  57  1   
 62  29  58  1   
@<TRIPOS>SUBSTRUCTURE
  1 ****  16 GROUP 4 **** **** 0

# MOE 2024.06 (io_trps.svl 2023.06)
