@<TRIPOS>MOLECULE
NONAME
44 46 1 0 0 
SMALL
USER_CHARGES


@<TRIPOS>ATOM
  1 S        0.2950     0.0870     0.6760 S.o2  1 <1>   1.3330 
  2 O       -0.4290     0.1430     1.9250 O.2   1 <1>  -0.6500 
  3 O        1.7400     0.1450     0.6820 O.2   1 <1>  -0.6500 
  4 N       -0.1640    -1.3240    -0.1490 N.am  1 <1>  -0.8490 
  5 C       -0.3410     1.3880    -0.3780 C.3   1 <1>  -0.0550 
  6 C        0.7700    -1.7080    -1.2130 C.3   1 <1>   0.1160 
  7 C       -0.3740    -2.4540     0.7610 C.3   1 <1>   0.1160 
  8 C       -0.1040     2.7970     0.1910 C.3   1 <1>  -0.0800 
  9 C       -0.7210     3.8850    -0.6800 C.3   1 <1>   0.2000 
 10 C        1.3710     3.1940     0.2800 C.3   1 <1>   0.2090 
 11 O       -2.0690     4.0210    -0.3850 O.3   1 <1>  -0.6800 
 12 C        0.0720     5.1540    -0.3670 C.3   1 <1>   0.2090 
 13 N        1.3880     4.6740     0.1260 N.pl3 1 <1>  -0.8380 
 14 C        2.5590     5.3560    -0.1370 C.ar  1 <1>   0.4100 
 15 N        3.6420     4.6500    -0.3930 N.ar  1 <1>  -0.6200 
 16 C        2.6080     6.7370    -0.1300 C.ar  1 <1>  -0.1500 
 17 C        4.7350     5.3410    -0.6430 C.ar  1 <1>   0.4700 
 18 C        3.8020     7.3460    -0.4030 C.ar  1 <1>   0.2780 
 19 N        4.8890     6.6520    -0.6720 N.ar  1 <1>  -0.6200 
 20 C        3.9290     8.8620    -0.4140 C.3   1 <1>  -0.0680 
 21 C        4.6690     9.5570     0.6880 C.3   1 <1>  -0.2000 
 22 C        3.1880     9.7370     0.5540 C.3   1 <1>  -0.2000 
 23 H        0.1100     1.3160    -1.3480 H     1 <1>   0.0800 
 24 H       -1.3980     1.2440    -0.4970 H     1 <1>   0.0800 
 25 H        0.3830    -2.5520    -1.7570 H     1 <1>   0.0800 
 26 H        1.7290    -1.9690    -0.7960 H     1 <1>   0.0800 
 27 H        0.9040    -0.8920    -1.9020 H     1 <1>   0.0800 
 28 H       -0.6790    -3.3260     0.2100 H     1 <1>   0.0800 
 29 H       -1.1490    -2.2170     1.4700 H     1 <1>   0.0800 
 30 H        0.5330    -2.6730     1.3010 H     1 <1>   0.0800 
 31 H       -0.5100     2.8590     1.1860 H     1 <1>   0.0800 
 32 H       -0.6240     3.6520    -1.7270 H     1 <1>   0.0800 
 33 H        1.9340     2.7420    -0.5200 H     1 <1>   0.0800 
 34 H        1.8060     2.9060     1.2230 H     1 <1>   0.0800 
 35 H       -2.1960     4.1590     0.5750 H     1 <1>   0.4000 
 36 H       -0.4080     5.7230     0.4100 H     1 <1>   0.0800 
 37 H        0.1900     5.7550    -1.2530 H     1 <1>   0.0800 
 38 H        1.7300     7.3060     0.0910 H     1 <1>   0.1500 
 39 H        5.6180     4.7610    -0.8520 H     1 <1>   0.1500 
 40 H        4.0880     9.2360    -1.4100 H     1 <1>   0.1000 
 41 H        5.0550     8.9560     1.4940 H     1 <1>   0.1000 
 42 H        5.3250    10.3690     0.4280 H     1 <1>   0.1000 
 43 H        2.8120    10.6840     0.2090 H     1 <1>   0.1000 
 44 H        2.5620     9.2960     1.3100 H     1 <1>   0.1000 
@<TRIPOS>BOND
  1   1   2  2   
  2   1   3  2   
  3   1   4  am  
  4   1   5  1   
  5   4   6  1   
  6   4   7  1   
  7   5   8  1   
  8   5  23  1   
  9   5  24  1   
 10   6  25  1   
 11   6  26  1   
 12   6  27  1   
 13   7  28  1   
 14   7  29  1   
 15   7  30  1   
 16   8   9  1   
 17   8  10  1   
 18   8  31  1   
 19   9  11  1   
 20   9  12  1   
 21   9  32  1   
 22  10  13  1   
 23  10  33  1   
 24  10  34  1   
 25  11  35  1   
 26  12  13  1   
 27  12  36  1   
 28  12  37  1   
 29  13  14  1   
 30  14  15  ar  
 31  14  16  ar  
 32  15  17  ar  
 33  16  18  ar  
 34  16  38  1   
 35  17  19  ar  
 36  17  39  1   
 37  18  19  ar  
 38  18  20  1   
 39  20  21  1   
 40  20  22  1   
 41  20  40  1   
 42  21  22  1   
 43  21  41  1   
 44  21  42  1   
 45  22  43  1   
 46  22  44  1   
@<TRIPOS>SUBSTRUCTURE
  1 ****  10 GROUP 4 **** **** 0

# MOE 2024.06 (io_trps.svl 2023.06)
