@<TRIPOS>MOLECULE
NONAME
51 54 1 0 0 
SMALL
USER_CHARGES


@<TRIPOS>ATOM
  1 S       -0.8020    -0.9810     1.1770 S.3   1 <1>  -0.0800 
  2 C       -1.9640     0.0460     0.3490 C.2   1 <1>  -0.1400 
  3 C        0.5430    -0.0660     0.5210 C.2   1 <1>  -0.1100 
  4 C       -1.3280     1.0000    -0.3570 C.2   1 <1>  -0.1500 
  5 C       -3.4370    -0.2600     0.5380 C.3   1 <1>   0.0200 
  6 C        0.0990     0.9360    -0.2600 C.2   1 <1>  -0.1500 
  7 C       -3.8200    -1.5600    -0.1810 C.3   1 <1>  -0.1600 
  8 C       -5.3110    -1.8930    -0.0020 C.3   1 <1>  -0.0990 
  9 C       -5.7030    -3.1540    -0.7450 C.2   1 <1>   0.5690 
 10 O       -6.3940    -3.0700    -1.7300 O.2   1 <1>  -0.5700 
 11 N       -5.2720    -4.3470    -0.2730 N.am  1 <1>  -0.7300 
 12 C       -5.5710    -5.6490    -0.9080 C.3   1 <1>   0.2200 
 13 C       -6.7900    -6.2590    -0.2410 C.3   1 <1>  -0.0800 
 14 C       -4.4840    -6.6610    -0.5640 C.3   1 <1>   0.1200 
 15 C       -6.1760    -6.9600     0.9750 C.3   1 <1>   0.1200 
 16 C       -7.5130    -7.2430    -1.1820 C.3   1 <1>  -0.0170 
 17 O       -4.8320    -7.2050     0.6740 O.3   1 <1>  -0.5600 
 18 C       -8.7990    -7.7730    -0.5560 C.ar  1 <1>  -0.1440 
 19 C       -9.9760    -6.9910    -0.4700 C.ar  1 <1>   0.0000 
 20 C       -8.8460    -9.0410    -0.0540 C.ar  1 <1>  -0.1500 
 21 C      -11.1090    -7.5760     0.1470 C.ar  1 <1>   0.3100 
 22 C      -10.0980    -5.6700    -0.9610 C.ar  1 <1>  -0.1500 
 23 C      -10.0220    -9.5240     0.5320 C.ar  1 <1>   0.1600 
 24 N      -11.1150    -8.8400     0.6420 N.ar  1 <1>  -0.6200 
 25 C      -12.2890    -6.8220     0.2570 C.ar  1 <1>  -0.1500 
 26 C      -11.2640    -4.9630    -0.8400 C.ar  1 <1>  -0.1500 
 27 C      -12.3740    -5.5430    -0.2220 C.ar  1 <1>  -0.1500 
 28 H        1.5350    -0.3790     0.7930 H     1 <1>   0.1500 
 29 H       -1.8040     1.7590    -0.9520 H     1 <1>   0.1500 
 30 H       -3.6470    -0.3390     1.5900 H     1 <1>   0.0800 
 31 H       -4.0160     0.5540     0.1400 H     1 <1>   0.0800 
 32 H        0.7190     1.6440    -0.7820 H     1 <1>   0.1500 
 33 H       -3.6020    -1.4580    -1.2310 H     1 <1>   0.0800 
 34 H       -3.2230    -2.3690     0.2020 H     1 <1>   0.0800 
 35 H       -5.9090    -1.0810    -0.3760 H     1 <1>   0.0800 
 36 H       -5.5400    -2.0210     1.0390 H     1 <1>   0.0800 
 37 H       -4.7310    -4.4050     0.5920 H     1 <1>   0.3700 
 38 H       -5.6870    -5.5210    -1.9720 H     1 <1>   0.0800 
 39 H       -7.4810    -5.4970     0.0700 H     1 <1>   0.0800 
 40 H       -3.5060    -6.2170    -0.5040 H     1 <1>   0.0800 
 41 H       -4.4740    -7.4640    -1.2800 H     1 <1>   0.0800 
 42 H       -6.6580    -7.8900     1.2150 H     1 <1>   0.0800 
 43 H       -6.2020    -6.3130     1.8350 H     1 <1>   0.0800 
 44 H       -6.8610    -8.0660    -1.4170 H     1 <1>   0.0800 
 45 H       -7.7500    -6.7570    -2.1130 H     1 <1>   0.0800 
 46 H       -7.9930    -9.6940    -0.0900 H     1 <1>   0.1500 
 47 H       -9.2600    -5.2010    -1.4430 H     1 <1>   0.1500 
 48 H      -10.0140   -10.5300     0.9170 H     1 <1>   0.1500 
 49 H      -13.1300    -7.2890     0.7340 H     1 <1>   0.1500 
 50 H      -11.3400    -3.9570    -1.2170 H     1 <1>   0.1500 
 51 H      -13.2850    -4.9770    -0.1310 H     1 <1>   0.1500 
@<TRIPOS>BOND
  1   1   2  1   
  2   1   3  1   
  3   2   4  2   
  4   2   5  1   
  5   3   6  2   
  6   3  28  1   
  7   4   6  1   
  8   4  29  1   
  9   5   7  1   
 10   5  30  1   
 11   5  31  1   
 12   6  32  1   
 13   7   8  1   
 14   7  33  1   
 15   7  34  1   
 16   8   9  1   
 17   8  35  1   
 18   8  36  1   
 19   9  10  2   
 20   9  11  am  
 21  11  12  1   
 22  11  37  1   
 23  12  13  1   
 24  12  14  1   
 25  12  38  1   
 26  13  15  1   
 27  13  16  1   
 28  13  39  1   
 29  14  17  1   
 30  14  40  1   
 31  14  41  1   
 32  15  17  1   
 33  15  42  1   
 34  15  43  1   
 35  16  18  1   
 36  16  44  1   
 37  16  45  1   
 38  18  19  ar  
 39  18  20  ar  
 40  19  21  ar  
 41  19  22  ar  
 42  20  23  ar  
 43  20  46  1   
 44  21  24  ar  
 45  21  25  ar  
 46  22  26  ar  
 47  22  47  1   
 48  23  24  ar  
 49  23  48  1   
 50  25  27  ar  
 51  25  49  1   
 52  26  27  ar  
 53  26  50  1   
 54  27  51  1   
@<TRIPOS>SUBSTRUCTURE
  1 ****  11 GROUP 4 **** **** 0

# MOE 2024.06 (io_trps.svl 2023.06)
