@<TRIPOS>MOLECULE
NONAME
45 48 1 0 0 
SMALL
USER_CHARGES


@<TRIPOS>ATOM
  1 CL      -0.7740    -0.8210     0.1160 Cl    1 <1>  -0.1770 
  2 C        0.9030    -1.1140    -0.2830 C.ar  1 <1>   0.1770 
  3 C        1.5170    -2.3180     0.0640 C.ar  1 <1>   0.0540 
  4 C        1.5750    -0.1170    -0.9660 C.ar  1 <1>  -0.1500 
  5 C        0.8310    -3.3610     0.7910 C.2   1 <1>   0.4620 
  6 C        2.8460    -2.4860    -0.3280 C.ar  1 <1>  -0.1500 
  7 C        2.8960    -0.3070    -1.3330 C.ar  1 <1>  -0.1500 
  8 N        0.2310    -3.2320     1.9190 N.2   1 <1>  -0.4100 
  9 N        0.7860    -4.6170     0.3400 N.2   1 <1>  -0.5650 
 10 C        3.5280    -1.4960    -1.0140 C.ar  1 <1>  -0.1500 
 11 O       -0.2510    -4.3910     2.2450 O.3   1 <1>  -0.0190 
 12 C        0.1120    -5.1740     1.2630 C.2   1 <1>   0.2980 
 13 C       -0.2930    -6.6440     1.3100 C.3   1 <1>   0.2900 
 14 N       -1.7570    -6.8460     1.2140 N.3   1 <1>  -0.8100 
 15 C       -2.3520    -6.2400     0.0130 C.3   1 <1>   0.1100 
 16 C       -2.1530    -8.2650     1.2190 C.3   1 <1>   0.1100 
 17 C       -3.6730    -6.9790    -0.1630 C.3   1 <1>   0.2000 
 18 C       -3.3160    -8.4130     0.2190 C.3   1 <1>  -0.0800 
 19 O       -4.5530    -6.4920     0.7840 O.3   1 <1>  -0.6800 
 20 C       -2.9160    -9.2300    -1.0240 C.3   1 <1>   0.0200 
 21 C       -2.4650   -10.6330    -0.6600 C.2   1 <1>  -0.0400 
 22 O       -3.2590   -11.4260     0.0080 O.3   1 <1>  -0.0190 
 23 C       -1.3220   -11.2950    -0.8940 C.2   1 <1>  -0.1500 
 24 N       -2.7070   -12.5820     0.2390 N.2   1 <1>  -0.4100 
 25 C       -1.5390   -12.5330    -0.2950 C.2   1 <1>   0.1080 
 26 C       -0.5460   -13.6730    -0.2710 C.3   1 <1>  -0.0590 
 27 H        1.0650     0.7970    -1.2100 H     1 <1>   0.1500 
 28 H        3.3470    -3.4070    -0.0860 H     1 <1>   0.1500 
 29 H        3.4270     0.4640    -1.8650 H     1 <1>   0.1500 
 30 H        4.5550    -1.6510    -1.3010 H     1 <1>   0.1500 
 31 H        0.0590    -7.0650     2.2350 H     1 <1>   0.0800 
 32 H        0.1940    -7.1570     0.5000 H     1 <1>   0.0800 
 33 H       -2.5010    -5.1790     0.1350 H     1 <1>   0.0800 
 34 H       -1.7230    -6.4140    -0.8430 H     1 <1>   0.0800 
 35 H       -1.3250    -8.8990     0.9480 H     1 <1>   0.0800 
 36 H       -2.4790    -8.5360     2.2090 H     1 <1>   0.0800 
 37 H       -4.1150    -6.8690    -1.1380 H     1 <1>   0.0800 
 38 H       -4.1530    -8.9020     0.6870 H     1 <1>   0.0800 
 39 H       -4.0430    -6.3950     1.6170 H     1 <1>   0.4000 
 40 H       -2.1210    -8.7360    -1.5540 H     1 <1>   0.0800 
 41 H       -3.7610    -9.3060    -1.6850 H     1 <1>   0.0800 
 42 H       -0.4340   -10.9830    -1.4110 H     1 <1>   0.1500 
 43 H        0.3780   -13.3450     0.1680 H     1 <1>   0.0800 
 44 H       -0.3620   -14.0160    -1.2730 H     1 <1>   0.0800 
 45 H       -0.9380   -14.4890     0.3090 H     1 <1>   0.0800 
@<TRIPOS>BOND
  1   1   2  1   
  2   2   3  ar  
  3   2   4  ar  
  4   3   5  1   
  5   3   6  ar  
  6   4   7  ar  
  7   4  27  1   
  8   5   8  2   
  9   5   9  1   
 10   6  10  ar  
 11   6  28  1   
 12   7  10  ar  
 13   7  29  1   
 14   8  11  1   
 15   9  12  2   
 16  10  30  1   
 17  11  12  1   
 18  12  13  1   
 19  13  14  1   
 20  13  31  1   
 21  13  32  1   
 22  14  15  1   
 23  14  16  1   
 24  15  17  1   
 25  15  33  1   
 26  15  34  1   
 27  16  18  1   
 28  16  35  1   
 29  16  36  1   
 30  17  18  1   
 31  17  19  1   
 32  17  37  1   
 33  18  20  1   
 34  18  38  1   
 35  19  39  1   
 36  20  21  1   
 37  20  40  1   
 38  20  41  1   
 39  21  22  1   
 40  21  23  2   
 41  22  24  1   
 42  23  25  1   
 43  23  42  1   
 44  24  25  2   
 45  25  26  1   
 46  26  43  1   
 47  26  44  1   
 48  26  45  1   
@<TRIPOS>SUBSTRUCTURE
  1 ****  13 GROUP 4 **** **** 0

# MOE 2024.06 (io_trps.svl 2023.06)
