@<TRIPOS>MOLECULE
NONAME
43 45 1 0 0 
SMALL
USER_CHARGES


@<TRIPOS>ATOM
  1 O       -0.7150    -0.4970     1.2220 O.3   1 <1>  -0.5600 
  2 C        0.1130    -1.5400     0.7520 C.3   1 <1>   0.2800 
  3 C       -2.0900    -0.5150     0.9490 C.3   1 <1>   0.1200 
  4 C       -0.7310    -2.6910     0.1150 C.3   1 <1>   0.2000 
  5 C        0.8520    -2.0310     2.0150 C.3   1 <1>  -0.1600 
  6 C        1.0750    -0.8720    -0.2610 C.3   1 <1>  -0.1600 
  7 C       -2.3160    -0.7990    -0.5360 C.3   1 <1>  -0.1600 
  8 O        0.0380    -3.7480    -0.3960 O.3   1 <1>  -0.6800 
  9 C       -1.7890    -2.1920    -0.9150 C.3   1 <1>   0.2800 
 10 C        2.1480    -2.7860     1.7080 C.3   1 <1>   0.2090 
 11 C        2.5000    -0.7340     0.2680 C.3   1 <1>   0.2090 
 12 O       -2.8520    -3.0670    -0.8360 O.3   1 <1>  -0.6800 
 13 C       -1.3660    -2.2170    -2.3920 C.3   1 <1>  -0.2400 
 14 N        2.9810    -2.0750     0.6920 N.pl3 1 <1>  -0.8380 
 15 C        3.5970    -2.8390    -0.2710 C.ar  1 <1>   0.4100 
 16 N        2.8100    -3.5400    -1.0760 N.ar  1 <1>  -0.6200 
 17 C        4.9810    -2.8330    -0.3650 C.ar  1 <1>  -0.1500 
 18 C        3.4230    -4.2650    -1.9940 C.ar  1 <1>   0.1600 
 19 C        5.6190    -3.5860    -1.3270 C.ar  1 <1>   0.0730 
 20 C        4.7930    -4.3230    -2.1600 C.ar  1 <1>  -0.1500 
 21 C        7.0470    -3.6060    -1.4570 C.1   1 <1>   0.4840 
 22 N        8.1820    -3.6240    -1.5690 N.1   1 <1>  -0.5570 
 23 H       -2.5580    -1.2640     1.5660 H     1 <1>   0.0800 
 24 H       -2.4870     0.4500     1.2140 H     1 <1>   0.0800 
 25 H       -1.2830    -3.1260     0.9310 H     1 <1>   0.0800 
 26 H        1.1060    -1.1860     2.6290 H     1 <1>   0.0800 
 27 H        0.2090    -2.6640     2.5980 H     1 <1>   0.0800 
 28 H        1.1380    -1.4540    -1.1580 H     1 <1>   0.0800 
 29 H        0.7100     0.0990    -0.5420 H     1 <1>   0.0800 
 30 H       -1.7980    -0.0390    -1.0920 H     1 <1>   0.0800 
 31 H       -3.3610    -0.7170    -0.7760 H     1 <1>   0.0800 
 32 H        0.9680    -3.4580    -0.5960 H     1 <1>   0.4000 
 33 H        1.9160    -3.7790     1.3610 H     1 <1>   0.0800 
 34 H        2.7210    -2.8890     2.6130 H     1 <1>   0.0800 
 35 H        2.5290    -0.0560     1.1040 H     1 <1>   0.0800 
 36 H        3.1410    -0.3440    -0.5050 H     1 <1>   0.0800 
 37 H       -2.5050    -3.9670    -1.0000 H     1 <1>   0.4000 
 38 H       -0.5690    -1.5230    -2.5740 H     1 <1>   0.0800 
 39 H       -2.1950    -1.9360    -3.0160 H     1 <1>   0.0800 
 40 H       -1.0320    -3.1980    -2.6810 H     1 <1>   0.0800 
 41 H        5.5360    -2.2320     0.3290 H     1 <1>   0.1500 
 42 H        2.7960    -4.8460    -2.6500 H     1 <1>   0.1500 
 43 H        5.2150    -4.9380    -2.9350 H     1 <1>   0.1500 
@<TRIPOS>BOND
  1   1   2  1   
  2   1   3  1   
  3   2   4  1   
  4   2   5  1   
  5   2   6  1   
  6   3   7  1   
  7   3  23  1   
  8   3  24  1   
  9   4   8  1   
 10   4   9  1   
 11   4  25  1   
 12   5  10  1   
 13   5  26  1   
 14   5  27  1   
 15   6  11  1   
 16   6  28  1   
 17   6  29  1   
 18   7   9  1   
 19   7  30  1   
 20   7  31  1   
 21   8  32  1   
 22   9  12  1   
 23   9  13  1   
 24  10  14  1   
 25  10  33  1   
 26  10  34  1   
 27  11  14  1   
 28  11  35  1   
 29  11  36  1   
 30  12  37  1   
 31  13  38  1   
 32  13  39  1   
 33  13  40  1   
 34  14  15  1   
 35  15  16  ar  
 36  15  17  ar  
 37  16  18  ar  
 38  17  19  ar  
 39  17  41  1   
 40  18  20  ar  
 41  18  42  1   
 42  19  20  ar  
 43  19  21  1   
 44  20  43  1   
 45  21  22  3   
@<TRIPOS>SUBSTRUCTURE
  1 ****  14 GROUP 4 **** **** 0

# MOE 2024.06 (io_trps.svl 2023.06)
