@<TRIPOS>MOLECULE
NONAME
56 57 1 0 0 
SMALL
USER_CHARGES


@<TRIPOS>ATOM
  1 S       -0.6970    -0.3880    -1.0200 S.o2  1 <1>   1.3330 
  2 O       -0.1400     0.8260    -0.4810 O.2   1 <1>  -0.6500 
  3 O        0.1520    -1.4830    -1.4080 O.2   1 <1>  -0.6500 
  4 N       -1.3870     0.0880    -2.4450 N.am  1 <1>  -0.9780 
  5 C       -2.0760    -0.9480    -0.0120 C.3   1 <1>  -0.0550 
  6 C       -2.8660    -2.1230    -0.6170 C.3   1 <1>  -0.1600 
  7 C       -4.0190    -2.5710     0.3030 C.3   1 <1>  -0.0990 
  8 C       -4.8430    -3.7340    -0.2440 C.2   1 <1>   0.5690 
  9 O       -4.5600    -4.1830    -1.3300 O.2   1 <1>  -0.5700 
 10 N       -5.8840    -4.2450     0.4870 N.am  1 <1>  -0.6600 
 11 C       -6.6540    -5.4330    -0.0040 C.3   1 <1>   0.1400 
 12 C       -6.3840    -3.6890     1.7770 C.3   1 <1>   0.1400 
 13 C       -8.0110    -5.0440    -0.6110 C.3   1 <1>   0.1400 
 14 C       -7.4140    -2.5700     1.5570 C.3   1 <1>  -0.1600 
 15 N       -8.8300    -4.2070     0.3240 N.am  1 <1>  -0.6600 
 16 C       -8.3850    -2.7890     0.3890 C.3   1 <1>   0.1400 
 17 C       -9.9190    -4.6360     1.0490 C.2   1 <1>   0.5690 
 18 O      -10.5410    -3.8560     1.7370 O.2   1 <1>  -0.5700 
 19 C      -10.3590    -6.1130     1.0310 C.3   1 <1>   0.1240 
 20 C      -11.0410    -6.4790    -0.2910 C.ar  1 <1>  -0.1430 
 21 C      -11.2630    -6.4850     2.2300 C.3   1 <1>  -0.1600 
 22 C      -10.6870    -7.6390    -0.9680 C.ar  1 <1>  -0.1500 
 23 C      -12.0200    -5.6570    -0.8300 C.ar  1 <1>  -0.1500 
 24 C      -11.5750    -7.9860     2.3230 C.3   1 <1>  -0.2400 
 25 C      -11.2960    -7.9660    -2.1670 C.ar  1 <1>  -0.1500 
 26 C      -12.6300    -5.9820    -2.0290 C.ar  1 <1>  -0.1500 
 27 C      -12.2670    -7.1360    -2.7000 C.ar  1 <1>  -0.1500 
 28 H       -1.0670    -0.6130    -3.1110 H     1 <1>   0.4200 
 29 H       -0.8870     0.9430    -2.6790 H     1 <1>   0.4200 
 30 H       -2.7440    -0.1230     0.1430 H     1 <1>   0.0800 
 31 H       -1.6970    -1.2440     0.9470 H     1 <1>   0.0800 
 32 H       -2.2000    -2.9540    -0.7840 H     1 <1>   0.0800 
 33 H       -3.2690    -1.8300    -1.5720 H     1 <1>   0.0800 
 34 H       -4.6790    -1.7400     0.4640 H     1 <1>   0.0800 
 35 H       -3.6090    -2.8710     1.2500 H     1 <1>   0.0800 
 36 H       -6.8110    -6.1190     0.8090 H     1 <1>   0.0800 
 37 H       -6.0820    -5.9570    -0.7510 H     1 <1>   0.0800 
 38 H       -5.5670    -3.3230     2.3730 H     1 <1>   0.0800 
 39 H       -6.8520    -4.4800     2.3380 H     1 <1>   0.0800 
 40 H       -8.5400    -5.9350    -0.8870 H     1 <1>   0.0800 
 41 H       -7.8390    -4.4960    -1.5220 H     1 <1>   0.0800 
 42 H       -6.9040    -1.6380     1.4030 H     1 <1>   0.0800 
 43 H       -7.9900    -2.4610     2.4580 H     1 <1>   0.0800 
 44 H       -7.8980    -2.5240    -0.5340 H     1 <1>   0.0800 
 45 H       -9.2380    -2.1410     0.5000 H     1 <1>   0.0800 
 46 H       -9.4630    -6.6960     1.1300 H     1 <1>   0.0800 
 47 H      -12.1870    -5.9370     2.1580 H     1 <1>   0.0800 
 48 H      -10.7760    -6.1770     3.1390 H     1 <1>   0.0800 
 49 H       -9.9390    -8.2980    -0.5640 H     1 <1>   0.1500 
 50 H      -12.3140    -4.7560    -0.3170 H     1 <1>   0.1500 
 51 H      -12.1400    -8.3100     1.4660 H     1 <1>   0.0800 
 52 H      -12.1600    -8.1830     3.2040 H     1 <1>   0.0800 
 53 H      -10.6670    -8.5610     2.3800 H     1 <1>   0.0800 
 54 H      -11.0160    -8.8660    -2.6860 H     1 <1>   0.1500 
 55 H      -13.3860    -5.3360    -2.4380 H     1 <1>   0.1500 
 56 H      -12.7400    -7.3890    -3.6320 H     1 <1>   0.1500 
@<TRIPOS>BOND
  1   1   2  2   
  2   1   3  2   
  3   1   4  am  
  4   1   5  1   
  5   4  28  1   
  6   4  29  1   
  7   5   6  1   
  8   5  30  1   
  9   5  31  1   
 10   6   7  1   
 11   6  32  1   
 12   6  33  1   
 13   7   8  1   
 14   7  34  1   
 15   7  35  1   
 16   8   9  2   
 17   8  10  am  
 18  10  11  1   
 19  10  12  1   
 20  11  13  1   
 21  11  36  1   
 22  11  37  1   
 23  12  14  1   
 24  12  38  1   
 25  12  39  1   
 26  13  15  1   
 27  13  40  1   
 28  13  41  1   
 29  14  16  1   
 30  14  42  1   
 31  14  43  1   
 32  15  16  1   
 33  15  17  am  
 34  16  44  1   
 35  16  45  1   
 36  17  18  2   
 37  17  19  1   
 38  19  20  1   
 39  19  21  1   
 40  19  46  1   
 41  20  22  ar  
 42  20  23  ar  
 43  21  24  1   
 44  21  47  1   
 45  21  48  1   
 46  22  25  ar  
 47  22  49  1   
 48  23  26  ar  
 49  23  50  1   
 50  24  51  1   
 51  24  52  1   
 52  24  53  1   
 53  25  27  ar  
 54  25  54  1   
 55  26  27  ar  
 56  26  55  1   
 57  27  56  1   
@<TRIPOS>SUBSTRUCTURE
  1 ****  13 GROUP 4 **** **** 0

# MOE 2024.06 (io_trps.svl 2023.06)
