@<TRIPOS>MOLECULE
NONAME
60 64 1 0 0 
SMALL
USER_CHARGES


@<TRIPOS>ATOM
  1 O        0.5300    -0.4720    -0.1790 O.3   1 <1>  -0.6800 
  2 C        1.0040    -0.6130    -1.4820 C.3   1 <1>   0.2000 
  3 C        1.9310    -1.8270    -1.5680 C.3   1 <1>  -0.0800 
  4 C        1.9590     0.5510    -1.7690 C.3   1 <1>   0.3430 
  5 C        3.2780    -1.3140    -1.0430 C.3   1 <1>   0.3430 
  6 C        1.4480    -3.1300    -0.8900 C.3   1 <1>  -0.0160 
  7 N        3.2490     0.1760    -1.1120 N.4   1 <1>  -0.9590 
  8 C        2.6250    -4.0710    -0.6460 C.ar  1 <1>  -0.1430 
  9 C        3.3320     0.7620     0.2400 C.3   1 <1>   0.5230 
 10 C        3.3600    -4.0880     0.5670 C.ar  1 <1>   0.0000 
 11 C        3.0240    -4.9170    -1.6390 C.ar  1 <1>  -0.1500 
 12 C        4.1680     2.0010     0.0840 C.2   1 <1>  -0.3320 
 13 C        4.4840    -4.9470     0.6380 C.ar  1 <1>   0.3100 
 14 C        3.0580    -3.3060     1.7100 C.ar  1 <1>  -0.1500 
 15 C        4.1420    -5.7390    -1.4580 C.ar  1 <1>   0.1600 
 16 N        5.5010     2.1110     0.3210 N.pl3 1 <1>   0.0480 
 17 C        3.7430     3.2210    -0.3140 C.2   1 <1>   0.0770 
 18 N        4.8630    -5.7530    -0.3830 N.ar  1 <1>  -0.6200 
 19 C        5.2540    -4.9710     1.8120 C.ar  1 <1>  -0.1500 
 20 C        3.8280    -3.3540     2.8400 C.ar  1 <1>  -0.1500 
 21 C        5.7790     3.4020     0.0240 C.2   1 <1>   0.0360 
 22 C        6.5170     1.1490     0.8380 C.3   1 <1>   0.1760 
 23 N        4.7580     4.0910    -0.3640 N.2   1 <1>  -0.5650 
 24 C        4.9410    -4.1950     2.8940 C.ar  1 <1>  -0.1500 
 25 C        6.7040    -0.0440    -0.1140 C.3   1 <1>  -0.1600 
 26 C        6.1840     0.6940     2.2710 C.3   1 <1>  -0.1600 
 27 C        7.7590    -1.0200     0.4230 C.3   1 <1>  -0.1600 
 28 C        7.2340    -0.2960     2.7950 C.3   1 <1>  -0.1600 
 29 C        7.4060    -1.4860     1.8410 C.3   1 <1>  -0.1600 
 30 H       -0.3000    -0.9800    -0.0480 H     1 <1>   0.4000 
 31 H        0.1690    -0.6430    -2.1620 H     1 <1>   0.0800 
 32 H        2.0850    -2.0500    -2.6100 H     1 <1>   0.0800 
 33 H        1.5670     1.4840    -1.3980 H     1 <1>   0.0800 
 34 H        2.1090     0.6290    -2.8330 H     1 <1>   0.0800 
 35 H        4.0870    -1.7170    -1.6320 H     1 <1>   0.0800 
 36 H        3.4140    -1.6250    -0.0220 H     1 <1>   0.0800 
 37 H        0.7330    -3.6140    -1.5340 H     1 <1>   0.0800 
 38 H        0.9330    -2.9450     0.0330 H     1 <1>   0.0800 
 39 H        4.0460     0.5640    -1.6340 H     1 <1>   0.4500 
 40 H        2.3480     1.0050     0.6110 H     1 <1>   0.0800 
 41 H        3.8000     0.0780     0.9260 H     1 <1>   0.0800 
 42 H        2.5060    -4.9770    -2.5790 H     1 <1>   0.1500 
 43 H        2.2010    -2.6610     1.7100 H     1 <1>   0.1500 
 44 H        4.4250    -6.3950    -2.2650 H     1 <1>   0.1500 
 45 H        2.7460     3.5370    -0.5770 H     1 <1>   0.1500 
 46 H        6.1020    -5.6310     1.8330 H     1 <1>   0.1500 
 47 H        3.5860    -2.7600     3.7050 H     1 <1>   0.1500 
 48 H        6.7720     3.8090     0.1140 H     1 <1>   0.1500 
 49 H        7.4570     1.6740     0.8810 H     1 <1>   0.0800 
 50 H        5.5390    -4.2290     3.7900 H     1 <1>   0.1500 
 51 H        5.7850    -0.5820    -0.2180 H     1 <1>   0.0800 
 52 H        7.0140     0.3100    -1.0830 H     1 <1>   0.0800 
 53 H        6.1560     1.5520     2.9220 H     1 <1>   0.0800 
 54 H        5.2250     0.2150     2.3060 H     1 <1>   0.0800 
 55 H        7.8310    -1.8750    -0.2270 H     1 <1>   0.0800 
 56 H        8.7240    -0.5390     0.4370 H     1 <1>   0.0800 
 57 H        8.1800     0.2090     2.9050 H     1 <1>   0.0800 
 58 H        6.9420    -0.6530     3.7680 H     1 <1>   0.0800 
 59 H        8.1850    -2.1320     2.2110 H     1 <1>   0.0800 
 60 H        6.4960    -2.0590     1.8130 H     1 <1>   0.0800 
@<TRIPOS>BOND
  1   1   2  1   
  2   1  30  1   
  3   2   3  1   
  4   2   4  1   
  5   2  31  1   
  6   3   5  1   
  7   3   6  1   
  8   3  32  1   
  9   4   7  1   
 10   4  33  1   
 11   4  34  1   
 12   5   7  1   
 13   5  35  1   
 14   5  36  1   
 15   6   8  1   
 16   6  37  1   
 17   6  38  1   
 18   7   9  1   
 19   7  39  1   
 20   8  10  ar  
 21   8  11  ar  
 22   9  12  1   
 23   9  40  1   
 24   9  41  1   
 25  10  13  ar  
 26  10  14  ar  
 27  11  15  ar  
 28  11  42  1   
 29  12  16  1   
 30  12  17  2   
 31  13  18  ar  
 32  13  19  ar  
 33  14  20  ar  
 34  14  43  1   
 35  15  18  ar  
 36  15  44  1   
 37  16  21  1   
 38  16  22  1   
 39  17  23  1   
 40  17  45  1   
 41  19  24  ar  
 42  19  46  1   
 43  20  24  ar  
 44  20  47  1   
 45  21  23  2   
 46  21  48  1   
 47  22  25  1   
 48  22  26  1   
 49  22  49  1   
 50  24  50  1   
 51  25  27  1   
 52  25  51  1   
 53  25  52  1   
 54  26  28  1   
 55  26  53  1   
 56  26  54  1   
 57  27  29  1   
 58  27  55  1   
 59  27  56  1   
 60  28  29  1   
 61  28  57  1   
 62  28  58  1   
 63  29  59  1   
 64  29  60  1   
@<TRIPOS>SUBSTRUCTURE
  1 ****   5 GROUP 4 **** **** 0

# MOE 2024.06 (io_trps.svl 2023.06)
