@<TRIPOS>MOLECULE
NONAME
48 51 1 0 0 
SMALL
USER_CHARGES


@<TRIPOS>ATOM
  1 O        0.9290     0.7090    -0.8040 O.2   1 <1>  -0.5700 
  2 C        1.7290    -0.0890    -0.3350 C.2   1 <1>   0.5440 
  3 N        2.8840     0.3580     0.3010 N.am  1 <1>  -0.2980 
  4 C        1.5190    -1.5080    -0.4300 C.ar  1 <1>   0.0860 
  5 N        3.8420    -0.4770     0.8270 N.2   1 <1>  -0.5120 
  6 C        3.1350     1.8200     0.4480 C.3   1 <1>   0.1400 
  7 C        2.5000    -2.3480     0.1140 C.ar  1 <1>   0.0860 
  8 C        0.3960    -2.0830    -1.0330 C.ar  1 <1>  -0.1500 
  9 C        3.6400    -1.7410     0.7270 C.2   1 <1>   0.3040 
 10 C        3.6800     2.4100    -0.8540 C.3   1 <1>   0.2090 
 11 C        2.3300    -3.7350     0.0380 C.ar  1 <1>  -0.1500 
 12 C        0.2440    -3.4510    -1.1000 C.ar  1 <1>  -0.1500 
 13 N        3.8540     3.8850    -0.7310 N.pl3 1 <1>  -0.8690 
 14 C        1.2160    -4.2820    -0.5610 C.ar  1 <1>  -0.1500 
 15 C        5.0050     4.4910    -0.2800 C.ar  1 <1>   0.4100 
 16 N        5.8540     3.7090     0.3840 N.ar  1 <1>  -0.6200 
 17 C        5.2320     5.8590    -0.5200 C.ar  1 <1>   0.0860 
 18 C        6.9720     4.2660     0.8010 C.ar  1 <1>   0.1600 
 19 C        4.2510     6.6650    -1.2050 C.2   1 <1>   0.5440 
 20 C        6.4260     6.4080    -0.0740 C.ar  1 <1>  -0.1500 
 21 C        7.3070     5.5930     0.5990 C.ar  1 <1>  -0.1500 
 22 O        3.8510     6.3360    -2.3090 O.2   1 <1>  -0.5700 
 23 N        3.7460     7.8160    -0.6380 N.am  1 <1>  -0.6600 
 24 C        3.7840     8.1040     0.8140 C.3   1 <1>   0.1400 
 25 C        2.7400     8.6660    -1.3160 C.3   1 <1>   0.1400 
 26 C        2.9100     9.3400     0.9950 C.3   1 <1>  -0.1600 
 27 C        1.9450     9.3090    -0.1860 C.3   1 <1>  -0.1600 
 28 H        3.8500     1.9790     1.2350 H     1 <1>   0.0800 
 29 H        2.2170     2.3130     0.7100 H     1 <1>   0.0800 
 30 H       -0.3570    -1.4360    -1.4510 H     1 <1>   0.1500 
 31 H        4.3780    -2.4100     1.1320 H     1 <1>   0.0600 
 32 H        2.9920     2.2090    -1.6560 H     1 <1>   0.0800 
 33 H        4.6250     1.9500    -1.0870 H     1 <1>   0.0800 
 34 H        3.0830    -4.3810     0.4550 H     1 <1>   0.1500 
 35 H       -0.6270    -3.8800    -1.5680 H     1 <1>   0.1500 
 36 H        3.3570     4.4220    -1.4590 H     1 <1>   0.4000 
 37 H        1.0930    -5.3510    -0.6140 H     1 <1>   0.1500 
 38 H        7.6620     3.6320     1.3320 H     1 <1>   0.1500 
 39 H        6.6500     7.4450    -0.2560 H     1 <1>   0.1500 
 40 H        8.2440     5.9740     0.9640 H     1 <1>   0.1500 
 41 H        4.7900     8.2880     1.1490 H     1 <1>   0.0800 
 42 H        3.3680     7.2670     1.3510 H     1 <1>   0.0800 
 43 H        2.1040     8.0840    -1.9620 H     1 <1>   0.0800 
 44 H        3.2510     9.4150    -1.8960 H     1 <1>   0.0800 
 45 H        3.5300    10.2180     0.9360 H     1 <1>   0.0800 
 46 H        2.4000     9.3350     1.9420 H     1 <1>   0.0800 
 47 H        1.1020     8.6810     0.0460 H     1 <1>   0.0800 
 48 H        1.5900    10.2880    -0.4550 H     1 <1>   0.0800 
@<TRIPOS>BOND
  1   1   2  2   
  2   2   3  am  
  3   2   4  1   
  4   3   5  1   
  5   3   6  1   
  6   4   7  ar  
  7   4   8  ar  
  8   5   9  2   
  9   6  10  1   
 10   6  28  1   
 11   6  29  1   
 12   7   9  1   
 13   7  11  ar  
 14   8  12  ar  
 15   8  30  1   
 16   9  31  1   
 17  10  13  1   
 18  10  32  1   
 19  10  33  1   
 20  11  14  ar  
 21  11  34  1   
 22  12  14  ar  
 23  12  35  1   
 24  13  15  1   
 25  13  36  1   
 26  14  37  1   
 27  15  16  ar  
 28  15  17  ar  
 29  16  18  ar  
 30  17  19  1   
 31  17  20  ar  
 32  18  21  ar  
 33  18  38  1   
 34  19  22  2   
 35  19  23  am  
 36  20  21  ar  
 37  20  39  1   
 38  21  40  1   
 39  23  24  1   
 40  23  25  1   
 41  24  26  1   
 42  24  41  1   
 43  24  42  1   
 44  25  27  1   
 45  25  43  1   
 46  25  44  1   
 47  26  27  1   
 48  26  45  1   
 49  26  46  1   
 50  27  47  1   
 51  27  48  1   
@<TRIPOS>SUBSTRUCTURE
  1 ****  10 GROUP 4 **** **** 0

# MOE 2024.06 (io_trps.svl 2023.06)
