@<TRIPOS>MOLECULE
NONAME
41 43 1 0 0 
SMALL
USER_CHARGES


@<TRIPOS>ATOM
  1 O        0.8250    -0.7780     1.0960 O.2   1 <1>  -0.5700 
  2 C        0.3950    -1.8280     0.6820 C.2   1 <1>   0.5690 
  3 N        0.6980    -2.3020    -0.5710 N.am  1 <1>  -0.6600 
  4 C       -0.4940    -2.6290     1.6200 C.3   1 <1>  -0.0990 
  5 C        0.0900    -3.5340    -1.1500 C.3   1 <1>   0.1400 
  6 C        1.5800    -1.5440    -1.5000 C.3   1 <1>   0.0600 
  7 C       -1.2590    -3.7750     0.9380 C.3   1 <1>  -0.1600 
  8 C       -0.3790    -4.5400    -0.0790 C.3   1 <1>   0.0000 
  9 C       -1.2250    -5.6320    -0.7710 C.3   1 <1>   0.2090 
 10 C        0.8520    -5.2180     0.5810 C.3   1 <1>  -0.1600 
 11 N       -1.6050    -6.6990     0.1920 N.pl3 1 <1>  -0.8380 
 12 C        0.4530    -6.3770     1.5130 C.3   1 <1>  -0.1600 
 13 C       -2.7620    -7.4170    -0.0630 C.ar  1 <1>   0.4100 
 14 C       -0.4460    -7.3970     0.8050 C.3   1 <1>   0.2090 
 15 N       -2.6170    -8.6900    -0.3990 N.ar  1 <1>  -0.6200 
 16 C       -4.0220    -6.8080     0.0170 C.ar  1 <1>   0.1600 
 17 C       -3.7740    -9.2860    -0.6480 C.ar  1 <1>   0.1600 
 18 N       -5.1680    -7.3950    -0.2360 N.ar  1 <1>  -0.6200 
 19 C       -5.0430    -8.6990    -0.5870 C.ar  1 <1>   0.1310 
 20 C       -6.1880    -9.5590    -0.9180 C.2   1 <1>   0.9790 
 21 O       -7.3490    -9.1270    -1.0680 O.co2 1 <1>  -0.9000 
 22 O       -6.0210   -10.7880    -1.0780 O.co2 1 <1>  -0.9000 
 23 H       -1.1940    -1.9590     2.0840 H     1 <1>   0.0800 
 24 H        0.1310    -3.0260     2.3980 H     1 <1>   0.0800 
 25 H        0.8060    -4.0120    -1.7980 H     1 <1>   0.0800 
 26 H       -0.7500    -3.2340    -1.7530 H     1 <1>   0.0800 
 27 H        1.9640    -0.6570    -1.0260 H     1 <1>   0.0800 
 28 H        1.0240    -1.2510    -2.3730 H     1 <1>   0.0800 
 29 H        2.4110    -2.1590    -1.7950 H     1 <1>   0.0800 
 30 H       -2.1020    -3.3540     0.4180 H     1 <1>   0.0800 
 31 H       -1.6500    -4.4400     1.6880 H     1 <1>   0.0800 
 32 H       -0.6590    -6.0820    -1.5700 H     1 <1>   0.0800 
 33 H       -2.1110    -5.1970    -1.2010 H     1 <1>   0.0800 
 34 H        1.4420    -4.5050     1.1270 H     1 <1>   0.0800 
 35 H        1.4840    -5.6180    -0.1920 H     1 <1>   0.0800 
 36 H       -0.0670    -6.0000     2.3750 H     1 <1>   0.0800 
 37 H        1.3380    -6.8770     1.8650 H     1 <1>   0.0800 
 38 H        0.1050    -7.9110     0.0350 H     1 <1>   0.0800 
 39 H       -0.7980    -8.1300     1.5120 H     1 <1>   0.0800 
 40 H       -4.0490    -5.7780     0.3120 H     1 <1>   0.1500 
 41 H       -3.7200   -10.3250    -0.9260 H     1 <1>   0.1500 
@<TRIPOS>BOND
  1   1   2  2   
  2   2   3  am  
  3   2   4  1   
  4   3   5  1   
  5   3   6  1   
  6   4   7  1   
  7   4  23  1   
  8   4  24  1   
  9   5   8  1   
 10   5  25  1   
 11   5  26  1   
 12   6  27  1   
 13   6  28  1   
 14   6  29  1   
 15   7   8  1   
 16   7  30  1   
 17   7  31  1   
 18   8   9  1   
 19   8  10  1   
 20   9  11  1   
 21   9  32  1   
 22   9  33  1   
 23  10  12  1   
 24  10  34  1   
 25  10  35  1   
 26  11  13  1   
 27  11  14  1   
 28  12  14  1   
 29  12  36  1   
 30  12  37  1   
 31  13  15  ar  
 32  13  16  ar  
 33  14  38  1   
 34  14  39  1   
 35  15  17  ar  
 36  16  18  ar  
 37  16  40  1   
 38  17  19  ar  
 39  17  41  1   
 40  18  19  ar  
 41  19  20  1   
 42  20  21  ar  
 43  20  22  ar  
@<TRIPOS>SUBSTRUCTURE
  1 ****  11 GROUP 4 **** **** 0

# MOE 2024.06 (io_trps.svl 2023.06)
