@<TRIPOS>MOLECULE
NONAME
41 43 1 0 0 
SMALL
USER_CHARGES


@<TRIPOS>ATOM
  1 O       -0.5390     0.1730     1.0120 O.2   1 <1>  -0.5700 
  2 C       -1.3760     0.9360     0.5700 C.2   1 <1>   0.5440 
  3 N       -2.5380     0.4220     0.0260 N.am  1 <1>  -0.6600 
  4 C       -1.1240     2.3630     0.6370 C.ar  1 <1>   0.0860 
  5 C       -3.7680     1.2540    -0.1410 C.3   1 <1>   0.2200 
  6 C       -2.6370    -1.0480    -0.2360 C.3   1 <1>   0.0600 
  7 C       -1.1240     3.1540    -0.5100 C.ar  1 <1>  -0.1500 
  8 C       -0.8740     2.9900     1.8550 C.ar  1 <1>  -0.1500 
  9 C       -5.0150     0.6760     0.5260 C.3   1 <1>  -0.1600 
 10 C       -4.1710     1.4410    -1.6010 C.3   1 <1>  -0.1600 
 11 C       -0.9090     4.5240    -0.4630 C.ar  1 <1>   0.0730 
 12 C       -0.6530     4.3530     1.9260 C.ar  1 <1>  -0.1500 
 13 C       -6.1830     1.3770    -0.1790 C.3   1 <1>  -0.0800 
 14 C       -5.6470     1.8580    -1.5410 C.3   1 <1>  -0.0800 
 15 C       -0.9330     5.3100    -1.6640 C.1   1 <1>   0.4840 
 16 C       -0.6740     5.1160     0.7730 C.ar  1 <1>  -0.1500 
 17 C       -6.6800     2.6300     0.5570 C.3   1 <1>  -0.1600 
 18 C       -5.8530     3.3800    -1.5750 C.3   1 <1>  -0.1600 
 19 N       -0.9690     5.9300    -2.6200 N.1   1 <1>  -0.5570 
 20 C       -6.9410     3.6420    -0.5470 C.3   1 <1>   0.2000 
 21 O       -6.8320     4.9230    -0.0530 O.3   1 <1>  -0.6800 
 22 H       -3.6110     2.2300     0.2850 H     1 <1>   0.0800 
 23 H       -3.2980    -1.2480    -1.0600 H     1 <1>   0.0800 
 24 H       -3.0030    -1.5460     0.6440 H     1 <1>   0.0800 
 25 H       -1.6670    -1.4480    -0.4760 H     1 <1>   0.0800 
 26 H       -1.2920     2.6750    -1.4600 H     1 <1>   0.1500 
 27 H       -0.8510     2.3920     2.7510 H     1 <1>   0.1500 
 28 H       -5.0980    -0.3770     0.3350 H     1 <1>   0.0800 
 29 H       -5.0120     0.8430     1.5880 H     1 <1>   0.0800 
 30 H       -3.5620     2.1710    -2.1010 H     1 <1>   0.0800 
 31 H       -4.1000     0.5070    -2.1280 H     1 <1>   0.0800 
 32 H       -0.4610     4.8180     2.8790 H     1 <1>   0.1500 
 33 H       -7.0040     0.6940    -0.3250 H     1 <1>   0.0800 
 34 H       -6.2030     1.3990    -2.3410 H     1 <1>   0.0800 
 35 H       -0.5020     6.1780     0.8340 H     1 <1>   0.1500 
 36 H       -5.9170     3.0010     1.2190 H     1 <1>   0.0800 
 37 H       -7.5750     2.4260     1.1170 H     1 <1>   0.0800 
 38 H       -6.1530     3.7130    -2.5530 H     1 <1>   0.0800 
 39 H       -4.9490     3.8860    -1.2850 H     1 <1>   0.0800 
 40 H       -7.9220     3.5100    -0.9740 H     1 <1>   0.0800 
 41 H       -5.9490     5.0570     0.3360 H     1 <1>   0.4000 
@<TRIPOS>BOND
  1   1   2  2   
  2   2   3  am  
  3   2   4  1   
  4   3   5  1   
  5   3   6  1   
  6   4   7  ar  
  7   4   8  ar  
  8   5   9  1   
  9   5  10  1   
 10   5  22  1   
 11   6  23  1   
 12   6  24  1   
 13   6  25  1   
 14   7  11  ar  
 15   7  26  1   
 16   8  12  ar  
 17   8  27  1   
 18   9  13  1   
 19   9  28  1   
 20   9  29  1   
 21  10  14  1   
 22  10  30  1   
 23  10  31  1   
 24  11  15  1   
 25  11  16  ar  
 26  12  16  ar  
 27  12  32  1   
 28  13  14  1   
 29  13  17  1   
 30  13  33  1   
 31  14  18  1   
 32  14  34  1   
 33  15  19  3   
 34  16  35  1   
 35  17  20  1   
 36  17  36  1   
 37  17  37  1   
 38  18  20  1   
 39  18  38  1   
 40  18  39  1   
 41  20  21  1   
 42  20  40  1   
 43  21  41  1   
@<TRIPOS>SUBSTRUCTURE
  1 ****   5 GROUP 4 **** **** 0

# MOE 2024.06 (io_trps.svl 2023.06)
