@<TRIPOS>MOLECULE
NONAME
49 52 1 0 0 
SMALL
USER_CHARGES


@<TRIPOS>ATOM
  1 O       -0.4140    -0.1180    -0.0240 O.2   1 <1>  -0.5700 
  2 C       -1.3220     0.5430    -0.4930 C.2   1 <1>   0.7150 
  3 N       -2.6160     0.0910    -0.3430 N.am  1 <1>  -0.6600 
  4 C       -1.0330     1.7450    -1.2180 C.2   1 <1>  -0.2370 
  5 C       -2.8890    -1.2160     0.3460 C.3   1 <1>   0.1400 
  6 C       -3.8010     0.8560    -0.8490 C.3   1 <1>   0.1400 
  7 N       -0.4010     2.8200    -0.6520 N.pl3 1 <1>   0.2940 
  8 C       -1.3010     2.0560    -2.5290 C.2   1 <1>  -0.1500 
  9 C       -4.1730    -1.8280    -0.2400 C.3   1 <1>   0.4230 
 10 C       -5.0620     0.5510    -0.0280 C.3   1 <1>  -0.1600 
 11 C       -0.2970     3.7850    -1.6000 C.2   1 <1>  -0.3020 
 12 C        0.0260     2.9600     0.7630 C.3   1 <1>  -0.0910 
 13 C       -0.8360     3.3450    -2.7680 C.2   1 <1>  -0.1500 
 14 N       -4.4360    -3.2760     0.0480 N.4   1 <1>  -0.9590 
 15 C       -5.3850    -0.9660     0.1630 C.3   1 <1>  -0.1060 
 16 C        1.2610     3.7420     1.1100 C.3   1 <1>  -0.2000 
 17 C        1.2620     2.2520     1.2320 C.3   1 <1>  -0.2000 
 18 C       -5.5790    -3.7880    -0.7560 C.3   1 <1>   0.3430 
 19 C       -3.2480    -4.1700    -0.0010 C.3   1 <1>   0.2630 
 20 C       -5.7520    -1.2050     1.6410 C.2   1 <1>   0.9060 
 21 C       -6.5600    -1.4070    -0.7410 C.3   1 <1>  -0.1600 
 22 C       -6.8300    -2.9160    -0.5760 C.3   1 <1>  -0.1600 
 23 O       -6.6520    -0.5340     2.1420 O.co2 1 <1>  -0.9000 
 24 O       -5.1830    -2.1080     2.2750 O.co2 1 <1>  -0.9000 
 25 H       -2.0550    -1.8730     0.1860 H     1 <1>   0.0800 
 26 H       -2.9970    -1.0450     1.4040 H     1 <1>   0.0800 
 27 H       -3.6020     1.9140    -0.8000 H     1 <1>   0.0800 
 28 H       -3.9700     0.5980    -1.8810 H     1 <1>   0.0800 
 29 H       -1.7790     1.4270    -3.2610 H     1 <1>   0.1500 
 30 H       -4.0620    -1.7430    -1.3070 H     1 <1>   0.0800 
 31 H       -4.9150     1.0050     0.9380 H     1 <1>   0.0800 
 32 H       -5.9060     1.0590    -0.4610 H     1 <1>   0.0800 
 33 H        0.1550     4.7380    -1.3960 H     1 <1>   0.1500 
 34 H       -0.8160     3.0020     1.4300 H     1 <1>   0.1000 
 35 H       -0.9000     3.8730    -3.7040 H     1 <1>   0.1500 
 36 H       -4.7600    -3.2170     1.0520 H     1 <1>   0.4500 
 37 H        1.8560     4.1830     0.3290 H     1 <1>   0.1000 
 38 H        1.2760     4.3210     2.0180 H     1 <1>   0.1000 
 39 H        1.2580     1.8110     2.2130 H     1 <1>   0.1000 
 40 H        1.8110     1.6610     0.5180 H     1 <1>   0.1000 
 41 H       -5.3040    -3.7960    -1.7980 H     1 <1>   0.0800 
 42 H       -5.8090    -4.7980    -0.4600 H     1 <1>   0.0800 
 43 H       -2.8130    -4.1620    -0.9870 H     1 <1>   0.0800 
 44 H       -3.5340    -5.1780     0.2500 H     1 <1>   0.0800 
 45 H       -2.5090    -3.8420     0.7120 H     1 <1>   0.0800 
 46 H       -7.4480    -0.8590    -0.4690 H     1 <1>   0.0800 
 47 H       -6.3370    -1.1870    -1.7710 H     1 <1>   0.0800 
 48 H       -7.5780    -3.2230    -1.2840 H     1 <1>   0.0800 
 49 H       -7.2370    -3.1000     0.4050 H     1 <1>   0.0800 
@<TRIPOS>BOND
  1   1   2  2   
  2   2   3  am  
  3   2   4  1   
  4   3   5  1   
  5   3   6  1   
  6   4   7  1   
  7   4   8  2   
  8   5   9  1   
  9   5  25  1   
 10   5  26  1   
 11   6  10  1   
 12   6  27  1   
 13   6  28  1   
 14   7  11  1   
 15   7  12  1   
 16   8  13  1   
 17   8  29  1   
 18   9  14  1   
 19   9  15  1   
 20   9  30  1   
 21  10  15  1   
 22  10  31  1   
 23  10  32  1   
 24  11  13  2   
 25  11  33  1   
 26  12  16  1   
 27  12  17  1   
 28  12  34  1   
 29  13  35  1   
 30  14  18  1   
 31  14  19  1   
 32  14  36  1   
 33  15  20  1   
 34  15  21  1   
 35  16  17  1   
 36  16  37  1   
 37  16  38  1   
 38  17  39  1   
 39  17  40  1   
 40  18  22  1   
 41  18  41  1   
 42  18  42  1   
 43  19  43  1   
 44  19  44  1   
 45  19  45  1   
 46  20  23  ar  
 47  20  24  ar  
 48  21  22  1   
 49  21  46  1   
 50  21  47  1   
 51  22  48  1   
 52  22  49  1   
@<TRIPOS>SUBSTRUCTURE
  1 ****   3 GROUP 4 **** **** 0

# MOE 2024.06 (io_trps.svl 2023.06)
