@<TRIPOS>MOLECULE
NONAME
44 45 1 0 0 
SMALL
USER_CHARGES


@<TRIPOS>ATOM
  1 CL      -1.6410    -5.9580    -2.6790 Cl    1 <1>  -0.1770 
  2 C       -2.1410    -4.8300    -1.4420 C.ar  1 <1>   0.1770 
  3 C       -1.2040    -4.1200    -0.7090 C.ar  1 <1>   0.1770 
  4 C       -3.4900    -4.6730    -1.1940 C.ar  1 <1>  -0.1500 
  5 CL       0.5050    -4.3200    -1.0020 Cl    1 <1>  -0.1770 
  6 C       -1.6180    -3.2450     0.2800 C.ar  1 <1>  -0.1500 
  7 C       -3.9310    -3.8090    -0.1920 C.ar  1 <1>   0.0860 
  8 C       -2.9720    -3.0950     0.5320 C.ar  1 <1>  -0.1500 
  9 C       -5.3450    -3.6770     0.0910 C.2   1 <1>   0.5440 
 10 O       -6.0750    -3.1410    -0.7200 O.2   1 <1>  -0.5700 
 11 N       -5.9100    -4.1910     1.2350 N.am  1 <1>  -0.6600 
 12 C       -5.2100    -5.2520     2.0280 C.3   1 <1>   0.3210 
 13 C       -7.3310    -3.9180     1.6300 C.3   1 <1>   0.1400 
 14 C       -4.9810    -6.5110     1.1930 C.2   1 <1>   0.0460 
 15 C       -8.3180    -4.9080     0.9780 C.3   1 <1>   0.3430 
 16 N       -5.9990    -7.1140     0.5390 N.2   1 <1>  -0.5650 
 17 C       -3.8190    -7.1790     0.9920 C.2   1 <1>  -0.3320 
 18 N       -8.3230    -4.7700    -0.5080 N.4   1 <1>  -0.9590 
 19 C       -5.4380    -8.1300    -0.0360 C.2   1 <1>   0.0360 
 20 N       -4.1150    -8.2240     0.1980 N.pl3 1 <1>   0.0330 
 21 C       -2.4050    -6.9340     1.4970 C.3   1 <1>  -0.0600 
 22 C       -9.1950    -3.6630    -0.9940 C.3   1 <1>   0.2630 
 23 C       -8.6100    -6.0650    -1.1840 C.3   1 <1>   0.2630 
 24 H       -4.2050    -5.2330    -1.7700 H     1 <1>   0.1500 
 25 H       -0.8850    -2.6910     0.8400 H     1 <1>   0.1500 
 26 H       -3.2980    -2.4120     1.2980 H     1 <1>   0.1500 
 27 H       -5.7980    -5.5190     2.8880 H     1 <1>   0.0800 
 28 H       -4.2710    -4.8700     2.3840 H     1 <1>   0.0800 
 29 H       -7.5930    -2.9120     1.3520 H     1 <1>   0.0800 
 30 H       -7.4200    -3.9850     2.7000 H     1 <1>   0.0800 
 31 H       -9.3100    -4.7440     1.3630 H     1 <1>   0.0800 
 32 H       -8.0160    -5.9070     1.2490 H     1 <1>   0.0800 
 33 H       -7.3430    -4.4900    -0.7390 H     1 <1>   0.4500 
 34 H       -5.9550    -8.8500    -0.6460 H     1 <1>   0.1500 
 35 H       -3.4750    -8.9450    -0.1510 H     1 <1>   0.2700 
 36 H       -2.3410    -6.0120     2.0450 H     1 <1>   0.0800 
 37 H       -1.7170    -6.8850     0.6720 H     1 <1>   0.0800 
 38 H       -2.1020    -7.7360     2.1470 H     1 <1>   0.0800 
 39 H      -10.2240    -3.8530    -0.7400 H     1 <1>   0.0800 
 40 H       -9.1110    -3.5700    -2.0650 H     1 <1>   0.0800 
 41 H       -8.8880    -2.7290    -0.5510 H     1 <1>   0.0800 
 42 H       -9.6110    -6.3930    -0.9560 H     1 <1>   0.0800 
 43 H       -7.9150    -6.8190    -0.8520 H     1 <1>   0.0800 
 44 H       -8.5120    -5.9570    -2.2510 H     1 <1>   0.0800 
@<TRIPOS>BOND
  1   1   2  1   
  2   2   3  ar  
  3   2   4  ar  
  4   3   5  1   
  5   3   6  ar  
  6   4   7  ar  
  7   4  24  1   
  8   6   8  ar  
  9   6  25  1   
 10   7   8  ar  
 11   7   9  1   
 12   8  26  1   
 13   9  10  2   
 14   9  11  am  
 15  11  12  1   
 16  11  13  1   
 17  12  14  1   
 18  12  27  1   
 19  12  28  1   
 20  13  15  1   
 21  13  29  1   
 22  13  30  1   
 23  14  16  1   
 24  14  17  2   
 25  15  18  1   
 26  15  31  1   
 27  15  32  1   
 28  16  19  2   
 29  17  20  1   
 30  17  21  1   
 31  18  22  1   
 32  18  23  1   
 33  18  33  1   
 34  19  20  1   
 35  19  34  1   
 36  20  35  1   
 37  21  36  1   
 38  21  37  1   
 39  21  38  1   
 40  22  39  1   
 41  22  40  1   
 42  22  41  1   
 43  23  42  1   
 44  23  43  1   
 45  23  44  1   
@<TRIPOS>SUBSTRUCTURE
  1 ****   7 GROUP 4 **** **** 0

# MOE 2024.06 (io_trps.svl 2023.06)
