@<TRIPOS>MOLECULE
NONAME
37 38 1 0 0 
SMALL
USER_CHARGES


@<TRIPOS>ATOM
  1 O        4.9410     0.5150     2.3210 O.co2 1 <1>  -0.9000 
  2 C        3.7700     0.4960     1.8990 C.2   1 <1>   0.9060 
  3 O        2.9560     1.3040     2.3830 O.co2 1 <1>  -0.9000 
  4 C        3.3480    -0.3710     0.6370 C.3   1 <1>   0.2630 
  5 N        3.2170     0.4350    -0.6520 N.pl3 1 <1>  -0.8690 
  6 C        2.0040    -1.0750     0.8550 C.3   1 <1>  -0.1600 
  7 C        4.2750    -1.5570     0.3510 C.3   1 <1>  -0.1600 
  8 C        3.8430     1.6120    -0.6430 C.ar  1 <1>   0.4100 
  9 C        1.9760    -2.2680    -0.1080 C.3   1 <1>  -0.1600 
 10 C        3.4420    -2.5710    -0.4430 C.3   1 <1>  -0.1600 
 11 N        5.1750     1.5500    -0.6270 N.ar  1 <1>  -0.6200 
 12 C        3.1480     2.7630    -0.2440 C.ar  1 <1>  -0.1440 
 13 C        5.7610     2.3450     0.2130 C.ar  1 <1>   0.5280 
 14 C        3.8240     3.6030     0.5940 C.ar  1 <1>   0.2110 
 15 C        1.6670     2.9470    -0.5640 C.3   1 <1>  -0.0160 
 16 N        5.1190     3.3340     0.8670 N.ar  1 <1>  -0.1790 
 17 C        7.2330     2.1350     0.4900 C.3   1 <1>  -0.0970 
 18 C        1.3200     4.3880    -0.9540 C.3   1 <1>  -0.2400 
 19 H        2.2520     0.3860    -0.9690 H     1 <1>   0.4000 
 20 H        1.1720    -0.4060     0.7300 H     1 <1>   0.0800 
 21 H        1.9820    -1.4460     1.8660 H     1 <1>   0.0800 
 22 H        4.5680    -1.9960     1.2890 H     1 <1>   0.0800 
 23 H        5.1630    -1.2480    -0.1710 H     1 <1>   0.0800 
 24 H        1.4490    -2.0030    -1.0080 H     1 <1>   0.0800 
 25 H        1.4920    -3.1160     0.3460 H     1 <1>   0.0800 
 26 H        3.7120    -3.5800    -0.1830 H     1 <1>   0.0800 
 27 H        3.6080    -2.4220    -1.4960 H     1 <1>   0.0800 
 28 H        3.3490     4.4380     1.0770 H     1 <1>   0.1500 
 29 H        1.0880     2.6480     0.2940 H     1 <1>   0.0800 
 30 H        1.3950     2.3030    -1.3820 H     1 <1>   0.0800 
 31 H        5.6100     3.8210     1.6110 H     1 <1>   0.4570 
 32 H        7.6270     1.3900    -0.1790 H     1 <1>   0.0800 
 33 H        7.3540     1.7750     1.4960 H     1 <1>   0.0800 
 34 H        7.7830     3.0470     0.3570 H     1 <1>   0.0800 
 35 H        1.4610     5.0590    -0.1270 H     1 <1>   0.0800 
 36 H        0.2880     4.4420    -1.2540 H     1 <1>   0.0800 
 37 H        1.9300     4.7100    -1.7800 H     1 <1>   0.0800 
@<TRIPOS>BOND
  1   1   2  ar  
  2   2   3  ar  
  3   2   4  1   
  4   4   5  1   
  5   4   6  1   
  6   4   7  1   
  7   5   8  1   
  8   5  19  1   
  9   6   9  1   
 10   6  20  1   
 11   6  21  1   
 12   7  10  1   
 13   7  22  1   
 14   7  23  1   
 15   8  11  ar  
 16   8  12  ar  
 17   9  10  1   
 18   9  24  1   
 19   9  25  1   
 20  10  26  1   
 21  10  27  1   
 22  11  13  ar  
 23  12  14  ar  
 24  12  15  1   
 25  13  16  ar  
 26  13  17  1   
 27  14  16  ar  
 28  14  28  1   
 29  15  18  1   
 30  15  29  1   
 31  15  30  1   
 32  16  31  1   
 33  17  32  1   
 34  17  33  1   
 35  17  34  1   
 36  18  35  1   
 37  18  36  1   
 38  18  37  1   
@<TRIPOS>SUBSTRUCTURE
  1 ****   8 GROUP 4 **** **** 0

# MOE 2024.06 (io_trps.svl 2023.06)
