@<TRIPOS>MOLECULE
NONAME
37 38 1 0 0 
SMALL
USER_CHARGES


@<TRIPOS>ATOM
  1 O        0.7590    -0.0400     1.4680 O.2   1 <1>  -0.5700 
  2 C        1.4000    -0.5950     0.5980 C.2   1 <1>   0.5440 
  3 N        2.1380     0.1310    -0.3050 N.am  1 <1>  -0.4940 
  4 C        1.4150    -2.0360     0.5020 C.ar  1 <1>   0.0860 
  5 C        2.2760     1.5350    -0.4340 C.2   1 <1>  -0.0880 
  6 C        0.2600    -2.7850     0.2490 C.ar  1 <1>   0.1670 
  7 C        2.6070    -2.7330     0.6480 C.ar  1 <1>  -0.1500 
  8 N        3.4590     2.1770    -0.6380 N.pl3 1 <1>   0.3140 
  9 C        1.3270     2.5030    -0.3940 C.2   1 <1>  -0.1810 
 10 N        0.2300    -4.1020     0.1250 N.ar  1 <1>  -0.6200 
 11 C       -1.0860    -2.0980     0.0900 C.3   1 <1>  -0.0970 
 12 C        2.5800    -4.1040     0.5250 C.ar  1 <1>  -0.1500 
 13 N        3.2920     3.5140    -0.7390 N.2   1 <1>  -0.7070 
 14 C        4.8070     1.5750    -0.7090 C.3   1 <1>   0.0960 
 15 C        2.0180     3.6940    -0.5840 C.2   1 <1>   0.1390 
 16 C       -0.1710     2.3780    -0.1920 C.3   1 <1>  -0.0590 
 17 C        1.3780    -4.7390     0.2650 C.ar  1 <1>   0.1670 
 18 C        5.3340     1.2280     0.6890 C.3   1 <1>  -0.2400 
 19 C        1.3200    -6.2450     0.1270 C.3   1 <1>  -0.0970 
 20 H        2.6530    -0.4280    -0.9840 H     1 <1>   0.3700 
 21 H        3.5260    -2.2150     0.8600 H     1 <1>   0.1500 
 22 H       -1.0110    -1.2680    -0.5880 H     1 <1>   0.0800 
 23 H       -1.4240    -1.7410     1.0470 H     1 <1>   0.0800 
 24 H       -1.8180    -2.7850    -0.2950 H     1 <1>   0.0800 
 25 H        3.4840    -4.6760     0.6350 H     1 <1>   0.1500 
 26 H        5.4630     2.2850    -1.1800 H     1 <1>   0.0800 
 27 H        4.7600     0.6970    -1.3240 H     1 <1>   0.0800 
 28 H        1.5550     4.6670    -0.6040 H     1 <1>   0.1500 
 29 H       -0.5090     1.4070    -0.5010 H     1 <1>   0.0800 
 30 H       -0.6890     3.1230    -0.7680 H     1 <1>   0.0800 
 31 H       -0.4070     2.5090     0.8490 H     1 <1>   0.0800 
 32 H        5.3930     2.1200     1.2880 H     1 <1>   0.0800 
 33 H        6.3180     0.8010     0.6150 H     1 <1>   0.0800 
 34 H        4.6850     0.5210     1.1740 H     1 <1>   0.0800 
 35 H        0.6550    -6.6460     0.8690 H     1 <1>   0.0800 
 36 H        2.2900    -6.6870     0.2530 H     1 <1>   0.0800 
 37 H        0.9430    -6.5010    -0.8470 H     1 <1>   0.0800 
@<TRIPOS>BOND
  1   1   2  2   
  2   2   3  am  
  3   2   4  1   
  4   3   5  1   
  5   3  20  1   
  6   4   6  ar  
  7   4   7  ar  
  8   5   8  1   
  9   5   9  2   
 10   6  10  ar  
 11   6  11  1   
 12   7  12  ar  
 13   7  21  1   
 14   8  13  1   
 15   8  14  1   
 16   9  15  1   
 17   9  16  1   
 18  10  17  ar  
 19  11  22  1   
 20  11  23  1   
 21  11  24  1   
 22  12  17  ar  
 23  12  25  1   
 24  13  15  2   
 25  14  18  1   
 26  14  26  1   
 27  14  27  1   
 28  15  28  1   
 29  16  29  1   
 30  16  30  1   
 31  16  31  1   
 32  17  19  1   
 33  18  32  1   
 34  18  33  1   
 35  18  34  1   
 36  19  35  1   
 37  19  36  1   
 38  19  37  1   
@<TRIPOS>SUBSTRUCTURE
  1 ****   2 GROUP 4 **** **** 0

# MOE 2024.06 (io_trps.svl 2023.06)
