@<TRIPOS>MOLECULE
NONAME
49 51 1 0 0 
SMALL
USER_CHARGES


@<TRIPOS>ATOM
  1 O        3.7160    -1.3400     0.6780 O.2   1 <1>  -0.5700 
  2 C        2.5530    -1.3300     0.3420 C.2   1 <1>   0.5690 
  3 N        1.8260    -0.1680     0.2300 N.am  1 <1>  -0.4940 
  4 C        1.8850    -2.6750     0.0320 C.3   1 <1>   0.2370 
  5 C        2.0770     1.1760     0.6080 C.2   1 <1>  -0.0880 
  6 N        0.5570    -2.4580    -0.6040 N.pl3 1 <1>   0.0480 
  7 C        1.7810    -3.5730     1.2870 C.3   1 <1>  -0.1600 
  8 N        3.2480     1.8800     0.5990 N.pl3 1 <1>   0.3140 
  9 C        1.1300     2.0320     1.0570 C.2   1 <1>  -0.1500 
 10 C        0.3180    -2.4410    -1.9440 C.2   1 <1>  -0.3020 
 11 C       -0.6040    -2.0830     0.0070 C.2   1 <1>  -0.3020 
 12 C        1.1870    -4.9600     0.9980 C.3   1 <1>  -0.2400 
 13 N        3.0610     3.1460     1.0510 N.2   1 <1>  -0.7070 
 14 C        4.5960     1.4470     0.1490 C.3   1 <1>   0.1760 
 15 C        1.7950     3.2210     1.3170 C.2   1 <1>   0.1390 
 16 C       -0.9680    -2.0710    -2.1760 C.2   1 <1>  -0.1500 
 17 C       -1.5570    -1.8420    -0.9300 C.2   1 <1>  -0.1500 
 18 C        5.4860     1.1790     1.3720 C.3   1 <1>  -0.1600 
 19 C        5.2570     2.4910    -0.7670 C.3   1 <1>  -0.1600 
 20 C        6.8750     0.7400     0.9340 C.3   1 <1>   0.3430 
 21 C        6.6620     2.0460    -1.1620 C.3   1 <1>   0.3430 
 22 N        7.4760     1.7950     0.0640 N.4   1 <1>  -0.9590 
 23 C        8.8860     1.4530    -0.2900 C.3   1 <1>   0.2630 
 24 H        0.8560    -0.3340    -0.0720 H     1 <1>   0.3700 
 25 H        2.5060    -3.1800    -0.6850 H     1 <1>   0.0800 
 26 H        1.1970    -3.0770     2.0430 H     1 <1>   0.0800 
 27 H        2.7700    -3.7070     1.6910 H     1 <1>   0.0800 
 28 H        0.0790     1.8570     1.2000 H     1 <1>   0.1500 
 29 H        1.0700    -2.6920    -2.6710 H     1 <1>   0.1500 
 30 H       -0.7020    -2.0090     1.0760 H     1 <1>   0.1500 
 31 H        0.1720    -4.8810     0.6490 H     1 <1>   0.0800 
 32 H        1.1880    -5.5540     1.8950 H     1 <1>   0.0800 
 33 H        1.7680    -5.4740     0.2510 H     1 <1>   0.0800 
 34 H        4.4810     0.5520    -0.4280 H     1 <1>   0.0800 
 35 H        1.3210     4.1120     1.6970 H     1 <1>   0.1500 
 36 H       -1.4660    -1.9650    -3.1250 H     1 <1>   0.1500 
 37 H       -2.5780    -1.5360    -0.7750 H     1 <1>   0.1500 
 38 H        5.0500     0.4040     1.9760 H     1 <1>   0.0800 
 39 H        5.5600     2.0650     1.9790 H     1 <1>   0.0800 
 40 H        5.3170     3.4460    -0.2750 H     1 <1>   0.0800 
 41 H        4.6620     2.6130    -1.6550 H     1 <1>   0.0800 
 42 H        6.8050    -0.1910     0.3940 H     1 <1>   0.0800 
 43 H        7.4910     0.5820     1.8050 H     1 <1>   0.0800 
 44 H        7.1240     2.8140    -1.7620 H     1 <1>   0.0800 
 45 H        6.6020     1.1450    -1.7520 H     1 <1>   0.0800 
 46 H        7.4790     2.6700     0.6100 H     1 <1>   0.4500 
 47 H        8.9200     0.5380    -0.8600 H     1 <1>   0.0800 
 48 H        9.4750     1.3230     0.6040 H     1 <1>   0.0800 
 49 H        9.3270     2.2420    -0.8780 H     1 <1>   0.0800 
@<TRIPOS>BOND
  1   1   2  2   
  2   2   3  am  
  3   2   4  1   
  4   3   5  1   
  5   3  24  1   
  6   4   6  1   
  7   4   7  1   
  8   4  25  1   
  9   5   8  1   
 10   5   9  2   
 11   6  10  1   
 12   6  11  1   
 13   7  12  1   
 14   7  26  1   
 15   7  27  1   
 16   8  13  1   
 17   8  14  1   
 18   9  15  1   
 19   9  28  1   
 20  10  16  2   
 21  10  29  1   
 22  11  17  2   
 23  11  30  1   
 24  12  31  1   
 25  12  32  1   
 26  12  33  1   
 27  13  15  2   
 28  14  18  1   
 29  14  19  1   
 30  14  34  1   
 31  15  35  1   
 32  16  17  1   
 33  16  36  1   
 34  17  37  1   
 35  18  20  1   
 36  18  38  1   
 37  18  39  1   
 38  19  21  1   
 39  19  40  1   
 40  19  41  1   
 41  20  22  1   
 42  20  42  1   
 43  20  43  1   
 44  21  22  1   
 45  21  44  1   
 46  21  45  1   
 47  22  23  1   
 48  22  46  1   
 49  23  47  1   
 50  23  48  1   
 51  23  49  1   
@<TRIPOS>SUBSTRUCTURE
  1 ****   3 GROUP 4 **** **** 0

# MOE 2024.06 (io_trps.svl 2023.06)
