@<TRIPOS>MOLECULE
NONAME
52 54 1 0 0 
SMALL
USER_CHARGES


@<TRIPOS>ATOM
  1 F       -0.7690    -1.4650     1.6500 F     1 <1>  -0.1900 
  2 C       -1.6840    -1.4590     0.7150 C.ar  1 <1>   0.1900 
  3 C       -2.3240    -0.2820     0.3140 C.ar  1 <1>   0.0820 
  4 C       -1.9870    -2.6860     0.1530 C.ar  1 <1>  -0.1500 
  5 O       -2.1130     0.9750     0.7940 O.3   1 <1>  -0.3630 
  6 C       -3.2820    -0.3840    -0.6830 C.ar  1 <1>  -0.1500 
  7 C       -2.9590    -2.7680    -0.8350 C.ar  1 <1>  -0.1430 
  8 C       -1.1020     1.2850     1.7270 C.3   1 <1>   0.0400 
  9 C       -3.5960    -1.6070    -1.2540 C.ar  1 <1>  -0.1500 
 10 C       -3.3230    -4.1070    -1.4470 C.3   1 <1>   0.4870 
 11 N       -4.1660    -4.8570    -0.4680 N.4   1 <1>  -0.9590 
 12 C       -4.3230    -6.3030    -0.8740 C.3   1 <1>   0.3430 
 13 C       -5.4880    -4.1760    -0.3020 C.3   1 <1>   0.3430 
 14 C       -5.2540    -7.1290     0.0730 C.3   1 <1>   0.4230 
 15 C       -6.3410    -4.9370     0.7180 C.3   1 <1>  -0.1600 
 16 N       -5.4030    -8.6110    -0.2750 N.4   1 <1>  -0.9590 
 17 C       -6.6130    -6.4180     0.3380 C.3   1 <1>   0.0000 
 18 C       -6.5510    -9.2850     0.4250 C.3   1 <1>   0.3430 
 19 C       -5.4890    -8.9170    -1.7440 C.3   1 <1>   0.2630 
 20 C       -7.3000    -7.1100     1.5510 C.3   1 <1>  -0.1600 
 21 C       -7.5960    -6.4680    -0.8690 C.3   1 <1>   0.1200 
 22 C       -6.8880    -8.5850     1.7420 C.3   1 <1>  -0.1600 
 23 O       -6.9750    -6.0970    -2.0530 O.3   1 <1>  -0.6800 
 24 H       -1.4510    -3.5520     0.5000 H     1 <1>   0.1500 
 25 H       -3.7790     0.5130    -1.0120 H     1 <1>   0.1500 
 26 H       -1.1130     2.3470     1.8910 H     1 <1>   0.0800 
 27 H       -0.1490     0.9890     1.3250 H     1 <1>   0.0800 
 28 H       -1.3070     0.7740     2.6510 H     1 <1>   0.0800 
 29 H       -4.3430    -1.6300    -2.0310 H     1 <1>   0.1500 
 30 H       -2.4180    -4.6530    -1.6600 H     1 <1>   0.0800 
 31 H       -3.8580    -3.9600    -2.3720 H     1 <1>   0.0800 
 32 H       -3.6720    -4.7770     0.4320 H     1 <1>   0.4500 
 33 H       -4.7300    -6.3360    -1.8700 H     1 <1>   0.0800 
 34 H       -3.3520    -6.7690    -0.8950 H     1 <1>   0.0800 
 35 H       -5.3400    -3.1640     0.0440 H     1 <1>   0.0800 
 36 H       -6.0030    -4.1300    -1.2490 H     1 <1>   0.0800 
 37 H       -4.7520    -7.1090     1.0260 H     1 <1>   0.0800 
 38 H       -5.8430    -4.8750     1.6710 H     1 <1>   0.0800 
 39 H       -7.2770    -4.4160     0.8280 H     1 <1>   0.0800 
 40 H       -4.5590    -9.0880     0.0810 H     1 <1>   0.4500 
 41 H       -7.4260    -9.2640    -0.2040 H     1 <1>   0.0800 
 42 H       -6.3110   -10.3200     0.6140 H     1 <1>   0.0800 
 43 H       -6.3540    -8.4450    -2.1800 H     1 <1>   0.0800 
 44 H       -5.5710    -9.9820    -1.8990 H     1 <1>   0.0800 
 45 H       -4.6100    -8.5700    -2.2620 H     1 <1>   0.0800 
 46 H       -7.0720    -6.5970     2.4710 H     1 <1>   0.0800 
 47 H       -8.3720    -7.0540     1.4430 H     1 <1>   0.0800 
 48 H       -8.4250    -5.7990    -0.7040 H     1 <1>   0.0800 
 49 H       -7.9970    -7.4560    -1.0100 H     1 <1>   0.0800 
 50 H       -7.6920    -9.1130     2.2260 H     1 <1>   0.0800 
 51 H       -6.0370    -8.6500     2.4000 H     1 <1>   0.0800 
 52 H       -7.6470    -5.9880    -2.7670 H     1 <1>   0.4000 
@<TRIPOS>BOND
  1   1   2  1   
  2   2   3  ar  
  3   2   4  ar  
  4   3   5  1   
  5   3   6  ar  
  6   4   7  ar  
  7   4  24  1   
  8   5   8  1   
  9   6   9  ar  
 10   6  25  1   
 11   7   9  ar  
 12   7  10  1   
 13   8  26  1   
 14   8  27  1   
 15   8  28  1   
 16   9  29  1   
 17  10  11  1   
 18  10  30  1   
 19  10  31  1   
 20  11  12  1   
 21  11  13  1   
 22  11  32  1   
 23  12  14  1   
 24  12  33  1   
 25  12  34  1   
 26  13  15  1   
 27  13  35  1   
 28  13  36  1   
 29  14  16  1   
 30  14  17  1   
 31  14  37  1   
 32  15  17  1   
 33  15  38  1   
 34  15  39  1   
 35  16  18  1   
 36  16  19  1   
 37  16  40  1   
 38  17  20  1   
 39  17  21  1   
 40  18  22  1   
 41  18  41  1   
 42  18  42  1   
 43  19  43  1   
 44  19  44  1   
 45  19  45  1   
 46  20  22  1   
 47  20  46  1   
 48  20  47  1   
 49  21  23  1   
 50  21  48  1   
 51  21  49  1   
 52  22  50  1   
 53  22  51  1   
 54  23  52  1   
@<TRIPOS>SUBSTRUCTURE
  1 ****  11 GROUP 4 **** **** 0

# MOE 2024.06 (io_trps.svl 2023.06)
