@<TRIPOS>MOLECULE
NONAME
43 44 1 0 0 
SMALL
USER_CHARGES


@<TRIPOS>ATOM
  1 O       -1.4280     0.0770     2.1370 O.2   1 <1>  -0.5700 
  2 C       -1.8010     0.6050     1.1160 C.2   1 <1>   0.5690 
  3 N       -2.2900    -0.1210     0.0630 N.am  1 <1>  -0.6600 
  4 C       -1.7040     2.1230     1.0460 C.3   1 <1>  -0.0990 
  5 C       -2.2320    -1.6250     0.0990 C.3   1 <1>   0.3640 
  6 C       -2.9570     0.4880    -1.1320 C.3   1 <1>   0.1400 
  7 C       -0.4910     2.6250     0.2340 C.3   1 <1>  -0.0800 
  8 C       -0.9850    -2.1690    -0.6190 C.ar  1 <1>  -0.1440 
  9 C       -3.5310    -2.2850    -0.4670 C.3   1 <1>   0.2000 
 10 C       -3.5120    -0.5680    -2.0980 C.3   1 <1>   0.1200 
 11 C        0.8340     2.1520     0.8470 C.3   1 <1>  -0.2400 
 12 C       -0.5070     4.1560     0.1550 C.3   1 <1>  -0.2400 
 13 C       -0.6490    -3.5020    -0.4140 C.ar  1 <1>  -0.1500 
 14 C       -0.1690    -1.4050    -1.4480 C.ar  1 <1>  -0.1500 
 15 O       -4.2620    -1.4920    -1.3770 O.3   1 <1>  -0.5600 
 16 C       -4.4990    -2.6630     0.6610 C.3   1 <1>   0.1200 
 17 C        0.4530    -4.0640    -1.0330 C.ar  1 <1>  -0.1500 
 18 C        0.9340    -1.9640    -2.0700 C.ar  1 <1>  -0.1500 
 19 O       -4.0150    -3.7670     1.3570 O.3   1 <1>  -0.6800 
 20 C        1.2450    -3.2950    -1.8660 C.ar  1 <1>  -0.1500 
 21 H       -2.6130     2.5170     0.6350 H     1 <1>   0.0800 
 22 H       -1.6290     2.4960     2.0510 H     1 <1>   0.0800 
 23 H       -2.1360    -1.9430     1.1230 H     1 <1>   0.0800 
 24 H       -3.7740     1.1040    -0.8010 H     1 <1>   0.0800 
 25 H       -2.2600     1.1110    -1.6620 H     1 <1>   0.0800 
 26 H       -0.5510     2.2370    -0.7680 H     1 <1>   0.0800 
 27 H       -3.2720    -3.1830    -0.9980 H     1 <1>   0.0800 
 28 H       -2.7250    -1.0840    -2.6190 H     1 <1>   0.0800 
 29 H       -4.1610    -0.1070    -2.8210 H     1 <1>   0.0800 
 30 H        0.9250     2.4930     1.8640 H     1 <1>   0.0800 
 31 H        1.6660     2.5310     0.2820 H     1 <1>   0.0800 
 32 H        0.8920     1.0770     0.8440 H     1 <1>   0.0800 
 33 H       -0.4340     4.5870     1.1380 H     1 <1>   0.0800 
 34 H       -1.4160     4.5000    -0.3050 H     1 <1>   0.0800 
 35 H        0.3220     4.5080    -0.4340 H     1 <1>   0.0800 
 36 H       -1.2470    -4.1130     0.2410 H     1 <1>   0.1500 
 37 H       -0.3730    -0.3650    -1.6170 H     1 <1>   0.1500 
 38 H       -5.4660    -2.9170     0.2640 H     1 <1>   0.0800 
 39 H       -4.5960    -1.8460     1.3550 H     1 <1>   0.0800 
 40 H        0.6970    -5.0980    -0.8640 H     1 <1>   0.1500 
 41 H        1.5540    -1.3610    -2.7090 H     1 <1>   0.1500 
 42 H       -4.1970    -4.5920     0.8660 H     1 <1>   0.4000 
 43 H        2.1030    -3.7300    -2.3480 H     1 <1>   0.1500 
@<TRIPOS>BOND
  1   1   2  2   
  2   2   3  am  
  3   2   4  1   
  4   3   5  1   
  5   3   6  1   
  6   4   7  1   
  7   4  21  1   
  8   4  22  1   
  9   5   8  1   
 10   5   9  1   
 11   5  23  1   
 12   6  10  1   
 13   6  24  1   
 14   6  25  1   
 15   7  11  1   
 16   7  12  1   
 17   7  26  1   
 18   8  13  ar  
 19   8  14  ar  
 20   9  15  1   
 21   9  16  1   
 22   9  27  1   
 23  10  15  1   
 24  10  28  1   
 25  10  29  1   
 26  11  30  1   
 27  11  31  1   
 28  11  32  1   
 29  12  33  1   
 30  12  34  1   
 31  12  35  1   
 32  13  17  ar  
 33  13  36  1   
 34  14  18  ar  
 35  14  37  1   
 36  16  19  1   
 37  16  38  1   
 38  16  39  1   
 39  17  20  ar  
 40  17  40  1   
 41  18  20  ar  
 42  18  41  1   
 43  19  42  1   
 44  20  43  1   
@<TRIPOS>SUBSTRUCTURE
  1 ****   3 GROUP 4 **** **** 0

# MOE 2024.06 (io_trps.svl 2023.06)
