@<TRIPOS>MOLECULE
NONAME
49 52 1 0 0 
SMALL
USER_CHARGES


@<TRIPOS>ATOM
  1 O        0.2870    -0.1630     0.8960 O.3   1 <1>  -0.3630 
  2 C        0.8690     1.0200     0.7280 C.ar  1 <1>   0.3920 
  3 C        1.1590    -1.2150     0.5010 C.3   1 <1>   0.2000 
  4 N        0.2630     2.1460     1.0070 N.ar  1 <1>  -0.6200 
  5 C        2.1350     0.9270     0.2370 C.ar  1 <1>  -0.1440 
  6 C        2.4630    -0.5250     0.0390 C.3   1 <1>  -0.0160 
  7 C        0.4920    -2.0560    -0.6100 C.3   1 <1>   0.1100 
  8 C        1.0090     3.2120     0.7720 C.ar  1 <1>   0.4770 
  9 C        2.8180     2.0970     0.0300 C.ar  1 <1>   0.1660 
 10 N       -0.5090    -3.0440    -0.1290 N.3   1 <1>  -0.8100 
 11 N        2.2500     3.2560     0.3000 N.ar  1 <1>  -0.6200 
 12 C        0.3760     4.5480     1.0720 C.3   1 <1>  -0.0970 
 13 C        4.2320     2.1360    -0.5080 C.3   1 <1>  -0.0970 
 14 C       -0.9820    -3.8750    -1.2590 C.3   1 <1>   0.2780 
 15 C       -1.6390    -2.3920     0.5640 C.3   1 <1>   0.0300 
 16 C       -1.8480    -5.0560    -0.8090 C.2   1 <1>   0.1820 
 17 N       -1.4340    -5.9840     0.1340 N.pl3 1 <1>  -0.6290 
 18 C       -3.0910    -5.4070    -1.2100 C.2   1 <1>   0.1820 
 19 C       -2.4330    -6.8820     0.2810 C.cat 1 <1>   0.7910 
 20 C       -0.2940    -6.0730     0.9010 C.2   1 <1>   0.2290 
 21 N       -3.4430    -6.5420    -0.5340 N.pl3 1 <1>  -0.7000 
 22 C       -4.0420    -4.7740    -2.2080 C.3   1 <1>  -0.0720 
 23 C       -2.3060    -7.9500     1.1850 C.2   1 <1>  -0.1410 
 24 C       -0.1520    -7.1000     1.7900 C.2   1 <1>  -0.1500 
 25 C       -1.1700    -8.0660     1.9390 C.2   1 <1>  -0.1500 
 26 H        1.3520    -1.8270     1.3650 H     1 <1>   0.0800 
 27 H        2.6910    -0.7320    -0.9920 H     1 <1>   0.0800 
 28 H        3.2890    -0.8240     0.6590 H     1 <1>   0.0800 
 29 H        1.2720    -2.6010    -1.1120 H     1 <1>   0.0800 
 30 H        0.0440    -1.3900    -1.3300 H     1 <1>   0.0800 
 31 H       -0.5320     4.4180     1.6300 H     1 <1>   0.0800 
 32 H        0.1540     5.0500     0.1500 H     1 <1>   0.0800 
 33 H        1.0570     5.1480     1.6460 H     1 <1>   0.0800 
 34 H        4.6090     1.1480    -0.6920 H     1 <1>   0.0800 
 35 H        4.8720     2.6260     0.2030 H     1 <1>   0.0800 
 36 H        4.2500     2.6930    -1.4270 H     1 <1>   0.0800 
 37 H       -0.1290    -4.2760    -1.7790 H     1 <1>   0.0800 
 38 H       -1.5280    -3.2570    -1.9520 H     1 <1>   0.0800 
 39 H       -1.3010    -1.9390     1.4810 H     1 <1>   0.0800 
 40 H       -2.3950    -3.1100     0.8290 H     1 <1>   0.0800 
 41 H       -2.0780    -1.6280    -0.0560 H     1 <1>   0.0800 
 42 H        0.4640    -5.3150     0.7790 H     1 <1>   0.1500 
 43 H       -4.3240    -7.0530    -0.6130 H     1 <1>   0.4500 
 44 H       -3.6130    -3.8910    -2.6440 H     1 <1>   0.0800 
 45 H       -4.9590    -4.4990    -1.7170 H     1 <1>   0.0800 
 46 H       -4.2660    -5.4700    -2.9960 H     1 <1>   0.0800 
 47 H       -3.1110    -8.6550     1.2670 H     1 <1>   0.1500 
 48 H        0.7360    -7.1860     2.3930 H     1 <1>   0.1500 
 49 H       -1.0340    -8.8710     2.6450 H     1 <1>   0.1500 
@<TRIPOS>BOND
  1   1   2  1   
  2   1   3  1   
  3   2   4  ar  
  4   2   5  ar  
  5   3   6  1   
  6   3   7  1   
  7   3  26  1   
  8   4   8  ar  
  9   5   6  1   
 10   5   9  ar  
 11   6  27  1   
 12   6  28  1   
 13   7  10  1   
 14   7  29  1   
 15   7  30  1   
 16   8  11  ar  
 17   8  12  1   
 18   9  11  ar  
 19   9  13  1   
 20  10  14  1   
 21  10  15  1   
 22  12  31  1   
 23  12  32  1   
 24  12  33  1   
 25  13  34  1   
 26  13  35  1   
 27  13  36  1   
 28  14  16  1   
 29  14  37  1   
 30  14  38  1   
 31  15  39  1   
 32  15  40  1   
 33  15  41  1   
 34  16  17  1   
 35  16  18  2   
 36  17  19  ar  
 37  17  20  1   
 38  18  21  1   
 39  18  22  1   
 40  19  21  ar  
 41  19  23  1   
 42  20  24  2   
 43  20  42  1   
 44  21  43  1   
 45  22  44  1   
 46  22  45  1   
 47  22  46  1   
 48  23  25  2   
 49  23  47  1   
 50  24  25  1   
 51  24  48  1   
 52  25  49  1   
@<TRIPOS>SUBSTRUCTURE
  1 ****  10 GROUP 4 **** **** 0

# MOE 2024.06 (io_trps.svl 2023.06)
