@<TRIPOS>MOLECULE
NONAME
42 43 1 0 0 
SMALL
USER_CHARGES


@<TRIPOS>ATOM
  1 S        0.5690     0.6150     0.9880 S.3   1 <1>  -0.0800 
  2 C        1.5220    -0.6240     0.1770 C.2   1 <1>   0.4620 
  3 C       -0.4250    -0.6250     1.6840 C.2   1 <1>  -0.1100 
  4 N        1.1190    -1.8150     0.4280 N.2   1 <1>  -0.5650 
  5 N        2.5860    -0.2500    -0.6230 N.pl3 1 <1>  -0.8220 
  6 C        0.0050    -1.8400     1.2820 C.2   1 <1>   0.1410 
  7 C        2.8120     1.1550    -1.0540 C.3   1 <1>   0.2090 
  8 C        3.3810    -1.2970    -1.3330 C.3   1 <1>   0.1290 
  9 C       -0.6050    -3.1060     1.6720 C.2   1 <1>   0.7160 
 10 C        3.6300     1.9020     0.0180 C.3   1 <1>   0.3430 
 11 O       -1.5640    -3.1560     2.4150 O.2   1 <1>  -0.5700 
 12 N       -0.1240    -4.2840     1.2160 N.am  1 <1>  -0.8000 
 13 N        3.6250     3.4030    -0.1410 N.4   1 <1>  -0.9590 
 14 C        4.6670     4.0770     0.6950 C.3   1 <1>   0.4230 
 15 C        2.2590     3.9350     0.1700 C.3   1 <1>   0.3430 
 16 C        4.6340     5.5900     0.4340 C.3   1 <1>  -0.1600 
 17 C        6.0600     3.5400     0.3600 C.3   1 <1>  -0.2400 
 18 C        2.1920     5.4350    -0.1140 C.3   1 <1>  -0.1600 
 19 C        3.2510     6.1970     0.6860 C.3   1 <1>  -0.1600 
 20 H       -1.2390    -0.3380     2.3260 H     1 <1>   0.1500 
 21 H        1.8590     1.6230    -1.2140 H     1 <1>   0.0800 
 22 H        3.3460     1.1630    -1.9890 H     1 <1>   0.0800 
 23 H        3.2890    -2.2480    -0.8350 H     1 <1>   0.0800 
 24 H        4.4220    -1.0280    -1.3520 H     1 <1>   0.0800 
 25 H        3.0230    -1.4050    -2.3430 H     1 <1>   0.0800 
 26 H        4.6360     1.5250    -0.0330 H     1 <1>   0.0800 
 27 H        3.2330     1.6490     0.9870 H     1 <1>   0.0800 
 28 H       -0.5600    -5.1620     1.4900 H     1 <1>   0.3700 
 29 H        0.6780    -4.3070     0.5850 H     1 <1>   0.3700 
 30 H        3.8470     3.6450    -1.1140 H     1 <1>   0.4500 
 31 H        4.4610     3.9010     1.7390 H     1 <1>   0.0800 
 32 H        2.0290     3.7580     1.2090 H     1 <1>   0.0800 
 33 H        1.5140     3.4350    -0.4270 H     1 <1>   0.0800 
 34 H        4.9370     5.7910    -0.5790 H     1 <1>   0.0800 
 35 H        5.3450     6.0760     1.0810 H     1 <1>   0.0800 
 36 H        6.2520     3.5860    -0.6980 H     1 <1>   0.0800 
 37 H        6.1910     2.5330     0.7120 H     1 <1>   0.0800 
 38 H        6.8040     4.1370     0.8570 H     1 <1>   0.0800 
 39 H        1.2150     5.8000     0.1520 H     1 <1>   0.0800 
 40 H        2.3250     5.6100    -1.1680 H     1 <1>   0.0800 
 41 H        3.2480     7.2370     0.4010 H     1 <1>   0.0800 
 42 H        3.0180     6.1450     1.7370 H     1 <1>   0.0800 
@<TRIPOS>BOND
  1   1   2  1   
  2   1   3  1   
  3   2   4  2   
  4   2   5  1   
  5   3   6  2   
  6   3  20  1   
  7   4   6  1   
  8   5   7  1   
  9   5   8  1   
 10   6   9  1   
 11   7  10  1   
 12   7  21  1   
 13   7  22  1   
 14   8  23  1   
 15   8  24  1   
 16   8  25  1   
 17   9  11  2   
 18   9  12  am  
 19  10  13  1   
 20  10  26  1   
 21  10  27  1   
 22  12  28  1   
 23  12  29  1   
 24  13  14  1   
 25  13  15  1   
 26  13  30  1   
 27  14  16  1   
 28  14  17  1   
 29  14  31  1   
 30  15  18  1   
 31  15  32  1   
 32  15  33  1   
 33  16  19  1   
 34  16  34  1   
 35  16  35  1   
 36  17  36  1   
 37  17  37  1   
 38  17  38  1   
 39  18  19  1   
 40  18  39  1   
 41  18  40  1   
 42  19  41  1   
 43  19  42  1   
@<TRIPOS>SUBSTRUCTURE
  1 ****   1 GROUP 4 **** **** 0

# MOE 2024.06 (io_trps.svl 2023.06)
