@<TRIPOS>MOLECULE
NONAME
54 57 1 0 0 
SMALL
USER_CHARGES


@<TRIPOS>ATOM
  1 O        3.5580    -1.5640    -1.0430 O.2   1 <1>  -0.5700 
  2 C        2.8090    -1.1590    -0.1840 C.2   1 <1>   0.6300 
  3 N        3.3470    -0.5460     0.9220 N.am  1 <1>  -0.6600 
  4 C        1.2940    -1.4000    -0.3740 C.3   1 <1>  -0.0950 
  5 C        4.6290    -1.0710     1.4800 C.3   1 <1>   0.1400 
  6 C        2.9280     0.8000     1.3860 C.3   1 <1>   0.1400 
  7 C        0.2150    -0.7890     0.4770 C.3   1 <1>  -0.2000 
  8 C        0.4560    -0.2800    -0.9170 C.3   1 <1>  -0.2000 
  9 C        1.0040    -2.8210    -0.8870 C.3   1 <1>  -0.1450 
 10 C        5.8390    -0.7320     0.5840 C.3   1 <1>   0.3430 
 11 C        4.0740     1.8130     1.2930 C.3   1 <1>  -0.1600 
 12 N        6.1550     0.7350     0.4530 N.4   1 <1>  -0.9590 
 13 C        4.9830     1.5890     0.0810 C.3   1 <1>   0.3430 
 14 C        7.2550     0.9100    -0.5340 C.3   1 <1>   0.4860 
 15 C        7.7860     2.3290    -0.4360 C.ar  1 <1>  -0.1440 
 16 C        8.5440     2.7260     0.6570 C.ar  1 <1>  -0.1500 
 17 C        7.5200     3.2470    -1.4410 C.ar  1 <1>  -0.1500 
 18 C        9.0130     4.0240     0.7450 C.ar  1 <1>  -0.1500 
 19 C        7.9930     4.5430    -1.3460 C.ar  1 <1>  -0.1500 
 20 C        8.7460     4.9570    -0.2530 C.ar  1 <1>   0.0000 
 21 C        9.2400     6.3120    -0.1590 C.ar  1 <1>   0.0000 
 22 C       10.6040     6.5810    -0.0480 C.ar  1 <1>   0.1600 
 23 C        8.3780     7.3970    -0.1750 C.ar  1 <1>  -0.1500 
 24 N       11.1510     7.7830     0.0480 N.ar  1 <1>  -0.6200 
 25 C        8.9260     8.6580    -0.0790 C.ar  1 <1>  -0.1500 
 26 C       10.2990     8.7940     0.0300 C.ar  1 <1>   0.1600 
 27 H        4.5500    -2.1430     1.5430 H     1 <1>   0.0800 
 28 H        4.7820    -0.7020     2.4790 H     1 <1>   0.0800 
 29 H        2.5620     0.7380     2.3980 H     1 <1>   0.0800 
 30 H        2.1250     1.1560     0.7660 H     1 <1>   0.0800 
 31 H        0.4620    -0.1750     1.3210 H     1 <1>   0.1000 
 32 H       -0.6870    -1.3490     0.6560 H     1 <1>   0.1000 
 33 H       -0.2660    -0.5030    -1.6840 H     1 <1>   0.1000 
 34 H        0.9000     0.6900    -1.0540 H     1 <1>   0.1000 
 35 H        1.3650    -3.5480    -0.1810 H     1 <1>   0.0800 
 36 H        1.4970    -2.9850    -1.8300 H     1 <1>   0.0800 
 37 H       -0.0500    -2.9770    -1.0300 H     1 <1>   0.0800 
 38 H        5.6560    -1.1460    -0.3940 H     1 <1>   0.0800 
 39 H        6.7010    -1.2410     0.9840 H     1 <1>   0.0800 
 40 H        4.6440     1.8210     2.2050 H     1 <1>   0.0800 
 41 H        3.6280     2.7870     1.2030 H     1 <1>   0.0800 
 42 H        6.5100     1.0910     1.3480 H     1 <1>   0.4500 
 43 H        5.3350     2.5520    -0.2500 H     1 <1>   0.0800 
 44 H        4.4280     1.1380    -0.7280 H     1 <1>   0.0800 
 45 H        6.8940     0.7160    -1.5310 H     1 <1>   0.0800 
 46 H        8.0570     0.2210    -0.3230 H     1 <1>   0.0800 
 47 H        8.7840     2.0360     1.4480 H     1 <1>   0.1500 
 48 H        6.9460     2.9670    -2.3090 H     1 <1>   0.1500 
 49 H        9.5970     4.3260     1.5980 H     1 <1>   0.1500 
 50 H        7.7870     5.2480    -2.1340 H     1 <1>   0.1500 
 51 H       11.2810     5.7450    -0.0420 H     1 <1>   0.1500 
 52 H        7.3150     7.2580    -0.2570 H     1 <1>   0.1500 
 53 H        8.2990     9.5310    -0.0860 H     1 <1>   0.1500 
 54 H       10.7180     9.7840     0.1060 H     1 <1>   0.1500 
@<TRIPOS>BOND
  1   1   2  2   
  2   2   3  am  
  3   2   4  1   
  4   3   5  1   
  5   3   6  1   
  6   4   7  1   
  7   4   8  1   
  8   4   9  1   
  9   5  10  1   
 10   5  27  1   
 11   5  28  1   
 12   6  11  1   
 13   6  29  1   
 14   6  30  1   
 15   7   8  1   
 16   7  31  1   
 17   7  32  1   
 18   8  33  1   
 19   8  34  1   
 20   9  35  1   
 21   9  36  1   
 22   9  37  1   
 23  10  12  1   
 24  10  38  1   
 25  10  39  1   
 26  11  13  1   
 27  11  40  1   
 28  11  41  1   
 29  12  13  1   
 30  12  14  1   
 31  12  42  1   
 32  13  43  1   
 33  13  44  1   
 34  14  15  1   
 35  14  45  1   
 36  14  46  1   
 37  15  16  ar  
 38  15  17  ar  
 39  16  18  ar  
 40  16  47  1   
 41  17  19  ar  
 42  17  48  1   
 43  18  20  ar  
 44  18  49  1   
 45  19  20  ar  
 46  19  50  1   
 47  20  21  1   
 48  21  22  ar  
 49  21  23  ar  
 50  22  24  ar  
 51  22  51  1   
 52  23  25  ar  
 53  23  52  1   
 54  24  26  ar  
 55  25  26  ar  
 56  25  53  1   
 57  26  54  1   
@<TRIPOS>SUBSTRUCTURE
  1 ****  13 GROUP 4 **** **** 0

# MOE 2024.06 (io_trps.svl 2023.06)
