@<TRIPOS>MOLECULE
NONAME
43 45 1 0 0 
SMALL
USER_CHARGES


@<TRIPOS>ATOM
  1 F        0.2800     1.4750    -1.7780 F     1 <1>  -0.1900 
  2 C       -0.6570     1.8460    -0.9450 C.ar  1 <1>   0.1900 
  3 C       -1.0580     3.1790    -0.9120 C.ar  1 <1>  -0.1440 
  4 C       -1.2040     0.8790    -0.1250 C.ar  1 <1>  -0.1500 
  5 C       -2.0570     3.5420    -0.0150 C.ar  1 <1>  -0.1500 
  6 C       -0.4430     4.2430    -1.8210 C.3   1 <1>   0.0450 
  7 C       -2.1880     1.2830     0.7530 C.ar  1 <1>   0.1900 
  8 C       -2.6260     2.5940     0.8230 C.ar  1 <1>  -0.1500 
  9 C        0.1720     5.3950    -1.0340 C.2   1 <1>   0.5690 
 10 F       -2.7260     0.3970     1.5450 F     1 <1>  -0.1900 
 11 O       -0.2410     6.5080    -1.2600 O.2   1 <1>  -0.5700 
 12 N        1.1790     5.2060    -0.1170 N.am  1 <1>  -0.6600 
 13 C        1.4510     6.2490     0.9280 C.3   1 <1>   0.1400 
 14 C        2.0710     4.0110    -0.0590 C.3   1 <1>   0.1400 
 15 C        2.8420     6.9360     0.8410 C.3   1 <1>   0.4230 
 16 C        3.5280     4.3820    -0.4140 C.3   1 <1>  -0.0800 
 17 N        3.4740     6.9740    -0.5390 N.4   1 <1>  -0.9590 
 18 C        3.8210     6.3750     1.8950 C.3   1 <1>   0.1200 
 19 C        4.4760     4.3740     0.7950 C.3   1 <1>   0.1200 
 20 C        3.6250     5.6620    -1.2640 C.3   1 <1>   0.3430 
 21 C        2.7190     7.9280    -1.4120 C.3   1 <1>   0.2630 
 22 O        3.8850     4.9840     1.8940 O.3   1 <1>  -0.5600 
 23 H       -0.8790    -0.1440    -0.1670 H     1 <1>   0.1500 
 24 H       -2.3990     4.5630     0.0360 H     1 <1>   0.1500 
 25 H       -1.2210     4.6370    -2.4500 H     1 <1>   0.0800 
 26 H        0.3030     3.8300    -2.4720 H     1 <1>   0.0800 
 27 H       -3.3980     2.8640     1.5210 H     1 <1>   0.1500 
 28 H        0.7000     7.0180     0.8720 H     1 <1>   0.0800 
 29 H        1.3360     5.7980     1.8990 H     1 <1>   0.0800 
 30 H        2.0150     3.5660     0.9210 H     1 <1>   0.0800 
 31 H        1.7340     3.2700    -0.7580 H     1 <1>   0.0800 
 32 H        2.6820     7.9580     1.1390 H     1 <1>   0.0800 
 33 H        3.8810     3.5900    -1.0500 H     1 <1>   0.0800 
 34 H        4.4200     7.3530    -0.4110 H     1 <1>   0.4500 
 35 H        3.4740     6.6580     2.8740 H     1 <1>   0.0800 
 36 H        4.8120     6.7750     1.7710 H     1 <1>   0.0800 
 37 H        5.4200     4.8470     0.5830 H     1 <1>   0.0800 
 38 H        4.6710     3.3540     1.0850 H     1 <1>   0.0800 
 39 H        2.8620     5.5960    -2.0230 H     1 <1>   0.0800 
 40 H        4.5740     5.6600    -1.7750 H     1 <1>   0.0800 
 41 H        1.7160     7.5700    -1.5790 H     1 <1>   0.0800 
 42 H        3.2070     8.0320    -2.3670 H     1 <1>   0.0800 
 43 H        2.6600     8.9000    -0.9490 H     1 <1>   0.0800 
@<TRIPOS>BOND
  1   1   2  1   
  2   2   3  ar  
  3   2   4  ar  
  4   3   5  ar  
  5   3   6  1   
  6   4   7  ar  
  7   4  23  1   
  8   5   8  ar  
  9   5  24  1   
 10   6   9  1   
 11   6  25  1   
 12   6  26  1   
 13   7   8  ar  
 14   7  10  1   
 15   8  27  1   
 16   9  11  2   
 17   9  12  am  
 18  12  13  1   
 19  12  14  1   
 20  13  15  1   
 21  13  28  1   
 22  13  29  1   
 23  14  16  1   
 24  14  30  1   
 25  14  31  1   
 26  15  17  1   
 27  15  18  1   
 28  15  32  1   
 29  16  19  1   
 30  16  20  1   
 31  16  33  1   
 32  17  20  1   
 33  17  21  1   
 34  17  34  1   
 35  18  22  1   
 36  18  35  1   
 37  18  36  1   
 38  19  22  1   
 39  19  37  1   
 40  19  38  1   
 41  20  39  1   
 42  20  40  1   
 43  21  41  1   
 44  21  42  1   
 45  21  43  1   
@<TRIPOS>SUBSTRUCTURE
  1 ****  12 GROUP 4 **** **** 0

# MOE 2024.06 (io_trps.svl 2023.06)
