@<TRIPOS>MOLECULE
NONAME
53 56 1 0 0 
SMALL
USER_CHARGES


@<TRIPOS>ATOM
  1 S       -0.3490    -0.2500     2.6350 S.3   1 <1>  -0.0800 
  2 C        0.6750    -0.1270     1.2290 C.2   1 <1>   0.1980 
  3 C       -0.6050    -1.9260     2.2640 C.2   1 <1>  -0.1100 
  4 N        0.7860    -1.2080     0.5680 N.2   1 <1>  -0.5650 
  5 C        1.3390     1.2140     0.9390 C.3   1 <1>   0.5230 
  6 C        0.0630    -2.2720     1.1390 C.2   1 <1>   0.1410 
  7 N        2.1430     1.1140    -0.3260 N.4   1 <1>  -0.9590 
  8 C        0.0930    -3.5990     0.5280 C.2   1 <1>   0.7160 
  9 C        3.2730     2.0880    -0.3800 C.3   1 <1>   0.2630 
 10 C        1.2720     1.1890    -1.5390 C.3   1 <1>   0.2630 
 11 O        1.1090    -4.0030    -0.0100 O.2   1 <1>  -0.5700 
 12 N       -1.0110    -4.4260     0.5330 N.am  1 <1>  -0.6600 
 13 C       -2.4180    -3.9570     0.6250 C.3   1 <1>   0.1400 
 14 C       -0.9610    -5.7970    -0.0390 C.3   1 <1>   0.1400 
 15 C       -3.2290    -4.9910    -0.1540 C.3   1 <1>   0.2000 
 16 C       -2.4120    -6.2790    -0.0890 C.3   1 <1>  -0.0800 
 17 O       -4.4780    -5.1870     0.4110 O.3   1 <1>  -0.6800 
 18 C       -2.6990    -7.2330    -1.2600 C.3   1 <1>  -0.0170 
 19 C       -1.8650    -8.5040    -1.1440 C.ar  1 <1>  -0.1430 
 20 C       -2.2030    -9.5530    -0.2560 C.ar  1 <1>   0.0000 
 21 C       -0.7420    -8.6580    -1.9040 C.ar  1 <1>  -0.1500 
 22 C       -1.3380   -10.6740    -0.2040 C.ar  1 <1>   0.3100 
 23 C       -3.3440    -9.5580     0.5810 C.ar  1 <1>  -0.1500 
 24 C        0.0400    -9.8120    -1.7810 C.ar  1 <1>   0.1600 
 25 N       -0.2250   -10.7870    -0.9710 N.ar  1 <1>  -0.6200 
 26 C       -1.6380   -11.7230     0.6800 C.ar  1 <1>  -0.1500 
 27 C       -3.6090   -10.5990     1.4290 C.ar  1 <1>  -0.1500 
 28 C       -2.7450   -11.6950     1.4830 C.ar  1 <1>  -0.1500 
 29 H       -1.2240    -2.4990     2.9300 H     1 <1>   0.1500 
 30 H        1.9860     1.4540     1.7660 H     1 <1>   0.0800 
 31 H        0.5920     1.9840     0.8510 H     1 <1>   0.0800 
 32 H        2.5160     0.1440    -0.3030 H     1 <1>   0.4500 
 33 H        2.8980     3.0990    -0.3900 H     1 <1>   0.0800 
 34 H        3.8580     1.9290    -1.2710 H     1 <1>   0.0800 
 35 H        3.9170     1.9640     0.4760 H     1 <1>   0.0800 
 36 H        0.7980     2.1540    -1.6060 H     1 <1>   0.0800 
 37 H        0.5090     0.4280    -1.4970 H     1 <1>   0.0800 
 38 H        1.8590     1.0290    -2.4300 H     1 <1>   0.0800 
 39 H       -2.7190    -3.9430     1.6570 H     1 <1>   0.0800 
 40 H       -2.5290    -2.9800     0.1870 H     1 <1>   0.0800 
 41 H       -0.5370    -5.7490    -1.0280 H     1 <1>   0.0800 
 42 H       -0.3530    -6.4430     0.5720 H     1 <1>   0.0800 
 43 H       -3.3620    -4.6600    -1.1710 H     1 <1>   0.0800 
 44 H       -2.6080    -6.7780     0.8430 H     1 <1>   0.0800 
 45 H       -4.3970    -5.5550     1.3120 H     1 <1>   0.4000 
 46 H       -2.4730    -6.7370    -2.1880 H     1 <1>   0.0800 
 47 H       -3.7460    -7.4800    -1.2900 H     1 <1>   0.0800 
 48 H       -0.4250    -7.9080    -2.6050 H     1 <1>   0.1500 
 49 H       -4.0240    -8.7280     0.5520 H     1 <1>   0.1500 
 50 H        0.9190    -9.8920    -2.3970 H     1 <1>   0.1500 
 51 H       -0.9610   -12.5570     0.7020 H     1 <1>   0.1500 
 52 H       -4.4810   -10.5900     2.0600 H     1 <1>   0.1500 
 53 H       -2.9630   -12.5070     2.1550 H     1 <1>   0.1500 
@<TRIPOS>BOND
  1   1   2  1   
  2   1   3  1   
  3   2   4  2   
  4   2   5  1   
  5   3   6  2   
  6   3  29  1   
  7   4   6  1   
  8   5   7  1   
  9   5  30  1   
 10   5  31  1   
 11   6   8  1   
 12   7   9  1   
 13   7  10  1   
 14   7  32  1   
 15   8  11  2   
 16   8  12  am  
 17   9  33  1   
 18   9  34  1   
 19   9  35  1   
 20  10  36  1   
 21  10  37  1   
 22  10  38  1   
 23  12  13  1   
 24  12  14  1   
 25  13  15  1   
 26  13  39  1   
 27  13  40  1   
 28  14  16  1   
 29  14  41  1   
 30  14  42  1   
 31  15  16  1   
 32  15  17  1   
 33  15  43  1   
 34  16  18  1   
 35  16  44  1   
 36  17  45  1   
 37  18  19  1   
 38  18  46  1   
 39  18  47  1   
 40  19  20  ar  
 41  19  21  ar  
 42  20  22  ar  
 43  20  23  ar  
 44  21  24  ar  
 45  21  48  1   
 46  22  25  ar  
 47  22  26  ar  
 48  23  27  ar  
 49  23  49  1   
 50  24  25  ar  
 51  24  50  1   
 52  26  28  ar  
 53  26  51  1   
 54  27  28  ar  
 55  27  52  1   
 56  28  53  1   
@<TRIPOS>SUBSTRUCTURE
  1 ****  14 GROUP 4 **** **** 0

# MOE 2024.06 (io_trps.svl 2023.06)
