@<TRIPOS>MOLECULE
NONAME
53 55 1 0 0 
SMALL
USER_CHARGES


@<TRIPOS>ATOM
  1 O       -0.2920    -0.0640     0.1330 O.2   1 <1>  -0.5700 
  2 C       -0.1400     1.1630     0.1000 C.2   1 <1>   0.3890 
  3 C       -1.2160     2.0450     0.2820 C.3   1 <1>  -0.7150 
  4 C        1.1820     1.6720    -0.1680 C.ar  1 <1>   0.0860 
  5 C       -1.0330     3.3990    -0.0530 C.2   1 <1>   0.5350 
  6 C       -2.4380     1.5840     0.7970 C.2   1 <1>   0.5350 
  7 C        1.3470     3.0370    -0.4430 C.ar  1 <1>   0.1170 
  8 C        2.3090     0.8450    -0.1550 C.ar  1 <1>  -0.1500 
  9 O       -1.9590     4.2130     0.0040 O.2   1 <1>  -0.5700 
 10 N        0.2100     3.8640    -0.4780 N.am  1 <1>  -0.4770 
 11 O       -2.5270     0.8820     1.7990 O.2   1 <1>  -0.5700 
 12 N       -3.5880     1.9940     0.2020 N.am  1 <1>  -0.7300 
 13 C        2.6410     3.5230    -0.6680 C.ar  1 <1>  -0.1500 
 14 C        3.5740     1.3390    -0.3930 C.ar  1 <1>  -0.1500 
 15 C        0.2780     5.2350    -1.0630 C.3   1 <1>   0.1400 
 16 C       -4.8450     2.0310     0.9540 C.3   1 <1>   0.2840 
 17 C        3.7400     2.6890    -0.6470 C.ar  1 <1>  -0.1500 
 18 C        0.5790     6.2630     0.0330 C.3   1 <1>  -0.1600 
 19 C       -5.7740     3.0700     0.3420 C.ar  1 <1>  -0.1430 
 20 C        0.7020     7.6780    -0.5480 C.3   1 <1>  -0.1600 
 21 C       -5.4040     4.4070     0.3290 C.ar  1 <1>  -0.1500 
 22 C       -6.9950     2.6990    -0.2020 C.ar  1 <1>  -0.1500 
 23 C        0.9870     8.7020     0.5570 C.3   1 <1>  -0.1600 
 24 C       -6.2450     5.3620    -0.2160 C.ar  1 <1>  -0.1500 
 25 C       -7.8380     3.6530    -0.7470 C.ar  1 <1>  -0.1500 
 26 C        1.1050    10.1180    -0.0190 C.3   1 <1>  -0.1600 
 27 C       -7.4640     4.9860    -0.7530 C.ar  1 <1>  -0.1500 
 28 C        1.3840    11.1400     1.0860 C.3   1 <1>  -0.2400 
 29 H        2.1720    -0.2020     0.0510 H     1 <1>   0.1500 
 30 H       -3.4050     2.8570    -0.3160 H     1 <1>   0.3700 
 31 H        2.8040     4.5650    -0.8560 H     1 <1>   0.1500 
 32 H        4.4250     0.6810    -0.3760 H     1 <1>   0.1500 
 33 H       -0.6600     5.4730    -1.5350 H     1 <1>   0.0800 
 34 H        1.0260     5.2650    -1.8330 H     1 <1>   0.0800 
 35 H       -4.6390     2.2910     1.9780 H     1 <1>   0.0800 
 36 H       -5.2890     1.0530     0.9330 H     1 <1>   0.0800 
 37 H        4.7240     3.0840    -0.8260 H     1 <1>   0.1500 
 38 H        1.4900     5.9970     0.5380 H     1 <1>   0.0800 
 39 H       -0.2240     6.2400     0.7510 H     1 <1>   0.0800 
 40 H       -0.2170     7.9360    -1.0470 H     1 <1>   0.0800 
 41 H        1.4980     7.7000    -1.2730 H     1 <1>   0.0800 
 42 H       -4.4510     4.7010     0.7410 H     1 <1>   0.1500 
 43 H       -7.2880     1.6640    -0.2040 H     1 <1>   0.1500 
 44 H        1.9020     8.4420     1.0600 H     1 <1>   0.0800 
 45 H        0.1890     8.6760     1.2800 H     1 <1>   0.0800 
 46 H       -5.9430     6.3940    -0.2220 H     1 <1>   0.1500 
 47 H       -8.7830     3.3580    -1.1670 H     1 <1>   0.1500 
 48 H        0.1900    10.3810    -0.5220 H     1 <1>   0.0800 
 49 H        1.9040    10.1500    -0.7410 H     1 <1>   0.0800 
 50 H       -8.1160     5.7280    -1.1770 H     1 <1>   0.1500 
 51 H        0.5860    11.1390     1.8090 H     1 <1>   0.0800 
 52 H        1.4620    12.1260     0.6640 H     1 <1>   0.0800 
 53 H        2.3070    10.9090     1.5880 H     1 <1>   0.0800 
@<TRIPOS>BOND
  1   1   2  2   
  2   2   3  1   
  3   2   4  1   
  4   3   5  1   
  5   3   6  1   
  6   4   7  ar  
  7   4   8  ar  
  8   5   9  2   
  9   5  10  am  
 10   6  11  2   
 11   6  12  am  
 12   7  10  1   
 13   7  13  ar  
 14   8  14  ar  
 15   8  29  1   
 16  10  15  1   
 17  12  16  1   
 18  12  30  1   
 19  13  17  ar  
 20  13  31  1   
 21  14  17  ar  
 22  14  32  1   
 23  15  18  1   
 24  15  33  1   
 25  15  34  1   
 26  16  19  1   
 27  16  35  1   
 28  16  36  1   
 29  17  37  1   
 30  18  20  1   
 31  18  38  1   
 32  18  39  1   
 33  19  21  ar  
 34  19  22  ar  
 35  20  23  1   
 36  20  40  1   
 37  20  41  1   
 38  21  24  ar  
 39  21  42  1   
 40  22  25  ar  
 41  22  43  1   
 42  23  26  1   
 43  23  44  1   
 44  23  45  1   
 45  24  27  ar  
 46  24  46  1   
 47  25  27  ar  
 48  25  47  1   
 49  26  28  1   
 50  26  48  1   
 51  26  49  1   
 52  27  50  1   
 53  28  51  1   
 54  28  52  1   
 55  28  53  1   
@<TRIPOS>SUBSTRUCTURE
  1 ****   5 GROUP 4 **** **** 0

# MOE 2024.06 (io_trps.svl 2023.06)
