@<TRIPOS>MOLECULE
NONAME
48 51 1 0 0 
SMALL
USER_CHARGES


@<TRIPOS>ATOM
  1 F       -2.6510    -1.5450    -1.1900 F     1 <1>  -0.1900 
  2 C       -2.7220    -0.2830    -0.8670 C.ar  1 <1>   0.1900 
  3 C       -3.0660     0.0720     0.4390 C.ar  1 <1>   0.0860 
  4 C       -2.4460     0.6420    -1.8550 C.ar  1 <1>  -0.1500 
  5 C       -3.3610    -0.9140     1.4510 C.2   1 <1>   0.5440 
  6 C       -3.1100     1.4370     0.7370 C.ar  1 <1>  -0.1500 
  7 C       -2.5140     1.9760    -1.5100 C.ar  1 <1>   0.1900 
  8 O       -2.5570    -1.0870     2.3470 O.2   1 <1>  -0.5700 
  9 N       -4.5410    -1.6300     1.4490 N.am  1 <1>  -0.6600 
 10 C       -2.8390     2.3920    -0.2300 C.ar  1 <1>  -0.1500 
 11 F       -2.2630     2.8750    -2.4190 F     1 <1>  -0.1900 
 12 C       -4.7670    -2.7840     2.3620 C.3   1 <1>   0.1400 
 13 C       -5.6860    -1.3630     0.5360 C.3   1 <1>   0.1400 
 14 C       -5.0150    -4.0440     1.5280 C.3   1 <1>  -0.1600 
 15 C       -5.9410    -2.5970    -0.3310 C.3   1 <1>  -0.1600 
 16 C       -6.1670    -3.8630     0.5220 C.3   1 <1>   0.4240 
 17 O       -7.2890    -3.6020     1.3400 O.3   1 <1>  -0.5600 
 18 C       -6.3740    -5.1380    -0.3460 C.ar  1 <1>  -0.1430 
 19 C       -8.5520    -3.8330     0.8090 C.3   1 <1>   0.1200 
 20 C       -5.3770    -5.6280    -1.2010 C.ar  1 <1>   0.0830 
 21 C       -7.5840    -5.8300    -0.2880 C.ar  1 <1>  -0.1430 
 22 C       -8.7070    -5.3310     0.5960 C.3   1 <1>  -0.0170 
 23 O       -4.1990    -4.9550    -1.2890 O.3   1 <1>  -0.3630 
 24 C       -5.5970    -6.7820    -1.9490 C.ar  1 <1>  -0.1500 
 25 C       -7.7910    -6.9770    -1.0360 C.ar  1 <1>  -0.1500 
 26 C       -3.1150    -5.3960    -2.0760 C.3   1 <1>   0.0400 
 27 C       -6.7980    -7.4550    -1.8650 C.ar  1 <1>  -0.1500 
 28 H       -2.1880     0.3370    -2.8520 H     1 <1>   0.1500 
 29 H       -3.3580     1.7400     1.7410 H     1 <1>   0.1500 
 30 H       -2.8750     3.4430    -0.0010 H     1 <1>   0.1500 
 31 H       -5.6200    -2.5790     2.9870 H     1 <1>   0.0800 
 32 H       -3.9160    -2.9400     3.0010 H     1 <1>   0.0800 
 33 H       -5.4920    -0.5120    -0.0920 H     1 <1>   0.0800 
 34 H       -6.5590    -1.1450     1.1280 H     1 <1>   0.0800 
 35 H       -5.2430    -4.8710     2.1750 H     1 <1>   0.0800 
 36 H       -4.1000    -4.2790     1.0240 H     1 <1>   0.0800 
 37 H       -5.0910    -2.7270    -0.9680 H     1 <1>   0.0800 
 38 H       -6.7850    -2.4320    -0.9720 H     1 <1>   0.0800 
 39 H       -8.6570    -3.2940    -0.1160 H     1 <1>   0.0800 
 40 H       -9.2790    -3.4740     1.5160 H     1 <1>   0.0800 
 41 H       -9.6600    -5.5250     0.1380 H     1 <1>   0.0800 
 42 H       -8.6760    -5.8350     1.5460 H     1 <1>   0.0800 
 43 H       -4.8470    -7.1760    -2.6070 H     1 <1>   0.1500 
 44 H       -8.7270    -7.5040    -0.9750 H     1 <1>   0.1500 
 45 H       -2.3070    -4.6980    -1.9460 H     1 <1>   0.0800 
 46 H       -3.4180    -5.4160    -3.1070 H     1 <1>   0.0800 
 47 H       -2.8140    -6.3720    -1.7390 H     1 <1>   0.0800 
 48 H       -6.9620    -8.3470    -2.4440 H     1 <1>   0.1500 
@<TRIPOS>BOND
  1   1   2  1   
  2   2   3  ar  
  3   2   4  ar  
  4   3   5  1   
  5   3   6  ar  
  6   4   7  ar  
  7   4  28  1   
  8   5   8  2   
  9   5   9  am  
 10   6  10  ar  
 11   6  29  1   
 12   7  10  ar  
 13   7  11  1   
 14   9  12  1   
 15   9  13  1   
 16  10  30  1   
 17  12  14  1   
 18  12  31  1   
 19  12  32  1   
 20  13  15  1   
 21  13  33  1   
 22  13  34  1   
 23  14  16  1   
 24  14  35  1   
 25  14  36  1   
 26  15  16  1   
 27  15  37  1   
 28  15  38  1   
 29  16  17  1   
 30  16  18  1   
 31  17  19  1   
 32  18  20  ar  
 33  18  21  ar  
 34  19  22  1   
 35  19  39  1   
 36  19  40  1   
 37  20  23  1   
 38  20  24  ar  
 39  21  22  1   
 40  21  25  ar  
 41  22  41  1   
 42  22  42  1   
 43  23  26  1   
 44  24  27  ar  
 45  24  43  1   
 46  25  27  ar  
 47  25  44  1   
 48  26  45  1   
 49  26  46  1   
 50  26  47  1   
 51  27  48  1   
@<TRIPOS>SUBSTRUCTURE
  1 ****  15 GROUP 4 **** **** 0

# MOE 2024.06 (io_trps.svl 2023.06)
