@<TRIPOS>MOLECULE
NONAME
53 54 1 0 0 
SMALL
USER_CHARGES


@<TRIPOS>ATOM
  1 O       -1.7080     0.0660     1.9460 O.2   1 <1>  -0.5700 
  2 C       -2.0230     0.5130     0.8670 C.2   1 <1>   0.5690 
  3 N       -2.8050    -0.2290     0.0060 N.am  1 <1>  -0.6600 
  4 C       -1.5200     1.9300     0.5570 C.3   1 <1>  -0.0190 
  5 C       -3.2220    -1.6100     0.3960 C.3   1 <1>   0.1400 
  6 C       -3.3280     0.1910    -1.3270 C.3   1 <1>   0.0600 
  7 C       -2.6530     2.9780     0.4960 C.3   1 <1>  -0.1600 
  8 C       -0.5480     1.9930    -0.6490 C.3   1 <1>  -0.1600 
  9 C       -4.4750    -1.5620     1.2740 C.3   1 <1>   0.1200 
 10 C       -2.1160     4.4180     0.3610 C.3   1 <1>   0.2000 
 11 C       -0.5600     3.3530    -1.3710 C.3   1 <1>  -0.1600 
 12 O       -4.9550    -2.8700     1.5330 O.3   1 <1>  -0.3620 
 13 O       -3.0710     5.1650    -0.3530 O.3   1 <1>  -0.5600 
 14 C       -0.7500     4.4960    -0.3720 C.3   1 <1>   0.2000 
 15 C       -5.5080    -3.5610     0.5060 C.ar  1 <1>   0.0820 
 16 C       -4.1240     5.6650     0.4120 C.3   1 <1>   0.0400 
 17 O       -0.6730     5.6850    -1.0680 O.3   1 <1>  -0.6800 
 18 C       -6.7750    -3.2300     0.0220 C.ar  1 <1>  -0.1440 
 19 C       -4.7930    -4.6200    -0.0510 C.ar  1 <1>  -0.1440 
 20 C       -7.2860    -3.9270    -1.0600 C.ar  1 <1>  -0.1500 
 21 C       -7.6390    -2.1460     0.6540 C.3   1 <1>  -0.0970 
 22 C       -5.3260    -5.3040    -1.1310 C.ar  1 <1>  -0.1500 
 23 C       -3.4400    -5.0550     0.4970 C.3   1 <1>  -0.0970 
 24 C       -6.5640    -4.9550    -1.6400 C.ar  1 <1>  -0.1500 
 25 H       -0.9300     2.2120     1.4140 H     1 <1>   0.0800 
 26 H       -3.4180    -2.1860    -0.4920 H     1 <1>   0.0800 
 27 H       -2.4260    -2.0870     0.9420 H     1 <1>   0.0800 
 28 H       -3.0650    -0.5450    -2.0670 H     1 <1>   0.0800 
 29 H       -2.9260     1.1340    -1.6420 H     1 <1>   0.0800 
 30 H       -4.4010     0.2720    -1.2850 H     1 <1>   0.0800 
 31 H       -3.2420     2.9060     1.3930 H     1 <1>   0.0800 
 32 H       -3.2950     2.7700    -0.3370 H     1 <1>   0.0800 
 33 H        0.4460     1.8010    -0.2820 H     1 <1>   0.0800 
 34 H       -0.7590     1.2190    -1.3630 H     1 <1>   0.0800 
 35 H       -5.2480    -0.9970     0.7920 H     1 <1>   0.0800 
 36 H       -4.2390    -1.1120     2.2220 H     1 <1>   0.0800 
 37 H       -1.9870     4.8570     1.3360 H     1 <1>   0.0800 
 38 H       -1.3700     3.3740    -2.0790 H     1 <1>   0.0800 
 39 H        0.3640     3.4840    -1.9070 H     1 <1>   0.0800 
 40 H        0.0570     4.4800     0.3410 H     1 <1>   0.0800 
 41 H       -4.7810     6.2130    -0.2400 H     1 <1>   0.0800 
 42 H       -3.7320     6.3250     1.1670 H     1 <1>   0.0800 
 43 H       -4.6610     4.8490     0.8630 H     1 <1>   0.0800 
 44 H       -1.6040     5.9330    -1.2720 H     1 <1>   0.4000 
 45 H       -8.2550    -3.6790    -1.4550 H     1 <1>   0.1500 
 46 H       -8.6790    -2.4070     0.5770 H     1 <1>   0.0800 
 47 H       -7.4820    -1.2090     0.1520 H     1 <1>   0.0800 
 48 H       -7.4050    -2.0330     1.6970 H     1 <1>   0.0800 
 49 H       -4.7820    -6.1150    -1.5810 H     1 <1>   0.1500 
 50 H       -3.2910    -6.1070     0.3350 H     1 <1>   0.0800 
 51 H       -3.3830    -4.8730     1.5560 H     1 <1>   0.0800 
 52 H       -2.6520    -4.5160     0.0070 H     1 <1>   0.0800 
 53 H       -6.9700    -5.4890    -2.4800 H     1 <1>   0.1500 
@<TRIPOS>BOND
  1   1   2  2   
  2   2   3  am  
  3   2   4  1   
  4   3   5  1   
  5   3   6  1   
  6   4   7  1   
  7   4   8  1   
  8   4  25  1   
  9   5   9  1   
 10   5  26  1   
 11   5  27  1   
 12   6  28  1   
 13   6  29  1   
 14   6  30  1   
 15   7  10  1   
 16   7  31  1   
 17   7  32  1   
 18   8  11  1   
 19   8  33  1   
 20   8  34  1   
 21   9  12  1   
 22   9  35  1   
 23   9  36  1   
 24  10  13  1   
 25  10  14  1   
 26  10  37  1   
 27  11  14  1   
 28  11  38  1   
 29  11  39  1   
 30  12  15  1   
 31  13  16  1   
 32  14  17  1   
 33  14  40  1   
 34  15  18  ar  
 35  15  19  ar  
 36  16  41  1   
 37  16  42  1   
 38  16  43  1   
 39  17  44  1   
 40  18  20  ar  
 41  18  21  1   
 42  19  22  ar  
 43  19  23  1   
 44  20  24  ar  
 45  20  45  1   
 46  21  46  1   
 47  21  47  1   
 48  21  48  1   
 49  22  24  ar  
 50  22  49  1   
 51  23  50  1   
 52  23  51  1   
 53  23  52  1   
 54  24  53  1   
@<TRIPOS>SUBSTRUCTURE
  1 ****   3 GROUP 4 **** **** 0

# MOE 2024.06 (io_trps.svl 2023.06)
