@<TRIPOS>MOLECULE
NONAME
45 47 1 0 0 
SMALL
USER_CHARGES


@<TRIPOS>ATOM
  1 O        1.3450    -0.0740    -0.9010 O.3   1 <1>  -0.6800 
  2 C        1.4950    -0.4520     0.4220 C.3   1 <1>   0.2800 
  3 C        2.9990    -0.3040     0.7670 C.3   1 <1>  -0.0800 
  4 C        1.0350    -1.9260     0.5480 C.3   1 <1>  -0.1600 
  5 C        0.5420     0.4310     1.2670 C.3   1 <1>  -0.1600 
  6 C        3.9220    -1.2870     0.0100 C.3   1 <1>  -0.0800 
  7 C        3.5390     1.0860     0.4210 C.3   1 <1>   0.3430 
  8 C        2.1060    -3.0020     0.2830 C.3   1 <1>  -0.1600 
  9 C        0.6160     1.9610     1.1020 C.3   1 <1>  -0.2400 
 10 C        3.2140    -2.4920    -0.6340 C.3   1 <1>  -0.1600 
 11 C        4.6390    -0.4400    -1.0310 C.3   1 <1>   0.3430 
 12 N        4.7590     0.8840    -0.3970 N.4   1 <1>  -0.9590 
 13 C        5.0170     2.0170    -1.3170 C.3   1 <1>   0.5230 
 14 C        5.6340     3.1450    -0.5000 C.2   1 <1>   0.0060 
 15 N        6.1830     2.9560     0.6630 N.2   1 <1>  -0.5650 
 16 N        5.6700     4.4360    -0.9160 N.pl3 1 <1>   0.0480 
 17 C        6.5970     4.1840     1.0260 C.2   1 <1>   0.0770 
 18 C        6.2910     5.0940     0.0780 C.2   1 <1>  -0.3020 
 19 C        5.1650     5.0450    -2.1630 C.3   1 <1>   0.0160 
 20 H        0.4150    -0.2150    -1.1670 H     1 <1>   0.4000 
 21 H        3.1110    -0.4690     1.8240 H     1 <1>   0.0800 
 22 H        0.6750    -2.0970     1.5480 H     1 <1>   0.0800 
 23 H        0.1960    -2.0930    -0.1060 H     1 <1>   0.0800 
 24 H       -0.4680     0.1350     1.0430 H     1 <1>   0.0800 
 25 H        0.6950     0.2010     2.3070 H     1 <1>   0.0800 
 26 H        4.6590    -1.6570     0.7030 H     1 <1>   0.0800 
 27 H        3.7640     1.6550     1.3100 H     1 <1>   0.0800 
 28 H        2.8030     1.6180    -0.1580 H     1 <1>   0.0800 
 29 H        2.5460    -3.3030     1.2200 H     1 <1>   0.0800 
 30 H        1.6430    -3.8730    -0.1490 H     1 <1>   0.0800 
 31 H        0.5640     2.2460     0.0660 H     1 <1>   0.0800 
 32 H        1.5090     2.3640     1.5430 H     1 <1>   0.0800 
 33 H       -0.2200     2.4120     1.6090 H     1 <1>   0.0800 
 34 H        2.7770    -2.2170    -1.5790 H     1 <1>   0.0800 
 35 H        3.9250    -3.2790    -0.8210 H     1 <1>   0.0800 
 36 H        4.0190    -0.3660    -1.9100 H     1 <1>   0.0800 
 37 H        5.6000    -0.8520    -1.2930 H     1 <1>   0.0800 
 38 H        5.5570     0.9170     0.2630 H     1 <1>   0.4500 
 39 H        5.7160     1.7200    -2.0810 H     1 <1>   0.0800 
 40 H        4.1000     2.3380    -1.7810 H     1 <1>   0.0800 
 41 H        7.1020     4.3550     1.9640 H     1 <1>   0.1500 
 42 H        6.4850     6.1520     0.0640 H     1 <1>   0.1500 
 43 H        5.3920     6.0970    -2.1650 H     1 <1>   0.0800 
 44 H        4.1000     4.9160    -2.2240 H     1 <1>   0.0800 
 45 H        5.6410     4.5840    -3.0100 H     1 <1>   0.0800 
@<TRIPOS>BOND
  1   1   2  1   
  2   1  20  1   
  3   2   3  1   
  4   2   4  1   
  5   2   5  1   
  6   3   6  1   
  7   3   7  1   
  8   3  21  1   
  9   4   8  1   
 10   4  22  1   
 11   4  23  1   
 12   5   9  1   
 13   5  24  1   
 14   5  25  1   
 15   6  10  1   
 16   6  11  1   
 17   6  26  1   
 18   7  12  1   
 19   7  27  1   
 20   7  28  1   
 21   8  10  1   
 22   8  29  1   
 23   8  30  1   
 24   9  31  1   
 25   9  32  1   
 26   9  33  1   
 27  10  34  1   
 28  10  35  1   
 29  11  12  1   
 30  11  36  1   
 31  11  37  1   
 32  12  13  1   
 33  12  38  1   
 34  13  14  1   
 35  13  39  1   
 36  13  40  1   
 37  14  15  2   
 38  14  16  1   
 39  15  17  1   
 40  16  18  1   
 41  16  19  1   
 42  17  18  2   
 43  17  41  1   
 44  18  42  1   
 45  19  43  1   
 46  19  44  1   
 47  19  45  1   
@<TRIPOS>SUBSTRUCTURE
  1 ****   7 GROUP 4 **** **** 0

# MOE 2024.06 (io_trps.svl 2023.06)
