@<TRIPOS>MOLECULE
NONAME
37 39 1 0 0 
SMALL
USER_CHARGES


@<TRIPOS>ATOM
  1 O       -2.3210    -0.4200     0.9910 O.2   1 <1>  -0.5700 
  2 C       -2.2570    -1.6360     1.0320 C.2   1 <1>   0.6900 
  3 N       -2.5060    -2.4800     0.0140 N.am  1 <1>  -0.5390 
  4 N       -1.9210    -2.3670     2.1170 N.am  1 <1>  -0.5390 
  5 C       -2.3230    -3.7990     0.4550 C.2   1 <1>   0.1230 
  6 C       -1.9600    -3.6990     1.7590 C.2   1 <1>  -0.0410 
  7 C       -2.5130    -4.9540    -0.3930 C.2   1 <1>   0.6160 
  8 O       -2.8240    -4.8250    -1.5630 O.2   1 <1>  -0.5700 
  9 N       -2.3700    -6.2200     0.1000 N.am  1 <1>  -0.7300 
 10 C       -2.5320    -7.4710    -0.6800 C.3   1 <1>   0.2200 
 11 C       -3.8730    -8.1330    -0.3880 C.3   1 <1>  -0.0800 
 12 C       -1.5810    -8.5160    -0.1150 C.3   1 <1>   0.1200 
 13 C       -3.5930    -8.9360     0.8890 C.3   1 <1>   0.1200 
 14 C       -5.0870    -7.1900    -0.2930 C.3   1 <1>  -0.0170 
 15 O       -2.2030    -8.9680     1.0480 O.3   1 <1>  -0.5600 
 16 C       -6.3690    -7.9750    -0.0640 C.ar  1 <1>  -0.1430 
 17 C       -6.9450    -8.0900     1.1850 C.ar  1 <1>  -0.1500 
 18 C       -7.0230    -8.6150    -1.0980 C.ar  1 <1>  -0.1500 
 19 C       -8.1100    -8.8240     1.3360 C.ar  1 <1>   0.1600 
 20 C       -8.1840    -9.3230    -0.8390 C.ar  1 <1>   0.1600 
 21 N       -8.7420    -9.4460     0.3540 N.ar  1 <1>  -0.6200 
 22 H       -2.7680    -2.1890    -0.9280 H     1 <1>   0.3700 
 23 H       -1.6860    -1.9230     3.0050 H     1 <1>   0.3700 
 24 H       -1.7260    -4.4840     2.4580 H     1 <1>   0.1500 
 25 H       -2.1610    -6.3810     1.0860 H     1 <1>   0.3700 
 26 H       -2.3720    -7.2930    -1.7300 H     1 <1>   0.0800 
 27 H       -4.0640    -8.8430    -1.1740 H     1 <1>   0.0800 
 28 H       -0.6100    -8.1180     0.1190 H     1 <1>   0.0800 
 29 H       -1.4860    -9.3520    -0.7870 H     1 <1>   0.0800 
 30 H       -3.9600    -9.9460     0.8120 H     1 <1>   0.0800 
 31 H       -4.0110    -8.4630     1.7610 H     1 <1>   0.0800 
 32 H       -5.1730    -6.6260    -1.2060 H     1 <1>   0.0800 
 33 H       -4.9570    -6.4860     0.5090 H     1 <1>   0.0800 
 34 H       -6.5030    -7.6180     2.0420 H     1 <1>   0.1500 
 35 H       -6.6410    -8.5680    -2.1010 H     1 <1>   0.1500 
 36 H       -8.5460    -8.9030     2.3180 H     1 <1>   0.1500 
 37 H       -8.6800    -9.8160    -1.6580 H     1 <1>   0.1500 
@<TRIPOS>BOND
  1   1   2  2   
  2   2   3  am  
  3   2   4  am  
  4   3   5  1   
  5   3  22  1   
  6   4   6  1   
  7   4  23  1   
  8   5   6  2   
  9   5   7  1   
 10   6  24  1   
 11   7   8  2   
 12   7   9  am  
 13   9  10  1   
 14   9  25  1   
 15  10  11  1   
 16  10  12  1   
 17  10  26  1   
 18  11  13  1   
 19  11  14  1   
 20  11  27  1   
 21  12  15  1   
 22  12  28  1   
 23  12  29  1   
 24  13  15  1   
 25  13  30  1   
 26  13  31  1   
 27  14  16  1   
 28  14  32  1   
 29  14  33  1   
 30  16  17  ar  
 31  16  18  ar  
 32  17  19  ar  
 33  17  34  1   
 34  18  20  ar  
 35  18  35  1   
 36  19  21  ar  
 37  19  36  1   
 38  20  21  ar  
 39  20  37  1   
@<TRIPOS>SUBSTRUCTURE
  1 ****  14 GROUP 4 **** **** 0

# MOE 2024.06 (io_trps.svl 2023.06)
