@<TRIPOS>MOLECULE
NONAME
52 54 1 0 0 
SMALL
USER_CHARGES


@<TRIPOS>ATOM
  1 O        0.7690     0.0630    -2.1200 O.2   1 <1>  -0.5700 
  2 C        1.4390    -0.5840    -1.3540 C.2   1 <1>   0.5690 
  3 N        2.4500    -0.0340    -0.6300 N.am  1 <1>  -0.7300 
  4 C        1.1100    -2.0440    -1.1560 C.3   1 <1>  -0.0990 
  5 C        2.7770     1.4180    -0.4400 C.3   1 <1>   0.2200 
  6 C       -0.2500    -2.1940    -0.4520 C.3   1 <1>   0.2070 
  7 C        1.8770     2.0120     0.6440 C.3   1 <1>   0.2000 
  8 C        2.4840     2.3070    -1.6710 C.3   1 <1>   0.3430 
  9 C       -0.2940    -1.3050     0.8030 C.ar  1 <1>  -0.1440 
 10 C       -0.5860    -3.6710    -0.1940 C.ar  1 <1>  -0.1440 
 11 O        2.4990     3.1510     1.1760 O.3   1 <1>  -0.5600 
 12 C        0.6630     2.4760    -0.1560 C.3   1 <1>   0.3430 
 13 N        1.2350     3.0970    -1.3870 N.4   1 <1>  -0.9590 
 14 C       -1.2720    -0.3270     0.9230 C.ar  1 <1>  -0.1500 
 15 C        0.6340    -1.4530     1.8280 C.ar  1 <1>  -0.1500 
 16 C       -0.9120    -4.1620     1.0670 C.ar  1 <1>  -0.1500 
 17 C       -0.5890    -4.5610    -1.2630 C.ar  1 <1>  -0.1500 
 18 C        3.2290     2.9280     2.3450 C.3   1 <1>   0.0400 
 19 C        0.2770     3.1130    -2.5300 C.3   1 <1>   0.2630 
 20 C       -1.3220     0.4880     2.0400 C.ar  1 <1>  -0.1500 
 21 C        0.5850    -0.6400     2.9470 C.ar  1 <1>  -0.1500 
 22 C       -1.2030    -5.5020     1.2560 C.ar  1 <1>  -0.1500 
 23 C       -0.8800    -5.9010    -1.0760 C.ar  1 <1>  -0.1500 
 24 C       -0.3930     0.3330     3.0530 C.ar  1 <1>  -0.1500 
 25 C       -1.1840    -6.3750     0.1860 C.ar  1 <1>  -0.1500 
 26 H        2.9560    -0.6590     0.0040 H     1 <1>   0.3700 
 27 H        1.0830    -2.5090    -2.1220 H     1 <1>   0.0800 
 28 H        1.8760    -2.5260    -0.5780 H     1 <1>   0.0800 
 29 H        3.8150     1.4970    -0.1660 H     1 <1>   0.0800 
 30 H       -0.9990    -1.8320    -1.1350 H     1 <1>   0.0800 
 31 H        1.6170     1.3250     1.4280 H     1 <1>   0.0800 
 32 H        2.3640     1.6910    -2.5460 H     1 <1>   0.0800 
 33 H        3.3060     2.9850    -1.8310 H     1 <1>   0.0800 
 34 H        0.0630     3.1680     0.4100 H     1 <1>   0.0800 
 35 H        0.0700     1.6160    -0.4210 H     1 <1>   0.0800 
 36 H        1.5220     4.0520    -1.1210 H     1 <1>   0.4500 
 37 H       -2.0110    -0.2030     0.1490 H     1 <1>   0.1500 
 38 H        1.3890    -2.2180     1.7680 H     1 <1>   0.1500 
 39 H       -0.9560    -3.5170     1.9260 H     1 <1>   0.1500 
 40 H       -0.3720    -4.2240    -2.2600 H     1 <1>   0.1500 
 41 H        3.6740     3.8610     2.6470 H     1 <1>   0.0800 
 42 H        4.0030     2.2040     2.1590 H     1 <1>   0.0800 
 43 H        2.5660     2.5820     3.1200 H     1 <1>   0.0800 
 44 H       -0.0230     2.1080    -2.7800 H     1 <1>   0.0800 
 45 H        0.7380     3.5590    -3.3970 H     1 <1>   0.0800 
 46 H       -0.6010     3.6810    -2.2740 H     1 <1>   0.0800 
 47 H       -2.0940     1.2340     2.1290 H     1 <1>   0.1500 
 48 H        1.2990    -0.7730     3.7420 H     1 <1>   0.1500 
 49 H       -1.4490    -5.8640     2.2400 H     1 <1>   0.1500 
 50 H       -0.8730    -6.5760    -1.9150 H     1 <1>   0.1500 
 51 H       -0.4390     0.9590     3.9280 H     1 <1>   0.1500 
 52 H       -1.4090    -7.4160     0.3330 H     1 <1>   0.1500 
@<TRIPOS>BOND
  1   1   2  2   
  2   2   3  am  
  3   2   4  1   
  4   3   5  1   
  5   3  26  1   
  6   4   6  1   
  7   4  27  1   
  8   4  28  1   
  9   5   7  1   
 10   5   8  1   
 11   5  29  1   
 12   6   9  1   
 13   6  10  1   
 14   6  30  1   
 15   7  11  1   
 16   7  12  1   
 17   7  31  1   
 18   8  13  1   
 19   8  32  1   
 20   8  33  1   
 21   9  14  ar  
 22   9  15  ar  
 23  10  16  ar  
 24  10  17  ar  
 25  11  18  1   
 26  12  13  1   
 27  12  34  1   
 28  12  35  1   
 29  13  19  1   
 30  13  36  1   
 31  14  20  ar  
 32  14  37  1   
 33  15  21  ar  
 34  15  38  1   
 35  16  22  ar  
 36  16  39  1   
 37  17  23  ar  
 38  17  40  1   
 39  18  41  1   
 40  18  42  1   
 41  18  43  1   
 42  19  44  1   
 43  19  45  1   
 44  19  46  1   
 45  20  24  ar  
 46  20  47  1   
 47  21  24  ar  
 48  21  48  1   
 49  22  25  ar  
 50  22  49  1   
 51  23  25  ar  
 52  23  50  1   
 53  24  51  1   
 54  25  52  1   
@<TRIPOS>SUBSTRUCTURE
  1 ****   9 GROUP 4 **** **** 0

# MOE 2024.06 (io_trps.svl 2023.06)
