@<TRIPOS>MOLECULE
NONAME
39 41 1 0 0 
SMALL
USER_CHARGES


@<TRIPOS>ATOM
  1 O        2.2250    -0.2900    -0.9360 O.2   1 <1>  -0.5700 
  2 C        2.0820    -0.7360     0.1900 C.2   1 <1>   0.7160 
  3 N        2.4430     0.0200     1.2700 N.am  1 <1>  -0.4940 
  4 C        1.5260    -2.0530     0.4360 C.2   1 <1>   0.2030 
  5 C        2.8720     1.3460     1.3690 C.2   1 <1>   0.2500 
  6 N        1.3370    -2.5800     1.6340 N.2   1 <1>  -0.7070 
  7 C        1.1110    -2.9480    -0.5580 C.2   1 <1>  -0.1500 
  8 N        2.5390     2.0770     2.3860 N.2   1 <1>  -0.3380 
  9 N        3.6580     2.0240     0.5020 N.pl3 1 <1>   0.3340 
 10 N        0.8100    -3.7940     1.4050 N.pl3 1 <1>   0.3000 
 11 C        0.6660    -4.0430     0.0880 C.2   1 <1>  -0.3320 
 12 N        3.0810     3.2820     2.2130 N.2   1 <1>  -0.3380 
 13 C        3.7450     3.2500     1.0950 C.2   1 <1>   0.3120 
 14 C        4.3970     1.7740    -0.6500 C.2   1 <1>  -0.1810 
 15 C        0.0910    -5.3300    -0.4840 C.3   1 <1>   0.0200 
 16 N        4.4690     4.2930     0.5580 N.2   1 <1>  -0.5760 
 17 C        5.1230     2.7920    -1.1730 C.2   1 <1>  -0.1360 
 18 C        1.1360    -6.4560    -0.5930 C.3   1 <1>  -0.0800 
 19 C        5.1200     4.0620    -0.5280 C.2   1 <1>   0.3750 
 20 C        0.5280    -7.6690    -1.3100 C.3   1 <1>  -0.2400 
 21 C        1.6850    -6.8930     0.7730 C.3   1 <1>  -0.2400 
 22 C        5.9250     5.1810    -1.1500 C.3   1 <1>  -0.1790 
 23 H        2.1340    -0.4000     2.1510 H     1 <1>   0.3700 
 24 H        1.1580    -2.7580    -1.6170 H     1 <1>   0.1500 
 25 H        0.5590    -4.4420     2.1620 H     1 <1>   0.2700 
 26 H        4.3560     0.7860    -1.0690 H     1 <1>   0.1500 
 27 H       -0.2870    -5.1150    -1.4690 H     1 <1>   0.0800 
 28 H       -0.7430    -5.6540     0.1140 H     1 <1>   0.0800 
 29 H        5.7100     2.6740    -2.0660 H     1 <1>   0.1500 
 30 H        1.9590    -6.0930    -1.1880 H     1 <1>   0.0800 
 31 H       -0.2970    -8.0700    -0.7470 H     1 <1>   0.0800 
 32 H        1.2680    -8.4410    -1.4300 H     1 <1>   0.0800 
 33 H        0.1760    -7.3900    -2.2870 H     1 <1>   0.0800 
 34 H        0.8860    -7.1910     1.4290 H     1 <1>   0.0800 
 35 H        2.2430    -6.0980     1.2320 H     1 <1>   0.0800 
 36 H        2.3540    -7.7280     0.6520 H     1 <1>   0.0800 
 37 H        5.5690     5.3800    -2.1440 H     1 <1>   0.0800 
 38 H        6.9630     4.9080    -1.1910 H     1 <1>   0.0800 
 39 H        5.8280     6.0780    -0.5650 H     1 <1>   0.0800 
@<TRIPOS>BOND
  1   1   2  2   
  2   2   3  am  
  3   2   4  1   
  4   3   5  1   
  5   3  23  1   
  6   4   6  2   
  7   4   7  1   
  8   5   8  2   
  9   5   9  1   
 10   6  10  1   
 11   7  11  2   
 12   7  24  1   
 13   8  12  1   
 14   9  13  1   
 15   9  14  1   
 16  10  11  1   
 17  10  25  1   
 18  11  15  1   
 19  12  13  2   
 20  13  16  1   
 21  14  17  2   
 22  14  26  1   
 23  15  18  1   
 24  15  27  1   
 25  15  28  1   
 26  16  19  2   
 27  17  19  1   
 28  17  29  1   
 29  18  20  1   
 30  18  21  1   
 31  18  30  1   
 32  19  22  1   
 33  20  31  1   
 34  20  32  1   
 35  20  33  1   
 36  21  34  1   
 37  21  35  1   
 38  21  36  1   
 39  22  37  1   
 40  22  38  1   
 41  22  39  1   
@<TRIPOS>SUBSTRUCTURE
  1 ****   2 GROUP 4 **** **** 0

# MOE 2024.06 (io_trps.svl 2023.06)
