@<TRIPOS>MOLECULE
NONAME
16 16 1 0 0 
SMALL
USER_CHARGES


@<TRIPOS>ATOM
  1 CL      -0.2210    -0.0460     0.1240 Cl    1 <1>  -0.1240 
  2 C        0.7750     1.3830     0.1870 C.2   1 <1>   0.1640 
  3 S        2.4280     1.1650     0.7180 S.3   1 <1>  -0.0800 
  4 C        0.5030     2.6660    -0.1030 C.2   1 <1>  -0.1500 
  5 C        2.7300     2.8880     0.5270 C.2   1 <1>  -0.1100 
  6 C        1.6280     3.5390     0.0910 C.2   1 <1>  -0.1810 
  7 C        1.4900     5.0280    -0.1970 C.3   1 <1>   0.3810 
  8 O        0.5110     5.5140     0.6330 O.3   1 <1>  -0.6800 
  9 C        2.7560     5.8310     0.0840 C.3   1 <1>  -0.2400 
 10 H       -0.4470     3.0380    -0.4450 H     1 <1>   0.1500 
 11 H        3.7210     3.2320     0.7660 H     1 <1>   0.1500 
 12 H        1.1690     5.1850    -1.2130 H     1 <1>   0.0800 
 13 H        0.6700     5.1670     1.5300 H     1 <1>   0.4000 
 14 H        3.0650     5.7130     1.1070 H     1 <1>   0.0800 
 15 H        2.5790     6.8730    -0.1180 H     1 <1>   0.0800 
 16 H        3.5480     5.4940    -0.5590 H     1 <1>   0.0800 
@<TRIPOS>BOND
  1   1   2  1   
  2   2   3  1   
  3   2   4  2   
  4   3   5  1   
  5   4   6  1   
  6   4  10  1   
  7   5   6  2   
  8   5  11  1   
  9   6   7  1   
 10   7   8  1   
 11   7   9  1   
 12   7  12  1   
 13   8  13  1   
 14   9  14  1   
 15   9  15  1   
 16   9  16  1   
@<TRIPOS>SUBSTRUCTURE
  1 ****   6 GROUP 4 **** **** 0

# MOE 2024.06 (io_trps.svl 2023.06)
