@<TRIPOS>MOLECULE
NONAME
43 45 1 0 0 
SMALL
USER_CHARGES


@<TRIPOS>ATOM
  1 S       -0.0210    -0.5330     0.3320 S.3   1 <1>  -0.0800 
  2 C       -1.4780     0.2520    -0.2660 C.2   1 <1>   0.4620 
  3 C        0.9310     0.7860    -0.2940 C.2   1 <1>  -0.1400 
  4 N       -1.2510     1.3670    -0.8590 N.2   1 <1>  -0.5650 
  5 N       -2.6980    -0.3500    -0.0670 N.pl3 1 <1>  -0.8220 
  6 C        0.0970     1.6650    -0.8750 C.2   1 <1>   0.0460 
  7 C        2.4300     0.7000    -0.0820 C.3   1 <1>  -0.0600 
  8 C       -3.9620     0.3330    -0.4160 C.3   1 <1>   0.2090 
  9 C       -2.9260    -1.5110     0.8210 C.3   1 <1>   0.2090 
 10 C        0.4720     2.9640    -1.5560 C.3   1 <1>  -0.0590 
 11 C       -5.0260    -0.3550     0.4490 C.3   1 <1>  -0.0800 
 12 C       -4.4400    -1.7510     0.7760 C.3   1 <1>  -0.0800 
 13 C       -6.5460    -0.1820    -0.0610 C.3   1 <1>   0.2800 
 14 C       -4.7760    -2.8530    -0.2280 C.3   1 <1>  -0.1600 
 15 O       -7.8670    -0.0690    -0.4630 O.3   1 <1>  -0.6800 
 16 C       -6.4440    -1.3150    -1.1810 C.3   1 <1>  -0.1600 
 17 C       -6.9280     1.0350     0.9160 C.3   1 <1>  -0.1600 
 18 C       -6.2330    -2.7270    -0.6300 C.3   1 <1>  -0.1600 
 19 C       -6.9660     2.4050     0.1940 C.3   1 <1>  -0.2400 
 20 H        2.9250     1.5560    -0.5020 H     1 <1>   0.0800 
 21 H        2.8140    -0.1870    -0.5520 H     1 <1>   0.0800 
 22 H        2.6470     0.6580     0.9700 H     1 <1>   0.0800 
 23 H       -3.8960     1.3830    -0.1820 H     1 <1>   0.0800 
 24 H       -4.1290     0.2290    -1.4710 H     1 <1>   0.0800 
 25 H       -2.3690    -2.3680     0.4830 H     1 <1>   0.0800 
 26 H       -2.6180    -1.2540     1.8200 H     1 <1>   0.0800 
 27 H        1.5330     3.1240    -1.5290 H     1 <1>   0.0800 
 28 H       -0.0170     3.7820    -1.0610 H     1 <1>   0.0800 
 29 H        0.1500     2.9360    -2.5810 H     1 <1>   0.0800 
 30 H       -4.8400     0.0970     1.3980 H     1 <1>   0.0800 
 31 H       -4.7870    -2.0700     1.7430 H     1 <1>   0.0800 
 32 H       -4.1590    -2.7550    -1.1060 H     1 <1>   0.0800 
 33 H       -4.5890    -3.8220     0.2030 H     1 <1>   0.0800 
 34 H       -8.1460     0.8490    -0.2920 H     1 <1>   0.4000 
 35 H       -7.2530    -1.4280    -1.8990 H     1 <1>   0.0800 
 36 H       -5.6330    -1.0960    -1.8460 H     1 <1>   0.0800 
 37 H       -7.8660     0.8810     1.4440 H     1 <1>   0.0800 
 38 H       -6.3040     1.2190     1.7660 H     1 <1>   0.0800 
 39 H       -6.8880    -2.9020     0.2070 H     1 <1>   0.0800 
 40 H       -6.4530    -3.4550    -1.3920 H     1 <1>   0.0800 
 41 H       -7.7090     2.4490    -0.5830 H     1 <1>   0.0800 
 42 H       -6.0080     2.6170    -0.2470 H     1 <1>   0.0800 
 43 H       -7.1850     3.1840     0.9040 H     1 <1>   0.0800 
@<TRIPOS>BOND
  1   1   2  1   
  2   1   3  1   
  3   2   4  2   
  4   2   5  1   
  5   3   6  2   
  6   3   7  1   
  7   4   6  1   
  8   5   8  1   
  9   5   9  1   
 10   6  10  1   
 11   7  20  1   
 12   7  21  1   
 13   7  22  1   
 14   8  11  1   
 15   8  23  1   
 16   8  24  1   
 17   9  12  1   
 18   9  25  1   
 19   9  26  1   
 20  10  27  1   
 21  10  28  1   
 22  10  29  1   
 23  11  12  1   
 24  11  13  1   
 25  11  30  1   
 26  12  14  1   
 27  12  31  1   
 28  13  15  1   
 29  13  16  1   
 30  13  17  1   
 31  14  18  1   
 32  14  32  1   
 33  14  33  1   
 34  15  34  1   
 35  16  18  1   
 36  16  35  1   
 37  16  36  1   
 38  17  19  1   
 39  17  37  1   
 40  17  38  1   
 41  18  39  1   
 42  18  40  1   
 43  19  41  1   
 44  19  42  1   
 45  19  43  1   
@<TRIPOS>SUBSTRUCTURE
  1 ****   8 GROUP 4 **** **** 0

# MOE 2024.06 (io_trps.svl 2023.06)
