@<TRIPOS>MOLECULE
NONAME
51 54 1 0 0 
SMALL
USER_CHARGES


@<TRIPOS>ATOM
  1 O        3.4840     2.9810     0.5380 O.3   1 <1>  -0.0190 
  2 N        4.1030     2.0210     1.1520 N.2   1 <1>  -0.4100 
  3 C        2.5480     2.5320    -0.2550 C.2   1 <1>  -0.0400 
  4 C        3.5720     0.9280     0.7330 C.2   1 <1>   0.1080 
  5 C        2.5560     1.1930    -0.1820 C.2   1 <1>  -0.1500 
  6 C        1.7050     3.5140    -1.0440 C.3   1 <1>   0.0200 
  7 C        3.9980    -0.4530     1.1800 C.3   1 <1>  -0.0590 
  8 C        0.6420     4.2100    -0.1640 C.3   1 <1>  -0.0800 
  9 C        0.0380     5.4100    -0.8970 C.3   1 <1>   0.2000 
 10 C        1.2280     4.8510     1.0970 C.3   1 <1>   0.3430 
 11 O       -1.2590     5.6100    -0.4430 O.3   1 <1>  -0.6800 
 12 C        0.9120     6.6120    -0.4980 C.3   1 <1>   0.3430 
 13 N        1.7840     6.1400     0.6270 N.4   1 <1>  -0.9590 
 14 C        2.0190     7.1540     1.6910 C.3   1 <1>   0.5240 
 15 C        2.6020     8.4070     1.0680 C.2   1 <1>  -0.1810 
 16 C        3.6590     8.4610     0.1530 C.2   1 <1>   0.2350 
 17 C        2.2210     9.6900     1.2450 C.2   1 <1>  -0.3020 
 18 N        3.8880     9.6900    -0.2170 N.2   1 <1>  -0.7070 
 19 C        4.3630     7.3100    -0.3670 C.ar  1 <1>   0.0540 
 20 N        3.0180    10.4450     0.4650 N.pl3 1 <1>   0.3140 
 21 C        4.3690     7.0480    -1.7340 C.ar  1 <1>  -0.1500 
 22 C        4.9920     6.3980     0.4780 C.ar  1 <1>  -0.1500 
 23 C        2.9880    11.9070     0.3290 C.3   1 <1>   0.0160 
 24 C        4.9350     5.8920    -2.2380 C.ar  1 <1>  -0.1500 
 25 C        5.5560     5.2380    -0.0210 C.ar  1 <1>  -0.1500 
 26 C        5.5210     4.9790    -1.3790 C.ar  1 <1>  -0.1500 
 27 H        1.9470     0.4640    -0.6860 H     1 <1>   0.1500 
 28 H        2.3660     4.2310    -1.5000 H     1 <1>   0.0800 
 29 H        1.2090     2.9820    -1.8390 H     1 <1>   0.0800 
 30 H        3.1730    -0.9580     1.6480 H     1 <1>   0.0800 
 31 H        4.8060    -0.3790     1.8860 H     1 <1>   0.0800 
 32 H        4.3300    -1.0250     0.3340 H     1 <1>   0.0800 
 33 H       -0.1080     3.4820     0.0960 H     1 <1>   0.0800 
 34 H       -0.0090     5.2840    -1.9660 H     1 <1>   0.0800 
 35 H        1.9740     4.2360     1.5720 H     1 <1>   0.0800 
 36 H        0.4330     5.0340     1.8010 H     1 <1>   0.0800 
 37 H       -1.3560     5.5250     0.5250 H     1 <1>   0.4000 
 38 H        0.2870     7.4370    -0.1960 H     1 <1>   0.0800 
 39 H        1.5260     6.9220    -1.3280 H     1 <1>   0.0800 
 40 H        2.7160     5.9410     0.2220 H     1 <1>   0.4500 
 41 H        1.0930     7.3970     2.1850 H     1 <1>   0.0800 
 42 H        2.7080     6.7660     2.4230 H     1 <1>   0.0800 
 43 H        1.4490    10.1150     1.8610 H     1 <1>   0.1500 
 44 H        3.9280     7.7680    -2.4030 H     1 <1>   0.1500 
 45 H        5.0490     6.5990     1.5330 H     1 <1>   0.1500 
 46 H        2.0410    12.2070    -0.0780 H     1 <1>   0.0800 
 47 H        3.7770    12.2160    -0.3320 H     1 <1>   0.0800 
 48 H        3.1330    12.3560     1.2940 H     1 <1>   0.0800 
 49 H        4.9310     5.7040    -3.2990 H     1 <1>   0.1500 
 50 H        6.0310     4.5320     0.6420 H     1 <1>   0.1500 
 51 H        5.9620     4.0750    -1.7650 H     1 <1>   0.1500 
@<TRIPOS>BOND
  1   1   2  1   
  2   1   3  1   
  3   2   4  2   
  4   3   5  2   
  5   3   6  1   
  6   4   5  1   
  7   4   7  1   
  8   5  27  1   
  9   6   8  1   
 10   6  28  1   
 11   6  29  1   
 12   7  30  1   
 13   7  31  1   
 14   7  32  1   
 15   8   9  1   
 16   8  10  1   
 17   8  33  1   
 18   9  11  1   
 19   9  12  1   
 20   9  34  1   
 21  10  13  1   
 22  10  35  1   
 23  10  36  1   
 24  11  37  1   
 25  12  13  1   
 26  12  38  1   
 27  12  39  1   
 28  13  14  1   
 29  13  40  1   
 30  14  15  1   
 31  14  41  1   
 32  14  42  1   
 33  15  16  1   
 34  15  17  2   
 35  16  18  2   
 36  16  19  1   
 37  17  20  1   
 38  17  43  1   
 39  18  20  1   
 40  19  21  ar  
 41  19  22  ar  
 42  20  23  1   
 43  21  24  ar  
 44  21  44  1   
 45  22  25  ar  
 46  22  45  1   
 47  23  46  1   
 48  23  47  1   
 49  23  48  1   
 50  24  26  ar  
 51  24  49  1   
 52  25  26  ar  
 53  25  50  1   
 54  26  51  1   
@<TRIPOS>SUBSTRUCTURE
  1 ****  13 GROUP 4 **** **** 0

# MOE 2024.06 (io_trps.svl 2023.06)
