@<TRIPOS>MOLECULE
NONAME
39 42 1 0 0 
SMALL
USER_CHARGES


@<TRIPOS>ATOM
  1 CL      -1.7520     0.2430     0.1050 Cl    1 <1>  -0.1770 
  2 C       -2.3840    -1.3630    -0.1510 C.ar  1 <1>   0.1770 
  3 C       -2.5600    -2.2010     0.9350 C.ar  1 <1>  -0.1500 
  4 C       -2.6990    -1.7680    -1.4440 C.ar  1 <1>  -0.1500 
  5 C       -3.0640    -3.4600     0.6700 C.ar  1 <1>   0.0400 
  6 C       -3.2040    -3.0410    -1.6700 C.ar  1 <1>  -0.1500 
  7 S       -3.4050    -4.7530     1.7970 S.3   1 <1>  -0.0800 
  8 C       -3.3930    -3.9070    -0.5990 C.ar  1 <1>   0.2270 
  9 C       -3.9500    -5.7570     0.4550 C.2   1 <1>   0.4620 
 10 N       -3.8890    -5.1970    -0.6950 N.2   1 <1>  -0.5650 
 11 N       -4.3900    -7.0100     0.7470 N.pl3 1 <1>  -0.8530 
 12 C       -4.8370    -7.9960    -0.2640 C.3   1 <1>   0.2890 
 13 C       -6.3510    -8.1380    -0.2630 C.3   1 <1>  -0.0800 
 14 C       -4.4240    -9.3930     0.1830 C.3   1 <1>   0.1200 
 15 C       -6.6010    -9.1360     0.8720 C.3   1 <1>   0.1200 
 16 C       -7.1510    -6.8280    -0.1410 C.3   1 <1>  -0.0160 
 17 O       -5.3890    -9.7940     1.1110 O.3   1 <1>  -0.5600 
 18 C       -8.6460    -7.0940    -0.2260 C.ar  1 <1>  -0.1430 
 19 C       -9.4410    -7.1720     0.9000 C.ar  1 <1>  -0.1500 
 20 C       -9.2840    -7.2750    -1.4360 C.ar  1 <1>  -0.1500 
 21 C      -10.7960    -7.4250     0.7650 C.ar  1 <1>   0.1600 
 22 C      -10.6470    -7.5230    -1.4610 C.ar  1 <1>   0.1600 
 23 N      -11.4180    -7.6050    -0.3900 N.ar  1 <1>  -0.6200 
 24 H       -2.3160    -1.8870     1.9330 H     1 <1>   0.1500 
 25 H       -2.5470    -1.0860    -2.2620 H     1 <1>   0.1500 
 26 H       -3.4530    -3.3750    -2.6610 H     1 <1>   0.1500 
 27 H       -4.4000    -7.3470     1.7140 H     1 <1>   0.4000 
 28 H       -4.4430    -7.7470    -1.2350 H     1 <1>   0.0800 
 29 H       -6.6360    -8.6200    -1.1820 H     1 <1>   0.0800 
 30 H       -3.4500    -9.4130     0.6380 H     1 <1>   0.0800 
 31 H       -4.4580   -10.0810    -0.6440 H     1 <1>   0.0800 
 32 H       -7.3510    -9.8620     0.6100 H     1 <1>   0.0800 
 33 H       -6.8800    -8.6360     1.7820 H     1 <1>   0.0800 
 34 H       -6.8610    -6.1570    -0.9320 H     1 <1>   0.0800 
 35 H       -6.9300    -6.3370     0.7910 H     1 <1>   0.0800 
 36 H       -9.0220    -7.0380     1.8800 H     1 <1>   0.1500 
 37 H       -8.7350    -7.2240    -2.3580 H     1 <1>   0.1500 
 38 H      -11.4010    -7.4830     1.6530 H     1 <1>   0.1500 
 39 H      -11.1270    -7.6610    -2.4150 H     1 <1>   0.1500 
@<TRIPOS>BOND
  1   1   2  1   
  2   2   3  ar  
  3   2   4  ar  
  4   3   5  ar  
  5   3  24  1   
  6   4   6  ar  
  7   4  25  1   
  8   5   7  1   
  9   5   8  ar  
 10   6   8  ar  
 11   6  26  1   
 12   7   9  1   
 13   8  10  1   
 14   9  10  2   
 15   9  11  1   
 16  11  12  1   
 17  11  27  1   
 18  12  13  1   
 19  12  14  1   
 20  12  28  1   
 21  13  15  1   
 22  13  16  1   
 23  13  29  1   
 24  14  17  1   
 25  14  30  1   
 26  14  31  1   
 27  15  17  1   
 28  15  32  1   
 29  15  33  1   
 30  16  18  1   
 31  16  34  1   
 32  16  35  1   
 33  18  19  ar  
 34  18  20  ar  
 35  19  21  ar  
 36  19  36  1   
 37  20  22  ar  
 38  20  37  1   
 39  21  23  ar  
 40  21  38  1   
 41  22  23  ar  
 42  22  39  1   
@<TRIPOS>SUBSTRUCTURE
  1 ****   9 GROUP 4 **** **** 0

# MOE 2024.06 (io_trps.svl 2023.06)
