@<TRIPOS>MOLECULE
NONAME
51 54 1 0 0 
SMALL
USER_CHARGES


@<TRIPOS>ATOM
  1 O       -1.4440     1.0730     0.9550 O.2   1 <1>  -0.5700 
  2 C       -0.9870     2.1800     1.0910 C.2   1 <1>   0.5690 
  3 N       -1.7390     3.2720     0.8310 N.am  1 <1>  -0.7300 
  4 C        0.4730     2.3570     1.5250 C.3   1 <1>   0.1810 
  5 C       -1.2440     4.6600     0.9880 C.3   1 <1>   0.3640 
  6 O        0.7780     3.6650     1.9610 O.3   1 <1>  -0.5600 
  7 C       -1.6990     5.4900    -0.2110 C.ar  1 <1>  -0.1440 
  8 C        0.2980     4.6970     1.1120 C.3   1 <1>   0.2610 
  9 C       -1.5600     5.0190    -1.5110 C.ar  1 <1>  -0.1500 
 10 C       -2.2430     6.7500    -0.0080 C.ar  1 <1>  -0.1500 
 11 C        0.7890     6.0780     1.5700 C.2   1 <1>   0.5690 
 12 C       -1.9560     5.7960    -2.5860 C.ar  1 <1>  -0.1500 
 13 C       -2.6400     7.5280    -1.0810 C.ar  1 <1>  -0.1500 
 14 O        0.0490     6.7570     2.2500 O.2   1 <1>  -0.5700 
 15 N        2.0260     6.5450     1.1970 N.am  1 <1>  -0.6600 
 16 C       -2.4960     7.0510    -2.3720 C.ar  1 <1>  -0.1500 
 17 C        2.3860     7.9770     1.4210 C.3   1 <1>   0.2840 
 18 C        3.1210     5.6840     0.6670 C.3   1 <1>   0.2350 
 19 C        2.3530     8.7380     0.1040 C.ar  1 <1>  -0.1430 
 20 C        3.0920     5.6040    -0.8660 C.3   1 <1>  -0.1950 
 21 C        1.1650     8.8500    -0.6020 C.ar  1 <1>  -0.1500 
 22 C        3.5040     9.3190    -0.4080 C.ar  1 <1>  -0.1500 
 23 C        2.5960     4.3980    -1.6090 C.3   1 <1>  -0.2000 
 24 C        4.0600     4.7100    -1.5770 C.3   1 <1>  -0.2000 
 25 C        1.1260     9.5290    -1.8070 C.ar  1 <1>  -0.1500 
 26 C        3.4660    10.0010    -1.6130 C.ar  1 <1>  -0.1500 
 27 C        2.2770    10.1060    -2.3130 C.ar  1 <1>  -0.1500 
 28 H       -2.7100     3.1530     0.5380 H     1 <1>   0.3700 
 29 H        1.1180     2.1170     0.7010 H     1 <1>   0.0800 
 30 H        0.6840     1.6850     2.3360 H     1 <1>   0.0800 
 31 H       -1.6800     5.0630     1.8860 H     1 <1>   0.0800 
 32 H        0.6970     4.5210     0.1360 H     1 <1>   0.0800 
 33 H       -1.1410     4.0450    -1.6970 H     1 <1>   0.1500 
 34 H       -2.3530     7.1400     0.9910 H     1 <1>   0.1500 
 35 H       -1.8440     5.4240    -3.5890 H     1 <1>   0.1500 
 36 H       -3.0580     8.5050    -0.9110 H     1 <1>   0.1500 
 37 H       -2.8040     7.6550    -3.2070 H     1 <1>   0.1500 
 38 H        1.6970     8.4420     2.1040 H     1 <1>   0.0800 
 39 H        3.3630     8.0370     1.8650 H     1 <1>   0.0800 
 40 H        4.0670     6.0950     0.9720 H     1 <1>   0.0800 
 41 H        3.0520     4.6960     1.0900 H     1 <1>   0.0800 
 42 H        2.9450     6.5670    -1.3230 H     1 <1>   0.1000 
 43 H        0.2650     8.4010    -0.2160 H     1 <1>   0.1500 
 44 H        4.4360     9.2430     0.1240 H     1 <1>   0.1500 
 45 H        2.2780     3.5140    -1.0870 H     1 <1>   0.1000 
 46 H        2.0500     4.5550    -2.5240 H     1 <1>   0.1000 
 47 H        4.5310     5.0710    -2.4760 H     1 <1>   0.1000 
 48 H        4.7090     4.0700    -1.0040 H     1 <1>   0.1000 
 49 H        0.1990     9.6060    -2.3480 H     1 <1>   0.1500 
 50 H        4.3620    10.4490    -2.0060 H     1 <1>   0.1500 
 51 H        2.2480    10.6340    -3.2490 H     1 <1>   0.1500 
@<TRIPOS>BOND
  1   1   2  2   
  2   2   3  am  
  3   2   4  1   
  4   3   5  1   
  5   3  28  1   
  6   4   6  1   
  7   4  29  1   
  8   4  30  1   
  9   5   7  1   
 10   5   8  1   
 11   5  31  1   
 12   6   8  1   
 13   7   9  ar  
 14   7  10  ar  
 15   8  11  1   
 16   8  32  1   
 17   9  12  ar  
 18   9  33  1   
 19  10  13  ar  
 20  10  34  1   
 21  11  14  2   
 22  11  15  am  
 23  12  16  ar  
 24  12  35  1   
 25  13  16  ar  
 26  13  36  1   
 27  15  17  1   
 28  15  18  1   
 29  16  37  1   
 30  17  19  1   
 31  17  38  1   
 32  17  39  1   
 33  18  20  1   
 34  18  40  1   
 35  18  41  1   
 36  19  21  ar  
 37  19  22  ar  
 38  20  23  1   
 39  20  24  1   
 40  20  42  1   
 41  21  25  ar  
 42  21  43  1   
 43  22  26  ar  
 44  22  44  1   
 45  23  24  1   
 46  23  45  1   
 47  23  46  1   
 48  24  47  1   
 49  24  48  1   
 50  25  27  ar  
 51  25  49  1   
 52  26  27  ar  
 53  26  50  1   
 54  27  51  1   
@<TRIPOS>SUBSTRUCTURE
  1 ****  11 GROUP 4 **** **** 0

# MOE 2024.06 (io_trps.svl 2023.06)
