@<TRIPOS>MOLECULE
NONAME
39 40 1 0 0 
SMALL
USER_CHARGES


@<TRIPOS>ATOM
  1 O        0.2080     4.5300    -0.4890 O.co2 1 <1>  -0.9000 
  2 C        0.9950     4.5120     0.4720 C.2   1 <1>   0.9790 
  3 O        0.5460     4.7150     1.6120 O.co2 1 <1>  -0.9000 
  4 C        2.3980     4.2300     0.2400 C.ar  1 <1>  -0.1790 
  5 C        3.4420     4.8000     0.9730 C.ar  1 <1>   0.1660 
  6 C        2.7530     3.3490    -0.7760 C.ar  1 <1>  -0.1500 
  7 N        4.7230     4.5570     0.7650 N.ar  1 <1>  -0.6200 
  8 C        3.1700     5.7890     2.0930 C.3   1 <1>  -0.0960 
  9 C        4.0820     3.0760    -1.0080 C.ar  1 <1>   0.0730 
 10 C        5.0410     3.7100    -0.2080 C.ar  1 <1>   0.4100 
 11 C        4.4710     2.1730    -2.0460 C.1   1 <1>   0.4840 
 12 N        6.3990     3.5200    -0.4110 N.pl3 1 <1>  -0.8380 
 13 N        4.7760     1.4700    -2.8940 N.1   1 <1>  -0.5570 
 14 C        7.0320     4.1410    -1.6040 C.3   1 <1>   0.2090 
 15 C        7.3620     3.5160     0.7260 C.3   1 <1>   0.2090 
 16 C        8.2450     4.8950    -1.0720 C.3   1 <1>  -0.0190 
 17 C        8.6580     4.0950     0.1660 C.3   1 <1>  -0.1600 
 18 C        7.8880     6.3410    -0.7460 C.2   1 <1>   0.5690 
 19 O        8.6430     7.2110    -1.1090 O.2   1 <1>  -0.5700 
 20 N        6.7430     6.6180    -0.0720 N.am  1 <1>  -0.7300 
 21 C        6.2130     7.9530     0.2420 C.3   1 <1>   0.1400 
 22 C        4.9200     8.1520    -0.5390 C.3   1 <1>  -0.2400 
 23 H        1.9750     2.8950    -1.3690 H     1 <1>   0.1500 
 24 H        2.4580     6.5270     1.7720 H     1 <1>   0.0800 
 25 H        4.0710     6.2900     2.3930 H     1 <1>   0.0800 
 26 H        2.7640     5.2660     2.9400 H     1 <1>   0.0800 
 27 H        6.3500     4.7950    -2.1210 H     1 <1>   0.0800 
 28 H        7.3480     3.3590    -2.2730 H     1 <1>   0.0800 
 29 H        7.5080     2.5120     1.0860 H     1 <1>   0.0800 
 30 H        7.0080     4.1300     1.5370 H     1 <1>   0.0800 
 31 H        9.0300     4.9000    -1.8060 H     1 <1>   0.0800 
 32 H        9.3010     3.2840    -0.1250 H     1 <1>   0.0800 
 33 H        9.1700     4.7000     0.8930 H     1 <1>   0.0800 
 34 H        6.1250     5.8270     0.1910 H     1 <1>   0.3700 
 35 H        6.9310     8.7090    -0.0290 H     1 <1>   0.0800 
 36 H        6.0240     8.0180     1.3000 H     1 <1>   0.0800 
 37 H        5.1160     8.1040    -1.5950 H     1 <1>   0.0800 
 38 H        4.5030     9.1160    -0.3120 H     1 <1>   0.0800 
 39 H        4.2000     7.3980    -0.2760 H     1 <1>   0.0800 
@<TRIPOS>BOND
  1   1   2  ar  
  2   2   3  ar  
  3   2   4  1   
  4   4   5  ar  
  5   4   6  ar  
  6   5   7  ar  
  7   5   8  1   
  8   6   9  ar  
  9   6  23  1   
 10   7  10  ar  
 11   8  24  1   
 12   8  25  1   
 13   8  26  1   
 14   9  10  ar  
 15   9  11  1   
 16  10  12  1   
 17  11  13  3   
 18  12  14  1   
 19  12  15  1   
 20  14  16  1   
 21  14  27  1   
 22  14  28  1   
 23  15  17  1   
 24  15  29  1   
 25  15  30  1   
 26  16  17  1   
 27  16  18  1   
 28  16  31  1   
 29  17  32  1   
 30  17  33  1   
 31  18  19  2   
 32  18  20  am  
 33  20  21  1   
 34  20  34  1   
 35  21  22  1   
 36  21  35  1   
 37  21  36  1   
 38  22  37  1   
 39  22  38  1   
 40  22  39  1   
@<TRIPOS>SUBSTRUCTURE
  1 ****  10 GROUP 4 **** **** 0

# MOE 2024.06 (io_trps.svl 2023.06)
