@<TRIPOS>MOLECULE
NONAME
51 53 1 0 0 
SMALL
USER_CHARGES


@<TRIPOS>ATOM
  1 S       -0.0630     1.7220     1.4350 S.3   1 <1>  -0.0800 
  2 C       -0.5290     1.9660    -0.2430 C.2   1 <1>  -0.1400 
  3 C        1.4330     0.9410     0.9520 C.2   1 <1>  -0.1100 
  4 C        0.4140     1.4770    -1.0680 C.2   1 <1>  -0.1500 
  5 C       -1.8490     2.6640    -0.5140 C.3   1 <1>   0.0200 
  6 C        1.5310     0.8920    -0.3890 C.2   1 <1>  -0.1500 
  7 C       -3.0390     1.7650    -0.1540 C.3   1 <1>  -0.1600 
  8 C       -4.3840     2.4620    -0.4400 C.3   1 <1>  -0.0990 
  9 C       -5.6150     1.6280    -0.0900 C.2   1 <1>   0.5690 
 10 O       -5.4750     0.4400     0.0860 O.2   1 <1>  -0.5700 
 11 N       -6.8440     2.2310     0.0070 N.am  1 <1>  -0.6600 
 12 C       -8.0310     1.4450     0.4590 C.3   1 <1>   0.1400 
 13 C       -7.0860     3.6720    -0.3060 C.3   1 <1>   0.1400 
 14 C       -8.9540     2.3240     1.3060 C.3   1 <1>  -0.1600 
 15 C       -8.5560     3.9090    -0.6530 C.3   1 <1>  -0.1600 
 16 C       -9.4830     3.5570     0.5320 C.3   1 <1>   0.2800 
 17 O       -9.3610     4.6470     1.4230 O.3   1 <1>  -0.5600 
 18 C      -10.9660     3.3370     0.0930 C.3   1 <1>   0.2000 
 19 C      -10.4970     5.3860     1.7740 C.3   1 <1>   0.1200 
 20 O      -11.0920     2.3350    -0.8770 O.3   1 <1>  -0.6800 
 21 C      -11.6980     4.6460    -0.3300 C.3   1 <1>   0.2800 
 22 C      -11.2070     5.8460     0.5000 C.3   1 <1>  -0.1600 
 23 O      -13.0370     4.4610    -0.0370 O.3   1 <1>  -0.6800 
 24 C      -11.6600     4.9730    -1.8300 C.3   1 <1>  -0.2400 
 25 H        2.0860     0.5980     1.7340 H     1 <1>   0.1500 
 26 H        0.3760     1.4990    -2.1430 H     1 <1>   0.1500 
 27 H       -1.8860     3.5750     0.0570 H     1 <1>   0.0800 
 28 H       -1.8970     2.9200    -1.5570 H     1 <1>   0.0800 
 29 H        2.3500     0.4650    -0.9410 H     1 <1>   0.1500 
 30 H       -2.9780     0.8530    -0.7240 H     1 <1>   0.0800 
 31 H       -2.9930     1.5030     0.8890 H     1 <1>   0.0800 
 32 H       -4.4400     2.7070    -1.4840 H     1 <1>   0.0800 
 33 H       -4.4200     3.3730     0.1280 H     1 <1>   0.0800 
 34 H       -8.5610     1.0770    -0.4040 H     1 <1>   0.0800 
 35 H       -7.7120     0.5970     1.0420 H     1 <1>   0.0800 
 36 H       -6.8190     4.2680     0.5500 H     1 <1>   0.0800 
 37 H       -6.4770     3.9740    -1.1400 H     1 <1>   0.0800 
 38 H       -8.3980     2.6400     2.1710 H     1 <1>   0.0800 
 39 H       -9.7700     1.7200     1.6530 H     1 <1>   0.0800 
 40 H       -8.7960     3.3080    -1.5110 H     1 <1>   0.0800 
 41 H       -8.6920     4.9370    -0.9290 H     1 <1>   0.0800 
 42 H      -11.4800     2.9600     0.9600 H     1 <1>   0.0800 
 43 H      -11.1360     4.7740     2.3890 H     1 <1>   0.0800 
 44 H      -10.1670     6.2320     2.3520 H     1 <1>   0.0800 
 45 H      -12.0430     2.2330    -1.0860 H     1 <1>   0.4000 
 46 H      -10.4980     6.4230    -0.0670 H     1 <1>   0.0800 
 47 H      -12.0230     6.5000     0.7510 H     1 <1>   0.0800 
 48 H      -13.5510     5.2260    -0.3590 H     1 <1>   0.4000 
 49 H      -10.6470     5.0710    -2.1680 H     1 <1>   0.0800 
 50 H      -12.1670     5.9000    -2.0300 H     1 <1>   0.0800 
 51 H      -12.1240     4.1910    -2.4050 H     1 <1>   0.0800 
@<TRIPOS>BOND
  1   1   2  1   
  2   1   3  1   
  3   2   4  2   
  4   2   5  1   
  5   3   6  2   
  6   3  25  1   
  7   4   6  1   
  8   4  26  1   
  9   5   7  1   
 10   5  27  1   
 11   5  28  1   
 12   6  29  1   
 13   7   8  1   
 14   7  30  1   
 15   7  31  1   
 16   8   9  1   
 17   8  32  1   
 18   8  33  1   
 19   9  10  2   
 20   9  11  am  
 21  11  12  1   
 22  11  13  1   
 23  12  14  1   
 24  12  34  1   
 25  12  35  1   
 26  13  15  1   
 27  13  36  1   
 28  13  37  1   
 29  14  16  1   
 30  14  38  1   
 31  14  39  1   
 32  15  16  1   
 33  15  40  1   
 34  15  41  1   
 35  16  17  1   
 36  16  18  1   
 37  17  19  1   
 38  18  20  1   
 39  18  21  1   
 40  18  42  1   
 41  19  22  1   
 42  19  43  1   
 43  19  44  1   
 44  20  45  1   
 45  21  22  1   
 46  21  23  1   
 47  21  24  1   
 48  22  46  1   
 49  22  47  1   
 50  23  48  1   
 51  24  49  1   
 52  24  50  1   
 53  24  51  1   
@<TRIPOS>SUBSTRUCTURE
  1 ****  11 GROUP 4 **** **** 0

# MOE 2024.06 (io_trps.svl 2023.06)
