@<TRIPOS>MOLECULE
NONAME
48 50 1 0 0 
SMALL
USER_CHARGES


@<TRIPOS>ATOM
  1 O       -0.6380    -1.6060    -0.6530 O.2   1 <1>  -0.5700 
  2 C        0.5590    -1.8050    -0.4970 C.2   1 <1>   0.7670 
  3 N        1.4030    -1.2870    -1.4400 N.2   1 <1>  -0.6610 
  4 C        1.0600    -2.5400     0.6250 C.2   1 <1>  -0.1240 
  5 C        2.6580    -1.4690    -1.2770 C.2   1 <1>   0.4390 
  6 C        2.4040    -2.7000     0.7480 C.2   1 <1>  -0.0380 
  7 C        0.0530    -3.1160     1.6270 C.3   1 <1>   0.0390 
  8 N        3.1890    -2.1470    -0.2240 N.pl3 1 <1>  -0.5500 
  9 C        3.6320    -0.9170    -2.2880 C.3   1 <1>  -0.1790 
 10 C        3.1530    -3.4400     1.8460 C.3   1 <1>  -0.1020 
 11 C       -0.1440    -4.6130     1.4420 C.2   1 <1>   0.5690 
 12 O        0.4410    -5.3500     2.2010 O.2   1 <1>  -0.5700 
 13 N       -0.9600    -5.1180     0.4660 N.am  1 <1>  -0.6600 
 14 C       -1.8430    -4.3660    -0.4650 C.3   1 <1>   0.1400 
 15 C       -1.1150    -6.5780     0.2350 C.3   1 <1>   0.1400 
 16 C       -2.9110    -5.3800    -0.8680 C.3   1 <1>   0.2000 
 17 C       -2.1460    -6.7060    -0.8930 C.3   1 <1>  -0.0800 
 18 O       -3.8670    -5.4160     0.1370 O.3   1 <1>  -0.6800 
 19 C       -3.0150    -7.9730    -0.8000 C.3   1 <1>   0.0210 
 20 C       -2.1560    -9.2210    -0.8380 C.2   1 <1>   0.1080 
 21 N       -1.5160    -9.6030    -1.8990 N.2   1 <1>  -0.7070 
 22 C       -1.9490   -10.0780     0.2380 C.2   1 <1>  -0.1500 
 23 N       -0.8780   -10.7280    -1.5240 N.pl3 1 <1>   0.3000 
 24 C       -1.1230   -11.0350    -0.2330 C.2   1 <1>  -0.3320 
 25 C       -0.5450   -12.2420     0.4820 C.3   1 <1>  -0.0600 
 26 H       -0.8970    -2.6200     1.5660 H     1 <1>   0.0800 
 27 H        0.4080    -2.9420     2.6250 H     1 <1>   0.0800 
 28 H        4.2050    -2.2460    -0.1790 H     1 <1>   0.4000 
 29 H        4.2960    -0.2190    -1.8130 H     1 <1>   0.0800 
 30 H        3.1000    -0.4060    -3.0700 H     1 <1>   0.0800 
 31 H        4.2010    -1.7160    -2.7240 H     1 <1>   0.0800 
 32 H        3.8730    -2.7860     2.3040 H     1 <1>   0.0800 
 33 H        3.6680    -4.2860     1.4270 H     1 <1>   0.0800 
 34 H        2.4990    -3.8010     2.6160 H     1 <1>   0.0800 
 35 H       -2.2830    -3.4960    -0.0100 H     1 <1>   0.0800 
 36 H       -1.2750    -4.0730    -1.3310 H     1 <1>   0.0800 
 37 H       -0.1740    -7.0230    -0.0440 H     1 <1>   0.0800 
 38 H       -1.4690    -7.0420     1.1400 H     1 <1>   0.0800 
 39 H       -3.3950    -5.1420    -1.8000 H     1 <1>   0.0800 
 40 H       -1.5980    -6.7500    -1.8180 H     1 <1>   0.0800 
 41 H       -3.4040    -5.4730     0.9970 H     1 <1>   0.4000 
 42 H       -3.6990    -8.0000    -1.6290 H     1 <1>   0.0800 
 43 H       -3.5920    -7.9730     0.1070 H     1 <1>   0.0800 
 44 H       -2.3690    -9.9740     1.2230 H     1 <1>   0.1500 
 45 H       -0.2850   -11.2610    -2.1720 H     1 <1>   0.2700 
 46 H       -0.8870   -12.2660     1.5010 H     1 <1>   0.0800 
 47 H        0.5300   -12.1940     0.4830 H     1 <1>   0.0800 
 48 H       -0.8560   -13.1480    -0.0060 H     1 <1>   0.0800 
@<TRIPOS>BOND
  1   1   2  2   
  2   2   3  1   
  3   2   4  1   
  4   3   5  2   
  5   4   6  2   
  6   4   7  1   
  7   5   8  1   
  8   5   9  1   
  9   6   8  1   
 10   6  10  1   
 11   7  11  1   
 12   7  26  1   
 13   7  27  1   
 14   8  28  1   
 15   9  29  1   
 16   9  30  1   
 17   9  31  1   
 18  10  32  1   
 19  10  33  1   
 20  10  34  1   
 21  11  12  2   
 22  11  13  am  
 23  13  14  1   
 24  13  15  1   
 25  14  16  1   
 26  14  35  1   
 27  14  36  1   
 28  15  17  1   
 29  15  37  1   
 30  15  38  1   
 31  16  17  1   
 32  16  18  1   
 33  16  39  1   
 34  17  19  1   
 35  17  40  1   
 36  18  41  1   
 37  19  20  1   
 38  19  42  1   
 39  19  43  1   
 40  20  21  2   
 41  20  22  1   
 42  21  23  1   
 43  22  24  2   
 44  22  44  1   
 45  23  24  1   
 46  23  45  1   
 47  24  25  1   
 48  25  46  1   
 49  25  47  1   
 50  25  48  1   
@<TRIPOS>SUBSTRUCTURE
  1 ****  13 GROUP 4 **** **** 0

# MOE 2024.06 (io_trps.svl 2023.06)
