@<TRIPOS>MOLECULE
NONAME
53 56 1 0 0 
SMALL
USER_CHARGES


@<TRIPOS>ATOM
  1 O       -0.5090    -0.6390    -1.2410 O.2   1 <1>  -0.5700 
  2 C        0.5230    -0.0200    -1.0370 C.2   1 <1>   0.5440 
  3 N        0.4630     1.3360    -0.8480 N.am  1 <1>  -0.6600 
  4 C        1.7620    -0.7370    -0.9830 C.ar  1 <1>   0.0860 
  5 C        1.6020     2.1860    -0.4360 C.3   1 <1>   0.1400 
  6 C       -0.7780     2.1300    -0.9830 C.3   1 <1>   0.1400 
  7 C        2.1270    -1.5410     0.1180 C.ar  1 <1>   0.4100 
  8 C        2.6160    -0.6850    -2.0760 C.ar  1 <1>  -0.1500 
  9 C        0.9640     3.5110    -0.0340 C.3   1 <1>  -0.1600 
 10 C       -0.3270     3.5800    -0.8460 C.3   1 <1>  -0.1600 
 11 N        3.2150    -2.3110     0.1070 N.ar  1 <1>  -0.6200 
 12 N        1.4270    -1.6270     1.3170 N.3   1 <1>  -0.5900 
 13 C        3.7590    -1.4480    -2.0500 C.ar  1 <1>  -0.1500 
 14 C        4.0040    -2.2430    -0.9470 C.ar  1 <1>   0.1600 
 15 C        0.0870    -1.1410     1.8250 C.3   1 <1>   0.2450 
 16 C        1.0990    -2.9560     1.9440 C.3   1 <1>   0.2450 
 17 C       -0.4060    -2.6130     1.6920 C.3   1 <1>   0.4720 
 18 N       -1.0060    -2.9050     0.3260 N.4   1 <1>  -0.9280 
 19 C       -2.4940    -2.9800     0.3400 C.3   1 <1>   0.4230 
 20 C       -0.3730    -4.0750    -0.3510 C.3   1 <1>   0.3430 
 21 C       -3.0210    -3.1140    -1.0960 C.3   1 <1>  -0.1600 
 22 C       -3.1000    -1.7290     0.9800 C.3   1 <1>  -0.2400 
 23 C       -0.8760    -4.2000    -1.7870 C.3   1 <1>  -0.1600 
 24 C       -2.4010    -4.3020    -1.8380 C.3   1 <1>  -0.1600 
 25 H        2.2600     2.3300    -1.2760 H     1 <1>   0.0800 
 26 H        2.1450     1.7450     0.3840 H     1 <1>   0.0800 
 27 H       -1.4540     1.8670    -0.1880 H     1 <1>   0.0800 
 28 H       -1.2490     1.9480    -1.9350 H     1 <1>   0.0800 
 29 H        2.3800    -0.0670    -2.9260 H     1 <1>   0.1500 
 30 H        1.6160     4.3440    -0.2280 H     1 <1>   0.0800 
 31 H        0.7340     3.4850     1.0170 H     1 <1>   0.0800 
 32 H       -1.0780     4.1890    -0.3740 H     1 <1>   0.0800 
 33 H       -0.1220     3.9760    -1.8250 H     1 <1>   0.0800 
 34 H        4.4510    -1.4380    -2.8740 H     1 <1>   0.1500 
 35 H        4.8950    -2.8500    -0.9340 H     1 <1>   0.1500 
 36 H       -0.4220    -0.4360     1.2020 H     1 <1>   0.0000 
 37 H        0.1640    -0.8100     2.8470 H     1 <1>   0.0000 
 38 H        1.3660    -2.9640     2.9870 H     1 <1>   0.0000 
 39 H        1.4810    -3.8030     1.4060 H     1 <1>   0.0000 
 40 H       -1.0530    -2.9340     2.4890 H     1 <1>   0.0000 
 41 H       -0.7900    -2.0830    -0.2720 H     1 <1>   0.4500 
 42 H       -2.8000    -3.8480     0.9030 H     1 <1>   0.0800 
 43 H       -0.6000    -4.9780     0.1920 H     1 <1>   0.0800 
 44 H        0.6980    -3.9510    -0.3790 H     1 <1>   0.0800 
 45 H       -2.8160    -2.2070    -1.6400 H     1 <1>   0.0800 
 46 H       -4.0890    -3.2380    -1.0730 H     1 <1>   0.0800 
 47 H       -2.7560    -0.8390     0.4820 H     1 <1>   0.0800 
 48 H       -2.8790    -1.6710     2.0290 H     1 <1>   0.0800 
 49 H       -4.1720    -1.7630     0.8880 H     1 <1>   0.0800 
 50 H       -0.4420    -5.0750    -2.2390 H     1 <1>   0.0800 
 51 H       -0.5450    -3.3460    -2.3540 H     1 <1>   0.0800 
 52 H       -2.7330    -4.3060    -2.8640 H     1 <1>   0.0800 
 53 H       -2.7220    -5.2250    -1.3830 H     1 <1>   0.0800 
@<TRIPOS>BOND
  1   1   2  2   
  2   2   3  am  
  3   2   4  1   
  4   3   5  1   
  5   3   6  1   
  6   4   7  ar  
  7   4   8  ar  
  8   5   9  1   
  9   5  25  1   
 10   5  26  1   
 11   6  10  1   
 12   6  27  1   
 13   6  28  1   
 14   7  11  ar  
 15   7  12  1   
 16   8  13  ar  
 17   8  29  1   
 18   9  10  1   
 19   9  30  1   
 20   9  31  1   
 21  10  32  1   
 22  10  33  1   
 23  11  14  ar  
 24  12  15  1   
 25  12  16  1   
 26  13  14  ar  
 27  13  34  1   
 28  14  35  1   
 29  15  17  1   
 30  15  36  1   
 31  15  37  1   
 32  16  17  1   
 33  16  38  1   
 34  16  39  1   
 35  17  18  1   
 36  17  40  1   
 37  18  19  1   
 38  18  20  1   
 39  18  41  1   
 40  19  21  1   
 41  19  22  1   
 42  19  42  1   
 43  20  23  1   
 44  20  43  1   
 45  20  44  1   
 46  21  24  1   
 47  21  45  1   
 48  21  46  1   
 49  22  47  1   
 50  22  48  1   
 51  22  49  1   
 52  23  24  1   
 53  23  50  1   
 54  23  51  1   
 55  24  52  1   
 56  24  53  1   
@<TRIPOS>SUBSTRUCTURE
  1 ****   1 GROUP 4 **** **** 0

# MOE 2024.06 (io_trps.svl 2023.06)
