@<TRIPOS>MOLECULE
NONAME
14 15 1 0 0 
SMALL
USER_CHARGES


@<TRIPOS>ATOM
  1 O       -0.3000     0.2320    -0.4030 O.co2 1 <1>  -0.9000 
  2 C       -0.8560     1.3310    -0.3160 C.2   1 <1>   0.8710 
  3 O       -0.3280     2.3740    -0.7110 O.co2 1 <1>  -0.9000 
  4 C       -2.2400     1.4000     0.2950 C.3   1 <1>  -0.0710 
  5 C       -3.1770     0.2220    -0.1130 C.3   1 <1>   0.0760 
  6 C       -3.2050     2.3910    -0.4260 C.3   1 <1>   0.0760 
  7 C       -4.2700     1.2910    -0.2810 C.3   1 <1>   0.2700 
  8 N       -5.6230     1.2170    -0.6740 N.2   1 <1>  -0.2110 
  9 N       -5.4170     1.3940     0.5360 N.2   1 <1>  -0.2110 
 10 H       -2.2260     1.5540     1.3610 H     1 <1>   0.0000 
 11 H       -3.3660    -0.4800     0.6790 H     1 <1>   0.0000 
 12 H       -2.9150    -0.2350    -1.0520 H     1 <1>   0.0000 
 13 H       -2.9510     2.5720    -1.4560 H     1 <1>   0.0000 
 14 H       -3.4150     3.2840     0.1370 H     1 <1>   0.0000 
@<TRIPOS>BOND
  1   1   2  ar  
  2   2   3  ar  
  3   2   4  1   
  4   4   5  1   
  5   4   6  1   
  6   4  10  1   
  7   5   7  1   
  8   5  11  1   
  9   5  12  1   
 10   6   7  1   
 11   6  13  1   
 12   6  14  1   
 13   7   8  1   
 14   7   9  1   
 15   8   9  2   
@<TRIPOS>SUBSTRUCTURE
  1 ****   4 GROUP 4 **** **** 0

# MOE 2024.06 (io_trps.svl 2023.06)
