@<TRIPOS>MOLECULE
NONAME
39 41 1 0 0 
SMALL
USER_CHARGES


@<TRIPOS>ATOM
  1 O       -3.3450     1.2190    -1.3320 O.2   1 <1>  -0.5700 
  2 C       -2.5840     0.9470    -0.4340 C.2   1 <1>   0.5690 
  3 N       -2.2510    -0.3370    -0.1500 N.am  1 <1>  -0.7300 
  4 C       -1.9950     2.0720     0.4190 C.3   1 <1>   0.1810 
  5 C       -2.7520    -1.5230    -0.8780 C.3   1 <1>   0.2200 
  6 O       -1.9140     1.7240     1.7750 O.3   1 <1>  -0.6800 
  7 C       -3.9870    -2.0540    -0.1740 C.3   1 <1>  -0.0800 
  8 C       -1.7750    -2.6870    -0.7330 C.3   1 <1>   0.1200 
  9 C       -3.3730    -2.9370     0.9130 C.3   1 <1>   0.1200 
 10 C       -4.8860    -2.8530    -1.1380 C.3   1 <1>  -0.0160 
 11 O       -2.1370    -3.3750     0.4290 O.3   1 <1>  -0.5600 
 12 C       -6.1810    -3.2910    -0.4610 C.ar  1 <1>  -0.1440 
 13 C       -7.2490    -2.3930    -0.2190 C.ar  1 <1>   0.0000 
 14 C       -6.3440    -4.5860    -0.0660 C.ar  1 <1>  -0.1500 
 15 C       -8.4000    -2.9020     0.4320 C.ar  1 <1>   0.3100 
 16 C       -7.2450    -1.0260    -0.5840 C.ar  1 <1>  -0.1500 
 17 C       -7.5270    -4.9880     0.5660 C.ar  1 <1>   0.1600 
 18 N       -8.5220    -4.1980     0.8170 N.ar  1 <1>  -0.6200 
 19 C       -9.4720    -2.0340     0.6940 C.ar  1 <1>  -0.1500 
 20 C       -8.3070    -0.2080    -0.3140 C.ar  1 <1>  -0.1500 
 21 C       -9.4360    -0.7150     0.3340 C.ar  1 <1>  -0.1500 
 22 H       -1.6740    -0.5270     0.6760 H     1 <1>   0.3700 
 23 H       -2.6060     2.9530     0.3330 H     1 <1>   0.0800 
 24 H       -1.0030     2.2990     0.0750 H     1 <1>   0.0800 
 25 H       -2.9300    -1.2690    -1.9100 H     1 <1>   0.0800 
 26 H       -2.8100     1.5840     2.1410 H     1 <1>   0.4000 
 27 H       -4.5590    -1.2550     0.2630 H     1 <1>   0.0800 
 28 H       -0.7520    -2.3630    -0.6570 H     1 <1>   0.0800 
 29 H       -1.8790    -3.3710    -1.5570 H     1 <1>   0.0800 
 30 H       -3.9790    -3.7910     1.1610 H     1 <1>   0.0800 
 31 H       -3.1860    -2.3630     1.8040 H     1 <1>   0.0800 
 32 H       -4.3560    -3.7190    -1.4950 H     1 <1>   0.0800 
 33 H       -5.1250    -2.2570    -2.0010 H     1 <1>   0.0800 
 34 H       -5.5780    -5.3240    -0.2220 H     1 <1>   0.1500 
 35 H       -6.3900    -0.6120    -1.0860 H     1 <1>   0.1500 
 36 H       -7.6130    -6.0190     0.8620 H     1 <1>   0.1500 
 37 H      -10.3300    -2.4470     1.1900 H     1 <1>   0.1500 
 38 H       -8.2890     0.8310    -0.5970 H     1 <1>   0.1500 
 39 H      -10.2660    -0.0610     0.5410 H     1 <1>   0.1500 
@<TRIPOS>BOND
  1   1   2  2   
  2   2   3  am  
  3   2   4  1   
  4   3   5  1   
  5   3  22  1   
  6   4   6  1   
  7   4  23  1   
  8   4  24  1   
  9   5   7  1   
 10   5   8  1   
 11   5  25  1   
 12   6  26  1   
 13   7   9  1   
 14   7  10  1   
 15   7  27  1   
 16   8  11  1   
 17   8  28  1   
 18   8  29  1   
 19   9  11  1   
 20   9  30  1   
 21   9  31  1   
 22  10  12  1   
 23  10  32  1   
 24  10  33  1   
 25  12  13  ar  
 26  12  14  ar  
 27  13  15  ar  
 28  13  16  ar  
 29  14  17  ar  
 30  14  34  1   
 31  15  18  ar  
 32  15  19  ar  
 33  16  20  ar  
 34  16  35  1   
 35  17  18  ar  
 36  17  36  1   
 37  19  21  ar  
 38  19  37  1   
 39  20  21  ar  
 40  20  38  1   
 41  21  39  1   
@<TRIPOS>SUBSTRUCTURE
  1 ****   7 GROUP 4 **** **** 0

# MOE 2024.06 (io_trps.svl 2023.06)
