@<TRIPOS>MOLECULE
NONAME
51 54 1 0 0 
SMALL
USER_CHARGES


@<TRIPOS>ATOM
  1 O        0.1380    -0.7810     0.6140 O.3   1 <1>  -0.5600 
  2 C       -1.0210    -1.1890    -0.0570 C.3   1 <1>   0.1200 
  3 C        0.6990    -1.7850     1.4130 C.3   1 <1>   0.1200 
  4 C       -0.7320    -2.3710    -0.9990 C.3   1 <1>   0.2090 
  5 C        1.1040    -3.0070     0.5690 C.3   1 <1>   0.2090 
  6 N       -0.0380    -3.4840    -0.2760 N.pl3 1 <1>  -0.8380 
  7 C       -0.2180    -4.8080    -0.6020 C.ar  1 <1>   0.7200 
  8 N        0.5720    -5.7010    -0.0060 N.ar  1 <1>  -0.6200 
  9 N       -1.1720    -5.1000    -1.4860 N.ar  1 <1>  -0.6200 
 10 C        0.3860    -6.9560    -0.3150 C.ar  1 <1>   0.1600 
 11 C       -1.3400    -6.3610    -1.7810 C.ar  1 <1>   0.1600 
 12 C       -0.5890    -7.3550    -1.1990 C.ar  1 <1>  -0.1430 
 13 C       -0.8340    -8.8130    -1.5120 C.3   1 <1>   0.4860 
 14 N       -1.5580    -9.4550    -0.3710 N.4   1 <1>  -0.9590 
 15 C       -1.6980   -10.9360    -0.5810 C.3   1 <1>   0.3430 
 16 C       -2.8820    -8.8040    -0.1090 C.3   1 <1>   0.3430 
 17 C       -2.3520   -11.6280     0.6310 C.3   1 <1>   0.0580 
 18 C       -3.5340    -9.4360     1.1220 C.3   1 <1>  -0.1600 
 19 C       -2.5620   -13.1260     0.4050 C.2   1 <1>  -0.0380 
 20 C       -3.6930   -10.9580     0.9770 C.3   1 <1>  -0.1600 
 21 N       -2.7610   -13.9160     1.5100 N.pl3 1 <1>  -0.5500 
 22 C       -2.5800   -13.7650    -0.7910 C.2   1 <1>  -0.1360 
 23 C       -2.9590   -15.2660     1.3970 C.2   1 <1>   0.4400 
 24 C       -2.7860   -15.1690    -0.8560 C.2   1 <1>   0.7670 
 25 N       -2.9760   -15.8970     0.2840 N.2   1 <1>  -0.6610 
 26 O       -2.7910   -15.7350    -1.9350 O.2   1 <1>  -0.5700 
 27 H       -1.3870    -0.3490    -0.6200 H     1 <1>   0.0800 
 28 H       -1.7620    -1.4660     0.6720 H     1 <1>   0.0800 
 29 H       -0.0180    -2.0700     2.1620 H     1 <1>   0.0800 
 30 H        1.5630    -1.3710     1.9010 H     1 <1>   0.0800 
 31 H       -0.1090    -2.0330    -1.8090 H     1 <1>   0.0800 
 32 H       -1.6650    -2.7050    -1.4170 H     1 <1>   0.0800 
 33 H        1.4400    -3.7810     1.2360 H     1 <1>   0.0800 
 34 H        1.9270    -2.7380    -0.0690 H     1 <1>   0.0800 
 35 H        1.0330    -7.6740     0.1610 H     1 <1>   0.1500 
 36 H       -2.1060    -6.5930    -2.5030 H     1 <1>   0.1500 
 37 H        0.1130    -9.3040    -1.6730 H     1 <1>   0.0800 
 38 H       -1.4160    -8.8990    -2.4150 H     1 <1>   0.0800 
 39 H       -0.9900    -9.3010     0.4730 H     1 <1>   0.4500 
 40 H       -0.7290   -11.3780    -0.7520 H     1 <1>   0.0800 
 41 H       -2.3070   -11.1150    -1.4520 H     1 <1>   0.0800 
 42 H       -3.5290    -8.9290    -0.9620 H     1 <1>   0.0800 
 43 H       -2.7520    -7.7460     0.0650 H     1 <1>   0.0800 
 44 H       -1.6800   -11.5170     1.4640 H     1 <1>   0.0800 
 45 H       -4.5040    -8.9920     1.2660 H     1 <1>   0.0800 
 46 H       -2.9480    -9.2060     1.9950 H     1 <1>   0.0800 
 47 H       -4.0830   -11.3660     1.8940 H     1 <1>   0.0800 
 48 H       -4.4090   -11.1690     0.2000 H     1 <1>   0.0800 
 49 H       -2.7790   -13.5240     2.4570 H     1 <1>   0.4000 
 50 H       -2.4510   -13.2900    -1.7420 H     1 <1>   0.1500 
 51 H       -3.1090   -15.8110     2.3140 H     1 <1>   0.0600 
@<TRIPOS>BOND
  1   1   2  1   
  2   1   3  1   
  3   2   4  1   
  4   2  27  1   
  5   2  28  1   
  6   3   5  1   
  7   3  29  1   
  8   3  30  1   
  9   4   6  1   
 10   4  31  1   
 11   4  32  1   
 12   5   6  1   
 13   5  33  1   
 14   5  34  1   
 15   6   7  1   
 16   7   8  ar  
 17   7   9  ar  
 18   8  10  ar  
 19   9  11  ar  
 20  10  12  ar  
 21  10  35  1   
 22  11  12  ar  
 23  11  36  1   
 24  12  13  1   
 25  13  14  1   
 26  13  37  1   
 27  13  38  1   
 28  14  15  1   
 29  14  16  1   
 30  14  39  1   
 31  15  17  1   
 32  15  40  1   
 33  15  41  1   
 34  16  18  1   
 35  16  42  1   
 36  16  43  1   
 37  17  19  1   
 38  17  20  1   
 39  17  44  1   
 40  18  20  1   
 41  18  45  1   
 42  18  46  1   
 43  19  21  1   
 44  19  22  2   
 45  20  47  1   
 46  20  48  1   
 47  21  23  1   
 48  21  49  1   
 49  22  24  1   
 50  22  50  1   
 51  23  25  2   
 52  23  51  1   
 53  24  25  1   
 54  24  26  2   
@<TRIPOS>SUBSTRUCTURE
  1 ****  14 GROUP 4 **** **** 0

# MOE 2024.06 (io_trps.svl 2023.06)
