@<TRIPOS>MOLECULE
NONAME
54 56 1 0 0 
SMALL
USER_CHARGES


@<TRIPOS>ATOM
  1 O       -1.0240     0.1990    -1.4990 O.2   1 <1>  -0.5700 
  2 C       -1.6890     0.7670    -0.6530 C.2   1 <1>   0.5440 
  3 N       -2.7770     0.1260    -0.1000 N.am  1 <1>  -0.6600 
  4 C       -1.3240     2.1150    -0.2570 C.ar  1 <1>   0.0860 
  5 C       -3.1030    -1.3060    -0.3910 C.3   1 <1>   0.1400 
  6 C       -3.7490     0.7850     0.8200 C.3   1 <1>   0.1400 
  7 C       -0.6850     2.3980     0.9540 C.ar  1 <1>  -0.1440 
  8 C       -1.6210     3.1810    -1.1020 C.ar  1 <1>  -0.1500 
  9 C       -4.5200    -1.4070    -0.9740 C.3   1 <1>   0.2000 
 10 C       -5.1700     0.6690     0.2530 C.3   1 <1>  -0.1600 
 11 C       -0.3820     3.7060     1.2900 C.ar  1 <1>  -0.1500 
 12 C       -0.3130     1.2720     1.9120 C.3   1 <1>  -0.0960 
 13 C       -1.3180     4.4910    -0.7700 C.ar  1 <1>  -0.1440 
 14 O       -4.8120    -2.7360    -1.2400 O.3   1 <1>  -0.6800 
 15 C       -5.5890    -0.8050    -0.0250 C.3   1 <1>  -0.1060 
 16 C       -0.6930     4.7570     0.4420 C.ar  1 <1>  -0.1440 
 17 C       -1.6750     5.6040    -1.7440 C.3   1 <1>  -0.0970 
 18 C       -5.6410    -1.6420     1.2700 C.2   1 <1>   0.9060 
 19 C       -6.9740    -0.8540    -0.7280 C.3   1 <1>  -0.0160 
 20 C       -0.3380     6.1770     0.8590 C.3   1 <1>  -0.0960 
 21 O       -5.7050    -2.8780     1.1740 O.co2 1 <1>  -0.9000 
 22 O       -5.6090    -1.0980     2.3800 O.co2 1 <1>  -0.9000 
 23 C       -8.0410     0.0650    -0.1360 C.ar  1 <1>  -0.1440 
 24 C       -8.5780    -0.1920     1.1160 C.ar  1 <1>  -0.1500 
 25 C       -8.4890     1.1680    -0.8490 C.ar  1 <1>  -0.1500 
 26 C       -9.5460     0.6400     1.6490 C.ar  1 <1>  -0.1500 
 27 C       -9.4600     2.0010    -0.3180 C.ar  1 <1>  -0.1500 
 28 C       -9.9890     1.7370     0.9330 C.ar  1 <1>  -0.1500 
 29 H       -2.4030    -1.7180    -1.0960 H     1 <1>   0.0800 
 30 H       -3.0430    -1.8710     0.5230 H     1 <1>   0.0800 
 31 H       -3.6950     0.3090     1.7840 H     1 <1>   0.0800 
 32 H       -3.5110     1.8240     0.9560 H     1 <1>   0.0800 
 33 H       -2.1020     2.9570    -2.0370 H     1 <1>   0.1500 
 34 H       -4.5270    -0.8930    -1.9180 H     1 <1>   0.0800 
 35 H       -5.8470     1.1060     0.9660 H     1 <1>   0.0800 
 36 H       -5.2320     1.2470    -0.6510 H     1 <1>   0.0800 
 37 H        0.1050     3.9100     2.2270 H     1 <1>   0.1500 
 38 H        0.3120     1.6320     2.7090 H     1 <1>   0.0800 
 39 H        0.2210     0.5010     1.3860 H     1 <1>   0.0800 
 40 H       -1.2010     0.8440     2.3410 H     1 <1>   0.0800 
 41 H       -5.1510    -3.1140    -0.3710 H     1 <1>   0.4000 
 42 H       -2.1420     5.2080    -2.6280 H     1 <1>   0.0800 
 43 H       -0.7870     6.1320    -2.0410 H     1 <1>   0.0800 
 44 H       -2.3570     6.2940    -1.2820 H     1 <1>   0.0800 
 45 H       -6.8450    -0.6000    -1.7640 H     1 <1>   0.0800 
 46 H       -7.3440    -1.8650    -0.7070 H     1 <1>   0.0800 
 47 H        0.1310     6.1900     1.8260 H     1 <1>   0.0800 
 48 H       -1.2260     6.7800     0.9070 H     1 <1>   0.0800 
 49 H        0.3430     6.6090     0.1480 H     1 <1>   0.0800 
 50 H       -8.2340    -1.0410     1.6860 H     1 <1>   0.1500 
 51 H       -8.0820     1.3820    -1.8200 H     1 <1>   0.1500 
 52 H       -9.9460     0.4280     2.6250 H     1 <1>   0.1500 
 53 H       -9.8010     2.8530    -0.8780 H     1 <1>   0.1500 
 54 H      -10.7400     2.3830     1.3490 H     1 <1>   0.1500 
@<TRIPOS>BOND
  1   1   2  2   
  2   2   3  am  
  3   2   4  1   
  4   3   5  1   
  5   3   6  1   
  6   4   7  ar  
  7   4   8  ar  
  8   5   9  1   
  9   5  29  1   
 10   5  30  1   
 11   6  10  1   
 12   6  31  1   
 13   6  32  1   
 14   7  11  ar  
 15   7  12  1   
 16   8  13  ar  
 17   8  33  1   
 18   9  14  1   
 19   9  15  1   
 20   9  34  1   
 21  10  15  1   
 22  10  35  1   
 23  10  36  1   
 24  11  16  ar  
 25  11  37  1   
 26  12  38  1   
 27  12  39  1   
 28  12  40  1   
 29  13  16  ar  
 30  13  17  1   
 31  14  41  1   
 32  15  18  1   
 33  15  19  1   
 34  16  20  1   
 35  17  42  1   
 36  17  43  1   
 37  17  44  1   
 38  18  21  ar  
 39  18  22  ar  
 40  19  23  1   
 41  19  45  1   
 42  19  46  1   
 43  20  47  1   
 44  20  48  1   
 45  20  49  1   
 46  23  24  ar  
 47  23  25  ar  
 48  24  26  ar  
 49  24  50  1   
 50  25  27  ar  
 51  25  51  1   
 52  26  28  ar  
 53  26  52  1   
 54  27  28  ar  
 55  27  53  1   
 56  28  54  1   
@<TRIPOS>SUBSTRUCTURE
  1 ****   6 GROUP 4 **** **** 0

# MOE 2024.06 (io_trps.svl 2023.06)
