@<TRIPOS>MOLECULE
NONAME
49 52 1 0 0 
SMALL
USER_CHARGES


@<TRIPOS>ATOM
  1 CL       0.3420     2.1030     1.4550 Cl    1 <1>  -0.1770 
  2 C       -0.8200     3.1580     0.6890 C.ar  1 <1>   0.1770 
  3 C       -2.0850     2.6820     0.4060 C.ar  1 <1>  -0.1500 
  4 C       -0.4490     4.4520     0.3790 C.ar  1 <1>  -0.1500 
  5 C       -3.0150     3.5150    -0.2030 C.ar  1 <1>   0.1170 
  6 C       -1.3660     5.2920    -0.2310 C.ar  1 <1>  -0.1500 
  7 N       -4.3180     3.1050    -0.5250 N.am  1 <1>  -0.5470 
  8 C       -2.6470     4.8290    -0.5240 C.ar  1 <1>   0.0830 
  9 C       -5.1340     2.1080    -0.0780 C.2   1 <1>   0.6900 
 10 O       -3.5970     5.6110    -1.1230 O.3   1 <1>  -0.3630 
 11 O       -4.6950     1.2000     0.6030 O.2   1 <1>  -0.5700 
 12 N       -6.4710     2.1640    -0.3890 N.am  1 <1>  -0.6600 
 13 C       -3.3170     6.9370    -1.5170 C.3   1 <1>   0.0400 
 14 C       -7.1670     3.3770    -0.9200 C.3   1 <1>   0.1400 
 15 C       -7.4210     1.1190     0.0840 C.3   1 <1>   0.1400 
 16 C       -7.9930     4.0410     0.1970 C.3   1 <1>   0.1430 
 17 C       -8.3030     1.6960     1.1990 C.3   1 <1>  -0.1600 
 18 C       -8.7390     5.2500    -0.3360 C.ar  1 <1>   0.1670 
 19 C       -8.9890     3.0150     0.7860 C.3   1 <1>  -0.1600 
 20 C       -7.0940     4.6710     1.2960 C.3   1 <1>  -0.1600 
 21 N       -9.4400     5.2830    -1.4450 N.ar  1 <1>  -0.6200 
 22 C       -8.5910     6.3320     0.4820 C.ar  1 <1>  -0.1430 
 23 C       -7.7330     6.0170     1.6810 C.3   1 <1>  -0.0170 
 24 C       -9.9840     6.4630    -1.7020 C.ar  1 <1>   0.7200 
 25 C       -9.2140     7.5010     0.1160 C.ar  1 <1>   0.1600 
 26 N       -9.9240     7.5780    -0.9870 N.ar  1 <1>  -0.6200 
 27 N      -10.7080     6.5340    -2.8190 N.pl3 1 <1>  -0.9000 
 28 H       -2.3300     1.6680     0.6580 H     1 <1>   0.1500 
 29 H        0.5440     4.7910     0.6120 H     1 <1>   0.1500 
 30 H       -1.0610     6.2940    -0.4660 H     1 <1>   0.1500 
 31 H       -4.7940     3.7780    -1.1170 H     1 <1>   0.3700 
 32 H       -4.2020     7.3460    -1.9720 H     1 <1>   0.0800 
 33 H       -2.5120     6.9270    -2.2310 H     1 <1>   0.0800 
 34 H       -3.0550     7.5140    -0.6470 H     1 <1>   0.0800 
 35 H       -7.8270     3.0760    -1.7160 H     1 <1>   0.0800 
 36 H       -6.4780     4.0900    -1.3320 H     1 <1>   0.0800 
 37 H       -6.8900     0.2550     0.4460 H     1 <1>   0.0800 
 38 H       -8.0340     0.8060    -0.7440 H     1 <1>   0.0800 
 39 H       -7.6910     1.8510     2.0690 H     1 <1>   0.0800 
 40 H       -9.0520     0.9700     1.4630 H     1 <1>   0.0800 
 41 H       -9.7300     2.7930     0.0360 H     1 <1>   0.0800 
 42 H       -9.5030     3.4410     1.6290 H     1 <1>   0.0800 
 43 H       -6.1190     4.8740     0.8880 H     1 <1>   0.0800 
 44 H       -6.9660     4.0340     2.1520 H     1 <1>   0.0800 
 45 H       -6.9880     6.7740     1.8530 H     1 <1>   0.0800 
 46 H       -8.3550     5.9070     2.5520 H     1 <1>   0.0800 
 47 H       -9.1280     8.3800     0.7320 H     1 <1>   0.1500 
 48 H      -11.3570     7.3150    -2.8610 H     1 <1>   0.4000 
 49 H      -11.0370     5.6440    -3.1800 H     1 <1>   0.4000 
@<TRIPOS>BOND
  1   1   2  1   
  2   2   3  ar  
  3   2   4  ar  
  4   3   5  ar  
  5   3  28  1   
  6   4   6  ar  
  7   4  29  1   
  8   5   7  1   
  9   5   8  ar  
 10   6   8  ar  
 11   6  30  1   
 12   7   9  am  
 13   7  31  1   
 14   8  10  1   
 15   9  11  2   
 16   9  12  am  
 17  10  13  1   
 18  12  14  1   
 19  12  15  1   
 20  13  32  1   
 21  13  33  1   
 22  13  34  1   
 23  14  16  1   
 24  14  35  1   
 25  14  36  1   
 26  15  17  1   
 27  15  37  1   
 28  15  38  1   
 29  16  18  1   
 30  16  19  1   
 31  16  20  1   
 32  17  19  1   
 33  17  39  1   
 34  17  40  1   
 35  18  21  ar  
 36  18  22  ar  
 37  19  41  1   
 38  19  42  1   
 39  20  23  1   
 40  20  43  1   
 41  20  44  1   
 42  21  24  ar  
 43  22  23  1   
 44  22  25  ar  
 45  23  45  1   
 46  23  46  1   
 47  24  26  ar  
 48  24  27  1   
 49  25  26  ar  
 50  25  47  1   
 51  27  48  1   
 52  27  49  1   
@<TRIPOS>SUBSTRUCTURE
  1 ****  14 GROUP 4 **** **** 0

# MOE 2024.06 (io_trps.svl 2023.06)
