@<TRIPOS>MOLECULE
NONAME
52 55 1 0 0 
SMALL
USER_CHARGES


@<TRIPOS>ATOM
  1 O        3.9140     2.2740    -3.2450 O.2   1 <1>  -0.5700 
  2 C        3.7020     2.1280    -2.0480 C.2   1 <1>   0.4690 
  3 C        4.4950     1.2390    -1.2530 C.ar  1 <1>   0.0860 
  4 C        2.7420     2.9210    -1.3790 C.2   1 <1>  -0.1360 
  5 C        4.5800     1.4820     0.1290 C.ar  1 <1>   0.1000 
  6 C        5.1920     0.1600    -1.8080 C.ar  1 <1>  -0.1500 
  7 C        2.8170     3.1210    -0.0410 C.2   1 <1>  -0.0380 
  8 N        3.8660     2.5670     0.6770 N.pl3 1 <1>  -0.5690 
  9 C        5.3680     0.6240     0.9040 C.ar  1 <1>  -0.1500 
 10 C        5.9720    -0.6600    -1.0260 C.ar  1 <1>  -0.1500 
 11 C        1.7610     3.9480     0.6790 C.3   1 <1>  -0.1020 
 12 C        4.3690     3.2060     1.9580 C.3   1 <1>   0.2700 
 13 C        6.0600    -0.4230     0.3380 C.ar  1 <1>  -0.1500 
 14 C        5.8420     3.6340     1.8540 C.2   1 <1>   0.5690 
 15 O        6.6460     3.0060     2.5020 O.2   1 <1>  -0.5700 
 16 N        6.2650     4.6370     1.0060 N.am  1 <1>  -0.6600 
 17 C        7.7470     4.8110     0.7470 C.3   1 <1>   0.2200 
 18 C        5.3420     5.5280     0.2230 C.3   1 <1>   0.1400 
 19 C        8.2340     6.2800     0.7790 C.3   1 <1>   0.1200 
 20 C        8.1660     4.0780    -0.5530 C.3   1 <1>   0.3430 
 21 C        5.8720     5.8790    -1.1870 C.3   1 <1>  -0.0800 
 22 O        7.4200     7.2000     0.1080 O.3   1 <1>  -0.5600 
 23 N        6.9950     3.5930    -1.3660 N.4   1 <1>  -0.9590 
 24 C        7.0240     6.9050    -1.1890 C.3   1 <1>   0.1200 
 25 C        6.2030     4.6560    -2.0600 C.3   1 <1>   0.3430 
 26 C        7.3830     2.5150    -2.3220 C.3   1 <1>   0.2630 
 27 H        1.9710     3.3530    -1.9890 H     1 <1>   0.1500 
 28 H        5.1040    -0.0300    -2.8650 H     1 <1>   0.1500 
 29 H        5.4390     0.7610     1.9680 H     1 <1>   0.1500 
 30 H        6.5030    -1.4920    -1.4590 H     1 <1>   0.1500 
 31 H        1.4080     3.4170     1.5460 H     1 <1>   0.0800 
 32 H        0.9170     4.1240     0.0350 H     1 <1>   0.0800 
 33 H        2.1510     4.9020     0.9820 H     1 <1>   0.0800 
 34 H        3.7920     4.0710     2.2160 H     1 <1>   0.0800 
 35 H        4.2630     2.5030     2.7640 H     1 <1>   0.0800 
 36 H        6.6620    -1.0710     0.9550 H     1 <1>   0.1500 
 37 H        8.3000     4.3320     1.5360 H     1 <1>   0.0800 
 38 H        4.3840     5.0670     0.1120 H     1 <1>   0.0800 
 39 H        5.1840     6.4360     0.7820 H     1 <1>   0.0800 
 40 H        9.2280     6.3590     0.3750 H     1 <1>   0.0800 
 41 H        8.2770     6.6040     1.8040 H     1 <1>   0.0800 
 42 H        8.7630     3.2300    -0.2620 H     1 <1>   0.0800 
 43 H        8.7930     4.7200    -1.1480 H     1 <1>   0.0800 
 44 H        5.0620     6.3740    -1.6940 H     1 <1>   0.0800 
 45 H        6.3530     3.1920    -0.6580 H     1 <1>   0.4500 
 46 H        6.6780     7.8310    -1.6180 H     1 <1>   0.0800 
 47 H        7.8810     6.5810    -1.7540 H     1 <1>   0.0800 
 48 H        6.7360     4.9890    -2.9360 H     1 <1>   0.0800 
 49 H        5.2760     4.2210    -2.4010 H     1 <1>   0.0800 
 50 H        8.1190     2.8770    -3.0200 H     1 <1>   0.0800 
 51 H        6.5190     2.1810    -2.8760 H     1 <1>   0.0800 
 52 H        7.7920     1.6720    -1.7880 H     1 <1>   0.0800 
@<TRIPOS>BOND
  1   1   2  2   
  2   2   3  1   
  3   2   4  1   
  4   3   5  ar  
  5   3   6  ar  
  6   4   7  2   
  7   4  27  1   
  8   5   8  1   
  9   5   9  ar  
 10   6  10  ar  
 11   6  28  1   
 12   7   8  1   
 13   7  11  1   
 14   8  12  1   
 15   9  13  ar  
 16   9  29  1   
 17  10  13  ar  
 18  10  30  1   
 19  11  31  1   
 20  11  32  1   
 21  11  33  1   
 22  12  14  1   
 23  12  34  1   
 24  12  35  1   
 25  13  36  1   
 26  14  15  2   
 27  14  16  am  
 28  16  17  1   
 29  16  18  1   
 30  17  19  1   
 31  17  20  1   
 32  17  37  1   
 33  18  21  1   
 34  18  38  1   
 35  18  39  1   
 36  19  22  1   
 37  19  40  1   
 38  19  41  1   
 39  20  23  1   
 40  20  42  1   
 41  20  43  1   
 42  21  24  1   
 43  21  25  1   
 44  21  44  1   
 45  22  24  1   
 46  23  25  1   
 47  23  26  1   
 48  23  45  1   
 49  24  46  1   
 50  24  47  1   
 51  25  48  1   
 52  25  49  1   
 53  26  50  1   
 54  26  51  1   
 55  26  52  1   
@<TRIPOS>SUBSTRUCTURE
  1 ****  23 GROUP 4 **** **** 0

# MOE 2024.06 (io_trps.svl 2023.06)
