@<TRIPOS>MOLECULE
NONAME
44 46 1 0 0 
SMALL
USER_CHARGES


@<TRIPOS>ATOM
  1 O       -0.2250    -0.7400     1.4690 O.3   1 <1>  -0.3630 
  2 C       -1.2260    -1.1870     0.6700 C.ar  1 <1>   0.0830 
  3 C        0.9740    -1.4850     1.5730 C.3   1 <1>   0.1200 
  4 C       -1.0200    -2.1850    -0.2800 C.ar  1 <1>  -0.1440 
  5 C       -2.4760    -0.6110     0.8150 C.ar  1 <1>  -0.1500 
  6 C        1.4390    -1.9560     0.1880 C.3   1 <1>   0.0640 
  7 C       -2.0810    -2.5970    -1.0700 C.ar  1 <1>  -0.1500 
  8 C        0.3500    -2.8220    -0.4540 C.3   1 <1>  -0.0160 
  9 C       -3.5360    -1.0240     0.0260 C.ar  1 <1>   0.0830 
 10 C        2.7690    -2.7160     0.2660 C.ar  1 <1>  -0.1430 
 11 C       -3.3330    -2.0240    -0.9220 C.ar  1 <1>  -0.1500 
 12 O       -4.7300    -0.4120     0.2340 O.3   1 <1>  -0.3620 
 13 C        3.8720    -2.3500    -0.5040 C.ar  1 <1>   0.0830 
 14 C        2.8990    -3.8050     1.1210 C.ar  1 <1>  -0.1500 
 15 C       -5.8700    -0.7540    -0.5220 C.3   1 <1>   0.0400 
 16 O        3.8070    -1.3120    -1.3620 O.3   1 <1>  -0.5320 
 17 C        5.0820    -3.0370    -0.4220 C.ar  1 <1>   0.0830 
 18 C        4.0900    -4.5040     1.1940 C.ar  1 <1>   0.0830 
 19 O        6.1290    -2.5820    -1.1720 O.3   1 <1>  -0.3630 
 20 C        5.1850    -4.1480     0.4160 C.ar  1 <1>   0.0830 
 21 O        4.1910    -5.5520     2.0320 O.3   1 <1>  -0.5320 
 22 C        7.2260    -2.0640    -0.4490 C.3   1 <1>   0.0400 
 23 O        6.3120    -4.9120     0.5060 O.3   1 <1>  -0.3630 
 24 C        6.6690    -5.6270    -0.6590 C.3   1 <1>   0.0400 
 25 H        1.7160    -0.8500     2.0230 H     1 <1>   0.0800 
 26 H        0.7810    -2.3190     2.2220 H     1 <1>   0.0800 
 27 H       -2.6240     0.1600     1.5460 H     1 <1>   0.1500 
 28 H        1.5560    -1.0700    -0.4110 H     1 <1>   0.0800 
 29 H       -1.9350    -3.3690    -1.8060 H     1 <1>   0.1500 
 30 H        0.3310    -3.7930     0.0070 H     1 <1>   0.0800 
 31 H        0.5720    -2.9490    -1.4990 H     1 <1>   0.0800 
 32 H       -4.1330    -2.3660    -1.5490 H     1 <1>   0.1500 
 33 H        2.0820    -4.1310     1.7380 H     1 <1>   0.1500 
 34 H       -6.6880    -0.1420    -0.1860 H     1 <1>   0.0800 
 35 H       -6.0980    -1.7920    -0.3590 H     1 <1>   0.0800 
 36 H       -5.6700    -0.5590    -1.5610 H     1 <1>   0.0800 
 37 H        4.6590    -1.2370    -1.8380 H     1 <1>   0.4500 
 38 H        5.1020    -5.9070     1.9990 H     1 <1>   0.4500 
 39 H        7.9250    -1.6460    -1.1510 H     1 <1>   0.0800 
 40 H        7.6960    -2.8560     0.1050 H     1 <1>   0.0800 
 41 H        6.8730    -1.2990     0.2210 H     1 <1>   0.0800 
 42 H        7.4990    -6.2670    -0.4210 H     1 <1>   0.0800 
 43 H        6.9520    -4.9350    -1.4310 H     1 <1>   0.0800 
 44 H        5.8270    -6.2170    -0.9770 H     1 <1>   0.0800 
@<TRIPOS>BOND
  1   1   2  1   
  2   1   3  1   
  3   2   4  ar  
  4   2   5  ar  
  5   3   6  1   
  6   3  25  1   
  7   3  26  1   
  8   4   7  ar  
  9   4   8  1   
 10   5   9  ar  
 11   5  27  1   
 12   6   8  1   
 13   6  10  1   
 14   6  28  1   
 15   7  11  ar  
 16   7  29  1   
 17   8  30  1   
 18   8  31  1   
 19   9  11  ar  
 20   9  12  1   
 21  10  13  ar  
 22  10  14  ar  
 23  11  32  1   
 24  12  15  1   
 25  13  16  1   
 26  13  17  ar  
 27  14  18  ar  
 28  14  33  1   
 29  15  34  1   
 30  15  35  1   
 31  15  36  1   
 32  16  37  1   
 33  17  19  1   
 34  17  20  ar  
 35  18  20  ar  
 36  18  21  1   
 37  19  22  1   
 38  20  23  1   
 39  21  38  1   
 40  22  39  1   
 41  22  40  1   
 42  22  41  1   
 43  23  24  1   
 44  24  42  1   
 45  24  43  1   
 46  24  44  1   
@<TRIPOS>SUBSTRUCTURE
  1 ****   6 GROUP 4 **** **** 0

# MOE 2024.06 (io_trps.svl 2023.06)
