@<TRIPOS>MOLECULE
NONAME
52 54 1 0 0 
SMALL
USER_CHARGES


@<TRIPOS>ATOM
  1 O        2.9050    -2.6210     3.3890 O.2   1 <1>  -0.5700 
  2 C        3.3550    -2.7130     2.2720 C.2   1 <1>   0.5690 
  3 N        4.0440    -1.6810     1.6880 N.am  1 <1>  -0.6600 
  4 C        3.1120    -4.0260     1.5410 C.3   1 <1>  -0.0990 
  5 C        4.2120    -0.3840     2.4200 C.3   1 <1>   0.1400 
  6 C        4.6140    -1.7130     0.3000 C.3   1 <1>   0.1400 
  7 C        1.9580    -3.9250     0.5300 C.3   1 <1>  -0.1600 
  8 C        4.1790     0.8230     1.4680 C.3   1 <1>   0.2090 
  9 C        5.7050    -0.6480     0.0800 C.3   1 <1>   0.2090 
 10 C        1.6980    -5.2710    -0.1660 C.3   1 <1>  -0.0990 
 11 N        5.2250     0.7450     0.3850 N.pl3 1 <1>  -0.8380 
 12 C        0.6250    -5.1490    -1.2400 C.2   1 <1>   0.4230 
 13 C        5.7000     1.8510    -0.2540 C.ar  1 <1>   0.1000 
 14 O        1.0130    -4.8580    -2.3420 O.2   1 <1>  -0.5700 
 15 C       -0.7750    -5.3830    -0.9310 C.ar  1 <1>   0.0860 
 16 C        4.9370     3.0230    -0.3700 C.ar  1 <1>  -0.1500 
 17 C        6.9780     1.8810    -0.8310 C.ar  1 <1>  -0.1500 
 18 C       -1.6970    -5.5490    -1.9670 C.ar  1 <1>  -0.1500 
 19 C       -1.2770    -5.4510     0.3740 C.ar  1 <1>  -0.1500 
 20 C        5.4210     4.1330    -1.0130 C.ar  1 <1>   0.2180 
 21 C        7.4390     3.0010    -1.4690 C.ar  1 <1>   0.2110 
 22 C       -3.0390    -5.7800    -1.7240 C.ar  1 <1>  -0.1500 
 23 C       -2.6170    -5.6820     0.6250 C.ar  1 <1>  -0.1500 
 24 N        6.6630     4.1100    -1.5540 N.ar  1 <1>  -0.1790 
 25 C        4.6010     5.4060    -1.1460 C.3   1 <1>  -0.0970 
 26 C       -3.5020    -5.8480    -0.4240 C.ar  1 <1>  -0.1500 
 27 H        2.8680    -4.7710     2.2770 H     1 <1>   0.0800 
 28 H        4.0150    -4.3460     1.0580 H     1 <1>   0.0800 
 29 H        5.1490    -0.3960     2.9490 H     1 <1>   0.0800 
 30 H        3.4270    -0.2700     3.1480 H     1 <1>   0.0800 
 31 H        3.8220    -1.5410    -0.4080 H     1 <1>   0.0800 
 32 H        5.0390    -2.6790     0.0990 H     1 <1>   0.0800 
 33 H        2.1910    -3.1870    -0.2170 H     1 <1>   0.0800 
 34 H        1.0680    -3.5980     1.0420 H     1 <1>   0.0800 
 35 H        4.3280     1.7190     2.0450 H     1 <1>   0.0800 
 36 H        3.2040     0.8740     1.0150 H     1 <1>   0.0800 
 37 H        6.0290    -0.7010    -0.9450 H     1 <1>   0.0800 
 38 H        6.5460    -0.8780     0.7100 H     1 <1>   0.0800 
 39 H        1.4240    -6.0240     0.5500 H     1 <1>   0.0800 
 40 H        2.6040    -5.6020    -0.6420 H     1 <1>   0.0800 
 41 H        3.9480     3.0350     0.0490 H     1 <1>   0.1500 
 42 H        7.6060     1.0120    -0.7570 H     1 <1>   0.1500 
 43 H       -1.3510    -5.4960    -2.9860 H     1 <1>   0.1500 
 44 H       -0.6230    -5.3190     1.2160 H     1 <1>   0.1500 
 45 H        8.4240     3.0220    -1.9090 H     1 <1>   0.1500 
 46 H       -3.7220    -5.9050    -2.5460 H     1 <1>   0.1500 
 47 H       -2.9760    -5.7300     1.6390 H     1 <1>   0.1500 
 48 H        7.0170     4.9440    -2.0330 H     1 <1>   0.4570 
 49 H        3.6400     5.2880    -0.6760 H     1 <1>   0.0800 
 50 H        4.4370     5.6410    -2.1830 H     1 <1>   0.0800 
 51 H        5.1050     6.2300    -0.6730 H     1 <1>   0.0800 
 52 H       -4.5460    -6.0280    -0.2300 H     1 <1>   0.1500 
@<TRIPOS>BOND
  1   1   2  2   
  2   2   3  am  
  3   2   4  1   
  4   3   5  1   
  5   3   6  1   
  6   4   7  1   
  7   4  27  1   
  8   4  28  1   
  9   5   8  1   
 10   5  29  1   
 11   5  30  1   
 12   6   9  1   
 13   6  31  1   
 14   6  32  1   
 15   7  10  1   
 16   7  33  1   
 17   7  34  1   
 18   8  11  1   
 19   8  35  1   
 20   8  36  1   
 21   9  11  1   
 22   9  37  1   
 23   9  38  1   
 24  10  12  1   
 25  10  39  1   
 26  10  40  1   
 27  11  13  1   
 28  12  14  2   
 29  12  15  1   
 30  13  16  ar  
 31  13  17  ar  
 32  15  18  ar  
 33  15  19  ar  
 34  16  20  ar  
 35  16  41  1   
 36  17  21  ar  
 37  17  42  1   
 38  18  22  ar  
 39  18  43  1   
 40  19  23  ar  
 41  19  44  1   
 42  20  24  ar  
 43  20  25  1   
 44  21  24  ar  
 45  21  45  1   
 46  22  26  ar  
 47  22  46  1   
 48  23  26  ar  
 49  23  47  1   
 50  24  48  1   
 51  25  49  1   
 52  25  50  1   
 53  25  51  1   
 54  26  52  1   
@<TRIPOS>SUBSTRUCTURE
  1 ****   6 GROUP 4 **** **** 0

# MOE 2024.06 (io_trps.svl 2023.06)
