@<TRIPOS>MOLECULE
NONAME
47 48 1 0 0 
SMALL
USER_CHARGES


@<TRIPOS>ATOM
  1 S        0.0830     0.4110     0.0540 S.3   1 <1>  -0.4600 
  2 C        1.7270     0.1620    -0.6660 C.3   1 <1>   0.2510 
  3 C       -0.7500    -1.1680    -0.2490 C.3   1 <1>   0.0700 
  4 C        2.5060     1.4570    -0.5300 C.2   1 <1>  -0.1810 
  5 C       -2.1630    -1.0680     0.3260 C.3   1 <1>  -0.1600 
  6 C        3.5860     1.7440     0.2310 C.2   1 <1>  -0.0400 
  7 C        2.2090     2.6370    -1.2120 C.2   1 <1>  -0.1500 
  8 C       -2.9420    -2.3720     0.1110 C.3   1 <1>  -0.1600 
  9 O        3.9510     2.9910     0.0470 O.3   1 <1>  -0.2800 
 10 C        4.3820     0.9040     1.2070 C.3   1 <1>  -0.0600 
 11 C        3.1290     3.5650    -0.8310 C.2   1 <1>   0.0550 
 12 C       -4.3560    -2.2680     0.6880 C.3   1 <1>  -0.2400 
 13 C        3.2610     4.9540    -1.2240 C.2   1 <1>   0.7150 
 14 O        2.3620     5.4820    -1.8540 O.2   1 <1>  -0.5700 
 15 N        4.3790     5.7060    -0.9180 N.am  1 <1>  -0.6600 
 16 C        4.3730     7.1210    -0.3990 C.3   1 <1>   0.2200 
 17 C        5.7510     5.1290    -0.9980 C.3   1 <1>   0.1400 
 18 C        5.2020     7.1780     0.9070 C.3   1 <1>   0.1200 
 19 C        2.9570     7.7040    -0.1820 C.3   1 <1>   0.1200 
 20 C        6.4550     5.2640     0.3570 C.3   1 <1>   0.1200 
 21 O        6.4730     6.6050     0.7520 O.3   1 <1>  -0.5600 
 22 O        3.0040     8.9370     0.4680 O.3   1 <1>  -0.6800 
 23 H        1.5930    -0.1030    -1.7000 H     1 <1>   0.0800 
 24 H        2.1930    -0.6440    -0.1310 H     1 <1>   0.0800 
 25 H       -0.1770    -1.9360     0.2390 H     1 <1>   0.0800 
 26 H       -0.7660    -1.3270    -1.3130 H     1 <1>   0.0800 
 27 H       -2.6800    -0.2540    -0.1520 H     1 <1>   0.0800 
 28 H       -2.0990    -0.8550     1.3800 H     1 <1>   0.0800 
 29 H        1.3930     2.7780    -1.8990 H     1 <1>   0.1500 
 30 H       -2.4250    -3.1870     0.5890 H     1 <1>   0.0800 
 31 H       -3.0060    -2.5860    -0.9420 H     1 <1>   0.0800 
 32 H        3.9710    -0.0850     1.2830 H     1 <1>   0.0800 
 33 H        4.3580     1.3640     2.1780 H     1 <1>   0.0800 
 34 H        5.4030     0.8360     0.8780 H     1 <1>   0.0800 
 35 H       -4.3180    -2.0740     1.7460 H     1 <1>   0.0800 
 36 H       -4.8880    -3.1890     0.5290 H     1 <1>   0.0800 
 37 H       -4.9000    -1.4720     0.2110 H     1 <1>   0.0800 
 38 H        4.8620     7.7420    -1.1300 H     1 <1>   0.0800 
 39 H        6.3160     5.6630    -1.7420 H     1 <1>   0.0800 
 40 H        5.7180     4.0960    -1.2950 H     1 <1>   0.0800 
 41 H        4.6910     6.6590     1.6990 H     1 <1>   0.0800 
 42 H        5.3520     8.2000     1.2050 H     1 <1>   0.0800 
 43 H        2.3510     7.0400     0.4090 H     1 <1>   0.0800 
 44 H        2.4840     7.8660    -1.1350 H     1 <1>   0.0800 
 45 H        7.4740     4.9290     0.2830 H     1 <1>   0.0800 
 46 H        5.9500     4.6840     1.1100 H     1 <1>   0.0800 
 47 H        2.9810     8.8230     1.4380 H     1 <1>   0.4000 
@<TRIPOS>BOND
  1   1   2  1   
  2   1   3  1   
  3   2   4  1   
  4   2  23  1   
  5   2  24  1   
  6   3   5  1   
  7   3  25  1   
  8   3  26  1   
  9   4   6  2   
 10   4   7  1   
 11   5   8  1   
 12   5  27  1   
 13   5  28  1   
 14   6   9  1   
 15   6  10  1   
 16   7  11  2   
 17   7  29  1   
 18   8  12  1   
 19   8  30  1   
 20   8  31  1   
 21   9  11  1   
 22  10  32  1   
 23  10  33  1   
 24  10  34  1   
 25  11  13  1   
 26  12  35  1   
 27  12  36  1   
 28  12  37  1   
 29  13  14  2   
 30  13  15  am  
 31  15  16  1   
 32  15  17  1   
 33  16  18  1   
 34  16  19  1   
 35  16  38  1   
 36  17  20  1   
 37  17  39  1   
 38  17  40  1   
 39  18  21  1   
 40  18  41  1   
 41  18  42  1   
 42  19  22  1   
 43  19  43  1   
 44  19  44  1   
 45  20  21  1   
 46  20  45  1   
 47  20  46  1   
 48  22  47  1   
@<TRIPOS>SUBSTRUCTURE
  1 ****  11 GROUP 4 **** **** 0

# MOE 2024.06 (io_trps.svl 2023.06)
