@<TRIPOS>MOLECULE
NONAME
53 56 1 0 0 
SMALL
USER_CHARGES


@<TRIPOS>ATOM
  1 S       -0.3130    -0.0810    -1.2450 S.o2  1 <1>   1.5760 
  2 O        0.0310    -1.2800    -1.9790 O.2   1 <1>  -0.6500 
  3 O       -1.1980     0.9040    -1.8250 O.2   1 <1>  -0.6500 
  4 N       -0.9360    -0.5400     0.2670 N.am  1 <1>  -0.8490 
  5 N        1.1080     0.6850    -0.7540 N.am  1 <1>  -0.8490 
  6 C       -1.0300    -2.0060     0.4490 C.3   1 <1>   0.1960 
  7 C       -2.2550     0.0550     0.5700 C.3   1 <1>   0.1960 
  8 C        2.0590    -0.2250    -0.1160 C.3   1 <1>   0.1960 
  9 C        0.8620     1.8900     0.0380 C.3   1 <1>   0.1960 
 10 C       -2.2100    -2.6400    -0.3280 C.3   1 <1>   0.3440 
 11 C       -3.4090    -0.6170    -0.2150 C.3   1 <1>   0.2950 
 12 C        3.4010     0.4800     0.1060 C.3   1 <1>  -0.1600 
 13 C        2.1710     2.6520     0.2660 C.3   1 <1>  -0.1600 
 14 O       -3.4080    -1.9960     0.0190 O.3   1 <1>  -0.5600 
 15 C       -2.3130    -4.1280    -0.0080 C.ar  1 <1>  -0.1430 
 16 C       -4.7730    -0.0790     0.2270 C.3   1 <1>  -0.1950 
 17 C        3.2290     1.7620     0.9320 C.3   1 <1>  -0.0800 
 18 C       -1.6210    -5.0400    -0.7920 C.ar  1 <1>  -0.1500 
 19 C       -3.0700    -4.5940     1.0590 C.ar  1 <1>  -0.1500 
 20 C       -5.9680    -0.1760    -0.6670 C.3   1 <1>  -0.2000 
 21 C       -5.3420     1.1620    -0.3870 C.3   1 <1>  -0.2000 
 22 C        4.5610     2.5060     1.0690 C.3   1 <1>  -0.2400 
 23 C       -1.6820    -6.3950    -0.5140 C.ar  1 <1>  -0.1500 
 24 C       -3.1320    -5.9480     1.3390 C.ar  1 <1>  -0.1500 
 25 C       -2.4380    -6.8500     0.5520 C.ar  1 <1>  -0.1500 
 26 H       -0.1090    -2.4790     0.1530 H     1 <1>   0.0800 
 27 H       -1.1680    -2.2200     1.4940 H     1 <1>   0.0800 
 28 H       -2.4530    -0.0580     1.6210 H     1 <1>   0.0800 
 29 H       -2.2450     1.1120     0.3650 H     1 <1>   0.0800 
 30 H        1.6660    -0.5640     0.8270 H     1 <1>   0.0800 
 31 H        2.2200    -1.0830    -0.7470 H     1 <1>   0.0800 
 32 H        0.1730     2.5330    -0.4840 H     1 <1>   0.0800 
 33 H        0.4270     1.6230     0.9870 H     1 <1>   0.0800 
 34 H       -2.0720    -2.5230    -1.3890 H     1 <1>   0.0800 
 35 H       -3.2910    -0.4560    -1.2730 H     1 <1>   0.0800 
 36 H        4.0720    -0.1910     0.6110 H     1 <1>   0.0800 
 37 H        3.8270     0.7130    -0.8540 H     1 <1>   0.0800 
 38 H        2.5310     3.0040    -0.6860 H     1 <1>   0.0800 
 39 H        1.9760     3.5110     0.8820 H     1 <1>   0.0800 
 40 H       -4.9410    -0.2240     1.2800 H     1 <1>   0.1000 
 41 H        2.8830     1.4940     1.9170 H     1 <1>   0.0800 
 42 H       -1.0300    -4.7000    -1.6250 H     1 <1>   0.1500 
 43 H       -3.6180    -3.9020     1.6750 H     1 <1>   0.1500 
 44 H       -5.8480    -0.6160    -1.6420 H     1 <1>   0.1000 
 45 H       -6.9200    -0.4130    -0.2240 H     1 <1>   0.1000 
 46 H       -5.8750     1.8560     0.2400 H     1 <1>   0.1000 
 47 H       -4.8100     1.6510    -1.1850 H     1 <1>   0.1000 
 48 H        4.9380     2.7900     0.1020 H     1 <1>   0.0800 
 49 H        5.2910     1.8800     1.5510 H     1 <1>   0.0800 
 50 H        4.4330     3.3950     1.6620 H     1 <1>   0.0800 
 51 H       -1.1430    -7.0950    -1.1280 H     1 <1>   0.1500 
 52 H       -3.7230    -6.2990     2.1660 H     1 <1>   0.1500 
 53 H       -2.4870    -7.9040     0.7690 H     1 <1>   0.1500 
@<TRIPOS>BOND
  1   1   2  2   
  2   1   3  2   
  3   1   4  am  
  4   1   5  am  
  5   4   6  1   
  6   4   7  1   
  7   5   8  1   
  8   5   9  1   
  9   6  10  1   
 10   6  26  1   
 11   6  27  1   
 12   7  11  1   
 13   7  28  1   
 14   7  29  1   
 15   8  12  1   
 16   8  30  1   
 17   8  31  1   
 18   9  13  1   
 19   9  32  1   
 20   9  33  1   
 21  10  14  1   
 22  10  15  1   
 23  10  34  1   
 24  11  14  1   
 25  11  16  1   
 26  11  35  1   
 27  12  17  1   
 28  12  36  1   
 29  12  37  1   
 30  13  17  1   
 31  13  38  1   
 32  13  39  1   
 33  15  18  ar  
 34  15  19  ar  
 35  16  20  1   
 36  16  21  1   
 37  16  40  1   
 38  17  22  1   
 39  17  41  1   
 40  18  23  ar  
 41  18  42  1   
 42  19  24  ar  
 43  19  43  1   
 44  20  21  1   
 45  20  44  1   
 46  20  45  1   
 47  21  46  1   
 48  21  47  1   
 49  22  48  1   
 50  22  49  1   
 51  22  50  1   
 52  23  25  ar  
 53  23  51  1   
 54  24  25  ar  
 55  24  52  1   
 56  25  53  1   
@<TRIPOS>SUBSTRUCTURE
  1 ****   4 GROUP 4 **** **** 0

# MOE 2024.06 (io_trps.svl 2023.06)
