@<TRIPOS>MOLECULE
NONAME
57 59 1 0 0 
SMALL
USER_CHARGES


@<TRIPOS>ATOM
  1 O        3.4860    -2.1120    -2.3280 O.2   1 <1>  -0.5700 
  2 C        2.8820    -1.5280    -1.4570 C.2   1 <1>   0.5690 
  3 N        2.9710    -0.1540    -1.3630 N.am  1 <1>  -0.6600 
  4 C        2.0600    -2.4170    -0.5080 C.3   1 <1>  -0.0190 
  5 C        3.7100     0.5920    -2.4240 C.3   1 <1>   0.1400 
  6 C        2.4760     0.6990    -0.2490 C.3   1 <1>   0.1400 
  7 C        0.5670    -2.0350    -0.4010 C.3   1 <1>  -0.1600 
  8 C        2.7270    -2.6160     0.8710 C.3   1 <1>  -0.1600 
  9 C        5.2210     0.5820    -2.1430 C.3   1 <1>   0.1100 
 10 C        3.5510     1.6580     0.2850 C.3   1 <1>  -0.1600 
 11 C       -0.1990    -3.0200     0.4920 C.3   1 <1>  -0.1600 
 12 C        1.9230    -3.5860     1.7490 C.3   1 <1>  -0.1600 
 13 N        5.6490     1.4450    -1.0110 N.3   1 <1>  -0.8100 
 14 C        4.9780     1.0970     0.2600 C.3   1 <1>   0.1100 
 15 C        0.4590    -3.1470     1.8720 C.3   1 <1>  -0.1600 
 16 C        7.1310     1.3670    -0.8650 C.3   1 <1>   0.2540 
 17 C        7.7300     2.5750    -0.1240 C.cat 1 <1>   0.6560 
 18 N        7.0660     3.7050     0.0330 N.pl3 1 <1>  -0.7000 
 19 N        8.9350     2.6800     0.4420 N.pl3 1 <1>  -0.7640 
 20 C        7.8500     4.5820     0.7200 C.2   1 <1>   0.1820 
 21 C        9.0180     3.9470     0.9780 C.2   1 <1>   0.1820 
 22 C       10.0140     1.6540     0.5000 C.3   1 <1>   0.2740 
 23 C        7.3530     5.9760     1.0520 C.3   1 <1>  -0.0720 
 24 C       10.2540     4.4400     1.7100 C.3   1 <1>  -0.0720 
 25 H        2.0660    -3.3910    -0.9680 H     1 <1>   0.0800 
 26 H        3.3510     1.6030    -2.5030 H     1 <1>   0.0800 
 27 H        3.5330     0.1150    -3.3720 H     1 <1>   0.0800 
 28 H        2.1480     0.0880     0.5670 H     1 <1>   0.0800 
 29 H        1.6260     1.2640    -0.5900 H     1 <1>   0.0800 
 30 H        0.1320    -2.0350    -1.3850 H     1 <1>   0.0800 
 31 H        0.4460    -1.0490     0.0040 H     1 <1>   0.0800 
 32 H        2.8250    -1.6840     1.3910 H     1 <1>   0.0800 
 33 H        3.7180    -3.0110     0.7270 H     1 <1>   0.0800 
 34 H        5.7110     0.9250    -3.0380 H     1 <1>   0.0800 
 35 H        5.5320    -0.4360    -1.9750 H     1 <1>   0.0800 
 36 H        3.2910     1.8880     1.3020 H     1 <1>   0.0800 
 37 H        3.5140     2.5850    -0.2580 H     1 <1>   0.0800 
 38 H       -0.2230    -3.9870     0.0190 H     1 <1>   0.0800 
 39 H       -1.2160    -2.6860     0.6060 H     1 <1>   0.0800 
 40 H        2.3680    -3.6400     2.7280 H     1 <1>   0.0800 
 41 H        1.9620    -4.5720     1.3170 H     1 <1>   0.0800 
 42 H        4.9740     0.0290     0.4120 H     1 <1>   0.0800 
 43 H        5.5140     1.5410     1.0820 H     1 <1>   0.0800 
 44 H       -0.0820    -3.8690     2.4610 H     1 <1>   0.0800 
 45 H        0.4080    -2.2010     2.3830 H     1 <1>   0.0800 
 46 H        7.5850     1.3440    -1.8400 H     1 <1>   0.0800 
 47 H        7.3970     0.4590    -0.3540 H     1 <1>   0.0800 
 48 H        6.1130     3.8180    -0.3300 H     1 <1>   0.4500 
 49 H        9.7230     0.7590    -0.0210 H     1 <1>   0.0800 
 50 H       10.2250     1.4040     1.5260 H     1 <1>   0.0800 
 51 H       10.9090     2.0410     0.0420 H     1 <1>   0.0800 
 52 H        6.4680     5.9140     1.6580 H     1 <1>   0.0800 
 53 H        7.1190     6.5060     0.1470 H     1 <1>   0.0800 
 54 H        8.0980     6.5310     1.5910 H     1 <1>   0.0800 
 55 H       10.4510     3.8150     2.5620 H     1 <1>   0.0800 
 56 H       10.1180     5.4490     2.0550 H     1 <1>   0.0800 
 57 H       11.1040     4.4180     1.0540 H     1 <1>   0.0800 
@<TRIPOS>BOND
  1   1   2  2   
  2   2   3  am  
  3   2   4  1   
  4   3   5  1   
  5   3   6  1   
  6   4   7  1   
  7   4   8  1   
  8   4  25  1   
  9   5   9  1   
 10   5  26  1   
 11   5  27  1   
 12   6  10  1   
 13   6  28  1   
 14   6  29  1   
 15   7  11  1   
 16   7  30  1   
 17   7  31  1   
 18   8  12  1   
 19   8  32  1   
 20   8  33  1   
 21   9  13  1   
 22   9  34  1   
 23   9  35  1   
 24  10  14  1   
 25  10  36  1   
 26  10  37  1   
 27  11  15  1   
 28  11  38  1   
 29  11  39  1   
 30  12  15  1   
 31  12  40  1   
 32  12  41  1   
 33  13  14  1   
 34  13  16  1   
 35  14  42  1   
 36  14  43  1   
 37  15  44  1   
 38  15  45  1   
 39  16  17  1   
 40  16  46  1   
 41  16  47  1   
 42  17  18  ar  
 43  17  19  ar  
 44  18  20  1   
 45  18  48  1   
 46  19  21  1   
 47  19  22  1   
 48  20  21  2   
 49  20  23  1   
 50  21  24  1   
 51  22  49  1   
 52  22  50  1   
 53  22  51  1   
 54  23  52  1   
 55  23  53  1   
 56  23  54  1   
 57  24  55  1   
 58  24  56  1   
 59  24  57  1   
@<TRIPOS>SUBSTRUCTURE
  1 ****  14 GROUP 4 **** **** 0

# MOE 2024.06 (io_trps.svl 2023.06)
