@<TRIPOS>MOLECULE
NONAME
47 49 1 0 0 
SMALL
USER_CHARGES


@<TRIPOS>ATOM
  1 F       -0.6970    -0.0020    -0.3400 F     1 <1>  -0.3400 
  2 C       -0.6400     1.3210    -0.4230 C.3   1 <1>   1.0200 
  3 F       -0.9780     1.7870     0.7730 F     1 <1>  -0.3400 
  4 F       -1.6170     1.6810    -1.2490 F     1 <1>  -0.3400 
  5 C        0.7480     1.8040    -0.9070 C.3   1 <1>   0.1400 
  6 N        0.9340     3.3010    -1.0440 N.am  1 <1>  -0.6600 
  7 C        1.3970     4.0550     0.0170 C.2   1 <1>   0.7160 
  8 C        0.4170     3.9150    -2.3020 C.3   1 <1>   0.0600 
  9 O        1.6970     3.4770     1.0460 O.2   1 <1>  -0.5700 
 10 C        1.5300     5.4740    -0.0630 C.2   1 <1>  -0.0860 
 11 C        0.4830     6.3980    -0.1450 C.2   1 <1>   0.3720 
 12 C        2.6460     6.2450    -0.1380 C.2   1 <1>   0.0870 
 13 N        0.9400     7.5940    -0.2820 N.2   1 <1>  -0.4100 
 14 N       -0.8850     6.0770    -0.1180 N.pl3 1 <1>  -0.8210 
 15 O        2.2420     7.4830    -0.2690 O.3   1 <1>  -0.0190 
 16 C        4.0530     5.9380    -0.1330 C.ar  1 <1>   0.0530 
 17 C       -1.8600     7.1810    -0.3340 C.3   1 <1>   0.2090 
 18 C       -1.3530     5.2350     1.0170 C.3   1 <1>   0.2090 
 19 C        4.5970     4.9610     0.7010 C.ar  1 <1>  -0.1500 
 20 C        4.9300     6.6210    -0.9760 C.ar  1 <1>  -0.1500 
 21 C       -3.1210     6.7450     0.3970 C.3   1 <1>  -0.1600 
 22 C       -2.5980     5.9210     1.5640 C.3   1 <1>  -0.1600 
 23 C        5.9470     4.6650     0.6860 C.ar  1 <1>  -0.1500 
 24 C        6.2810     6.3330    -0.9960 C.ar  1 <1>  -0.1500 
 25 C        6.8030     5.3520    -0.1690 C.ar  1 <1>   0.0830 
 26 O        8.1350     5.1250    -0.2490 O.3   1 <1>  -0.3630 
 27 C        8.7680     4.1540     0.5540 C.3   1 <1>   0.0400 
 28 H        0.9430     1.3430    -1.8580 H     1 <1>   0.0800 
 29 H        1.4780     1.4190    -0.2180 H     1 <1>   0.0800 
 30 H        0.5750     3.2520    -3.1350 H     1 <1>   0.0800 
 31 H        0.9230     4.8420    -2.5100 H     1 <1>   0.0800 
 32 H       -0.6370     4.1140    -2.2020 H     1 <1>   0.0800 
 33 H       -2.0410     7.3280    -1.3850 H     1 <1>   0.0800 
 34 H       -1.4930     8.0960     0.1000 H     1 <1>   0.0800 
 35 H       -0.5990     5.1360     1.7800 H     1 <1>   0.0800 
 36 H       -1.6080     4.2600     0.6390 H     1 <1>   0.0800 
 37 H        3.9560     4.4280     1.3800 H     1 <1>   0.1500 
 38 H        4.5440     7.3870    -1.6260 H     1 <1>   0.1500 
 39 H       -3.7090     6.1260    -0.2590 H     1 <1>   0.0800 
 40 H       -3.7100     7.5860     0.7150 H     1 <1>   0.0800 
 41 H       -2.3100     6.5700     2.3720 H     1 <1>   0.0800 
 42 H       -3.3190     5.2090     1.9240 H     1 <1>   0.0800 
 43 H        6.3140     3.9030     1.3460 H     1 <1>   0.1500 
 44 H        6.9430     6.8660    -1.6540 H     1 <1>   0.1500 
 45 H        9.8170     4.1580     0.3190 H     1 <1>   0.0800 
 46 H        8.3470     3.1900     0.3330 H     1 <1>   0.0800 
 47 H        8.6240     4.4100     1.5890 H     1 <1>   0.0800 
@<TRIPOS>BOND
  1   1   2  1   
  2   2   3  1   
  3   2   4  1   
  4   2   5  1   
  5   5   6  1   
  6   5  28  1   
  7   5  29  1   
  8   6   7  am  
  9   6   8  1   
 10   7   9  2   
 11   7  10  1   
 12   8  30  1   
 13   8  31  1   
 14   8  32  1   
 15  10  11  1   
 16  10  12  2   
 17  11  13  2   
 18  11  14  1   
 19  12  15  1   
 20  12  16  1   
 21  13  15  1   
 22  14  17  1   
 23  14  18  1   
 24  16  19  ar  
 25  16  20  ar  
 26  17  21  1   
 27  17  33  1   
 28  17  34  1   
 29  18  22  1   
 30  18  35  1   
 31  18  36  1   
 32  19  23  ar  
 33  19  37  1   
 34  20  24  ar  
 35  20  38  1   
 36  21  22  1   
 37  21  39  1   
 38  21  40  1   
 39  22  41  1   
 40  22  42  1   
 41  23  25  ar  
 42  23  43  1   
 43  24  25  ar  
 44  24  44  1   
 45  25  26  1   
 46  26  27  1   
 47  27  45  1   
 48  27  46  1   
 49  27  47  1   
@<TRIPOS>SUBSTRUCTURE
  1 ****  10 GROUP 4 **** **** 0

# MOE 2024.06 (io_trps.svl 2023.06)
