@<TRIPOS>MOLECULE
NONAME
42 44 1 0 0 
SMALL
USER_CHARGES


@<TRIPOS>ATOM
  1 O        4.7350    -1.0730     0.3740 O.2   1 <1>  -0.5700 
  2 C        3.6330    -1.3520    -0.0720 C.2   1 <1>   0.5440 
  3 N        3.3630    -0.9110    -1.3480 N.am  1 <1>  -0.6600 
  4 C        2.6310    -2.0220     0.7410 C.ar  1 <1>   0.0860 
  5 C        4.4230    -0.9570    -2.4130 C.3   1 <1>   0.1400 
  6 C        2.2500     0.0490    -1.5850 C.3   1 <1>   0.1400 
  7 C        2.6260    -1.8940     2.1300 C.ar  1 <1>  -0.1500 
  8 C        1.6360    -2.8150     0.1660 C.ar  1 <1>  -0.1500 
  9 C        5.2220     0.3610    -2.5280 C.3   1 <1>   0.3430 
 10 C        2.5670     1.4080    -0.9330 C.3   1 <1>  -0.1600 
 11 C        1.6670    -2.5160     2.9090 C.ar  1 <1>  -0.1500 
 12 C        0.6740    -3.4400     0.9390 C.ar  1 <1>  -0.1500 
 13 N        5.0100     1.1890    -1.3100 N.4   1 <1>  -0.9590 
 14 C        3.8450     2.1080    -1.4170 C.3   1 <1>   0.3430 
 15 C        0.6880    -3.2900     2.3140 C.ar  1 <1>  -0.1500 
 16 C        6.2260     1.8340    -0.7540 C.3   1 <1>   0.5230 
 17 C        5.9330     2.2280     0.6810 C.2   1 <1>   0.0060 
 18 N        5.7330     3.4490     1.0570 N.2   1 <1>  -0.5650 
 19 N        5.8180     1.3240     1.6840 N.pl3 1 <1>   0.0330 
 20 C        5.4880     3.3430     2.3780 C.2   1 <1>   0.0770 
 21 C        5.5320     2.0530     2.7750 C.2   1 <1>  -0.3020 
 22 H        3.9760    -1.1980    -3.3620 H     1 <1>   0.0800 
 23 H        5.1100    -1.7530    -2.1790 H     1 <1>   0.0800 
 24 H        1.3410    -0.3450    -1.1590 H     1 <1>   0.0800 
 25 H        2.0880     0.1700    -2.6430 H     1 <1>   0.0800 
 26 H        3.3840    -1.3000     2.6090 H     1 <1>   0.1500 
 27 H        1.6150    -2.9500    -0.9010 H     1 <1>   0.1500 
 28 H        4.9070     0.9040    -3.4040 H     1 <1>   0.0800 
 29 H        6.2660     0.1210    -2.6460 H     1 <1>   0.0800 
 30 H        2.6170     1.2900     0.1350 H     1 <1>   0.0800 
 31 H        1.7400     2.0690    -1.1230 H     1 <1>   0.0800 
 32 H        1.6820    -2.4030     3.9800 H     1 <1>   0.1500 
 33 H       -0.0850    -4.0470     0.4750 H     1 <1>   0.1500 
 34 H        4.7340     0.4860    -0.5960 H     1 <1>   0.4500 
 35 H        4.0080     2.9820    -0.8030 H     1 <1>   0.0800 
 36 H        3.7270     2.4370    -2.4360 H     1 <1>   0.0800 
 37 H       -0.0590    -3.7760     2.9180 H     1 <1>   0.1500 
 38 H        6.4810     2.7120    -1.3230 H     1 <1>   0.0800 
 39 H        7.0580     1.1500    -0.7710 H     1 <1>   0.0800 
 40 H        5.8850     0.2970     1.6200 H     1 <1>   0.2700 
 41 H        5.2890     4.2140     2.9840 H     1 <1>   0.1500 
 42 H        5.3800     1.6300     3.7530 H     1 <1>   0.1500 
@<TRIPOS>BOND
  1   1   2  2   
  2   2   3  am  
  3   2   4  1   
  4   3   5  1   
  5   3   6  1   
  6   4   7  ar  
  7   4   8  ar  
  8   5   9  1   
  9   5  22  1   
 10   5  23  1   
 11   6  10  1   
 12   6  24  1   
 13   6  25  1   
 14   7  11  ar  
 15   7  26  1   
 16   8  12  ar  
 17   8  27  1   
 18   9  13  1   
 19   9  28  1   
 20   9  29  1   
 21  10  14  1   
 22  10  30  1   
 23  10  31  1   
 24  11  15  ar  
 25  11  32  1   
 26  12  15  ar  
 27  12  33  1   
 28  13  14  1   
 29  13  16  1   
 30  13  34  1   
 31  14  35  1   
 32  14  36  1   
 33  15  37  1   
 34  16  17  1   
 35  16  38  1   
 36  16  39  1   
 37  17  18  2   
 38  17  19  1   
 39  18  20  1   
 40  19  21  1   
 41  19  40  1   
 42  20  21  2   
 43  20  41  1   
 44  21  42  1   
@<TRIPOS>SUBSTRUCTURE
  1 ****   2 GROUP 4 **** **** 0

# MOE 2024.06 (io_trps.svl 2023.06)
