@<TRIPOS>MOLECULE
NONAME
43 45 1 0 0 
SMALL
USER_CHARGES


@<TRIPOS>ATOM
  1 F        1.9070     1.4060     1.2610 F     1 <1>  -0.1900 
  2 C        1.8090     2.6550     0.8870 C.ar  1 <1>   0.1900 
  3 C        2.4790     3.6220     1.6120 C.ar  1 <1>  -0.1500 
  4 C        1.0380     2.9600    -0.2190 C.ar  1 <1>  -0.1500 
  5 C        2.3700     4.9420     1.2080 C.ar  1 <1>  -0.1500 
  6 C        0.9350     4.2840    -0.6160 C.ar  1 <1>  -0.1500 
  7 C        1.6050     5.2790     0.0980 C.ar  1 <1>   0.0830 
  8 O        1.5620     6.5930    -0.2280 O.3   1 <1>  -0.3630 
  9 C        0.9390     7.0370    -1.4250 C.3   1 <1>   0.1810 
 10 C        1.1210     8.5400    -1.6460 C.2   1 <1>   0.5690 
 11 O        0.1080     9.1840    -1.7980 O.2   1 <1>  -0.5700 
 12 N        2.3670     9.1310    -1.7180 N.am  1 <1>  -0.6600 
 13 C        3.6490     8.3710    -1.5620 C.3   1 <1>   0.1400 
 14 C        2.4830    10.5890    -2.0320 C.3   1 <1>   0.1400 
 15 C        4.1610     8.4070    -0.1130 C.3   1 <1>   0.1400 
 16 C        3.5910    11.3220    -1.2640 C.3   1 <1>  -0.1600 
 17 N        4.7220     9.7430     0.2580 N.am  1 <1>  -0.6600 
 18 C        3.7530    10.8710     0.1900 C.3   1 <1>   0.1400 
 19 C        6.0200     9.8750     0.7330 C.2   1 <1>   0.7160 
 20 O        6.5950     8.8620     1.0990 O.2   1 <1>  -0.5700 
 21 C        6.7370    11.1400     0.8290 C.2   1 <1>   0.1410 
 22 N        6.4810    12.2480     0.0920 N.2   1 <1>  -0.2270 
 23 C        7.7900    11.4320     1.6310 C.2   1 <1>  -0.3020 
 24 N        7.3100    13.1730     0.4180 N.2   1 <1>  -0.4180 
 25 N        8.1210    12.6880     1.3570 N.pl3 1 <1>   0.3000 
 26 H        3.0670     3.3450     2.4680 H     1 <1>   0.1500 
 27 H        0.5320     2.1760    -0.7530 H     1 <1>   0.1500 
 28 H        2.8780     5.7180     1.7540 H     1 <1>   0.1500 
 29 H        0.3300     4.5150    -1.4720 H     1 <1>   0.1500 
 30 H       -0.1100     6.8170    -1.3540 H     1 <1>   0.0800 
 31 H        1.3660     6.5030    -2.2530 H     1 <1>   0.0800 
 32 H        4.4000     8.7730    -2.2200 H     1 <1>   0.0800 
 33 H        3.4990     7.3460    -1.8450 H     1 <1>   0.0800 
 34 H        1.5500    11.0740    -1.7990 H     1 <1>   0.0800 
 35 H        2.6460    10.7060    -3.0900 H     1 <1>   0.0800 
 36 H        4.9170     7.6490    -0.0130 H     1 <1>   0.0800 
 37 H        3.3650     8.1570     0.5660 H     1 <1>   0.0800 
 38 H        3.3440    12.3690    -1.2670 H     1 <1>   0.0800 
 39 H        4.5270    11.2290    -1.7850 H     1 <1>   0.0800 
 40 H        2.8030    10.5650     0.5960 H     1 <1>   0.0800 
 41 H        4.1040    11.6920     0.7900 H     1 <1>   0.0800 
 42 H        8.2920    10.8100     2.3480 H     1 <1>   0.1500 
 43 H        8.8780    13.2420     1.7730 H     1 <1>   0.2700 
@<TRIPOS>BOND
  1   1   2  1   
  2   2   3  ar  
  3   2   4  ar  
  4   3   5  ar  
  5   3  26  1   
  6   4   6  ar  
  7   4  27  1   
  8   5   7  ar  
  9   5  28  1   
 10   6   7  ar  
 11   6  29  1   
 12   7   8  1   
 13   8   9  1   
 14   9  10  1   
 15   9  30  1   
 16   9  31  1   
 17  10  11  2   
 18  10  12  am  
 19  12  13  1   
 20  12  14  1   
 21  13  15  1   
 22  13  32  1   
 23  13  33  1   
 24  14  16  1   
 25  14  34  1   
 26  14  35  1   
 27  15  17  1   
 28  15  36  1   
 29  15  37  1   
 30  16  18  1   
 31  16  38  1   
 32  16  39  1   
 33  17  18  1   
 34  17  19  am  
 35  18  40  1   
 36  18  41  1   
 37  19  20  2   
 38  19  21  1   
 39  21  22  1   
 40  21  23  2   
 41  22  24  2   
 42  23  25  1   
 43  23  42  1   
 44  24  25  1   
 45  25  43  1   
@<TRIPOS>SUBSTRUCTURE
  1 ****  15 GROUP 4 **** **** 0

# MOE 2024.06 (io_trps.svl 2023.06)
