@<TRIPOS>MOLECULE
NONAME
43 45 1 0 0 
SMALL
USER_CHARGES


@<TRIPOS>ATOM
  1 O        0.3560     1.2880    -1.0070 O.2   1 <1>  -0.5700 
  2 C        0.0680     2.4430    -0.8260 C.2   1 <1>   0.5690 
  3 N       -0.7960     2.7950     0.1500 N.am  1 <1>  -0.7300 
  4 C        0.6470     3.5340    -1.7250 C.3   1 <1>   0.1810 
  5 C       -1.2830     4.1810     0.3670 C.3   1 <1>   0.3640 
  6 O        0.6190     4.7990    -1.1060 O.3   1 <1>  -0.5600 
  7 C       -2.8060     4.1570     0.2580 C.ar  1 <1>  -0.1440 
  8 C       -0.6590     5.2080    -0.6240 C.3   1 <1>   0.2610 
  9 C       -3.5820     4.8260     1.1970 C.ar  1 <1>   0.1600 
 10 C       -3.4510     3.4780    -0.7610 C.ar  1 <1>  -0.1500 
 11 C       -0.5470     6.5830     0.0490 C.2   1 <1>   0.5690 
 12 N       -4.9050     4.8560     1.2080 N.ar  1 <1>  -0.6200 
 13 C       -4.8280     3.5060    -0.7680 C.ar  1 <1>  -0.1500 
 14 O       -1.4680     7.0000     0.7110 O.2   1 <1>  -0.5700 
 15 N        0.5970     7.2990    -0.1050 N.am  1 <1>  -0.7300 
 16 C       -5.4970     4.1980     0.2260 C.ar  1 <1>   0.1600 
 17 C        0.8840     8.6200     0.4720 C.3   1 <1>   0.2200 
 18 C        1.2350     9.5890    -0.6610 C.3   1 <1>  -0.1600 
 19 C        2.0400     8.4840     1.4680 C.3   1 <1>  -0.1600 
 20 C        1.6500    10.9610    -0.1090 C.3   1 <1>  -0.1600 
 21 C        2.4570     9.8540     2.0240 C.3   1 <1>  -0.1600 
 22 C        2.8060    10.8300     0.8930 C.3   1 <1>  -0.1600 
 23 H       -1.2110     2.0570     0.7210 H     1 <1>   0.3700 
 24 H        0.0870     3.5860    -2.6410 H     1 <1>   0.0800 
 25 H        1.6710     3.3010    -1.9530 H     1 <1>   0.0800 
 26 H       -1.0090     4.4670     1.3690 H     1 <1>   0.0800 
 27 H       -1.3040     5.3150    -1.4770 H     1 <1>   0.0800 
 28 H       -3.0910     5.3720     1.9860 H     1 <1>   0.1500 
 29 H       -2.9110     2.9400    -1.5220 H     1 <1>   0.1500 
 30 H       -5.3830     2.9950    -1.5340 H     1 <1>   0.1500 
 31 H        1.3570     6.8610    -0.6320 H     1 <1>   0.3700 
 32 H       -6.5740     4.2120     0.2130 H     1 <1>   0.1500 
 33 H        0.0130     8.9870     0.9910 H     1 <1>   0.0800 
 34 H        2.0470     9.1870    -1.2420 H     1 <1>   0.0800 
 35 H        0.3810     9.7090    -1.3030 H     1 <1>   0.0800 
 36 H        1.7360     7.8490     2.2800 H     1 <1>   0.0800 
 37 H        2.8860     8.0330     0.9790 H     1 <1>   0.0800 
 38 H        1.9460    11.6040    -0.9200 H     1 <1>   0.0800 
 39 H        0.8050    11.4170     0.3810 H     1 <1>   0.0800 
 40 H        1.6490    10.2610     2.6080 H     1 <1>   0.0800 
 41 H        3.3060     9.7360     2.6750 H     1 <1>   0.0800 
 42 H        3.0340    11.7970     1.3080 H     1 <1>   0.0800 
 43 H        3.6850    10.4790     0.3780 H     1 <1>   0.0800 
@<TRIPOS>BOND
  1   1   2  2   
  2   2   3  am  
  3   2   4  1   
  4   3   5  1   
  5   3  23  1   
  6   4   6  1   
  7   4  24  1   
  8   4  25  1   
  9   5   7  1   
 10   5   8  1   
 11   5  26  1   
 12   6   8  1   
 13   7   9  ar  
 14   7  10  ar  
 15   8  11  1   
 16   8  27  1   
 17   9  12  ar  
 18   9  28  1   
 19  10  13  ar  
 20  10  29  1   
 21  11  14  2   
 22  11  15  am  
 23  12  16  ar  
 24  13  16  ar  
 25  13  30  1   
 26  15  17  1   
 27  15  31  1   
 28  16  32  1   
 29  17  18  1   
 30  17  19  1   
 31  17  33  1   
 32  18  20  1   
 33  18  34  1   
 34  18  35  1   
 35  19  21  1   
 36  19  36  1   
 37  19  37  1   
 38  20  22  1   
 39  20  38  1   
 40  20  39  1   
 41  21  22  1   
 42  21  40  1   
 43  21  41  1   
 44  22  42  1   
 45  22  43  1   
@<TRIPOS>SUBSTRUCTURE
  1 ****  11 GROUP 4 **** **** 0

# MOE 2024.06 (io_trps.svl 2023.06)
