@<TRIPOS>MOLECULE
NONAME
45 47 1 0 0 
SMALL
USER_CHARGES


@<TRIPOS>ATOM
  1 O       -0.7640    -0.4110    -0.0660 O.3   1 <1>  -0.6800 
  2 C       -1.8050    -1.2990     0.1530 C.3   1 <1>   0.2000 
  3 C       -1.5080    -2.6350    -0.5520 C.3   1 <1>   0.2090 
  4 C       -3.0860    -0.6590    -0.3910 C.3   1 <1>  -0.1600 
  5 N       -2.6820    -3.5660    -0.4360 N.pl3 1 <1>  -0.8380 
  6 C       -4.2570    -1.6540    -0.3280 C.3   1 <1>  -0.1600 
  7 C       -2.6140    -4.8510     0.0010 C.ar  1 <1>   0.4100 
  8 C       -3.9280    -2.9810    -1.0250 C.3   1 <1>   0.2090 
  9 N       -3.4690    -5.7190    -0.5080 N.ar  1 <1>  -0.6200 
 10 C       -1.6650    -5.2470     0.9650 C.ar  1 <1>  -0.1500 
 11 C       -3.3950    -6.9720    -0.1120 C.ar  1 <1>   0.7710 
 12 C       -1.6140    -6.5440     1.3530 C.ar  1 <1>   0.2110 
 13 N       -2.4970    -7.4040     0.7890 N.ar  1 <1>  -0.1790 
 14 N       -4.2780    -7.8100    -0.6680 N.pl3 1 <1>  -0.8690 
 15 C       -4.5680    -9.2540    -0.5150 C.3   1 <1>   0.2090 
 16 C       -6.0710    -9.4210    -0.2900 C.3   1 <1>  -0.1600 
 17 C       -6.4660   -10.9010    -0.1820 C.3   1 <1>   0.0960 
 18 N       -7.9190   -11.0260     0.0410 N.pl3 1 <1>   0.0480 
 19 C       -8.8800   -11.2930    -0.8720 C.2   1 <1>   0.0360 
 20 C       -8.5810   -10.8950     1.2050 C.2   1 <1>  -0.3020 
 21 N      -10.0750   -11.3380    -0.3800 N.2   1 <1>  -0.5650 
 22 C       -9.8890   -11.0880     0.9290 C.2   1 <1>   0.0770 
 23 H        0.0190    -0.6440     0.4670 H     1 <1>   0.4000 
 24 H       -1.8930    -1.4540     1.2150 H     1 <1>   0.0800 
 25 H       -0.6200    -3.0760    -0.1430 H     1 <1>   0.0800 
 26 H       -1.3330    -2.4410    -1.5970 H     1 <1>   0.0800 
 27 H       -2.9290    -0.3660    -1.4150 H     1 <1>   0.0800 
 28 H       -3.3240     0.2180     0.1840 H     1 <1>   0.0800 
 29 H       -5.1220    -1.2170    -0.7930 H     1 <1>   0.0800 
 30 H       -4.5070    -1.8570     0.6990 H     1 <1>   0.0800 
 31 H       -4.7630    -3.6510    -0.9080 H     1 <1>   0.0800 
 32 H       -3.7780    -2.8150    -2.0780 H     1 <1>   0.0800 
 33 H       -1.0070    -4.5130     1.3890 H     1 <1>   0.1500 
 34 H       -0.9110    -6.9100     2.0850 H     1 <1>   0.1500 
 35 H       -2.5230    -8.3900     1.0160 H     1 <1>   0.4570 
 36 H       -4.8850    -7.3410    -1.3520 H     1 <1>   0.4000 
 37 H       -4.0250    -9.6740     0.3140 H     1 <1>   0.0800 
 38 H       -4.2760    -9.7700    -1.4160 H     1 <1>   0.0800 
 39 H       -6.6050    -8.9810    -1.1150 H     1 <1>   0.0800 
 40 H       -6.3530    -8.9140     0.6170 H     1 <1>   0.0800 
 41 H       -5.9570   -11.3700     0.6410 H     1 <1>   0.0800 
 42 H       -6.2130   -11.4250    -1.0870 H     1 <1>   0.0800 
 43 H       -8.6550   -11.4520    -1.9120 H     1 <1>   0.1500 
 44 H       -8.1080   -10.6790     2.1440 H     1 <1>   0.1500 
 45 H      -10.7210   -11.0610     1.6140 H     1 <1>   0.1500 
@<TRIPOS>BOND
  1   1   2  1   
  2   1  23  1   
  3   2   3  1   
  4   2   4  1   
  5   2  24  1   
  6   3   5  1   
  7   3  25  1   
  8   3  26  1   
  9   4   6  1   
 10   4  27  1   
 11   4  28  1   
 12   5   7  1   
 13   5   8  1   
 14   6   8  1   
 15   6  29  1   
 16   6  30  1   
 17   7   9  ar  
 18   7  10  ar  
 19   8  31  1   
 20   8  32  1   
 21   9  11  ar  
 22  10  12  ar  
 23  10  33  1   
 24  11  13  ar  
 25  11  14  1   
 26  12  13  ar  
 27  12  34  1   
 28  13  35  1   
 29  14  15  1   
 30  14  36  1   
 31  15  16  1   
 32  15  37  1   
 33  15  38  1   
 34  16  17  1   
 35  16  39  1   
 36  16  40  1   
 37  17  18  1   
 38  17  41  1   
 39  17  42  1   
 40  18  19  1   
 41  18  20  1   
 42  19  21  2   
 43  19  43  1   
 44  20  22  2   
 45  20  44  1   
 46  21  22  1   
 47  22  45  1   
@<TRIPOS>SUBSTRUCTURE
  1 ****  11 GROUP 4 **** **** 0

# MOE 2024.06 (io_trps.svl 2023.06)
