@<TRIPOS>MOLECULE
Untitled Document
40 41 1 0 0 
SMALL
USER_CHARGES


@<TRIPOS>ATOM
  1 CL      -1.1140    -1.4040     1.8020 Cl    1 <1>  -0.1770 
  2 C       -2.2630    -1.3140     0.4970 C.ar  1 <1>   0.4870 
  3 N       -3.3290    -0.5670     0.7080 N.ar  1 <1>  -0.6200 
  4 C       -1.9860    -2.0220    -0.6560 C.ar  1 <1>  -0.1500 
  5 C       -4.2120    -0.4940    -0.3030 C.ar  1 <1>   0.3100 
  6 C       -2.8830    -1.9630    -1.6980 C.ar  1 <1>  -0.1500 
  7 C       -5.4180     0.3220    -0.1600 C.ar  1 <1>   0.6200 
  8 C       -4.0040    -1.1850    -1.5010 C.ar  1 <1>  -0.1500 
  9 N       -5.2920     1.5590     0.2740 N.ar  1 <1>  -0.6200 
 10 N       -6.5740    -0.2150    -0.5000 N.ar  1 <1>  -0.6200 
 11 C       -6.4040     2.2290     0.3650 C.ar  1 <1>   0.7200 
 12 C       -7.6010     0.5740    -0.3630 C.ar  1 <1>   0.7200 
 13 N       -7.5910     1.8040     0.0620 N.ar  1 <1>  -0.6200 
 14 N       -6.3550     3.5020     0.8100 N.pl3 1 <1>  -0.8690 
 15 N       -8.7810     0.0210    -0.7120 N.pl3 1 <1>  -0.8690 
 16 C       -5.1860     4.4480     0.6720 C.3   1 <1>   0.2890 
 17 C      -10.1320     0.5920    -0.3760 C.3   1 <1>   0.2890 
 18 C       -4.5130     4.5930    -0.7450 C.3   1 <1>   1.0200 
 19 C       -4.1960     4.1560     1.8120 C.3   1 <1>  -0.2400 
 20 C      -10.6870     0.2520     1.0540 C.3   1 <1>   1.0200 
 21 C      -11.0660     0.1480    -1.5120 C.3   1 <1>  -0.2400 
 22 F       -3.7610     5.6880    -0.8120 F     1 <1>  -0.3400 
 23 F       -5.4090     4.7110    -1.7210 F     1 <1>  -0.3400 
 24 F       -3.7150     3.5900    -1.0950 F     1 <1>  -0.3400 
 25 F      -11.8870     0.7850     1.2670 F     1 <1>  -0.3400 
 26 F       -9.9110     0.6850     2.0410 F     1 <1>  -0.3400 
 27 F      -10.8300    -1.0570     1.2440 F     1 <1>  -0.3400 
 28 H       -1.0850    -2.6030    -0.7240 H     1 <1>   0.1500 
 29 H       -2.7180    -2.4960    -2.6190 H     1 <1>   0.1500 
 30 H       -4.7370    -1.1030    -2.2850 H     1 <1>   0.1500 
 31 H       -7.2750     3.9410     0.8020 H     1 <1>   0.4000 
 32 H       -8.7350    -0.9880    -0.8520 H     1 <1>   0.4000 
 33 H       -5.5850     5.4260     0.8730 H     1 <1>   0.0800 
 34 H      -10.0660     1.6650    -0.4210 H     1 <1>   0.0800 
 35 H       -3.7130     3.2060     1.6640 H     1 <1>   0.0800 
 36 H       -4.7110     4.1420     2.7560 H     1 <1>   0.0800 
 37 H       -3.4360     4.9160     1.8490 H     1 <1>   0.0800 
 38 H      -11.1830    -0.9210    -1.5120 H     1 <1>   0.0800 
 39 H      -10.6660     0.4610    -2.4600 H     1 <1>   0.0800 
 40 H      -12.0360     0.5970    -1.3930 H     1 <1>   0.0800 
@<TRIPOS>BOND
  1   1   2  1   
  2   2   3  ar  
  3   2   4  ar  
  4   3   5  ar  
  5   4   6  ar  
  6   4  28  1   
  7   5   7  1   
  8   5   8  ar  
  9   6   8  ar  
 10   6  29  1   
 11   7   9  ar  
 12   7  10  ar  
 13   8  30  1   
 14   9  11  ar  
 15  10  12  ar  
 16  11  13  ar  
 17  11  14  1   
 18  12  13  ar  
 19  12  15  1   
 20  14  16  1   
 21  14  31  1   
 22  15  17  1   
 23  15  32  1   
 24  16  18  1   
 25  16  19  1   
 26  16  33  1   
 27  17  20  1   
 28  17  21  1   
 29  17  34  1   
 30  18  22  1   
 31  18  23  1   
 32  18  24  1   
 33  19  35  1   
 34  19  36  1   
 35  19  37  1   
 36  20  25  1   
 37  20  26  1   
 38  20  27  1   
 39  21  38  1   
 40  21  39  1   
 41  21  40  1   
@<TRIPOS>SUBSTRUCTURE
  1 ****   9 GROUP 4 **** **** 0

# MOE 2024.06 (io_trps.svl 2023.06)
