@<TRIPOS>MOLECULE
NONAME
48 49 1 0 0 
SMALL
USER_CHARGES


@<TRIPOS>ATOM
  1 CL      -1.6160    -4.2100     4.8560 Cl    1 <1>  -0.1770 
  2 C       -1.6690    -4.6180     3.1610 C.ar  1 <1>   0.1770 
  3 C       -2.5250    -3.9270     2.3250 C.ar  1 <1>  -0.1500 
  4 C       -0.8580    -5.6260     2.6800 C.ar  1 <1>  -0.1500 
  5 C       -2.5840    -4.2500     0.9780 C.ar  1 <1>  -0.1440 
  6 C       -0.9130    -5.9580     1.3390 C.ar  1 <1>  -0.1500 
  7 C       -1.7880    -5.2860     0.4830 C.ar  1 <1>   0.0830 
  8 C       -3.5070    -3.4440     0.0730 C.3   1 <1>  -0.0960 
  9 O       -1.9260    -5.6050    -0.8320 O.3   1 <1>  -0.3630 
 10 C       -1.1180    -6.5850    -1.4740 C.3   1 <1>   0.1810 
 11 C       -1.5420    -8.0190    -1.1400 C.2   1 <1>   0.5690 
 12 O       -0.7420    -8.7050    -0.5500 O.2   1 <1>  -0.5700 
 13 N       -2.7690    -8.5290    -1.4990 N.am  1 <1>  -0.6600 
 14 C       -2.9110   -10.0080    -1.6890 C.3   1 <1>   0.3200 
 15 C       -3.9420    -7.6720    -1.8800 C.3   1 <1>   0.1400 
 16 C       -4.0580   -10.5110    -0.8380 C.2   1 <1>  -0.3320 
 17 C       -4.6530    -6.9880    -0.6820 C.3   1 <1>   0.3430 
 18 N       -5.3010   -10.7770    -1.2880 N.pl3 1 <1>   0.0330 
 19 C       -4.0600   -10.7820     0.4840 C.2   1 <1>   0.0770 
 20 N       -4.8230    -7.8690     0.5200 N.4   1 <1>  -0.9590 
 21 C       -5.9970   -11.1340    -0.1890 C.2   1 <1>   0.0360 
 22 N       -5.2940   -11.1180     0.8970 N.2   1 <1>  -0.5650 
 23 C       -6.1580    -7.7320     1.1680 C.3   1 <1>   0.2630 
 24 C       -3.7380    -7.6510     1.5230 C.3   1 <1>   0.2630 
 25 H       -3.1280    -3.1370     2.7360 H     1 <1>   0.1500 
 26 H       -0.1890    -6.1380     3.3510 H     1 <1>   0.1500 
 27 H       -0.2640    -6.7420     0.9930 H     1 <1>   0.1500 
 28 H       -3.7110    -2.4790     0.5050 H     1 <1>   0.0800 
 29 H       -4.4400    -3.9570    -0.0680 H     1 <1>   0.0800 
 30 H       -3.0470    -3.2800    -0.8850 H     1 <1>   0.0800 
 31 H       -0.0910    -6.4180    -1.2030 H     1 <1>   0.0800 
 32 H       -1.2090    -6.4320    -2.5330 H     1 <1>   0.0800 
 33 H       -2.0090   -10.5200    -1.3980 H     1 <1>   0.0800 
 34 H       -3.0850   -10.2260    -2.7290 H     1 <1>   0.0800 
 35 H       -4.6620    -8.2690    -2.4090 H     1 <1>   0.0800 
 36 H       -3.6180    -6.9080    -2.5650 H     1 <1>   0.0800 
 37 H       -5.6190    -6.6530    -1.0200 H     1 <1>   0.0800 
 38 H       -4.1010    -6.1100    -0.3990 H     1 <1>   0.0800 
 39 H       -5.6520   -10.7630    -2.2530 H     1 <1>   0.2700 
 40 H       -3.2290   -10.7330     1.1740 H     1 <1>   0.1500 
 41 H       -4.7290    -8.8580     0.2090 H     1 <1>   0.4500 
 42 H       -7.0380   -11.4110    -0.2320 H     1 <1>   0.1500 
 43 H       -6.2840    -6.7380     1.5640 H     1 <1>   0.0800 
 44 H       -6.2470    -8.4420     1.9760 H     1 <1>   0.0800 
 45 H       -6.9420    -7.9300     0.4570 H     1 <1>   0.0800 
 46 H       -3.7440    -6.6310     1.8720 H     1 <1>   0.0800 
 47 H       -2.7770    -7.8600     1.0830 H     1 <1>   0.0800 
 48 H       -3.8740    -8.3090     2.3660 H     1 <1>   0.0800 
@<TRIPOS>BOND
  1   1   2  1   
  2   2   3  ar  
  3   2   4  ar  
  4   3   5  ar  
  5   3  25  1   
  6   4   6  ar  
  7   4  26  1   
  8   5   7  ar  
  9   5   8  1   
 10   6   7  ar  
 11   6  27  1   
 12   7   9  1   
 13   8  28  1   
 14   8  29  1   
 15   8  30  1   
 16   9  10  1   
 17  10  11  1   
 18  10  31  1   
 19  10  32  1   
 20  11  12  2   
 21  11  13  am  
 22  13  14  1   
 23  13  15  1   
 24  14  16  1   
 25  14  33  1   
 26  14  34  1   
 27  15  17  1   
 28  15  35  1   
 29  15  36  1   
 30  16  18  1   
 31  16  19  2   
 32  17  20  1   
 33  17  37  1   
 34  17  38  1   
 35  18  21  1   
 36  18  39  1   
 37  19  22  1   
 38  19  40  1   
 39  20  23  1   
 40  20  24  1   
 41  20  41  1   
 42  21  22  2   
 43  21  42  1   
 44  23  43  1   
 45  23  44  1   
 46  23  45  1   
 47  24  46  1   
 48  24  47  1   
 49  24  48  1   
@<TRIPOS>SUBSTRUCTURE
  1 ****  24 GROUP 4 **** **** 0

# MOE 2024.06 (io_trps.svl 2023.06)
