@<TRIPOS>MOLECULE
NONAME
46 48 1 0 0 
SMALL
USER_CHARGES


@<TRIPOS>ATOM
  1 S        0.1240    -0.2950     1.0570 S.o2  1 <1>   1.4470 
  2 O       -0.5680     0.5380     2.0120 O.2   1 <1>  -0.6500 
  3 O        0.9690    -1.3690     1.5320 O.2   1 <1>  -0.6500 
  4 N       -1.0520    -1.0310     0.0820 N.am  1 <1>  -0.8490 
  5 C        1.0700     0.7330    -0.1040 C.ar  1 <1>  -0.0090 
  6 C       -1.7670    -2.0810     0.8300 C.3   1 <1>   0.1960 
  7 C       -2.0160    -0.0680    -0.4720 C.3   1 <1>   0.1960 
  8 C        1.1610     2.1110     0.0590 C.ar  1 <1>  -0.1500 
  9 C        1.7250     0.1630    -1.1880 C.ar  1 <1>  -0.1500 
 10 C       -2.6880    -2.8810    -0.1240 C.3   1 <1>   0.4230 
 11 C       -2.9590    -0.7920    -1.4490 C.3   1 <1>  -0.1600 
 12 C        1.8790     2.9140    -0.8210 C.ar  1 <1>   0.0730 
 13 C        2.4440     0.9390    -2.0790 C.ar  1 <1>  -0.1500 
 14 N       -3.3700    -4.0750     0.4870 N.4   1 <1>  -0.9590 
 15 C       -3.7390    -1.9450    -0.7570 C.3   1 <1>  -0.1060 
 16 C        1.9610     4.3350    -0.6280 C.1   1 <1>   0.4840 
 17 C        2.5190     2.3070    -1.8950 C.ar  1 <1>  -0.1500 
 18 C       -4.2160    -4.8530    -0.4680 C.3   1 <1>   0.3430 
 19 C       -2.5340    -4.9380     1.3640 C.3   1 <1>   0.2630 
 20 C       -4.6380    -1.3960     0.3660 C.2   1 <1>   0.9060 
 21 C       -4.6070    -2.7060    -1.8010 C.3   1 <1>  -0.1600 
 22 N        2.0260     5.4630    -0.4790 N.1   1 <1>  -0.5570 
 23 C       -4.2880    -4.2100    -1.8610 C.3   1 <1>  -0.1600 
 24 O       -4.9560    -2.1540     1.2960 O.co2 1 <1>  -0.9000 
 25 O       -5.0090    -0.2240     0.3320 O.co2 1 <1>  -0.9000 
 26 H       -1.0420    -2.7530     1.2540 H     1 <1>   0.0800 
 27 H       -2.3360    -1.6400     1.6330 H     1 <1>   0.0800 
 28 H       -2.5800     0.4010     0.3210 H     1 <1>   0.0800 
 29 H       -1.4960     0.7080    -1.0070 H     1 <1>   0.0800 
 30 H        0.6590     2.5710     0.8960 H     1 <1>   0.1500 
 31 H        1.6710    -0.9040    -1.3340 H     1 <1>   0.1500 
 32 H       -2.0530    -3.2410    -0.9140 H     1 <1>   0.0800 
 33 H       -3.6570    -0.0730    -1.8430 H     1 <1>   0.0800 
 34 H       -2.3800    -1.1670    -2.2740 H     1 <1>   0.0800 
 35 H        2.9450     0.4780    -2.9140 H     1 <1>   0.1500 
 36 H       -4.0780    -3.5790     1.0960 H     1 <1>   0.4500 
 37 H        3.0820     2.9070    -2.5910 H     1 <1>   0.1500 
 38 H       -3.8340    -5.8560    -0.5650 H     1 <1>   0.0800 
 39 H       -5.2140    -4.9150    -0.0640 H     1 <1>   0.0800 
 40 H       -1.7410    -5.3930     0.7940 H     1 <1>   0.0800 
 41 H       -3.1400    -5.7130     1.8030 H     1 <1>   0.0800 
 42 H       -2.1040    -4.3540     2.1610 H     1 <1>   0.0800 
 43 H       -5.6480    -2.5840    -1.5460 H     1 <1>   0.0800 
 44 H       -4.4840    -2.2830    -2.7840 H     1 <1>   0.0800 
 45 H       -3.3520    -4.3650    -2.3680 H     1 <1>   0.0800 
 46 H       -5.0460    -4.7110    -2.4380 H     1 <1>   0.0800 
@<TRIPOS>BOND
  1   1   2  2   
  2   1   3  2   
  3   1   4  am  
  4   1   5  1   
  5   4   6  1   
  6   4   7  1   
  7   5   8  ar  
  8   5   9  ar  
  9   6  10  1   
 10   6  26  1   
 11   6  27  1   
 12   7  11  1   
 13   7  28  1   
 14   7  29  1   
 15   8  12  ar  
 16   8  30  1   
 17   9  13  ar  
 18   9  31  1   
 19  10  14  1   
 20  10  15  1   
 21  10  32  1   
 22  11  15  1   
 23  11  33  1   
 24  11  34  1   
 25  12  16  1   
 26  12  17  ar  
 27  13  17  ar  
 28  13  35  1   
 29  14  18  1   
 30  14  19  1   
 31  14  36  1   
 32  15  20  1   
 33  15  21  1   
 34  16  22  3   
 35  17  37  1   
 36  18  23  1   
 37  18  38  1   
 38  18  39  1   
 39  19  40  1   
 40  19  41  1   
 41  19  42  1   
 42  20  24  ar  
 43  20  25  ar  
 44  21  23  1   
 45  21  43  1   
 46  21  44  1   
 47  23  45  1   
 48  23  46  1   
@<TRIPOS>SUBSTRUCTURE
  1 ****   4 GROUP 4 **** **** 0

# MOE 2024.06 (io_trps.svl 2023.06)
