@<TRIPOS>MOLECULE
NONAME
45 46 1 0 0 
SMALL
USER_CHARGES


@<TRIPOS>ATOM
  1 S        0.5250     0.1300     0.0620 S.o2  1 <1>   1.3330 
  2 O        0.6350    -0.2400     1.4560 O.2   1 <1>  -0.6500 
  3 O        0.3990    -0.9070    -0.9380 O.2   1 <1>  -0.6500 
  4 N       -0.8010     1.1770    -0.0890 N.am  1 <1>  -0.8490 
  5 C        1.9190     1.1600    -0.3860 C.3   1 <1>  -0.0550 
  6 C       -0.9390     2.1090     1.0360 C.3   1 <1>   0.1160 
  7 C       -2.0560     0.4480    -0.2920 C.3   1 <1>   0.1160 
  8 C        3.2550     0.3920    -0.4360 C.3   1 <1>  -0.0800 
  9 C        4.4540     1.2170    -0.8800 C.3   1 <1>   0.2200 
 10 C        3.7160    -0.1820     0.9110 C.3   1 <1>   0.1200 
 11 N        4.4400     2.5560    -0.2410 N.am  1 <1>  -0.7300 
 12 C        5.5880     0.4010    -0.2770 C.3   1 <1>   0.1200 
 13 O        5.1050    -0.0230     0.9610 O.3   1 <1>  -0.5600 
 14 C        4.0350     3.7120    -0.8420 C.2   1 <1>   0.5440 
 15 O        3.6110     3.6560    -1.9780 O.2   1 <1>  -0.5700 
 16 C        4.0780     4.9630    -0.1350 C.ar  1 <1>   0.0860 
 17 C        3.2780     5.2200     0.9760 C.ar  1 <1>   0.1900 
 18 C        4.9160     6.0100    -0.5110 C.ar  1 <1>   0.1900 
 19 F        2.4640     4.2920     1.4000 F     1 <1>  -0.1900 
 20 C        3.2930     6.4180     1.6630 C.ar  1 <1>  -0.1500 
 21 F        5.7190     5.8470    -1.5270 F     1 <1>  -0.1900 
 22 C        4.9630     7.2260     0.1450 C.ar  1 <1>  -0.1500 
 23 C        4.1390     7.4350     1.2480 C.ar  1 <1>   0.0820 
 24 O        4.1090     8.5850     1.9560 O.3   1 <1>  -0.3620 
 25 C        4.9060     9.6960     1.6090 C.3   1 <1>   0.0400 
 26 H        1.7360     1.5910    -1.3520 H     1 <1>   0.0800 
 27 H        1.9930     1.9630     0.3190 H     1 <1>   0.0800 
 28 H       -1.7490     2.7940     0.8500 H     1 <1>   0.0800 
 29 H       -0.0370     2.6810     1.1590 H     1 <1>   0.0800 
 30 H       -1.1370     1.5720     1.9490 H     1 <1>   0.0800 
 31 H       -2.8740     1.1380    -0.4080 H     1 <1>   0.0800 
 32 H       -2.2520    -0.2010     0.5450 H     1 <1>   0.0800 
 33 H       -1.9930    -0.1500    -1.1860 H     1 <1>   0.0800 
 34 H        3.1450    -0.4320    -1.1200 H     1 <1>   0.0800 
 35 H        4.5320     1.3040    -1.9510 H     1 <1>   0.0800 
 36 H        3.4780    -1.2280     1.0030 H     1 <1>   0.0800 
 37 H        3.2970     0.3580     1.7430 H     1 <1>   0.0800 
 38 H        4.7320     2.5450     0.7400 H     1 <1>   0.3700 
 39 H        6.4890     0.9730    -0.1420 H     1 <1>   0.0800 
 40 H        5.7900    -0.4720    -0.8720 H     1 <1>   0.0800 
 41 H        2.6550     6.5690     2.5140 H     1 <1>   0.1500 
 42 H        5.6380     7.9810    -0.2120 H     1 <1>   0.1500 
 43 H        4.6990    10.4870     2.3070 H     1 <1>   0.0800 
 44 H        4.6510    10.0130     0.6130 H     1 <1>   0.0800 
 45 H        5.9430     9.4170     1.6720 H     1 <1>   0.0800 
@<TRIPOS>BOND
  1   1   2  2   
  2   1   3  2   
  3   1   4  am  
  4   1   5  1   
  5   4   6  1   
  6   4   7  1   
  7   5   8  1   
  8   5  26  1   
  9   5  27  1   
 10   6  28  1   
 11   6  29  1   
 12   6  30  1   
 13   7  31  1   
 14   7  32  1   
 15   7  33  1   
 16   8   9  1   
 17   8  10  1   
 18   8  34  1   
 19   9  11  1   
 20   9  12  1   
 21   9  35  1   
 22  10  13  1   
 23  10  36  1   
 24  10  37  1   
 25  11  14  am  
 26  11  38  1   
 27  12  13  1   
 28  12  39  1   
 29  12  40  1   
 30  14  15  2   
 31  14  16  1   
 32  16  17  ar  
 33  16  18  ar  
 34  17  19  1   
 35  17  20  ar  
 36  18  21  1   
 37  18  22  ar  
 38  20  23  ar  
 39  20  41  1   
 40  22  23  ar  
 41  22  42  1   
 42  23  24  1   
 43  24  25  1   
 44  25  43  1   
 45  25  44  1   
 46  25  45  1   
@<TRIPOS>SUBSTRUCTURE
  1 ****  14 GROUP 4 **** **** 0

# MOE 2024.06 (io_trps.svl 2023.06)
