@<TRIPOS>MOLECULE
NONAME
45 47 1 0 0 
SMALL
USER_CHARGES


@<TRIPOS>ATOM
  1 O       -0.3020    -0.3390     2.6980 O.2   1 <1>  -0.5700 
  2 C       -0.8530     0.4870     2.0090 C.2   1 <1>   0.5690 
  3 N       -1.6400     0.1170     0.9500 N.am  1 <1>  -0.6600 
  4 C       -0.6580     1.9550     2.3710 C.3   1 <1>   0.0440 
  5 C       -2.3390     1.0220     0.0030 C.3   1 <1>   0.1400 
  6 C       -1.8570    -1.2970     0.5710 C.3   1 <1>   0.1400 
  7 C       -0.0470     2.7870     1.2470 C.ar  1 <1>  -0.1440 
  8 C       -3.1220     0.1010    -0.9350 C.3   1 <1>   0.2000 
  9 C       -3.1310    -1.2790    -0.2750 C.3   1 <1>  -0.0800 
 10 C       -0.6290     3.9850     0.8590 C.ar  1 <1>  -0.1500 
 11 C        1.0950     2.3460     0.5950 C.ar  1 <1>  -0.1500 
 12 O       -4.4260     0.5410    -1.1070 O.3   1 <1>  -0.6800 
 13 C       -3.2240    -2.4210    -1.3010 C.3   1 <1>  -0.0170 
 14 C       -0.0860     4.7290    -0.1740 C.ar  1 <1>  -0.1500 
 15 C        1.6390     3.0870    -0.4380 C.ar  1 <1>  -0.1500 
 16 C       -3.2590    -3.7840    -0.6280 C.ar  1 <1>   0.1670 
 17 C        1.0550     4.2790    -0.8330 C.ar  1 <1>   0.0830 
 18 N       -2.0900    -4.3110    -0.3020 N.ar  1 <1>  -0.6200 
 19 C       -4.4800    -4.4090    -0.3840 C.ar  1 <1>   0.1600 
 20 O        1.6470     4.9410    -1.8570 O.3   1 <1>  -0.3630 
 21 C       -2.2230    -5.4890     0.2840 C.ar  1 <1>   0.1600 
 22 N       -4.6160    -5.5870     0.2020 N.ar  1 <1>  -0.6200 
 23 C        1.1420     6.1710    -2.3250 C.3   1 <1>   0.0400 
 24 C       -3.4440    -6.1060     0.5280 C.ar  1 <1>   0.1600 
 25 H       -1.6100     2.3560     2.6600 H     1 <1>   0.0800 
 26 H       -0.0110     2.0130     3.2270 H     1 <1>   0.0800 
 27 H       -2.9940     1.6820     0.5440 H     1 <1>   0.0800 
 28 H       -1.6200     1.5910    -0.5600 H     1 <1>   0.0800 
 29 H       -1.0140    -1.6390    -0.0070 H     1 <1>   0.0800 
 30 H       -1.9660    -1.9230     1.4410 H     1 <1>   0.0800 
 31 H       -2.6430     0.0750    -1.9000 H     1 <1>   0.0800 
 32 H       -3.9600    -1.3450     0.4070 H     1 <1>   0.0800 
 33 H       -1.5100     4.3480     1.3590 H     1 <1>   0.1500 
 34 H        1.5640     1.4210     0.8870 H     1 <1>   0.1500 
 35 H       -4.8870     0.5740    -0.2470 H     1 <1>   0.4000 
 36 H       -2.3820    -2.3840    -1.9710 H     1 <1>   0.0800 
 37 H       -4.1120    -2.2910    -1.8940 H     1 <1>   0.0800 
 38 H       -0.5600     5.6510    -0.4510 H     1 <1>   0.1500 
 39 H        2.5220     2.7440    -0.9460 H     1 <1>   0.1500 
 40 H       -5.3860    -3.9120    -0.6830 H     1 <1>   0.1500 
 41 H       -1.3210    -5.9920     0.5870 H     1 <1>   0.1500 
 42 H        1.7720     6.5060    -3.1290 H     1 <1>   0.0800 
 43 H        1.1630     6.8850    -1.5220 H     1 <1>   0.0800 
 44 H        0.1390     6.0220    -2.6840 H     1 <1>   0.0800 
 45 H       -3.4500    -7.0670     1.0120 H     1 <1>   0.1500 
@<TRIPOS>BOND
  1   1   2  2   
  2   2   3  am  
  3   2   4  1   
  4   3   5  1   
  5   3   6  1   
  6   4   7  1   
  7   4  25  1   
  8   4  26  1   
  9   5   8  1   
 10   5  27  1   
 11   5  28  1   
 12   6   9  1   
 13   6  29  1   
 14   6  30  1   
 15   7  10  ar  
 16   7  11  ar  
 17   8   9  1   
 18   8  12  1   
 19   8  31  1   
 20   9  13  1   
 21   9  32  1   
 22  10  14  ar  
 23  10  33  1   
 24  11  15  ar  
 25  11  34  1   
 26  12  35  1   
 27  13  16  1   
 28  13  36  1   
 29  13  37  1   
 30  14  17  ar  
 31  14  38  1   
 32  15  17  ar  
 33  15  39  1   
 34  16  18  ar  
 35  16  19  ar  
 36  17  20  1   
 37  18  21  ar  
 38  19  22  ar  
 39  19  40  1   
 40  20  23  1   
 41  21  24  ar  
 42  21  41  1   
 43  22  24  ar  
 44  23  42  1   
 45  23  43  1   
 46  23  44  1   
 47  24  45  1   
@<TRIPOS>SUBSTRUCTURE
  1 ****   3 GROUP 4 **** **** 0

# MOE 2024.06 (io_trps.svl 2023.06)
