@<TRIPOS>MOLECULE
NONAME
39 42 1 0 0 
SMALL
USER_CHARGES


@<TRIPOS>ATOM
  1 S       -0.0090    -0.2980     0.1480 S.3   1 <1>  -0.0800 
  2 C       -0.7910     1.2710    -0.1370 C.ar  1 <1>   0.0400 
  3 C       -1.4700    -1.1640    -0.3250 C.2   1 <1>  -0.1100 
  4 C       -0.2990     2.5580     0.0150 C.ar  1 <1>   0.4100 
  5 C       -2.0820     1.0790    -0.5540 C.ar  1 <1>   0.2560 
  6 C       -2.4470    -0.3020    -0.6590 C.2   1 <1>  -0.1500 
  7 N       -1.0820     3.5920    -0.2360 N.ar  1 <1>  -0.6200 
  8 N        0.9910     2.8460     0.4140 N.pl3 1 <1>  -0.8380 
  9 N       -2.8750     2.1130    -0.8130 N.ar  1 <1>  -0.5660 
 10 C       -2.3210     3.2950    -0.6320 C.ar  1 <1>   0.4700 
 11 C        1.2390     3.7660     1.5700 C.3   1 <1>   0.2090 
 12 C        2.1720     2.2330    -0.2550 C.3   1 <1>   0.2090 
 13 C        2.1510     4.9980     1.2830 C.3   1 <1>   0.4230 
 14 C        3.0400     3.3080    -0.9380 C.3   1 <1>  -0.0800 
 15 N        2.0990     5.5690    -0.1250 N.4   1 <1>  -0.9590 
 16 C        3.6100     4.7500     1.7240 C.3   1 <1>   0.1200 
 17 C        4.3650     3.5760    -0.2050 C.3   1 <1>   0.1200 
 18 C        2.2270     4.5760    -1.2480 C.3   1 <1>   0.3430 
 19 C        0.8270     6.3280    -0.3160 C.3   1 <1>   0.2630 
 20 O        4.1750     3.6020     1.1720 O.3   1 <1>  -0.5600 
 21 H       -1.4340    -2.2390    -0.3000 H     1 <1>   0.1500 
 22 H       -3.4380    -0.5630    -0.9830 H     1 <1>   0.1500 
 23 H       -2.9600     4.1390    -0.8320 H     1 <1>   0.1500 
 24 H        0.2930     4.1320     1.9280 H     1 <1>   0.0800 
 25 H        1.6640     3.1930     2.3770 H     1 <1>   0.0800 
 26 H        2.7430     1.6630     0.4590 H     1 <1>   0.0800 
 27 H        1.8270     1.5470    -1.0100 H     1 <1>   0.0800 
 28 H        1.8020     5.7720     1.9450 H     1 <1>   0.0800 
 29 H        3.3160     2.8990    -1.8930 H     1 <1>   0.0800 
 30 H        2.8850     6.2240    -0.2090 H     1 <1>   0.4500 
 31 H        3.6310     4.6100     2.7910 H     1 <1>   0.0800 
 32 H        4.2380     5.5920     1.4920 H     1 <1>   0.0800 
 33 H        4.8350     4.4910    -0.5240 H     1 <1>   0.0800 
 34 H        5.0460     2.7650    -0.4000 H     1 <1>   0.0800 
 35 H        1.2400     4.2580    -1.5480 H     1 <1>   0.0800 
 36 H        2.6700     5.0710    -2.0970 H     1 <1>   0.0800 
 37 H       -0.0180     5.6680    -0.2130 H     1 <1>   0.0800 
 38 H        0.7970     6.7700    -1.2980 H     1 <1>   0.0800 
 39 H        0.7410     7.1120     0.4180 H     1 <1>   0.0800 
@<TRIPOS>BOND
  1   1   2  1   
  2   1   3  1   
  3   2   4  ar  
  4   2   5  ar  
  5   3   6  2   
  6   3  21  1   
  7   4   7  ar  
  8   4   8  1   
  9   5   6  1   
 10   5   9  ar  
 11   6  22  1   
 12   7  10  ar  
 13   8  11  1   
 14   8  12  1   
 15   9  10  ar  
 16  10  23  1   
 17  11  13  1   
 18  11  24  1   
 19  11  25  1   
 20  12  14  1   
 21  12  26  1   
 22  12  27  1   
 23  13  15  1   
 24  13  16  1   
 25  13  28  1   
 26  14  17  1   
 27  14  18  1   
 28  14  29  1   
 29  15  18  1   
 30  15  19  1   
 31  15  30  1   
 32  16  20  1   
 33  16  31  1   
 34  16  32  1   
 35  17  20  1   
 36  17  33  1   
 37  17  34  1   
 38  18  35  1   
 39  18  36  1   
 40  19  37  1   
 41  19  38  1   
 42  19  39  1   
@<TRIPOS>SUBSTRUCTURE
  1 ****   8 GROUP 4 **** **** 0

# MOE 2024.06 (io_trps.svl 2023.06)
