@<TRIPOS>MOLECULE
NONAME
47 49 1 0 0 
SMALL
USER_CHARGES


@<TRIPOS>ATOM
  1 S       -0.6300    -0.1320     1.2990 S.3   1 <1>  -0.0800 
  2 C       -0.2020     0.8140    -0.1070 C.2   1 <1>   0.1980 
  3 C       -2.2580     0.4810     1.1850 C.2   1 <1>  -0.1400 
  4 N       -1.1770     1.4790    -0.5860 N.2   1 <1>  -0.5650 
  5 C        1.2410     0.7250    -0.5810 C.3   1 <1>   0.0200 
  6 C       -2.3290     1.3410     0.1580 C.2   1 <1>   0.0460 
  7 C       -3.2810    -0.0710     2.1490 C.3   1 <1>   0.3890 
  8 C        1.4830     1.4760    -1.9000 C.3   1 <1>  -0.1600 
  9 C       -3.5280     2.1420    -0.3090 C.3   1 <1>  -0.0590 
 10 N       -3.8560    -1.3360     1.6060 N.pl3 1 <1>  -0.8690 
 11 C        2.9400     1.3570    -2.3590 C.3   1 <1>  -0.2400 
 12 C       -3.7670    -1.9960     0.4400 C.ar  1 <1>   0.7710 
 13 N       -4.4900    -3.0960     0.3710 N.ar  1 <1>  -0.6200 
 14 N       -3.0040    -1.5680    -0.5870 N.ar  1 <1>  -0.1790 
 15 C       -4.4580    -3.7950    -0.7500 C.ar  1 <1>   0.4100 
 16 C       -2.9460    -2.2500    -1.7530 C.ar  1 <1>   0.2110 
 17 N       -5.2080    -4.9250    -0.8010 N.pl3 1 <1>  -0.8380 
 18 C       -3.6810    -3.3830    -1.8510 C.ar  1 <1>  -0.1500 
 19 C       -5.2310    -5.9440    -1.8920 C.3   1 <1>   0.2090 
 20 C       -6.1230    -5.3580     0.2950 C.3   1 <1>   0.2090 
 21 C       -5.8070    -7.2000    -1.2400 C.3   1 <1>   0.2000 
 22 C       -6.7690    -6.6520    -0.1970 C.3   1 <1>  -0.1600 
 23 O       -4.7890    -7.8550    -0.5690 O.3   1 <1>  -0.6800 
 24 H        1.5020    -0.3100    -0.7070 H     1 <1>   0.0800 
 25 H        1.8750     1.1370     0.1840 H     1 <1>   0.0800 
 26 H       -4.0730     0.6450     2.2920 H     1 <1>   0.0800 
 27 H       -2.8200    -0.2570     3.1050 H     1 <1>   0.0800 
 28 H        1.2360     2.5160    -1.7660 H     1 <1>   0.0800 
 29 H        0.8350     1.0800    -2.6630 H     1 <1>   0.0800 
 30 H       -4.3910     1.9500     0.3020 H     1 <1>   0.0800 
 31 H       -3.7610     1.9010    -1.3300 H     1 <1>   0.0800 
 32 H       -3.2970     3.1920    -0.2550 H     1 <1>   0.0800 
 33 H       -4.4720    -1.8080     2.2760 H     1 <1>   0.4000 
 34 H        3.6040     1.7740    -1.6220 H     1 <1>   0.0800 
 35 H        3.0790     1.8950    -3.2810 H     1 <1>   0.0800 
 36 H        3.2060     0.3280    -2.5240 H     1 <1>   0.0800 
 37 H       -2.4680    -0.7090    -0.4320 H     1 <1>   0.4570 
 38 H       -2.3270    -1.8730    -2.5530 H     1 <1>   0.1500 
 39 H       -3.6840    -3.9670    -2.7500 H     1 <1>   0.1500 
 40 H       -4.2520    -6.1360    -2.2960 H     1 <1>   0.0800 
 41 H       -5.8910    -5.6080    -2.6740 H     1 <1>   0.0800 
 42 H       -6.8630    -4.6020     0.4970 H     1 <1>   0.0800 
 43 H       -5.5480    -5.5410     1.1880 H     1 <1>   0.0800 
 44 H       -6.2590    -7.8840    -1.9380 H     1 <1>   0.0800 
 45 H       -7.7040    -6.4110    -0.6690 H     1 <1>   0.0800 
 46 H       -6.9580    -7.3490     0.6010 H     1 <1>   0.0800 
 47 H       -4.3320    -7.2090     0.0060 H     1 <1>   0.4000 
@<TRIPOS>BOND
  1   1   2  1   
  2   1   3  1   
  3   2   4  2   
  4   2   5  1   
  5   3   6  2   
  6   3   7  1   
  7   4   6  1   
  8   5   8  1   
  9   5  24  1   
 10   5  25  1   
 11   6   9  1   
 12   7  10  1   
 13   7  26  1   
 14   7  27  1   
 15   8  11  1   
 16   8  28  1   
 17   8  29  1   
 18   9  30  1   
 19   9  31  1   
 20   9  32  1   
 21  10  12  1   
 22  10  33  1   
 23  11  34  1   
 24  11  35  1   
 25  11  36  1   
 26  12  13  ar  
 27  12  14  ar  
 28  13  15  ar  
 29  14  16  ar  
 30  14  37  1   
 31  15  17  1   
 32  15  18  ar  
 33  16  18  ar  
 34  16  38  1   
 35  17  19  1   
 36  17  20  1   
 37  18  39  1   
 38  19  21  1   
 39  19  40  1   
 40  19  41  1   
 41  20  22  1   
 42  20  42  1   
 43  20  43  1   
 44  21  22  1   
 45  21  23  1   
 46  21  44  1   
 47  22  45  1   
 48  22  46  1   
 49  23  47  1   
@<TRIPOS>SUBSTRUCTURE
  1 ****  14 GROUP 4 **** **** 0

# MOE 2024.06 (io_trps.svl 2023.06)
