@<TRIPOS>MOLECULE
NONAME
49 51 1 0 0 
SMALL
USER_CHARGES


@<TRIPOS>ATOM
  1 O        1.4990    -1.3210     0.6930 O.co2 1 <1>  -0.9000 
  2 C        1.6330    -0.0990     0.8640 C.2   1 <1>   0.9060 
  3 O        1.4570     0.4040     1.9800 O.co2 1 <1>  -0.9000 
  4 C        2.0380     0.7750    -0.3410 C.3   1 <1>  -0.1060 
  5 C        3.2210     0.1020    -1.0850 C.3   1 <1>   0.2000 
  6 C        2.5280     2.1810     0.1140 C.3   1 <1>  -0.1600 
  7 C        0.8340     0.9010    -1.3150 C.3   1 <1>  -0.0160 
  8 O        2.8720    -1.1790    -1.4800 O.3   1 <1>  -0.6800 
  9 C        4.4920     0.0420    -0.2230 C.3   1 <1>   0.1400 
 10 C        3.8020     2.1090     0.9670 C.3   1 <1>   0.1400 
 11 C       -0.2140     1.9430    -0.9290 C.ar  1 <1>  -0.1440 
 12 N        4.8830     1.4270     0.1960 N.am  1 <1>  -0.6600 
 13 C       -0.3830     3.0860    -1.6980 C.ar  1 <1>  -0.1500 
 14 C       -1.0110     1.7620     0.1910 C.ar  1 <1>  -0.1500 
 15 C        6.0890     1.9740    -0.1720 C.2   1 <1>   0.5690 
 16 C       -1.3320     4.0330    -1.3530 C.ar  1 <1>  -0.1500 
 17 C       -1.9580     2.7080     0.5400 C.ar  1 <1>  -0.1500 
 18 O        6.8700     1.3630    -0.8670 O.2   1 <1>  -0.5700 
 19 C        6.4870     3.3870     0.2810 C.3   1 <1>  -0.0190 
 20 C       -2.1200     3.8450    -0.2320 C.ar  1 <1>  -0.1500 
 21 C        5.8340     4.4680    -0.5990 C.3   1 <1>  -0.1600 
 22 C        8.0100     3.6250     0.2920 C.3   1 <1>  -0.1600 
 23 C        6.2780     5.8670    -0.1600 C.3   1 <1>   0.1200 
 24 C        8.3310     5.0720     0.6790 C.3   1 <1>   0.1200 
 25 O        7.6700     5.9440    -0.1860 O.3   1 <1>  -0.5600 
 26 H        3.4570     0.6480    -1.9810 H     1 <1>   0.0800 
 27 H        1.7630     2.6560     0.7030 H     1 <1>   0.0800 
 28 H        2.7120     2.8030    -0.7430 H     1 <1>   0.0800 
 29 H        1.2040     1.1430    -2.2950 H     1 <1>   0.0800 
 30 H        0.3490    -0.0570    -1.4020 H     1 <1>   0.0800 
 31 H        2.3300    -1.5560    -0.7190 H     1 <1>   0.4000 
 32 H        5.2790    -0.4200    -0.7920 H     1 <1>   0.0800 
 33 H        4.3100    -0.5540     0.6550 H     1 <1>   0.0800 
 34 H        3.6130     1.5520     1.8700 H     1 <1>   0.0800 
 35 H        4.0800     3.1020     1.2580 H     1 <1>   0.0800 
 36 H        0.2270     3.2420    -2.5700 H     1 <1>   0.1500 
 37 H       -0.8890     0.8830     0.8040 H     1 <1>   0.1500 
 38 H       -1.4560     4.9140    -1.9560 H     1 <1>   0.1500 
 39 H       -2.5620     2.5530     1.4160 H     1 <1>   0.1500 
 40 H        6.1550     3.5140     1.2940 H     1 <1>   0.0800 
 41 H       -2.8570     4.5790     0.0410 H     1 <1>   0.1500 
 42 H        4.7640     4.4010    -0.5450 H     1 <1>   0.0800 
 43 H        6.1180     4.3180    -1.6270 H     1 <1>   0.0800 
 44 H        8.4230     3.4310    -0.6830 H     1 <1>   0.0800 
 45 H        8.4780     2.9500     0.9860 H     1 <1>   0.0800 
 46 H        5.9400     6.0910     0.8370 H     1 <1>   0.0800 
 47 H        5.8970     6.6130    -0.8360 H     1 <1>   0.0800 
 48 H        9.3870     5.2600     0.5890 H     1 <1>   0.0800 
 49 H        8.0220     5.2880     1.6880 H     1 <1>   0.0800 
@<TRIPOS>BOND
  1   1   2  ar  
  2   2   3  ar  
  3   2   4  1   
  4   4   5  1   
  5   4   6  1   
  6   4   7  1   
  7   5   8  1   
  8   5   9  1   
  9   5  26  1   
 10   6  10  1   
 11   6  27  1   
 12   6  28  1   
 13   7  11  1   
 14   7  29  1   
 15   7  30  1   
 16   8  31  1   
 17   9  12  1   
 18   9  32  1   
 19   9  33  1   
 20  10  12  1   
 21  10  34  1   
 22  10  35  1   
 23  11  13  ar  
 24  11  14  ar  
 25  12  15  am  
 26  13  16  ar  
 27  13  36  1   
 28  14  17  ar  
 29  14  37  1   
 30  15  18  2   
 31  15  19  1   
 32  16  20  ar  
 33  16  38  1   
 34  17  20  ar  
 35  17  39  1   
 36  19  21  1   
 37  19  22  1   
 38  19  40  1   
 39  20  41  1   
 40  21  23  1   
 41  21  42  1   
 42  21  43  1   
 43  22  24  1   
 44  22  44  1   
 45  22  45  1   
 46  23  25  1   
 47  23  46  1   
 48  23  47  1   
 49  24  25  1   
 50  24  48  1   
 51  24  49  1   
@<TRIPOS>SUBSTRUCTURE
  1 ****   6 GROUP 4 **** **** 0

# MOE 2024.06 (io_trps.svl 2023.06)
