@<TRIPOS>MOLECULE
NONAME
52 55 1 0 0 
SMALL
USER_CHARGES


@<TRIPOS>ATOM
  1 S        0.2860    -0.0490     1.4000 S.3   1 <1>  -0.0800 
  2 C        0.8420    -0.9700     0.0170 C.2   1 <1>  -0.0450 
  3 C        0.7410     1.4350     0.6010 C.2   1 <1>   0.1980 
  4 C        1.3200    -0.0770    -0.8820 C.2   1 <1>   0.0460 
  5 C        0.7470    -2.4080     0.0370 C.2   1 <1>   0.7150 
  6 N        1.2510     1.2590    -0.5530 N.2   1 <1>  -0.5650 
  7 C        0.4800     2.7360     1.3560 C.3   1 <1>   0.1000 
  8 C        1.9300    -0.3890    -2.2330 C.3   1 <1>  -0.0590 
  9 O        1.6330    -3.0790    -0.4600 O.2   1 <1>  -0.5700 
 10 N       -0.3390    -3.0620     0.5760 N.am  1 <1>  -0.6600 
 11 C       -1.0020     3.1220     1.2670 C.3   1 <1>  -0.2400 
 12 C        1.3530     3.8850     0.8300 C.3   1 <1>  -0.2400 
 13 C       -0.3080    -4.5280     0.8840 C.3   1 <1>   0.1400 
 14 C       -1.7300    -2.5190     0.5070 C.3   1 <1>   0.1400 
 15 C       -1.2720    -5.3060    -0.0300 C.3   1 <1>   0.3430 
 16 C       -2.6280    -3.4120    -0.3730 C.3   1 <1>   0.2950 
 17 O       -2.5570    -4.7440     0.0410 O.3   1 <1>  -0.5600 
 18 C       -1.3270    -6.7760     0.3790 C.ar  1 <1>  -0.1430 
 19 C       -4.0960    -2.9820    -0.2920 C.3   1 <1>  -0.1950 
 20 C       -2.2440    -7.2370     1.3140 C.ar  1 <1>  -0.1500 
 21 C       -0.4330    -7.6740    -0.1860 C.ar  1 <1>  -0.1500 
 22 C       -5.0640    -3.3230    -1.3800 C.3   1 <1>  -0.2000 
 23 C       -4.6330    -1.8970    -1.1730 C.3   1 <1>  -0.2000 
 24 C       -2.2650    -8.5720     1.6800 C.ar  1 <1>  -0.1500 
 25 C       -0.4530    -9.0100     0.1780 C.ar  1 <1>  -0.1500 
 26 C       -1.3690    -9.4600     1.1120 C.ar  1 <1>  -0.1500 
 27 H        0.7330     2.5750     2.3900 H     1 <1>   0.0800 
 28 H        1.9150    -1.4430    -2.4370 H     1 <1>   0.0800 
 29 H        2.9490    -0.0480    -2.2530 H     1 <1>   0.0800 
 30 H        1.3810     0.1210    -3.0030 H     1 <1>   0.0800 
 31 H       -1.2830     3.2720     0.2390 H     1 <1>   0.0800 
 32 H       -1.1870     4.0290     1.8140 H     1 <1>   0.0800 
 33 H       -1.6160     2.3420     1.6800 H     1 <1>   0.0800 
 34 H        1.1230     4.0860    -0.2020 H     1 <1>   0.0800 
 35 H        2.3920     3.6160     0.8980 H     1 <1>   0.0800 
 36 H        1.1890     4.7790     1.4040 H     1 <1>   0.0800 
 37 H        0.6870    -4.9220     0.7680 H     1 <1>   0.0800 
 38 H       -0.5980    -4.6800     1.9090 H     1 <1>   0.0800 
 39 H       -2.1400    -2.4680     1.5010 H     1 <1>   0.0800 
 40 H       -1.7320    -1.5250     0.0950 H     1 <1>   0.0800 
 41 H       -0.9350    -5.2370    -1.0500 H     1 <1>   0.0800 
 42 H       -2.2980    -3.3620    -1.3970 H     1 <1>   0.0800 
 43 H       -4.4680    -3.0180     0.7180 H     1 <1>   0.1000 
 44 H       -2.9480    -6.5550     1.7600 H     1 <1>   0.1500 
 45 H        0.2870    -7.3400    -0.9130 H     1 <1>   0.1500 
 46 H       -4.7050    -3.8620    -2.2390 H     1 <1>   0.1000 
 47 H       -6.0620    -3.6150    -1.1000 H     1 <1>   0.1000 
 48 H       -5.3460    -1.2010    -0.7650 H     1 <1>   0.1000 
 49 H       -3.9990    -1.4480    -1.9180 H     1 <1>   0.1000 
 50 H       -2.9810    -8.9180     2.4040 H     1 <1>   0.1500 
 51 H        0.2440    -9.6990    -0.2650 H     1 <1>   0.1500 
 52 H       -1.3860   -10.4970     1.3950 H     1 <1>   0.1500 
@<TRIPOS>BOND
  1   1   2  1   
  2   1   3  1   
  3   2   4  2   
  4   2   5  1   
  5   3   6  2   
  6   3   7  1   
  7   4   6  1   
  8   4   8  1   
  9   5   9  2   
 10   5  10  am  
 11   7  11  1   
 12   7  12  1   
 13   7  27  1   
 14   8  28  1   
 15   8  29  1   
 16   8  30  1   
 17  10  13  1   
 18  10  14  1   
 19  11  31  1   
 20  11  32  1   
 21  11  33  1   
 22  12  34  1   
 23  12  35  1   
 24  12  36  1   
 25  13  15  1   
 26  13  37  1   
 27  13  38  1   
 28  14  16  1   
 29  14  39  1   
 30  14  40  1   
 31  15  17  1   
 32  15  18  1   
 33  15  41  1   
 34  16  17  1   
 35  16  19  1   
 36  16  42  1   
 37  18  20  ar  
 38  18  21  ar  
 39  19  22  1   
 40  19  23  1   
 41  19  43  1   
 42  20  24  ar  
 43  20  44  1   
 44  21  25  ar  
 45  21  45  1   
 46  22  23  1   
 47  22  46  1   
 48  22  47  1   
 49  23  48  1   
 50  23  49  1   
 51  24  26  ar  
 52  24  50  1   
 53  25  26  ar  
 54  25  51  1   
 55  26  52  1   
@<TRIPOS>SUBSTRUCTURE
  1 ****  10 GROUP 4 **** **** 0

# MOE 2024.06 (io_trps.svl 2023.06)
