@<TRIPOS>MOLECULE
NONAME
53 56 1 0 0 
SMALL
USER_CHARGES


@<TRIPOS>ATOM
  1 O        0.1860     1.5320    -1.2440 O.2   1 <1>  -0.5700 
  2 C       -0.2470     2.6560    -1.1230 C.2   1 <1>   0.5690 
  3 N       -0.9080     3.1000    -0.0100 N.am  1 <1>  -0.5090 
  4 C       -0.0400     3.6390    -2.2680 C.3   1 <1>   0.1810 
  5 C       -1.4350     4.5030     0.0570 C.3   1 <1>   0.3640 
  6 C       -0.9370     2.3230     1.2540 C.3   1 <1>   0.0490 
  7 O        0.2210     4.9260    -1.7740 O.3   1 <1>  -0.5600 
  8 C       -2.9600     4.5080    -0.1020 C.ar  1 <1>  -0.1440 
  9 C       -0.8230     5.4840    -0.9880 C.3   1 <1>   0.2610 
 10 C       -1.5310     0.9490     1.2390 C.3   1 <1>  -0.2000 
 11 C       -2.2330     2.0540     1.9580 C.3   1 <1>  -0.2000 
 12 C       -3.7160     5.4050     0.6420 C.ar  1 <1>  -0.1500 
 13 C       -3.6130     3.6490    -0.9780 C.ar  1 <1>  -0.1500 
 14 C       -0.3370     6.7550    -0.2800 C.2   1 <1>   0.5690 
 15 C       -5.0930     5.4470     0.5170 C.ar  1 <1>  -0.1500 
 16 C       -4.9900     3.6880    -1.1040 C.ar  1 <1>  -0.1500 
 17 O       -1.0870     7.3490     0.4600 O.2   1 <1>  -0.5700 
 18 N        0.9270     7.2020    -0.4850 N.am  1 <1>  -0.7300 
 19 C       -5.7400     4.5840    -0.3620 C.ar  1 <1>   0.0830 
 20 C        1.4970     8.4100     0.1160 C.3   1 <1>   0.2010 
 21 O       -7.0840     4.5590    -0.5470 O.3   1 <1>  -0.3630 
 22 C        2.9340     8.7220    -0.3450 C.2   1 <1>   0.5690 
 23 C       -7.9350     5.4390     0.1530 C.3   1 <1>   0.0400 
 24 O        3.5090     7.9690    -1.1280 O.2   1 <1>  -0.5700 
 25 N        3.5320     9.8470     0.1400 N.am  1 <1>  -0.5790 
 26 C        4.8910    10.2980    -0.1920 C.3   1 <1>   0.0490 
 27 C        5.6820    10.9820     0.8720 C.3   1 <1>  -0.2000 
 28 C        5.1390    11.7660    -0.2850 C.3   1 <1>  -0.2000 
 29 H       -0.9110     3.6720    -2.8970 H     1 <1>   0.0800 
 30 H        0.8080     3.3330    -2.8540 H     1 <1>   0.0800 
 31 H       -1.2070     4.8750     1.0410 H     1 <1>   0.0800 
 32 H       -0.0520     2.4770     1.8480 H     1 <1>   0.1000 
 33 H       -1.5940     5.7860    -1.6730 H     1 <1>   0.0800 
 34 H       -1.9420     0.5800     0.3150 H     1 <1>   0.1000 
 35 H       -1.0540     0.1780     1.8160 H     1 <1>   0.1000 
 36 H       -2.2450     2.0270     3.0330 H     1 <1>   0.1000 
 37 H       -3.1680     2.3910     1.5470 H     1 <1>   0.1000 
 38 H       -3.2350     6.0850     1.3260 H     1 <1>   0.1500 
 39 H       -3.0640     2.9340    -1.5640 H     1 <1>   0.1500 
 40 H       -5.6420     6.1540     1.1090 H     1 <1>   0.1500 
 41 H       -5.4950     3.0210    -1.7790 H     1 <1>   0.1500 
 42 H        1.5250     6.6770    -1.1170 H     1 <1>   0.3700 
 43 H        0.8670     9.2640    -0.1330 H     1 <1>   0.0800 
 44 H        1.5030     8.3020     1.2010 H     1 <1>   0.0800 
 45 H       -8.9460     5.2410    -0.1550 H     1 <1>   0.0800 
 46 H       -7.6690     6.4510    -0.0930 H     1 <1>   0.0800 
 47 H       -7.8330     5.2580     1.2090 H     1 <1>   0.0800 
 48 H        3.0320    10.4600     0.7840 H     1 <1>   0.3700 
 49 H        5.4050     9.6420    -0.8790 H     1 <1>   0.1000 
 50 H        5.2450    11.1120     1.8460 H     1 <1>   0.1000 
 51 H        6.7430    10.8090     0.9150 H     1 <1>   0.1000 
 52 H        5.8320    12.1240    -1.0260 H     1 <1>   0.1000 
 53 H        4.3220    12.4460    -0.1210 H     1 <1>   0.1000 
@<TRIPOS>BOND
  1   1   2  2   
  2   2   3  am  
  3   2   4  1   
  4   3   5  1   
  5   3   6  1   
  6   4   7  1   
  7   4  29  1   
  8   4  30  1   
  9   5   8  1   
 10   5   9  1   
 11   5  31  1   
 12   6  10  1   
 13   6  11  1   
 14   6  32  1   
 15   7   9  1   
 16   8  12  ar  
 17   8  13  ar  
 18   9  14  1   
 19   9  33  1   
 20  10  11  1   
 21  10  34  1   
 22  10  35  1   
 23  11  36  1   
 24  11  37  1   
 25  12  15  ar  
 26  12  38  1   
 27  13  16  ar  
 28  13  39  1   
 29  14  17  2   
 30  14  18  am  
 31  15  19  ar  
 32  15  40  1   
 33  16  19  ar  
 34  16  41  1   
 35  18  20  1   
 36  18  42  1   
 37  19  21  1   
 38  20  22  1   
 39  20  43  1   
 40  20  44  1   
 41  21  23  1   
 42  22  24  2   
 43  22  25  am  
 44  23  45  1   
 45  23  46  1   
 46  23  47  1   
 47  25  26  1   
 48  25  48  1   
 49  26  27  1   
 50  26  28  1   
 51  26  49  1   
 52  27  28  1   
 53  27  50  1   
 54  27  51  1   
 55  28  52  1   
 56  28  53  1   
@<TRIPOS>SUBSTRUCTURE
  1 ****   9 GROUP 4 **** **** 0

# MOE 2024.06 (io_trps.svl 2023.06)
