@<TRIPOS>MOLECULE
NONAME
46 47 1 0 0 
SMALL
USER_CHARGES


@<TRIPOS>ATOM
  1 O        1.1730    -0.9670     3.1550 O.2   1 <1>  -0.5700 
  2 C        1.6710    -1.1920     2.0760 C.2   1 <1>   0.5690 
  3 N        2.0150    -0.2090     1.1860 N.am  1 <1>  -0.4940 
  4 C        1.9330    -2.6490     1.6750 C.3   1 <1>   0.1710 
  5 C        1.9050     1.1980     1.3120 C.2   1 <1>  -0.0880 
  6 N        0.9770    -3.2460     0.7010 N.3   1 <1>  -0.8100 
  7 N        2.1130     2.0930     0.3080 N.pl3 1 <1>   0.3140 
  8 C        1.5870     1.9310     2.4050 C.2   1 <1>  -0.1500 
  9 C       -0.3990    -3.2530     1.2450 C.3   1 <1>   0.2530 
 10 C        1.0420    -2.6550    -0.6440 C.3   1 <1>   0.0300 
 11 N        1.9400     3.3650     0.7300 N.2   1 <1>  -0.7070 
 12 C        2.4460     1.8000    -1.1010 C.3   1 <1>   0.0960 
 13 C        1.6270     3.2540     1.9840 C.2   1 <1>   0.1390 
 14 C       -1.3540    -4.0280     0.3460 C.ar  1 <1>  -0.1430 
 15 C        3.9350     1.4600    -1.2600 C.3   1 <1>  -0.1600 
 16 C       -2.5030    -3.4270    -0.1450 C.ar  1 <1>  -0.1500 
 17 C       -1.0860    -5.3460     0.0100 C.ar  1 <1>  -0.1500 
 18 C        4.2710     1.0980    -2.7110 C.3   1 <1>  -0.2400 
 19 C       -3.3690    -4.1340    -0.9610 C.ar  1 <1>  -0.1500 
 20 C       -1.9520    -6.0530    -0.8060 C.ar  1 <1>  -0.1500 
 21 C       -3.0980    -5.4510    -1.2970 C.ar  1 <1>  -0.1430 
 22 C       -4.0490    -6.2270    -2.1900 C.3   1 <1>  -0.0970 
 23 H        2.3780    -0.5570     0.3000 H     1 <1>   0.3700 
 24 H        1.9150    -3.2420     2.5730 H     1 <1>   0.0800 
 25 H        2.9280    -2.7230     1.2770 H     1 <1>   0.0800 
 26 H        1.3520     1.5850     3.3950 H     1 <1>   0.1500 
 27 H       -0.7500    -2.2420     1.3660 H     1 <1>   0.0800 
 28 H       -0.3950    -3.7180     2.2160 H     1 <1>   0.0800 
 29 H        2.0620    -2.6170    -0.9840 H     1 <1>   0.0800 
 30 H        0.6180    -1.6650    -0.6470 H     1 <1>   0.0800 
 31 H        0.4860    -3.2650    -1.3360 H     1 <1>   0.0800 
 32 H        2.2040     2.6670    -1.6890 H     1 <1>   0.0800 
 33 H        1.8310     0.9840    -1.4330 H     1 <1>   0.0800 
 34 H        1.4220     4.0990     2.6200 H     1 <1>   0.1500 
 35 H        4.1960     0.6340    -0.6220 H     1 <1>   0.0800 
 36 H        4.5220     2.3140    -0.9650 H     1 <1>   0.0800 
 37 H       -2.7300    -2.4060     0.1050 H     1 <1>   0.1500 
 38 H       -0.1940    -5.8170     0.3840 H     1 <1>   0.1500 
 39 H        3.7110     0.2360    -3.0310 H     1 <1>   0.0800 
 40 H        5.3200     0.8740    -2.8000 H     1 <1>   0.0800 
 41 H        4.0450     1.9210    -3.3670 H     1 <1>   0.0800 
 42 H       -4.2580    -3.6550    -1.3320 H     1 <1>   0.1500 
 43 H       -1.7270    -7.0750    -1.0550 H     1 <1>   0.1500 
 44 H       -4.5570    -5.5630    -2.8660 H     1 <1>   0.0800 
 45 H       -4.7790    -6.7360    -1.5870 H     1 <1>   0.0800 
 46 H       -3.5090    -6.9540    -2.7700 H     1 <1>   0.0800 
@<TRIPOS>BOND
  1   1   2  2   
  2   2   3  am  
  3   2   4  1   
  4   3   5  1   
  5   3  23  1   
  6   4   6  1   
  7   4  24  1   
  8   4  25  1   
  9   5   7  1   
 10   5   8  2   
 11   6   9  1   
 12   6  10  1   
 13   7  11  1   
 14   7  12  1   
 15   8  13  1   
 16   8  26  1   
 17   9  14  1   
 18   9  27  1   
 19   9  28  1   
 20  10  29  1   
 21  10  30  1   
 22  10  31  1   
 23  11  13  2   
 24  12  15  1   
 25  12  32  1   
 26  12  33  1   
 27  13  34  1   
 28  14  16  ar  
 29  14  17  ar  
 30  15  18  1   
 31  15  35  1   
 32  15  36  1   
 33  16  19  ar  
 34  16  37  1   
 35  17  20  ar  
 36  17  38  1   
 37  18  39  1   
 38  18  40  1   
 39  18  41  1   
 40  19  21  ar  
 41  19  42  1   
 42  20  21  ar  
 43  20  43  1   
 44  21  22  1   
 45  22  44  1   
 46  22  45  1   
 47  22  46  1   
@<TRIPOS>SUBSTRUCTURE
  1 ****  10 GROUP 4 **** **** 0

# MOE 2024.06 (io_trps.svl 2023.06)
