@<TRIPOS>MOLECULE
NONAME
40 42 1 0 0 
SMALL
USER_CHARGES


@<TRIPOS>ATOM
  1 F       -0.6300     0.0030    -0.0080 F     1 <1>  -0.1900 
  2 C       -1.7310    -0.7140     0.0570 C.ar  1 <1>   0.1900 
  3 C       -1.6930    -2.0930     0.1290 C.ar  1 <1>   0.3920 
  4 C       -2.9490    -0.0920     0.0530 C.ar  1 <1>   0.1600 
  5 O       -0.5000    -2.7300     0.1340 O.3   1 <1>  -0.3630 
  6 N       -2.8030    -2.8020     0.1930 N.ar  1 <1>  -0.6200 
  7 N       -4.0690    -0.7830     0.1170 N.ar  1 <1>  -0.6200 
  8 C       -0.4270    -4.1390     0.2260 C.3   1 <1>   0.0400 
  9 C       -3.9400    -2.1090     0.1870 C.ar  1 <1>   0.7200 
 10 N       -5.1020    -2.8370     0.2660 N.pl3 1 <1>  -0.8380 
 11 C       -6.4440    -2.2650    -0.0110 C.3   1 <1>   0.2090 
 12 C       -5.1360    -4.3180     0.1940 C.3   1 <1>   0.2090 
 13 C       -7.3070    -3.4610    -0.4210 C.3   1 <1>   0.2000 
 14 C       -6.6190    -4.6840     0.1810 C.3   1 <1>  -0.0800 
 15 O       -8.6040    -3.3590     0.0610 O.3   1 <1>  -0.6800 
 16 C       -6.9230    -5.9850    -0.5790 C.3   1 <1>   0.0210 
 17 C       -6.0880    -7.1400    -0.0580 C.2   1 <1>   0.1080 
 18 N       -6.0440    -7.4710     1.1950 N.2   1 <1>  -0.7070 
 19 C       -5.2830    -7.9560    -0.8450 C.2   1 <1>  -0.1500 
 20 N       -5.2020    -8.5210     1.2410 N.pl3 1 <1>   0.3000 
 21 C       -4.7260    -8.8320     0.0170 C.2   1 <1>  -0.3320 
 22 C       -3.7560    -9.9670    -0.2570 C.3   1 <1>  -0.0600 
 23 H       -3.0050     0.9800    -0.0030 H     1 <1>   0.1500 
 24 H        0.6090    -4.4260     0.2190 H     1 <1>   0.0800 
 25 H       -0.9360    -4.5700    -0.6190 H     1 <1>   0.0800 
 26 H       -0.8930    -4.4530     1.1440 H     1 <1>   0.0800 
 27 H       -6.8200    -1.8040     0.8860 H     1 <1>   0.0800 
 28 H       -6.3970    -1.5410    -0.8060 H     1 <1>   0.0800 
 29 H       -4.6510    -4.6400    -0.7120 H     1 <1>   0.0800 
 30 H       -4.6350    -4.7560     1.0420 H     1 <1>   0.0800 
 31 H       -7.3470    -3.5200    -1.4950 H     1 <1>   0.0800 
 32 H       -6.9180    -4.7990     1.2080 H     1 <1>   0.0800 
 33 H       -8.6000    -3.4000     1.0370 H     1 <1>   0.4000 
 34 H       -6.7270    -5.8530    -1.6270 H     1 <1>   0.0800 
 35 H       -7.9630    -6.2310    -0.4620 H     1 <1>   0.0800 
 36 H       -5.1510    -7.8820    -1.9100 H     1 <1>   0.1500 
 37 H       -4.9750    -9.0000     2.1200 H     1 <1>   0.2700 
 38 H       -3.5300   -10.0150    -1.3070 H     1 <1>   0.0800 
 39 H       -4.1880   -10.9050     0.0430 H     1 <1>   0.0800 
 40 H       -2.8400    -9.8130     0.2840 H     1 <1>   0.0800 
@<TRIPOS>BOND
  1   1   2  1   
  2   2   3  ar  
  3   2   4  ar  
  4   3   5  1   
  5   3   6  ar  
  6   4   7  ar  
  7   4  23  1   
  8   5   8  1   
  9   6   9  ar  
 10   7   9  ar  
 11   8  24  1   
 12   8  25  1   
 13   8  26  1   
 14   9  10  1   
 15  10  11  1   
 16  10  12  1   
 17  11  13  1   
 18  11  27  1   
 19  11  28  1   
 20  12  14  1   
 21  12  29  1   
 22  12  30  1   
 23  13  14  1   
 24  13  15  1   
 25  13  31  1   
 26  14  16  1   
 27  14  32  1   
 28  15  33  1   
 29  16  17  1   
 30  16  34  1   
 31  16  35  1   
 32  17  18  2   
 33  17  19  1   
 34  18  20  1   
 35  19  21  2   
 36  19  36  1   
 37  20  21  1   
 38  20  37  1   
 39  21  22  1   
 40  22  38  1   
 41  22  39  1   
 42  22  40  1   
@<TRIPOS>SUBSTRUCTURE
  1 ****  12 GROUP 4 **** **** 0

# MOE 2024.06 (io_trps.svl 2023.06)
