@<TRIPOS>MOLECULE
NONAME
57 59 1 0 0 
SMALL
USER_CHARGES


@<TRIPOS>ATOM
  1 F       -2.4070    -4.9150    -3.0510 F     1 <1>  -0.1900 
  2 C       -3.2300    -4.2710    -2.2690 C.ar  1 <1>   0.1900 
  3 C       -4.3090    -3.6170    -2.8300 C.ar  1 <1>  -0.1500 
  4 C       -2.9940    -4.2700    -0.9080 C.ar  1 <1>  -0.1500 
  5 C       -5.1820    -2.9440    -1.9910 C.ar  1 <1>  -0.1500 
  6 C       -3.8770    -3.5960    -0.0820 C.ar  1 <1>  -0.1500 
  7 C       -4.9790    -2.9340    -0.6160 C.ar  1 <1>  -0.0320 
  8 C       -5.9730    -2.1850     0.2730 C.3   1 <1>   0.0320 
  9 C       -7.3930    -2.7690     0.1630 C.2   1 <1>   0.6300 
 10 C       -5.7870    -0.6930     0.4290 C.3   1 <1>  -0.1900 
 11 C       -5.5210    -1.5790     1.5920 C.3   1 <1>  -0.2000 
 12 O       -8.1130    -2.3830    -0.7350 O.2   1 <1>  -0.5700 
 13 N       -7.8620    -3.7160     1.0350 N.am  1 <1>  -0.6600 
 14 C       -6.9970     0.2500     0.5150 C.3   1 <1>  -0.1450 
 15 C       -4.5900     0.0130    -0.2260 C.3   1 <1>  -0.1450 
 16 C       -6.9810    -4.5450     1.9190 C.3   1 <1>   0.3210 
 17 C       -9.3390    -3.8550     1.2700 C.3   1 <1>   0.1400 
 18 C       -7.3030    -6.0400     1.8240 C.2   1 <1>   0.0460 
 19 C      -10.0240    -4.8840     0.3440 C.3   1 <1>   0.3430 
 20 N       -8.3910    -6.5490     2.4410 N.2   1 <1>  -0.5650 
 21 C       -6.6090    -7.0250     1.2010 C.2   1 <1>  -0.3320 
 22 N       -9.5930    -4.7310    -1.0820 N.4   1 <1>  -0.9590 
 23 C       -8.3200    -7.8200     2.2130 C.2   1 <1>   0.0360 
 24 N       -7.2600    -8.1750     1.4620 N.pl3 1 <1>   0.0330 
 25 C       -5.3350    -6.9960     0.3750 C.3   1 <1>  -0.0600 
 26 C      -10.7320    -4.7960    -2.0400 C.3   1 <1>   0.2630 
 27 C       -8.5200    -5.7120    -1.4140 C.3   1 <1>   0.2630 
 28 H       -4.4550    -3.6300    -3.8950 H     1 <1>   0.1500 
 29 H       -2.1360    -4.7830    -0.5120 H     1 <1>   0.1500 
 30 H       -6.0220    -2.4160    -2.4120 H     1 <1>   0.1500 
 31 H       -3.6960    -3.5900     0.9780 H     1 <1>   0.1500 
 32 H       -4.5020    -1.6670     1.9220 H     1 <1>   0.1000 
 33 H       -6.2100    -1.5550     2.4180 H     1 <1>   0.1000 
 34 H       -7.8090    -0.1980     1.0600 H     1 <1>   0.0800 
 35 H       -7.3460     0.4900    -0.4740 H     1 <1>   0.0800 
 36 H       -6.7240     1.1620     1.0150 H     1 <1>   0.0800 
 37 H       -3.7060    -0.5990    -0.2000 H     1 <1>   0.0800 
 38 H       -4.3710     0.9310     0.2890 H     1 <1>   0.0800 
 39 H       -4.8140     0.2410    -1.2530 H     1 <1>   0.0800 
 40 H       -7.1060    -4.2290     2.9400 H     1 <1>   0.0800 
 41 H       -5.9500    -4.4020     1.6580 H     1 <1>   0.0800 
 42 H       -9.8080    -2.8980     1.1190 H     1 <1>   0.0800 
 43 H       -9.5190    -4.1290     2.2950 H     1 <1>   0.0800 
 44 H      -11.0890    -4.7470     0.4230 H     1 <1>   0.0800 
 45 H       -9.8020    -5.8790     0.6880 H     1 <1>   0.0800 
 46 H       -9.1560    -3.7820    -1.1360 H     1 <1>   0.4500 
 47 H       -9.0260    -8.5450     2.5830 H     1 <1>   0.1500 
 48 H       -6.9950    -9.1250     1.1830 H     1 <1>   0.2700 
 49 H       -5.0380    -5.9860     0.1750 H     1 <1>   0.0800 
 50 H       -5.4820    -7.4950    -0.5660 H     1 <1>   0.0800 
 51 H       -4.5380    -7.4870     0.9060 H     1 <1>   0.0800 
 52 H      -11.2060    -5.7620    -1.9940 H     1 <1>   0.0800 
 53 H      -10.3800    -4.6280    -3.0450 H     1 <1>   0.0800 
 54 H      -11.4600    -4.0380    -1.8020 H     1 <1>   0.0800 
 55 H       -8.8910    -6.7190    -1.3240 H     1 <1>   0.0800 
 56 H       -7.6890    -5.5900    -0.7390 H     1 <1>   0.0800 
 57 H       -8.1690    -5.5540    -2.4200 H     1 <1>   0.0800 
@<TRIPOS>BOND
  1   1   2  1   
  2   2   3  ar  
  3   2   4  ar  
  4   3   5  ar  
  5   3  28  1   
  6   4   6  ar  
  7   4  29  1   
  8   5   7  ar  
  9   5  30  1   
 10   6   7  ar  
 11   6  31  1   
 12   7   8  1   
 13   8   9  1   
 14   8  10  1   
 15   8  11  1   
 16   9  12  2   
 17   9  13  am  
 18  10  11  1   
 19  10  14  1   
 20  10  15  1   
 21  11  32  1   
 22  11  33  1   
 23  13  16  1   
 24  13  17  1   
 25  14  34  1   
 26  14  35  1   
 27  14  36  1   
 28  15  37  1   
 29  15  38  1   
 30  15  39  1   
 31  16  18  1   
 32  16  40  1   
 33  16  41  1   
 34  17  19  1   
 35  17  42  1   
 36  17  43  1   
 37  18  20  1   
 38  18  21  2   
 39  19  22  1   
 40  19  44  1   
 41  19  45  1   
 42  20  23  2   
 43  21  24  1   
 44  21  25  1   
 45  22  26  1   
 46  22  27  1   
 47  22  46  1   
 48  23  24  1   
 49  23  47  1   
 50  24  48  1   
 51  25  49  1   
 52  25  50  1   
 53  25  51  1   
 54  26  52  1   
 55  26  53  1   
 56  26  54  1   
 57  27  55  1   
 58  27  56  1   
 59  27  57  1   
@<TRIPOS>SUBSTRUCTURE
  1 ****   9 GROUP 4 **** **** 0

# MOE 2024.06 (io_trps.svl 2023.06)
