@<TRIPOS>MOLECULE
NONAME
46 49 1 0 0 
SMALL
USER_CHARGES


@<TRIPOS>ATOM
  1 O       -5.3130    -0.7000    -1.8150 O.2   1 <1>  -0.5700 
  2 C       -4.8080    -0.2620    -0.8090 C.2   1 <1>   0.5690 
  3 N       -5.3920     0.7880    -0.1760 N.am  1 <1>  -0.7300 
  4 C       -3.5180    -0.8940    -0.2430 C.3   1 <1>   0.2810 
  5 C       -5.0030     1.3430     1.1400 C.3   1 <1>   0.1400 
  6 N       -3.4930    -2.3710    -0.3980 N.am  1 <1>  -0.7300 
  7 C       -3.3220    -0.5630     1.2440 C.3   1 <1>  -0.1600 
  8 C       -3.5700     0.9320     1.5020 C.3   1 <1>  -0.1600 
  9 C       -2.3850    -3.1140    -0.6350 C.2   1 <1>   0.5690 
 10 O       -1.2770    -2.6410    -0.5570 O.2   1 <1>  -0.5700 
 11 C       -2.5330    -4.5780    -1.0220 C.3   1 <1>   0.0440 
 12 C       -3.9870    -5.0390    -1.0870 C.ar  1 <1>  -0.1440 
 13 C       -4.5260    -5.8140    -0.0790 C.ar  1 <1>  -0.1500 
 14 C       -4.7860    -4.6530    -2.1680 C.ar  1 <1>  -0.1500 
 15 C       -5.8630    -6.2010    -0.1420 C.ar  1 <1>   0.0000 
 16 C       -6.1090    -5.0280    -2.2400 C.ar  1 <1>  -0.1500 
 17 C       -6.6490    -5.8090    -1.2180 C.ar  1 <1>  -0.1520 
 18 C       -6.6910    -6.9680     0.7240 C.ar  1 <1>   0.0000 
 19 N       -7.9230    -6.3120    -1.0420 N.pl3 1 <1>   0.0480 
 20 C       -7.9550    -7.0150     0.1470 C.ar  1 <1>  -0.1520 
 21 C       -6.4570    -7.6090     1.9400 C.ar  1 <1>  -0.1500 
 22 C       -9.0650    -6.0980    -1.9480 C.3   1 <1>   0.0160 
 23 C       -8.9970    -7.6970     0.7780 C.ar  1 <1>  -0.1500 
 24 C       -7.4860    -8.2850     2.5610 C.ar  1 <1>  -0.1500 
 25 C       -8.7550    -8.3280     1.9800 C.ar  1 <1>  -0.1500 
 26 H       -6.2560     1.1390    -0.5950 H     1 <1>   0.3700 
 27 H       -2.6950    -0.4790    -0.7980 H     1 <1>   0.0800 
 28 H       -5.6860     0.9710     1.8860 H     1 <1>   0.0800 
 29 H       -5.0790     2.4180     1.1150 H     1 <1>   0.0800 
 30 H       -4.4090    -2.7940    -0.5870 H     1 <1>   0.3700 
 31 H       -2.3180    -0.8220     1.5340 H     1 <1>   0.0800 
 32 H       -4.0100    -1.1420     1.8340 H     1 <1>   0.0800 
 33 H       -3.3920     1.1550     2.5390 H     1 <1>   0.0800 
 34 H       -2.8780     1.5190     0.9220 H     1 <1>   0.0800 
 35 H       -1.9910    -5.1670    -0.3070 H     1 <1>   0.0800 
 36 H       -2.0690    -4.7220    -1.9790 H     1 <1>   0.0800 
 37 H       -3.9390    -6.1240     0.7660 H     1 <1>   0.1500 
 38 H       -4.3650    -4.0450    -2.9520 H     1 <1>   0.1500 
 39 H       -6.7180    -4.7200    -3.0710 H     1 <1>   0.1500 
 40 H       -5.4760    -7.5670     2.3770 H     1 <1>   0.1500 
 41 H       -8.7100    -6.0060    -2.9580 H     1 <1>   0.0800 
 42 H       -9.5770    -5.1980    -1.6620 H     1 <1>   0.0800 
 43 H       -9.7360    -6.9340    -1.8860 H     1 <1>   0.0800 
 44 H       -9.9740    -7.7290     0.3320 H     1 <1>   0.1500 
 45 H       -7.3180    -8.7840     3.4990 H     1 <1>   0.1500 
 46 H       -9.5450    -8.8590     2.4810 H     1 <1>   0.1500 
@<TRIPOS>BOND
  1   1   2  2   
  2   2   3  am  
  3   2   4  1   
  4   3   5  1   
  5   3  26  1   
  6   4   6  1   
  7   4   7  1   
  8   4  27  1   
  9   5   8  1   
 10   5  28  1   
 11   5  29  1   
 12   6   9  am  
 13   6  30  1   
 14   7   8  1   
 15   7  31  1   
 16   7  32  1   
 17   8  33  1   
 18   8  34  1   
 19   9  10  2   
 20   9  11  1   
 21  11  12  1   
 22  11  35  1   
 23  11  36  1   
 24  12  13  ar  
 25  12  14  ar  
 26  13  15  ar  
 27  13  37  1   
 28  14  16  ar  
 29  14  38  1   
 30  15  17  ar  
 31  15  18  1   
 32  16  17  ar  
 33  16  39  1   
 34  17  19  1   
 35  18  20  ar  
 36  18  21  ar  
 37  19  20  1   
 38  19  22  1   
 39  20  23  ar  
 40  21  24  ar  
 41  21  40  1   
 42  22  41  1   
 43  22  42  1   
 44  22  43  1   
 45  23  25  ar  
 46  23  44  1   
 47  24  25  ar  
 48  24  45  1   
 49  25  46  1   
@<TRIPOS>SUBSTRUCTURE
  1 ****  13 GROUP 4 **** **** 0

# MOE 2024.06 (io_trps.svl 2023.06)
