@<TRIPOS>MOLECULE
NONAME
53 56 1 0 0 
SMALL
USER_CHARGES


@<TRIPOS>ATOM
  1 F        1.1820     0.7600     0.3020 F     1 <1>  -0.1900 
  2 C        1.9280    -0.2980     0.1360 C.ar  1 <1>   0.1900 
  3 C        1.6450    -1.4310     0.8720 C.ar  1 <1>  -0.1500 
  4 C        2.9680    -0.2470    -0.7690 C.ar  1 <1>  -0.1500 
  5 C        2.4280    -2.5640     0.7010 C.ar  1 <1>  -0.1440 
  6 C        3.7500    -1.3750    -0.9370 C.ar  1 <1>  -0.1500 
  7 C        3.4970    -2.5380    -0.2080 C.ar  1 <1>  -0.0230 
  8 C        2.0890    -3.8080     1.5150 C.3   1 <1>   0.4870 
  9 N        4.3360    -3.6710    -0.4130 N.pl3 1 <1>   0.5930 
 10 N        1.5400    -4.8550     0.6220 N.4   1 <1>  -0.9590 
 11 N        3.8730    -4.8270    -0.9620 N.2   1 <1>  -0.7070 
 12 C        5.6290    -3.8260    -0.0250 C.2   1 <1>  -0.3320 
 13 C        0.3650    -4.4240    -0.1970 C.3   1 <1>   0.3430 
 14 C        1.1580    -6.1050     1.3260 C.3   1 <1>   0.3430 
 15 C        4.8740    -5.6480    -0.9320 C.2   1 <1>   0.1080 
 16 C        6.0000    -5.0810    -0.3520 C.2   1 <1>  -0.1500 
 17 C        6.4660    -2.7490     0.6490 C.3   1 <1>  -0.0600 
 18 C       -0.7100    -5.5030    -0.0060 C.3   1 <1>   0.2000 
 19 C        0.0650    -6.7340     0.4580 C.3   1 <1>  -0.0800 
 20 C        4.8140    -7.0600    -1.4700 C.3   1 <1>  -0.0590 
 21 O       -1.5340    -5.1040     1.0390 O.3   1 <1>  -0.6800 
 22 C        0.6400    -7.5350    -0.7330 C.3   1 <1>  -0.0170 
 23 C        1.3110    -8.8270    -0.2870 C.ar  1 <1>   0.1670 
 24 N        2.4500    -8.7040     0.3760 N.ar  1 <1>  -0.6200 
 25 C        0.7240   -10.0570    -0.5830 C.ar  1 <1>   0.1600 
 26 C        2.9570    -9.8790     0.7190 C.ar  1 <1>   0.1600 
 27 N        1.2270   -11.2290    -0.2370 N.ar  1 <1>  -0.6200 
 28 C        2.3640   -11.1000     0.4230 C.ar  1 <1>   0.1600 
 29 H        0.8190    -1.4060     1.5620 H     1 <1>   0.1500 
 30 H        3.1550     0.6550    -1.3270 H     1 <1>   0.1500 
 31 H        4.5630    -1.3530    -1.6440 H     1 <1>   0.1500 
 32 H        1.3630    -3.5600     2.2720 H     1 <1>   0.0800 
 33 H        2.9780    -4.1740     2.0020 H     1 <1>   0.0800 
 34 H        2.3100    -5.0880    -0.0430 H     1 <1>   0.4500 
 35 H       -0.0140    -3.4650     0.1150 H     1 <1>   0.0800 
 36 H        0.6560    -4.3710    -1.2340 H     1 <1>   0.0800 
 37 H        2.0060    -6.7530     1.4710 H     1 <1>   0.0800 
 38 H        0.7340    -5.8610     2.2860 H     1 <1>   0.0800 
 39 H        6.9500    -5.5660    -0.2100 H     1 <1>   0.1500 
 40 H        7.4440    -3.1320     0.8860 H     1 <1>   0.0800 
 41 H        5.9980    -2.4220     1.5600 H     1 <1>   0.0800 
 42 H        6.5850    -1.9020    -0.0040 H     1 <1>   0.0800 
 43 H       -1.3140    -5.6520    -0.8860 H     1 <1>   0.0800 
 44 H       -0.5550    -7.3890     1.0450 H     1 <1>   0.0800 
 45 H        5.5700    -7.1950    -2.2220 H     1 <1>   0.0800 
 46 H        3.8530    -7.2540    -1.9080 H     1 <1>   0.0800 
 47 H        4.9820    -7.7620    -0.6750 H     1 <1>   0.0800 
 48 H       -2.3330    -5.6680     1.1020 H     1 <1>   0.4000 
 49 H        1.3590    -6.9480    -1.2780 H     1 <1>   0.0800 
 50 H       -0.1570    -7.7740    -1.4150 H     1 <1>   0.0800 
 51 H       -0.2030   -10.0800    -1.1290 H     1 <1>   0.1500 
 52 H        3.8860    -9.8800     1.2610 H     1 <1>   0.1500 
 53 H        2.8510   -12.0050     0.7440 H     1 <1>   0.1500 
@<TRIPOS>BOND
  1   1   2  1   
  2   2   3  ar  
  3   2   4  ar  
  4   3   5  ar  
  5   3  29  1   
  6   4   6  ar  
  7   4  30  1   
  8   5   7  ar  
  9   5   8  1   
 10   6   7  ar  
 11   6  31  1   
 12   7   9  1   
 13   8  10  1   
 14   8  32  1   
 15   8  33  1   
 16   9  11  1   
 17   9  12  1   
 18  10  13  1   
 19  10  14  1   
 20  10  34  1   
 21  11  15  2   
 22  12  16  2   
 23  12  17  1   
 24  13  18  1   
 25  13  35  1   
 26  13  36  1   
 27  14  19  1   
 28  14  37  1   
 29  14  38  1   
 30  15  16  1   
 31  15  20  1   
 32  16  39  1   
 33  17  40  1   
 34  17  41  1   
 35  17  42  1   
 36  18  19  1   
 37  18  21  1   
 38  18  43  1   
 39  19  22  1   
 40  19  44  1   
 41  20  45  1   
 42  20  46  1   
 43  20  47  1   
 44  21  48  1   
 45  22  23  1   
 46  22  49  1   
 47  22  50  1   
 48  23  24  ar  
 49  23  25  ar  
 50  24  26  ar  
 51  25  27  ar  
 52  25  51  1   
 53  26  28  ar  
 54  26  52  1   
 55  27  28  ar  
 56  28  53  1   
@<TRIPOS>SUBSTRUCTURE
  1 ****  10 GROUP 4 **** **** 0

# MOE 2024.06 (io_trps.svl 2023.06)
