@<TRIPOS>MOLECULE
NONAME
50 53 1 0 0 
SMALL
USER_CHARGES


@<TRIPOS>ATOM
  1 CL      -0.1030    -0.1970     0.6910 Cl    1 <1>  -0.1770 
  2 C       -1.6120    -1.0420     0.4770 C.ar  1 <1>   0.1770 
  3 C       -1.6180    -2.4060     0.3380 C.ar  1 <1>  -0.1500 
  4 C       -2.7930    -0.3060     0.4510 C.ar  1 <1>  -0.1500 
  5 C       -2.8310    -3.0880     0.1650 C.ar  1 <1>   0.0000 
  6 C       -3.9930    -0.9600     0.2820 C.ar  1 <1>  -0.1500 
  7 C       -4.0290    -2.3530     0.1370 C.ar  1 <1>   0.3610 
  8 C       -2.9150    -4.4970     0.0170 C.ar  1 <1>  -0.1500 
  9 N       -5.2220    -3.0390    -0.0370 N.ar  1 <1>  -0.1790 
 10 C       -4.1210    -5.1040    -0.1490 C.ar  1 <1>  -0.1500 
 11 C       -5.3400    -4.3670    -0.1850 C.ar  1 <1>   0.4610 
 12 N       -6.5700    -4.9270    -0.3620 N.pl3 1 <1>  -0.8380 
 13 C       -6.8110    -6.3650    -0.7730 C.3   1 <1>   0.2090 
 14 C       -7.8740    -4.1870    -0.2280 C.3   1 <1>   0.2090 
 15 C       -7.7640    -7.1160     0.2050 C.3   1 <1>   0.4230 
 16 C       -8.7400    -4.8920     0.8190 C.3   1 <1>  -0.1600 
 17 N       -7.9590    -8.5990    -0.1090 N.4   1 <1>  -0.9590 
 18 C       -9.1000    -6.3500     0.4250 C.3   1 <1>   0.0000 
 19 C       -9.1540    -9.2140     0.5650 C.3   1 <1>   0.3430 
 20 C       -7.9730    -8.9690    -1.5650 C.3   1 <1>   0.2630 
 21 C       -9.8800    -7.0020     1.6020 C.3   1 <1>  -0.1600 
 22 C       -9.9630    -6.3780    -0.8720 C.3   1 <1>   0.1200 
 23 C       -9.5020    -8.4740     1.8560 C.3   1 <1>  -0.1600 
 24 O      -10.9710    -5.4310    -0.8280 O.3   1 <1>  -0.6800 
 25 H       -0.6880    -2.9480     0.3620 H     1 <1>   0.1500 
 26 H       -2.7410     0.7650     0.5640 H     1 <1>   0.1500 
 27 H       -4.9030    -0.3860     0.2620 H     1 <1>   0.1500 
 28 H       -1.9970    -5.0650     0.0430 H     1 <1>   0.1500 
 29 H       -6.0700    -2.4870    -0.0880 H     1 <1>   0.4570 
 30 H       -4.1360    -6.1700    -0.2450 H     1 <1>   0.1500 
 31 H       -7.2390    -6.3530    -1.7600 H     1 <1>   0.0800 
 32 H       -5.8940    -6.9140    -0.8370 H     1 <1>   0.0800 
 33 H       -7.7320    -3.1700     0.0890 H     1 <1>   0.0800 
 34 H       -8.3840    -4.1580    -1.1790 H     1 <1>   0.0800 
 35 H       -7.2650    -7.0780     1.1590 H     1 <1>   0.0800 
 36 H       -8.2080    -4.8800     1.7550 H     1 <1>   0.0800 
 37 H       -9.6360    -4.3140     0.9720 H     1 <1>   0.0800 
 38 H       -7.1450    -9.0760     0.3090 H     1 <1>   0.4500 
 39 H      -10.0070    -9.1710    -0.0920 H     1 <1>   0.0800 
 40 H       -8.9580   -10.2530     0.7820 H     1 <1>   0.0800 
 41 H       -8.7990    -8.4960    -2.0690 H     1 <1>   0.0800 
 42 H       -8.0750   -10.0380    -1.6760 H     1 <1>   0.0800 
 43 H       -7.0550    -8.6700    -2.0450 H     1 <1>   0.0800 
 44 H       -9.7080    -6.4640     2.5200 H     1 <1>   0.0800 
 45 H      -10.9390    -6.9380     1.4170 H     1 <1>   0.0800 
 46 H      -10.4250    -7.3360    -1.0270 H     1 <1>   0.0800 
 47 H       -9.3750    -6.1450    -1.7410 H     1 <1>   0.0800 
 48 H      -10.3280    -8.9710     2.3370 H     1 <1>   0.0800 
 49 H       -8.6660    -8.5330     2.5330 H     1 <1>   0.0800 
 50 H      -11.7030    -5.6920    -0.2320 H     1 <1>   0.4000 
@<TRIPOS>BOND
  1   1   2  1   
  2   2   3  ar  
  3   2   4  ar  
  4   3   5  ar  
  5   3  25  1   
  6   4   6  ar  
  7   4  26  1   
  8   5   7  ar  
  9   5   8  ar  
 10   6   7  ar  
 11   6  27  1   
 12   7   9  ar  
 13   8  10  ar  
 14   8  28  1   
 15   9  11  ar  
 16   9  29  1   
 17  10  11  ar  
 18  10  30  1   
 19  11  12  1   
 20  12  13  1   
 21  12  14  1   
 22  13  15  1   
 23  13  31  1   
 24  13  32  1   
 25  14  16  1   
 26  14  33  1   
 27  14  34  1   
 28  15  17  1   
 29  15  18  1   
 30  15  35  1   
 31  16  18  1   
 32  16  36  1   
 33  16  37  1   
 34  17  19  1   
 35  17  20  1   
 36  17  38  1   
 37  18  21  1   
 38  18  22  1   
 39  19  23  1   
 40  19  39  1   
 41  19  40  1   
 42  20  41  1   
 43  20  42  1   
 44  20  43  1   
 45  21  23  1   
 46  21  44  1   
 47  21  45  1   
 48  22  24  1   
 49  22  46  1   
 50  22  47  1   
 51  23  48  1   
 52  23  49  1   
 53  24  50  1   
@<TRIPOS>SUBSTRUCTURE
  1 ****  12 GROUP 4 **** **** 0

# MOE 2024.06 (io_trps.svl 2023.06)
