@<TRIPOS>MOLECULE
NONAME
51 52 1 0 0 
SMALL
USER_CHARGES


@<TRIPOS>ATOM
  1 S        0.5470     0.3680    -1.3910 S.o2  1 <1>   1.3330 
  2 O       -0.5810     1.2050    -1.7290 O.2   1 <1>  -0.6500 
  3 O        0.9350    -0.7070    -2.2770 O.2   1 <1>  -0.6500 
  4 N        0.2360    -0.3040     0.1390 N.am  1 <1>  -0.8490 
  5 C        1.9850     1.4070    -1.1170 C.3   1 <1>  -0.0550 
  6 C       -0.4340    -1.6050     0.0450 C.3   1 <1>   0.1160 
  7 C       -0.5330     0.5850     1.0180 C.3   1 <1>   0.1160 
  8 C        3.2770     0.6290    -0.7870 C.3   1 <1>  -0.0800 
  9 C        4.5410     1.4760    -0.7560 C.3   1 <1>   0.2200 
 10 C        3.2960    -0.0610     0.5830 C.3   1 <1>   0.1200 
 11 N        4.3020     2.7590    -0.0540 N.am  1 <1>  -0.7300 
 12 C        5.4340     0.6060     0.1150 C.3   1 <1>   0.1200 
 13 O        4.5840     0.1100     1.1030 O.3   1 <1>  -0.5600 
 14 C        4.1900     3.9720    -0.6560 C.2   1 <1>   0.5690 
 15 O        4.1880     4.0740    -1.8600 O.2   1 <1>  -0.5700 
 16 C        4.0480     5.2340     0.2090 C.3   1 <1>   0.1710 
 17 N        5.3180     5.9200     0.5770 N.3   1 <1>  -0.8100 
 18 C        6.0200     6.4060    -0.6280 C.3   1 <1>   0.2530 
 19 C        6.1860     5.0810     1.4170 C.3   1 <1>   0.0300 
 20 C        7.1710     7.3340    -0.2600 C.ar  1 <1>  -0.1440 
 21 C        8.4370     7.1760    -0.7880 C.ar  1 <1>  -0.1500 
 22 C        7.0060     8.3850     0.6190 C.ar  1 <1>  -0.1500 
 23 C        9.4460     8.0520    -0.4210 C.ar  1 <1>   0.1600 
 24 C        8.0820     9.2030     0.9210 C.ar  1 <1>   0.1600 
 25 N        9.3000     9.0620     0.4220 N.ar  1 <1>  -0.6200 
 26 H        2.1610     1.9740    -2.0110 H     1 <1>   0.0800 
 27 H        1.7710     2.1060    -0.3340 H     1 <1>   0.0800 
 28 H       -0.6080    -2.0080     1.0280 H     1 <1>   0.0800 
 29 H        0.1830    -2.3000    -0.4990 H     1 <1>   0.0800 
 30 H       -1.3760    -1.5040    -0.4700 H     1 <1>   0.0800 
 31 H       -0.6210     0.1500     1.9980 H     1 <1>   0.0800 
 32 H       -1.5200     0.7500     0.6170 H     1 <1>   0.0800 
 33 H       -0.0370     1.5360     1.1120 H     1 <1>   0.0800 
 34 H        3.4130    -0.1330    -1.5360 H     1 <1>   0.0800 
 35 H        4.9570     1.6440    -1.7360 H     1 <1>   0.0800 
 36 H        3.0870    -1.1150     0.5020 H     1 <1>   0.0800 
 37 H        2.6060     0.3930     1.2730 H     1 <1>   0.0800 
 38 H        4.3070     2.6760     0.9660 H     1 <1>   0.3700 
 39 H        6.2420     1.1530     0.5680 H     1 <1>   0.0800 
 40 H        5.8200    -0.2300    -0.4420 H     1 <1>   0.0800 
 41 H        3.5240     4.9740     1.1100 H     1 <1>   0.0800 
 42 H        3.4250     5.9300    -0.3250 H     1 <1>   0.0800 
 43 H        6.3880     5.5710    -1.2000 H     1 <1>   0.0800 
 44 H        5.3300     6.9540    -1.2470 H     1 <1>   0.0800 
 45 H        7.0260     5.6550     1.7700 H     1 <1>   0.0800 
 46 H        6.5540     4.2360     0.8610 H     1 <1>   0.0800 
 47 H        5.6390     4.7300     2.2760 H     1 <1>   0.0800 
 48 H        8.6480     6.3830    -1.4810 H     1 <1>   0.1500 
 49 H        6.0470     8.5620     1.0720 H     1 <1>   0.1500 
 50 H       10.4260     7.9140    -0.8430 H     1 <1>   0.1500 
 51 H        7.9310    10.0150     1.6110 H     1 <1>   0.1500 
@<TRIPOS>BOND
  1   1   2  2   
  2   1   3  2   
  3   1   4  am  
  4   1   5  1   
  5   4   6  1   
  6   4   7  1   
  7   5   8  1   
  8   5  26  1   
  9   5  27  1   
 10   6  28  1   
 11   6  29  1   
 12   6  30  1   
 13   7  31  1   
 14   7  32  1   
 15   7  33  1   
 16   8   9  1   
 17   8  10  1   
 18   8  34  1   
 19   9  11  1   
 20   9  12  1   
 21   9  35  1   
 22  10  13  1   
 23  10  36  1   
 24  10  37  1   
 25  11  14  am  
 26  11  38  1   
 27  12  13  1   
 28  12  39  1   
 29  12  40  1   
 30  14  15  2   
 31  14  16  1   
 32  16  17  1   
 33  16  41  1   
 34  16  42  1   
 35  17  18  1   
 36  17  19  1   
 37  18  20  1   
 38  18  43  1   
 39  18  44  1   
 40  19  45  1   
 41  19  46  1   
 42  19  47  1   
 43  20  21  ar  
 44  20  22  ar  
 45  21  23  ar  
 46  21  48  1   
 47  22  24  ar  
 48  22  49  1   
 49  23  25  ar  
 50  23  50  1   
 51  24  25  ar  
 52  24  51  1   
@<TRIPOS>SUBSTRUCTURE
  1 ****  14 GROUP 4 **** **** 0

# MOE 2024.06 (io_trps.svl 2023.06)
