@<TRIPOS>MOLECULE
NONAME
45 46 1 0 0 
SMALL
USER_CHARGES


@<TRIPOS>ATOM
  1 F       -0.6300     0.3800    -1.7550 F     1 <1>  -0.3400 
  2 C       -1.5280     1.2520    -1.3290 C.3   1 <1>   1.0200 
  3 F       -0.9770     1.9200    -0.3270 F     1 <1>  -0.3400 
  4 F       -1.7170     2.1240    -2.3070 F     1 <1>  -0.3400 
  5 C       -2.8390     0.5720    -0.9080 C.3   1 <1>  -0.1600 
  6 C       -3.9150     1.5570    -0.3960 C.3   1 <1>  -0.1600 
  7 C       -5.2040     0.8260    -0.0100 C.3   1 <1>   0.3430 
  8 N       -6.1900     1.7760     0.5730 N.4   1 <1>  -0.9590 
  9 C       -7.2890     1.0290     1.2570 C.3   1 <1>   0.3430 
 10 C       -6.7220     2.7380    -0.4440 C.3   1 <1>   0.3430 
 11 C       -8.2710     2.0020     1.9050 C.3   1 <1>  -0.1600 
 12 C       -7.6750     3.7170     0.2230 C.3   1 <1>  -0.1600 
 13 C       -8.8560     2.9750     0.8760 C.3   1 <1>   0.2800 
 14 O       -9.6080     3.8840     1.6150 O.3   1 <1>  -0.5600 
 15 C       -9.7970     2.2140    -0.0920 C.3   1 <1>  -0.1600 
 16 C      -10.3470     4.8470     0.9130 C.3   1 <1>   0.1200 
 17 C      -10.7150     3.1220    -0.9130 C.3   1 <1>   0.2800 
 18 C      -11.3660     4.1660    -0.0040 C.3   1 <1>  -0.1600 
 19 O       -9.9460     3.7600    -1.8570 O.3   1 <1>  -0.6800 
 20 C      -11.7580     2.3190    -1.6870 C.3   1 <1>  -0.2400 
 21 H       -2.6020    -0.1420    -0.1400 H     1 <1>   0.0800 
 22 H       -3.2120     0.0330    -1.7600 H     1 <1>   0.0800 
 23 H       -4.1150     2.2740    -1.1720 H     1 <1>   0.0800 
 24 H       -3.5300     2.0790     0.4640 H     1 <1>   0.0800 
 25 H       -4.9670     0.0650     0.7160 H     1 <1>   0.0800 
 26 H       -5.6270     0.3420    -0.8770 H     1 <1>   0.0800 
 27 H       -5.7140     2.3350     1.2960 H     1 <1>   0.4500 
 28 H       -6.8780     0.3820     2.0160 H     1 <1>   0.0800 
 29 H       -7.8140     0.4160     0.5420 H     1 <1>   0.0800 
 30 H       -7.2420     2.2060    -1.2260 H     1 <1>   0.0800 
 31 H       -5.9140     3.2910    -0.8940 H     1 <1>   0.0800 
 32 H       -7.7650     2.5510     2.6800 H     1 <1>   0.0800 
 33 H       -9.0640     1.4450     2.3710 H     1 <1>   0.0800 
 34 H       -8.0030     4.4120    -0.5220 H     1 <1>   0.0800 
 35 H       -7.1420     4.2800     0.9690 H     1 <1>   0.0800 
 36 H      -10.4300     1.5780     0.5000 H     1 <1>   0.0800 
 37 H       -9.2500     1.5730    -0.7570 H     1 <1>   0.0800 
 38 H       -9.6770     5.4770     0.3550 H     1 <1>   0.0800 
 39 H      -10.8540     5.4580     1.6400 H     1 <1>   0.0800 
 40 H      -11.8850     4.9040    -0.5890 H     1 <1>   0.0800 
 41 H      -12.0960     3.6840     0.6220 H     1 <1>   0.0800 
 42 H      -10.5290     4.2700    -2.4520 H     1 <1>   0.4000 
 43 H      -12.3840     1.7720    -1.0040 H     1 <1>   0.0800 
 44 H      -11.2820     1.6140    -2.3440 H     1 <1>   0.0800 
 45 H      -12.3900     2.9700    -2.2640 H     1 <1>   0.0800 
@<TRIPOS>BOND
  1   1   2  1   
  2   2   3  1   
  3   2   4  1   
  4   2   5  1   
  5   5   6  1   
  6   5  21  1   
  7   5  22  1   
  8   6   7  1   
  9   6  23  1   
 10   6  24  1   
 11   7   8  1   
 12   7  25  1   
 13   7  26  1   
 14   8   9  1   
 15   8  10  1   
 16   8  27  1   
 17   9  11  1   
 18   9  28  1   
 19   9  29  1   
 20  10  12  1   
 21  10  30  1   
 22  10  31  1   
 23  11  13  1   
 24  11  32  1   
 25  11  33  1   
 26  12  13  1   
 27  12  34  1   
 28  12  35  1   
 29  13  14  1   
 30  13  15  1   
 31  14  16  1   
 32  15  17  1   
 33  15  36  1   
 34  15  37  1   
 35  16  18  1   
 36  16  38  1   
 37  16  39  1   
 38  17  18  1   
 39  17  19  1   
 40  17  20  1   
 41  18  40  1   
 42  18  41  1   
 43  19  42  1   
 44  20  43  1   
 45  20  44  1   
 46  20  45  1   
@<TRIPOS>SUBSTRUCTURE
  1 ****  10 GROUP 4 **** **** 0

# MOE 2024.06 (io_trps.svl 2023.06)
