@<TRIPOS>MOLECULE
NONAME
53 55 1 0 0 
SMALL
USER_CHARGES


@<TRIPOS>ATOM
  1 O        1.9270    -0.0030    -2.8970 O.2   1 <1>  -0.5700 
  2 C        1.7210    -0.4560    -1.7970 C.2   1 <1>   0.5690 
  3 N        1.7280     0.3150    -0.6790 N.am  1 <1>  -0.7300 
  4 C        1.4480    -1.9560    -1.6460 C.3   1 <1>   0.1710 
  5 C        2.0250     1.7630    -0.6160 C.3   1 <1>   0.1400 
  6 N        0.5980    -2.3250    -0.4750 N.3   1 <1>  -0.8100 
  7 C        3.1590     2.0430     0.3830 C.3   1 <1>  -0.0800 
  8 C       -0.7850    -1.8340    -0.6070 C.3   1 <1>   0.1100 
  9 C        0.4990    -3.7830    -0.2890 C.3   1 <1>   0.1100 
 10 C        3.3740     3.5620     0.5170 C.3   1 <1>  -0.1600 
 11 C        4.4740     1.3540    -0.0350 C.3   1 <1>  -0.1600 
 12 C       -1.5780    -2.7080     0.3550 C.3   1 <1>   0.2000 
 13 C       -0.9530    -4.0850     0.1230 C.3   1 <1>  -0.0800 
 14 C        4.5150     3.8890     1.4890 C.3   1 <1>  -0.1600 
 15 C        5.6180     1.6830     0.9330 C.3   1 <1>  -0.1600 
 16 O       -1.2850    -2.2760     1.6360 O.3   1 <1>  -0.6800 
 17 C       -1.0690    -5.0660     1.3050 C.3   1 <1>   0.0200 
 18 C        5.8170     3.1970     1.0660 C.3   1 <1>  -0.1600 
 19 C       -0.5490    -6.4550     0.9740 C.2   1 <1>  -0.0400 
 20 O       -0.3900    -7.3130     1.9460 O.3   1 <1>  -0.0190 
 21 C       -0.1850    -7.0610    -0.1680 C.2   1 <1>  -0.1500 
 22 N        0.0630    -8.4560     1.5180 N.2   1 <1>  -0.4100 
 23 C        0.1940    -8.3340     0.2470 C.2   1 <1>   0.1080 
 24 C        0.6940    -9.4340    -0.6630 C.3   1 <1>  -0.0590 
 25 H        1.5030    -0.1570     0.2010 H     1 <1>   0.3700 
 26 H        2.4030    -2.4420    -1.5490 H     1 <1>   0.0800 
 27 H        0.9910    -2.3080    -2.5540 H     1 <1>   0.0800 
 28 H        2.3040     2.1190    -1.5940 H     1 <1>   0.0800 
 29 H        1.1330     2.2850    -0.3130 H     1 <1>   0.0800 
 30 H        2.8600     1.6650     1.3460 H     1 <1>   0.0800 
 31 H       -0.8670    -0.7890    -0.3600 H     1 <1>   0.0800 
 32 H       -1.1420    -1.9920    -1.6110 H     1 <1>   0.0800 
 33 H        0.7370    -4.3090    -1.1980 H     1 <1>   0.0800 
 34 H        1.1930    -4.0860     0.4780 H     1 <1>   0.0800 
 35 H        3.6060     3.9780    -0.4480 H     1 <1>   0.0800 
 36 H        2.4690     4.0280     0.8680 H     1 <1>   0.0800 
 37 H        4.3380     0.2870    -0.0620 H     1 <1>   0.0800 
 38 H        4.7450     1.6720    -1.0270 H     1 <1>   0.0800 
 39 H       -2.6430    -2.6750     0.2040 H     1 <1>   0.0800 
 40 H       -1.4490    -4.5200    -0.7260 H     1 <1>   0.0800 
 41 H        4.6680     4.9540     1.5210 H     1 <1>   0.0800 
 42 H        4.2450     3.5640     2.4800 H     1 <1>   0.0800 
 43 H        5.3960     1.2660     1.9010 H     1 <1>   0.0800 
 44 H        6.5290     1.2300     0.5810 H     1 <1>   0.0800 
 45 H       -0.3150    -2.1360     1.6650 H     1 <1>   0.4000 
 46 H       -2.0980    -5.1470     1.6070 H     1 <1>   0.0800 
 47 H       -0.5140    -4.6900     2.1470 H     1 <1>   0.0800 
 48 H        6.5860     3.3980     1.7920 H     1 <1>   0.0800 
 49 H        6.1420     3.5970     0.1210 H     1 <1>   0.0800 
 50 H       -0.1750    -6.6980    -1.1780 H     1 <1>   0.1500 
 51 H       -0.0030    -9.5910    -1.4650 H     1 <1>   0.0800 
 52 H        0.7980   -10.3490    -0.1080 H     1 <1>   0.0800 
 53 H        1.6510    -9.1640    -1.0700 H     1 <1>   0.0800 
@<TRIPOS>BOND
  1   1   2  2   
  2   2   3  am  
  3   2   4  1   
  4   3   5  1   
  5   3  25  1   
  6   4   6  1   
  7   4  26  1   
  8   4  27  1   
  9   5   7  1   
 10   5  28  1   
 11   5  29  1   
 12   6   8  1   
 13   6   9  1   
 14   7  10  1   
 15   7  11  1   
 16   7  30  1   
 17   8  12  1   
 18   8  31  1   
 19   8  32  1   
 20   9  13  1   
 21   9  33  1   
 22   9  34  1   
 23  10  14  1   
 24  10  35  1   
 25  10  36  1   
 26  11  15  1   
 27  11  37  1   
 28  11  38  1   
 29  12  13  1   
 30  12  16  1   
 31  12  39  1   
 32  13  17  1   
 33  13  40  1   
 34  14  18  1   
 35  14  41  1   
 36  14  42  1   
 37  15  18  1   
 38  15  43  1   
 39  15  44  1   
 40  16  45  1   
 41  17  19  1   
 42  17  46  1   
 43  17  47  1   
 44  18  48  1   
 45  18  49  1   
 46  19  20  1   
 47  19  21  2   
 48  20  22  1   
 49  21  23  1   
 50  21  50  1   
 51  22  23  2   
 52  23  24  1   
 53  24  51  1   
 54  24  52  1   
 55  24  53  1   
@<TRIPOS>SUBSTRUCTURE
  1 ****   6 GROUP 4 **** **** 0

# MOE 2024.06 (io_trps.svl 2023.06)
