@<TRIPOS>MOLECULE
NONAME
51 53 1 0 0 
SMALL
USER_CHARGES


@<TRIPOS>ATOM
  1 N       -0.7120     0.2700    -1.3340 N.ar  1 <1>  -0.6200 
  2 C       -1.5980     0.6420    -0.4290 C.ar  1 <1>   0.4100 
  3 C       -0.7440    -1.0040    -1.6640 C.ar  1 <1>   0.4700 
  4 N       -1.6270     1.9700    -0.0520 N.pl3 1 <1>  -0.8380 
  5 C       -2.4780    -0.2610     0.1150 C.ar  1 <1>  -0.1500 
  6 N       -1.5410    -1.9550    -1.2130 N.ar  1 <1>  -0.6200 
  7 C       -0.3510     2.7260     0.0360 C.3   1 <1>   0.2090 
  8 C       -2.8230     2.7730    -0.4220 C.3   1 <1>   0.1290 
  9 C       -2.4190    -1.5650    -0.3070 C.ar  1 <1>   0.4100 
 10 C       -0.3500     3.5740     1.3040 C.3   1 <1>  -0.2400 
 11 N       -3.2740    -2.5120     0.2080 N.pl3 1 <1>  -0.8690 
 12 C       -3.3970    -3.8700    -0.3290 C.3   1 <1>   0.2890 
 13 C       -4.8230    -4.3670    -0.1250 C.3   1 <1>  -0.1600 
 14 C       -2.3990    -4.7690     0.3930 C.3   1 <1>  -0.1600 
 15 C       -4.9440    -5.8160    -0.5870 C.3   1 <1>   0.3430 
 16 C       -2.5450    -6.2090    -0.0800 C.3   1 <1>   0.3430 
 17 N       -3.9490    -6.6680     0.1370 N.4   1 <1>  -0.9590 
 18 C       -4.1010    -8.1130    -0.2060 C.3   1 <1>   0.4860 
 19 C       -5.4800    -8.5800     0.2050 C.ar  1 <1>  -0.1430 
 20 C       -5.7660    -8.8060     1.5440 C.ar  1 <1>   0.1600 
 21 C       -6.4750    -8.7850    -0.7330 C.ar  1 <1>  -0.1500 
 22 N       -6.9420    -9.1830     2.0080 N.ar  1 <1>  -0.6200 
 23 C       -7.7050    -9.1920    -0.2610 C.ar  1 <1>  -0.1500 
 24 C       -7.8850    -9.3710     1.1000 C.ar  1 <1>   0.1600 
 25 H       -0.0220    -1.3090    -2.4030 H     1 <1>   0.1500 
 26 H       -3.1810     0.0580     0.8540 H     1 <1>   0.1500 
 27 H       -0.2320     3.3450    -0.8370 H     1 <1>   0.0800 
 28 H        0.4790     2.0390     0.0760 H     1 <1>   0.0800 
 29 H       -3.6070     2.1330    -0.7900 H     1 <1>   0.0800 
 30 H       -2.5690     3.4790    -1.1930 H     1 <1>   0.0800 
 31 H       -3.1850     3.3030     0.4410 H     1 <1>   0.0800 
 32 H       -1.1220     4.3200     1.2620 H     1 <1>   0.0800 
 33 H        0.5980     4.0700     1.4040 H     1 <1>   0.0800 
 34 H       -0.5020     2.9460     2.1620 H     1 <1>   0.0800 
 35 H       -4.0040    -2.1880     0.8450 H     1 <1>   0.4000 
 36 H       -3.1760    -3.8590    -1.3860 H     1 <1>   0.0800 
 37 H       -5.4960    -3.7590    -0.7020 H     1 <1>   0.0800 
 38 H       -5.1040    -4.2960     0.9110 H     1 <1>   0.0800 
 39 H       -2.5440    -4.7140     1.4570 H     1 <1>   0.0800 
 40 H       -1.4010    -4.4310     0.1760 H     1 <1>   0.0800 
 41 H       -4.7680    -5.8700    -1.6500 H     1 <1>   0.0800 
 42 H       -5.9460    -6.1660    -0.3920 H     1 <1>   0.0800 
 43 H       -1.8580    -6.8340     0.4680 H     1 <1>   0.0800 
 44 H       -2.2950    -6.2670    -1.1280 H     1 <1>   0.0800 
 45 H       -4.1580    -6.5730     1.1390 H     1 <1>   0.4500 
 46 H       -3.3590    -8.6980     0.3150 H     1 <1>   0.0800 
 47 H       -3.9660    -8.2610    -1.2650 H     1 <1>   0.0800 
 48 H       -4.9950    -8.6710     2.2840 H     1 <1>   0.1500 
 49 H       -6.3180    -8.6440    -1.7900 H     1 <1>   0.1500 
 50 H       -8.5230    -9.3720    -0.9360 H     1 <1>   0.1500 
 51 H       -8.8510    -9.6880     1.4590 H     1 <1>   0.1500 
@<TRIPOS>BOND
  1   1   2  ar  
  2   1   3  ar  
  3   2   4  1   
  4   2   5  ar  
  5   3   6  ar  
  6   3  25  1   
  7   4   7  1   
  8   4   8  1   
  9   5   9  ar  
 10   5  26  1   
 11   6   9  ar  
 12   7  10  1   
 13   7  27  1   
 14   7  28  1   
 15   8  29  1   
 16   8  30  1   
 17   8  31  1   
 18   9  11  1   
 19  10  32  1   
 20  10  33  1   
 21  10  34  1   
 22  11  12  1   
 23  11  35  1   
 24  12  13  1   
 25  12  14  1   
 26  12  36  1   
 27  13  15  1   
 28  13  37  1   
 29  13  38  1   
 30  14  16  1   
 31  14  39  1   
 32  14  40  1   
 33  15  17  1   
 34  15  41  1   
 35  15  42  1   
 36  16  17  1   
 37  16  43  1   
 38  16  44  1   
 39  17  18  1   
 40  17  45  1   
 41  18  19  1   
 42  18  46  1   
 43  18  47  1   
 44  19  20  ar  
 45  19  21  ar  
 46  20  22  ar  
 47  20  48  1   
 48  21  23  ar  
 49  21  49  1   
 50  22  24  ar  
 51  23  24  ar  
 52  23  50  1   
 53  24  51  1   
@<TRIPOS>SUBSTRUCTURE
  1 ****  12 GROUP 4 **** **** 0

# MOE 2024.06 (io_trps.svl 2023.06)
