@<TRIPOS>MOLECULE
NONAME
48 50 1 0 0 
SMALL
USER_CHARGES


@<TRIPOS>ATOM
  1 CL      -0.9550    -0.5660    -1.5900 Cl    1 <1>  -0.1240 
  2 C       -2.3270     0.3140    -0.9520 C.2   1 <1>  -0.0280 
  3 N       -2.5540     1.6160    -1.1990 N.pl3 1 <1>   0.3140 
  4 C       -3.3170    -0.1560    -0.1680 C.2   1 <1>  -0.1810 
  5 N       -3.6950     2.0040    -0.5960 N.2   1 <1>  -0.7070 
  6 C       -1.7340     2.5420    -1.9930 C.3   1 <1>   0.0160 
  7 C       -4.1410     0.9510     0.0220 C.2   1 <1>   0.1080 
  8 C       -3.5090    -1.5490     0.3740 C.3   1 <1>   0.5240 
  9 C       -5.4210     0.9820     0.8410 C.3   1 <1>   0.0210 
 10 N       -3.5650    -2.4890    -0.7750 N.4   1 <1>  -0.9590 
 11 C       -5.1220     1.0390     2.3420 C.3   1 <1>  -0.2400 
 12 C       -4.7850    -2.2420    -1.6060 C.3   1 <1>   0.3430 
 13 C       -3.6540    -3.8990    -0.2900 C.3   1 <1>   0.3430 
 14 C       -5.8450    -3.2070    -1.0700 C.3   1 <1>   0.2000 
 15 C       -5.0180    -4.4480    -0.7320 C.3   1 <1>  -0.0800 
 16 O       -6.3900    -2.6630     0.0920 O.3   1 <1>  -0.6800 
 17 C       -5.6320    -5.4130     0.3010 C.3   1 <1>   0.0210 
 18 C       -4.7320    -6.6120     0.5310 C.2   1 <1>   0.1080 
 19 N       -3.5200    -6.5090     0.9840 N.2   1 <1>  -0.7070 
 20 C       -5.0950    -7.9330     0.2930 C.2   1 <1>  -0.1500 
 21 N       -3.0760    -7.7820     1.0590 N.pl3 1 <1>   0.3000 
 22 C       -4.0120    -8.6590     0.6400 C.2   1 <1>  -0.3320 
 23 C       -3.8130   -10.1630     0.6020 C.3   1 <1>  -0.0600 
 24 H       -1.6990     2.2020    -3.0110 H     1 <1>   0.0800 
 25 H       -0.7420     2.5770    -1.5830 H     1 <1>   0.0800 
 26 H       -2.1740     3.5220    -1.9560 H     1 <1>   0.0800 
 27 H       -4.4210    -1.6030     0.9470 H     1 <1>   0.0800 
 28 H       -2.6820    -1.7990     1.0180 H     1 <1>   0.0800 
 29 H       -5.9880     1.8540     0.5610 H     1 <1>   0.0800 
 30 H       -6.0200     0.1180     0.6160 H     1 <1>   0.0800 
 31 H       -2.7120    -2.3310    -1.3290 H     1 <1>   0.4500 
 32 H       -4.5330     1.9120     2.5620 H     1 <1>   0.0800 
 33 H       -4.5800     0.1680     2.6610 H     1 <1>   0.0800 
 34 H       -6.0410     1.0980     2.8990 H     1 <1>   0.0800 
 35 H       -5.1210    -1.2190    -1.5540 H     1 <1>   0.0800 
 36 H       -4.5720    -2.4910    -2.6320 H     1 <1>   0.0800 
 37 H       -2.8620    -4.5070    -0.6960 H     1 <1>   0.0800 
 38 H       -3.5850    -3.9330     0.7860 H     1 <1>   0.0800 
 39 H       -6.6360    -3.3870    -1.7790 H     1 <1>   0.0800 
 40 H       -4.8550    -5.0000    -1.6410 H     1 <1>   0.0800 
 41 H       -7.2110    -3.1340     0.3520 H     1 <1>   0.4000 
 42 H       -6.5920    -5.7540    -0.0420 H     1 <1>   0.0800 
 43 H       -5.7700    -4.9200     1.2480 H     1 <1>   0.0800 
 44 H       -6.0410    -8.2820    -0.0830 H     1 <1>   0.1500 
 45 H       -2.1390    -8.0250     1.4030 H     1 <1>   0.2700 
 46 H       -4.7010   -10.6460     0.2340 H     1 <1>   0.0800 
 47 H       -3.6070   -10.5370     1.5900 H     1 <1>   0.0800 
 48 H       -2.9930   -10.4160    -0.0470 H     1 <1>   0.0800 
@<TRIPOS>BOND
  1   1   2  1   
  2   2   3  1   
  3   2   4  2   
  4   3   5  1   
  5   3   6  1   
  6   4   7  1   
  7   4   8  1   
  8   5   7  2   
  9   6  24  1   
 10   6  25  1   
 11   6  26  1   
 12   7   9  1   
 13   8  10  1   
 14   8  27  1   
 15   8  28  1   
 16   9  11  1   
 17   9  29  1   
 18   9  30  1   
 19  10  12  1   
 20  10  13  1   
 21  10  31  1   
 22  11  32  1   
 23  11  33  1   
 24  11  34  1   
 25  12  14  1   
 26  12  35  1   
 27  12  36  1   
 28  13  15  1   
 29  13  37  1   
 30  13  38  1   
 31  14  15  1   
 32  14  16  1   
 33  14  39  1   
 34  15  17  1   
 35  15  40  1   
 36  16  41  1   
 37  17  18  1   
 38  17  42  1   
 39  17  43  1   
 40  18  19  2   
 41  18  20  1   
 42  19  21  1   
 43  20  22  2   
 44  20  44  1   
 45  21  22  1   
 46  21  45  1   
 47  22  23  1   
 48  23  46  1   
 49  23  47  1   
 50  23  48  1   
@<TRIPOS>SUBSTRUCTURE
  1 ****  10 GROUP 4 **** **** 0

# MOE 2024.06 (io_trps.svl 2023.06)
