@<TRIPOS>MOLECULE
NONAME
51 53 1 0 0 
SMALL
USER_CHARGES


@<TRIPOS>ATOM
  1 CL      -0.3390     0.2890     1.4140 Cl    1 <1>  -0.1770 
  2 C       -1.9410     0.6680     0.8370 C.ar  1 <1>   0.1770 
  3 C       -2.6000    -0.2270     0.0170 C.ar  1 <1>  -0.1500 
  4 C       -2.5320     1.8610     1.2070 C.ar  1 <1>  -0.1500 
  5 C       -3.8690     0.0810    -0.4390 C.ar  1 <1>  -0.1500 
  6 C       -3.8030     2.1570     0.7460 C.ar  1 <1>  -0.1500 
  7 C       -4.5010     1.2750    -0.0830 C.ar  1 <1>   0.0530 
  8 C       -5.8190     1.6130    -0.5590 C.2   1 <1>   0.0870 
  9 O       -6.0560     2.8390    -0.9560 O.3   1 <1>  -0.0190 
 10 C       -6.9760     0.9120    -0.7240 C.2   1 <1>  -0.0860 
 11 N       -7.2770     3.0140    -1.3810 N.2   1 <1>  -0.4100 
 12 C       -7.8500     1.8770    -1.2450 C.2   1 <1>   0.3720 
 13 C       -7.2870    -0.4610    -0.4540 C.2   1 <1>   0.7160 
 14 N       -9.1840     1.7230    -1.5940 N.pl3 1 <1>  -0.8520 
 15 O       -6.5410    -1.1690     0.1950 O.2   1 <1>  -0.5700 
 16 N       -8.4380    -1.0110    -0.9280 N.am  1 <1>  -0.7300 
 17 C      -10.1160     1.8340    -0.4390 C.3   1 <1>   0.2090 
 18 C       -8.8420    -2.4320    -0.8140 C.3   1 <1>   0.1400 
 19 C      -11.5390     1.4700    -0.8640 C.3   1 <1>   0.1200 
 20 C       -9.5040    -2.7090     0.5460 C.3   1 <1>  -0.0800 
 21 O      -12.3040     1.3050     0.2870 O.3   1 <1>  -0.5600 
 22 C       -9.8860    -4.1970     0.6360 C.3   1 <1>   0.1400 
 23 C      -10.8450    -1.9610     0.6960 C.3   1 <1>  -0.0990 
 24 C      -13.5740     0.7810     0.0520 C.3   1 <1>   0.0400 
 25 N      -11.3020    -4.2150     0.2330 N.am  1 <1>  -0.6600 
 26 C      -11.8570    -2.9810     0.2580 C.2   1 <1>   0.5690 
 27 C      -12.0020    -5.4830    -0.0780 C.3   1 <1>   0.0600 
 28 O      -12.9930    -2.7030    -0.0380 O.2   1 <1>  -0.5700 
 29 H       -2.1220    -1.1500    -0.2590 H     1 <1>   0.1500 
 30 H       -2.0010     2.5440     1.8450 H     1 <1>   0.1500 
 31 H       -4.3790    -0.6160    -1.0810 H     1 <1>   0.1500 
 32 H       -4.2660     3.0850     1.0310 H     1 <1>   0.1500 
 33 H       -9.4000     2.4880    -2.2450 H     1 <1>   0.4000 
 34 H       -9.0610    -0.3730    -1.4410 H     1 <1>   0.3700 
 35 H      -10.1010     2.8400    -0.0550 H     1 <1>   0.0800 
 36 H       -9.8000     1.1620     0.3410 H     1 <1>   0.0800 
 37 H       -7.9650    -3.0490    -0.9170 H     1 <1>   0.0800 
 38 H       -9.5190    -2.6750    -1.6160 H     1 <1>   0.0800 
 39 H      -11.5370     0.5440    -1.4120 H     1 <1>   0.0800 
 40 H      -11.9750     2.2540    -1.4580 H     1 <1>   0.0800 
 41 H       -8.8140    -2.4540     1.3320 H     1 <1>   0.0800 
 42 H       -9.8020    -4.5510     1.6500 H     1 <1>   0.0800 
 43 H       -9.2890    -4.8130    -0.0150 H     1 <1>   0.0800 
 44 H      -10.9080    -1.0810     0.0920 H     1 <1>   0.0800 
 45 H      -11.0330    -1.7090     1.7230 H     1 <1>   0.0800 
 46 H      -14.0740     0.6750     0.9980 H     1 <1>   0.0800 
 47 H      -13.4840    -0.1850    -0.4140 H     1 <1>   0.0800 
 48 H      -14.1270     1.4550    -0.5790 H     1 <1>   0.0800 
 49 H      -11.5340    -5.9620    -0.9190 H     1 <1>   0.0800 
 50 H      -13.0320    -5.2840    -0.3180 H     1 <1>   0.0800 
 51 H      -11.9640    -6.1390     0.7750 H     1 <1>   0.0800 
@<TRIPOS>BOND
  1   1   2  1   
  2   2   3  ar  
  3   2   4  ar  
  4   3   5  ar  
  5   3  29  1   
  6   4   6  ar  
  7   4  30  1   
  8   5   7  ar  
  9   5  31  1   
 10   6   7  ar  
 11   6  32  1   
 12   7   8  1   
 13   8   9  1   
 14   8  10  2   
 15   9  11  1   
 16  10  12  1   
 17  10  13  1   
 18  11  12  2   
 19  12  14  1   
 20  13  15  2   
 21  13  16  am  
 22  14  17  1   
 23  14  33  1   
 24  16  18  1   
 25  16  34  1   
 26  17  19  1   
 27  17  35  1   
 28  17  36  1   
 29  18  20  1   
 30  18  37  1   
 31  18  38  1   
 32  19  21  1   
 33  19  39  1   
 34  19  40  1   
 35  20  22  1   
 36  20  23  1   
 37  20  41  1   
 38  21  24  1   
 39  22  25  1   
 40  22  42  1   
 41  22  43  1   
 42  23  26  1   
 43  23  44  1   
 44  23  45  1   
 45  24  46  1   
 46  24  47  1   
 47  24  48  1   
 48  25  26  am  
 49  25  27  1   
 50  26  28  2   
 51  27  49  1   
 52  27  50  1   
 53  27  51  1   
@<TRIPOS>SUBSTRUCTURE
  1 ****  13 GROUP 4 **** **** 0

# MOE 2024.06 (io_trps.svl 2023.06)
