@<TRIPOS>MOLECULE
NONAME
49 51 1 0 0 
SMALL
USER_CHARGES


@<TRIPOS>ATOM
  1 CL      -2.7620     2.4670    -0.8840 Cl    1 <1>  -0.1770 
  2 C       -3.4530     0.9250    -0.4290 C.ar  1 <1>   0.1770 
  3 C       -3.2290     0.4190     0.8440 C.ar  1 <1>   0.0820 
  4 C       -4.2180     0.2320    -1.3480 C.ar  1 <1>  -0.1500 
  5 O       -2.4850     1.0960     1.7380 O.3   1 <1>  -0.5330 
  6 C       -3.7800    -0.7990     1.1970 C.ar  1 <1>  -0.1500 
  7 C       -4.7780    -0.9880    -0.9920 C.ar  1 <1>  -0.1440 
  8 C       -4.5500    -1.4980     0.2810 C.ar  1 <1>  -0.1500 
  9 C       -5.6440    -1.7630    -1.9830 C.3   1 <1>   0.0440 
 10 C       -6.9870    -2.2010    -1.4070 C.2   1 <1>   0.5690 
 11 O       -7.1970    -3.3910    -1.3570 O.2   1 <1>  -0.5700 
 12 N       -7.9160    -1.2830    -0.9750 N.am  1 <1>  -0.6600 
 13 C       -7.6860     0.1940    -0.9970 C.3   1 <1>   0.1400 
 14 C       -9.1930    -1.7400    -0.3480 C.3   1 <1>   0.1400 
 15 C       -9.0130     0.9490    -0.9290 C.3   1 <1>  -0.1600 
 16 C       -9.5640    -0.8230     0.8200 C.3   1 <1>  -0.1600 
 17 C       -9.7730     0.6460     0.3810 C.3   1 <1>   0.2800 
 18 O       -9.1300     1.4310     1.3640 O.3   1 <1>  -0.5600 
 19 C      -11.2960     0.9830     0.2850 C.3   1 <1>   0.2000 
 20 C       -9.8620     2.3850     2.0810 C.3   1 <1>   0.1200 
 21 O      -11.9290     0.2970    -0.7580 O.3   1 <1>  -0.6800 
 22 C      -11.6010     2.5100     0.2420 C.3   1 <1>   0.2800 
 23 C      -10.5910     3.3000     1.0940 C.3   1 <1>  -0.1600 
 24 O      -12.8480     2.6800     0.8140 O.3   1 <1>  -0.6800 
 25 C      -11.7200     3.1240    -1.1610 C.3   1 <1>  -0.2400 
 26 H       -4.3690     0.6500    -2.3260 H     1 <1>   0.1500 
 27 H       -2.1540     1.9420     1.3780 H     1 <1>   0.4500 
 28 H       -3.6080    -1.1940     2.1830 H     1 <1>   0.1500 
 29 H       -4.9780    -2.4450     0.5670 H     1 <1>   0.1500 
 30 H       -5.1040    -2.6400    -2.2910 H     1 <1>   0.0800 
 31 H       -5.8290    -1.1800    -2.8640 H     1 <1>   0.0800 
 32 H       -7.0760     0.4670    -0.1520 H     1 <1>   0.0800 
 33 H       -7.1700     0.4730    -1.8980 H     1 <1>   0.0800 
 34 H       -9.9750    -1.7280    -1.0880 H     1 <1>   0.0800 
 35 H       -9.0900    -2.7500     0.0120 H     1 <1>   0.0800 
 36 H       -9.6010     0.6600    -1.7820 H     1 <1>   0.0800 
 37 H       -8.8240     2.0020    -1.0070 H     1 <1>   0.0800 
 38 H       -8.7710    -0.8840     1.5450 H     1 <1>   0.0800 
 39 H      -10.4530    -1.2080     1.2840 H     1 <1>   0.0800 
 40 H      -11.7420     0.6030     1.1880 H     1 <1>   0.0800 
 41 H      -10.5490     1.8770     2.7370 H     1 <1>   0.0800 
 42 H       -9.1650     2.9480     2.6760 H     1 <1>   0.0800 
 43 H      -12.8780     0.5360    -0.7450 H     1 <1>   0.4000 
 44 H       -9.8420     3.7450     0.4640 H     1 <1>   0.0800 
 45 H      -11.0770     4.0980     1.6260 H     1 <1>   0.0800 
 46 H      -13.1180     3.6150     0.7370 H     1 <1>   0.4000 
 47 H      -10.8090     2.9840    -1.7110 H     1 <1>   0.0800 
 48 H      -11.9100     4.1800    -1.1000 H     1 <1>   0.0800 
 49 H      -12.5140     2.6580    -1.7170 H     1 <1>   0.0800 
@<TRIPOS>BOND
  1   1   2  1   
  2   2   3  ar  
  3   2   4  ar  
  4   3   5  1   
  5   3   6  ar  
  6   4   7  ar  
  7   4  26  1   
  8   5  27  1   
  9   6   8  ar  
 10   6  28  1   
 11   7   8  ar  
 12   7   9  1   
 13   8  29  1   
 14   9  10  1   
 15   9  30  1   
 16   9  31  1   
 17  10  11  2   
 18  10  12  am  
 19  12  13  1   
 20  12  14  1   
 21  13  15  1   
 22  13  32  1   
 23  13  33  1   
 24  14  16  1   
 25  14  34  1   
 26  14  35  1   
 27  15  17  1   
 28  15  36  1   
 29  15  37  1   
 30  16  17  1   
 31  16  38  1   
 32  16  39  1   
 33  17  18  1   
 34  17  19  1   
 35  18  20  1   
 36  19  21  1   
 37  19  22  1   
 38  19  40  1   
 39  20  23  1   
 40  20  41  1   
 41  20  42  1   
 42  21  43  1   
 43  22  23  1   
 44  22  24  1   
 45  22  25  1   
 46  23  44  1   
 47  23  45  1   
 48  24  46  1   
 49  25  47  1   
 50  25  48  1   
 51  25  49  1   
@<TRIPOS>SUBSTRUCTURE
  1 ****  13 GROUP 4 **** **** 0

# MOE 2024.06 (io_trps.svl 2023.06)
