@<TRIPOS>MOLECULE
NONAME
47 50 1 0 0 
SMALL
USER_CHARGES


@<TRIPOS>ATOM
  1 S       -0.0830    -0.1000     1.7510 S.o2  1 <1>   1.4470 
  2 O        0.2570     1.0810     2.5170 O.2   1 <1>  -0.6500 
  3 O       -0.7140    -1.2180     2.4180 O.2   1 <1>  -0.6500 
  4 N       -1.1200     0.3980     0.5070 N.am  1 <1>  -0.8490 
  5 C        1.3830    -0.6980     0.8650 C.ar  1 <1>  -0.0090 
  6 C       -2.5000     0.5560     0.9950 C.3   1 <1>   0.1960 
  7 C       -0.6650     1.6350    -0.1350 C.3   1 <1>   0.1960 
  8 C        2.6630    -0.3400     1.2750 C.ar  1 <1>  -0.1500 
  9 C        1.2600    -1.5360    -0.2380 C.ar  1 <1>  -0.1500 
 10 C       -3.4930     0.8340    -0.1620 C.3   1 <1>   0.0000 
 11 C       -1.5510     1.9660    -1.3410 C.3   1 <1>  -0.1600 
 12 C        3.7910    -0.7960     0.6100 C.ar  1 <1>   0.1170 
 13 C        2.3740    -2.0000    -0.9170 C.ar  1 <1>  -0.1500 
 14 C       -4.9440     0.9880     0.3370 C.3   1 <1>   0.2000 
 15 C       -3.0280     2.0850    -0.9360 C.3   1 <1>  -0.1600 
 16 C       -3.6110    -0.4020    -1.0730 C.3   1 <1>  -0.1600 
 17 N        5.0750    -0.4290     1.0130 N.am  1 <1>  -0.5470 
 18 C        3.6390    -1.6350    -0.4970 C.ar  1 <1>   0.0820 
 19 O       -5.0350     1.6420     1.5540 O.3   1 <1>  -0.6800 
 20 C       -5.5280    -0.4220     0.4500 C.3   1 <1>  -0.1600 
 21 C       -4.6080    -1.3310    -0.3760 C.3   1 <1>  -0.1600 
 22 C        6.1880    -0.9480     0.4410 C.2   1 <1>   0.5690 
 23 O        4.7140    -2.1010    -1.1910 O.3   1 <1>  -0.3630 
 24 O        7.2860    -0.5730     0.7660 O.2   1 <1>  -0.5700 
 25 C        6.0210    -2.0460    -0.6090 C.3   1 <1>   0.1810 
 26 H       -2.8070    -0.3400     1.5080 H     1 <1>   0.0800 
 27 H       -2.5270     1.3660     1.7050 H     1 <1>   0.0800 
 28 H       -0.6950     2.4500     0.5710 H     1 <1>   0.0800 
 29 H        0.3530     1.5200    -0.4710 H     1 <1>   0.0800 
 30 H        2.7790     0.3050     2.1290 H     1 <1>   0.1500 
 31 H        0.2760    -1.8280    -0.5690 H     1 <1>   0.1500 
 32 H       -1.2240     2.8930    -1.7760 H     1 <1>   0.0800 
 33 H       -1.4310     1.1970    -2.0840 H     1 <1>   0.0800 
 34 H        2.2660    -2.6450    -1.7720 H     1 <1>   0.1500 
 35 H       -5.5140     1.5540    -0.3820 H     1 <1>   0.0800 
 36 H       -3.6360     2.2360    -1.8110 H     1 <1>   0.0800 
 37 H       -3.1480     2.9480    -0.3030 H     1 <1>   0.0800 
 38 H       -4.0190    -0.1110    -2.0260 H     1 <1>   0.0800 
 39 H       -2.6660    -0.8890    -1.2430 H     1 <1>   0.0800 
 40 H        5.2210     0.2770     1.7350 H     1 <1>   0.3700 
 41 H       -4.7790     1.0420     2.2790 H     1 <1>   0.4000 
 42 H       -5.5550    -0.7640     1.4700 H     1 <1>   0.0800 
 43 H       -6.5250    -0.4330     0.0460 H     1 <1>   0.0800 
 44 H       -4.0770    -2.0000     0.2800 H     1 <1>   0.0800 
 45 H       -5.1610    -1.9160    -1.0910 H     1 <1>   0.0800 
 46 H        6.2120    -2.9980    -0.1520 H     1 <1>   0.0800 
 47 H        6.7250    -1.8920    -1.4040 H     1 <1>   0.0800 
@<TRIPOS>BOND
  1   1   2  2   
  2   1   3  2   
  3   1   4  am  
  4   1   5  1   
  5   4   6  1   
  6   4   7  1   
  7   5   8  ar  
  8   5   9  ar  
  9   6  10  1   
 10   6  26  1   
 11   6  27  1   
 12   7  11  1   
 13   7  28  1   
 14   7  29  1   
 15   8  12  ar  
 16   8  30  1   
 17   9  13  ar  
 18   9  31  1   
 19  10  14  1   
 20  10  15  1   
 21  10  16  1   
 22  11  15  1   
 23  11  32  1   
 24  11  33  1   
 25  12  17  1   
 26  12  18  ar  
 27  13  18  ar  
 28  13  34  1   
 29  14  19  1   
 30  14  20  1   
 31  14  35  1   
 32  15  36  1   
 33  15  37  1   
 34  16  21  1   
 35  16  38  1   
 36  16  39  1   
 37  17  22  am  
 38  17  40  1   
 39  18  23  1   
 40  19  41  1   
 41  20  21  1   
 42  20  42  1   
 43  20  43  1   
 44  21  44  1   
 45  21  45  1   
 46  22  24  2   
 47  22  25  1   
 48  23  25  1   
 49  25  46  1   
 50  25  47  1   
@<TRIPOS>SUBSTRUCTURE
  1 ****   5 GROUP 4 **** **** 0

# MOE 2024.06 (io_trps.svl 2023.06)
