@<TRIPOS>MOLECULE
NONAME
52 55 1 0 0 
SMALL
USER_CHARGES


@<TRIPOS>ATOM
  1 O       -1.3000    -0.1500     2.1000 O.2   1 <1>  -0.5700 
  2 C       -1.6200     0.6490     1.2410 C.2   1 <1>   0.6160 
  3 N       -2.3450     0.1710     0.1690 N.am  1 <1>  -0.6600 
  4 C       -1.3080     2.0510     1.4150 C.2   1 <1>  -0.0140 
  5 C       -2.4690    -1.2940    -0.0560 C.3   1 <1>   0.1400 
  6 C       -3.4220     0.9710    -0.4740 C.3   1 <1>   0.1400 
  7 C       -0.6220     2.8060     0.3850 C.ar  1 <1>   0.0280 
  8 C       -1.6560     2.6940     2.5670 C.2   1 <1>  -0.1360 
  9 C       -3.8000    -1.7790     0.5590 C.3   1 <1>   0.4230 
 10 C       -4.7670     0.5120     0.1080 C.3   1 <1>  -0.1600 
 11 C       -0.4050     4.1830     0.5880 C.ar  1 <1>   0.1170 
 12 C       -0.1390     2.2470    -0.8050 C.ar  1 <1>  -0.1500 
 13 C       -1.4180     4.0750     2.7750 C.2   1 <1>   0.6160 
 14 N       -3.9570    -3.2940     0.5840 N.4   1 <1>  -0.9590 
 15 C       -5.0270    -1.0200    -0.0320 C.3   1 <1>   0.0000 
 16 N       -0.8200     4.7700     1.7760 N.am  1 <1>  -0.5470 
 17 C        0.2320     4.9500    -0.3840 C.ar  1 <1>  -0.1500 
 18 C        0.4930     3.0150    -1.7600 C.ar  1 <1>  -0.1500 
 19 O       -1.7350     4.6640     3.7900 O.2   1 <1>  -0.5700 
 20 C       -5.3680    -3.7590     0.7860 C.3   1 <1>   0.3430 
 21 C       -3.3340    -4.0330    -0.5630 C.3   1 <1>   0.2630 
 22 C       -6.2990    -1.3880     0.7890 C.3   1 <1>  -0.1600 
 23 C       -5.2190    -1.3970    -1.5300 C.3   1 <1>   0.1200 
 24 C        0.6760     4.3730    -1.5520 C.ar  1 <1>  -0.1500 
 25 C       -6.1830    -2.7210     1.5540 C.3   1 <1>  -0.1600 
 26 O       -6.1830    -0.6110    -2.1380 O.3   1 <1>  -0.6800 
 27 H       -2.4270    -1.4850    -1.1130 H     1 <1>   0.0800 
 28 H       -1.6440    -1.8040     0.4100 H     1 <1>   0.0800 
 29 H       -3.2840     2.0220    -0.2840 H     1 <1>   0.0800 
 30 H       -3.3980     0.8250    -1.5410 H     1 <1>   0.0800 
 31 H       -2.1350     2.1790     3.3790 H     1 <1>   0.1500 
 32 H       -3.7500    -1.4690     1.5910 H     1 <1>   0.0800 
 33 H       -4.7720     0.7880     1.1490 H     1 <1>   0.0800 
 34 H       -5.5550     1.0750    -0.3600 H     1 <1>   0.0800 
 35 H       -0.2510     1.1950    -0.9930 H     1 <1>   0.1500 
 36 H       -3.4430    -3.5810     1.4320 H     1 <1>   0.4500 
 37 H       -0.6580     5.7580     1.9680 H     1 <1>   0.3700 
 38 H        0.3800     6.0020    -0.2170 H     1 <1>   0.1500 
 39 H        0.8520     2.5640    -2.6700 H     1 <1>   0.1500 
 40 H       -5.8390    -3.9220    -0.1710 H     1 <1>   0.0800 
 41 H       -5.3720    -4.6960     1.3200 H     1 <1>   0.0800 
 42 H       -3.7960    -3.7470    -1.4940 H     1 <1>   0.0800 
 43 H       -3.4560    -5.0960    -0.4320 H     1 <1>   0.0800 
 44 H       -2.2780    -3.8220    -0.6220 H     1 <1>   0.0800 
 45 H       -6.5170    -0.6220     1.5140 H     1 <1>   0.0800 
 46 H       -7.1580    -1.4320     0.1410 H     1 <1>   0.0800 
 47 H       -5.5230    -2.4210    -1.6450 H     1 <1>   0.0800 
 48 H       -4.3140    -1.2470    -2.0900 H     1 <1>   0.0800 
 49 H        1.1690     4.9690    -2.3020 H     1 <1>   0.1500 
 50 H       -7.1710    -3.1090     1.7360 H     1 <1>   0.0800 
 51 H       -5.7280    -2.5580     2.5170 H     1 <1>   0.0800 
 52 H       -7.0760    -0.7620    -1.7700 H     1 <1>   0.4000 
@<TRIPOS>BOND
  1   1   2  2   
  2   2   3  am  
  3   2   4  1   
  4   3   5  1   
  5   3   6  1   
  6   4   7  1   
  7   4   8  2   
  8   5   9  1   
  9   5  27  1   
 10   5  28  1   
 11   6  10  1   
 12   6  29  1   
 13   6  30  1   
 14   7  11  ar  
 15   7  12  ar  
 16   8  13  1   
 17   8  31  1   
 18   9  14  1   
 19   9  15  1   
 20   9  32  1   
 21  10  15  1   
 22  10  33  1   
 23  10  34  1   
 24  11  16  1   
 25  11  17  ar  
 26  12  18  ar  
 27  12  35  1   
 28  13  16  am  
 29  13  19  2   
 30  14  20  1   
 31  14  21  1   
 32  14  36  1   
 33  15  22  1   
 34  15  23  1   
 35  16  37  1   
 36  17  24  ar  
 37  17  38  1   
 38  18  24  ar  
 39  18  39  1   
 40  20  25  1   
 41  20  40  1   
 42  20  41  1   
 43  21  42  1   
 44  21  43  1   
 45  21  44  1   
 46  22  25  1   
 47  22  45  1   
 48  22  46  1   
 49  23  26  1   
 50  23  47  1   
 51  23  48  1   
 52  24  49  1   
 53  25  50  1   
 54  25  51  1   
 55  26  52  1   
@<TRIPOS>SUBSTRUCTURE
  1 ****   3 GROUP 4 **** **** 0

# MOE 2024.06 (io_trps.svl 2023.06)
