@<TRIPOS>MOLECULE
NONAME
61 64 1 0 0 
SMALL
USER_CHARGES


@<TRIPOS>ATOM
  1 O        0.1500    -0.4170     0.7040 O.3   1 <1>  -0.3630 
  2 C       -0.2590    -1.5920     0.1600 C.ar  1 <1>   0.0820 
  3 C        0.3070     0.6850    -0.1640 C.3   1 <1>   0.1200 
  4 C       -1.1920    -1.6820    -0.8810 C.ar  1 <1>   0.0820 
  5 C        0.3150    -2.7430     0.6680 C.ar  1 <1>  -0.1500 
  6 C       -1.0340     1.3980    -0.3540 C.3   1 <1>  -0.1600 
  7 O       -1.8630    -0.6160    -1.3970 O.3   1 <1>  -0.3630 
  8 C       -1.4920    -2.9170    -1.4250 C.ar  1 <1>  -0.1500 
  9 C       -0.0030    -3.9880     0.1320 C.ar  1 <1>   0.0820 
 10 C       -2.2110     0.4350    -0.5200 C.3   1 <1>   0.1200 
 11 C       -0.9070    -4.0700    -0.9230 C.ar  1 <1>  -0.1440 
 12 O        0.5300    -5.1520     0.6030 O.3   1 <1>  -0.3630 
 13 C       -1.2670    -5.4130    -1.5200 C.3   1 <1>   0.4860 
 14 C        1.6780    -5.1180     1.4330 C.3   1 <1>   0.0400 
 15 N       -1.8520    -6.2460    -0.4310 N.4   1 <1>  -0.9590 
 16 C       -1.9440    -7.7020    -0.7840 C.3   1 <1>   0.3430 
 17 C       -3.1290    -5.6570     0.0890 C.3   1 <1>   0.3430 
 18 C       -2.7470    -8.4370     0.3210 C.3   1 <1>   0.4230 
 19 C       -3.8620    -6.6370     1.0300 C.3   1 <1>  -0.1600 
 20 N       -2.4530    -9.9040     0.5780 N.4   1 <1>  -0.9590 
 21 C       -4.2850    -7.9900     0.2490 C.3   1 <1>   0.0000 
 22 C       -2.6490   -10.7830    -0.5890 C.3   1 <1>   0.3430 
 23 C       -1.1340   -10.1690     1.2390 C.3   1 <1>   0.2630 
 24 C       -4.7370    -9.2910    -0.5990 C.3   1 <1>  -0.1600 
 25 C       -5.8200    -7.5200     0.2760 C.3   1 <1>   0.1200 
 26 C       -3.7760   -10.1970    -1.4100 C.3   1 <1>  -0.1600 
 27 O       -6.3000    -7.7920     1.5520 O.3   1 <1>  -0.6800 
 28 H        1.0290     1.3510     0.2750 H     1 <1>   0.0800 
 29 H        0.6910     0.3270    -1.1040 H     1 <1>   0.0800 
 30 H        1.0100    -2.6300     1.4780 H     1 <1>   0.1500 
 31 H       -1.2200     2.0320     0.4940 H     1 <1>   0.0800 
 32 H       -0.9710     2.0350    -1.2180 H     1 <1>   0.0800 
 33 H       -2.1950    -2.9500    -2.2400 H     1 <1>   0.1500 
 34 H       -3.0580     0.9480    -0.9390 H     1 <1>   0.0800 
 35 H       -2.4980     0.0090     0.4270 H     1 <1>   0.0800 
 36 H       -0.3710    -5.8730    -1.9050 H     1 <1>   0.0800 
 37 H       -1.9710    -5.2900    -2.3280 H     1 <1>   0.0800 
 38 H        2.0240    -6.1250     1.5830 H     1 <1>   0.0800 
 39 H        1.4180    -4.6790     2.3810 H     1 <1>   0.0800 
 40 H        2.4480    -4.5410     0.9470 H     1 <1>   0.0800 
 41 H       -1.1450    -6.1120     0.3180 H     1 <1>   0.4500 
 42 H       -2.4500    -7.8150    -1.7280 H     1 <1>   0.0800 
 43 H       -0.9540    -8.1180    -0.8600 H     1 <1>   0.0800 
 44 H       -2.9150    -4.7380     0.6160 H     1 <1>   0.0800 
 45 H       -3.7790    -5.4140    -0.7370 H     1 <1>   0.0800 
 46 H       -2.3070    -8.0250     1.2070 H     1 <1>   0.0800 
 47 H       -3.2960    -6.7920     1.9350 H     1 <1>   0.0800 
 48 H       -4.6430    -6.0240     1.4550 H     1 <1>   0.0800 
 49 H       -3.1850   -10.1920     1.2510 H     1 <1>   0.4500 
 50 H       -1.7530   -10.8480    -1.1860 H     1 <1>   0.0800 
 51 H       -2.9110   -11.7760    -0.2560 H     1 <1>   0.0800 
 52 H       -0.3190    -9.9080     0.5840 H     1 <1>   0.0800 
 53 H       -1.0470   -11.2150     1.4890 H     1 <1>   0.0800 
 54 H       -1.0460    -9.5980     2.1500 H     1 <1>   0.0800 
 55 H       -5.3070    -9.9400     0.0520 H     1 <1>   0.0800 
 56 H       -5.3830    -9.0170    -1.4200 H     1 <1>   0.0800 
 57 H       -6.5490    -7.9780    -0.3710 H     1 <1>   0.0800 
 58 H       -5.9650    -6.4720     0.0630 H     1 <1>   0.0800 
 59 H       -3.3640    -9.6540    -2.2420 H     1 <1>   0.0800 
 60 H       -4.3340   -11.0130    -1.8400 H     1 <1>   0.0800 
 61 H       -7.2530    -7.5700     1.6360 H     1 <1>   0.4000 
@<TRIPOS>BOND
  1   1   2  1   
  2   1   3  1   
  3   2   4  ar  
  4   2   5  ar  
  5   3   6  1   
  6   3  28  1   
  7   3  29  1   
  8   4   7  1   
  9   4   8  ar  
 10   5   9  ar  
 11   5  30  1   
 12   6  10  1   
 13   6  31  1   
 14   6  32  1   
 15   7  10  1   
 16   8  11  ar  
 17   8  33  1   
 18   9  11  ar  
 19   9  12  1   
 20  10  34  1   
 21  10  35  1   
 22  11  13  1   
 23  12  14  1   
 24  13  15  1   
 25  13  36  1   
 26  13  37  1   
 27  14  38  1   
 28  14  39  1   
 29  14  40  1   
 30  15  16  1   
 31  15  17  1   
 32  15  41  1   
 33  16  18  1   
 34  16  42  1   
 35  16  43  1   
 36  17  19  1   
 37  17  44  1   
 38  17  45  1   
 39  18  20  1   
 40  18  21  1   
 41  18  46  1   
 42  19  21  1   
 43  19  47  1   
 44  19  48  1   
 45  20  22  1   
 46  20  23  1   
 47  20  49  1   
 48  21  24  1   
 49  21  25  1   
 50  22  26  1   
 51  22  50  1   
 52  22  51  1   
 53  23  52  1   
 54  23  53  1   
 55  23  54  1   
 56  24  26  1   
 57  24  55  1   
 58  24  56  1   
 59  25  27  1   
 60  25  57  1   
 61  25  58  1   
 62  26  59  1   
 63  26  60  1   
 64  27  61  1   
@<TRIPOS>SUBSTRUCTURE
  1 ****  15 GROUP 4 **** **** 0

# MOE 2024.06 (io_trps.svl 2023.06)
