@<TRIPOS>MOLECULE
NONAME
47 49 1 0 0 
SMALL
USER_CHARGES


@<TRIPOS>ATOM
  1 S        0.0970    -0.4250    -1.6910 S.3   1 <1>  -0.0800 
  2 C        0.2310    -2.0940    -1.1650 C.2   1 <1>  -0.1100 
  3 C       -1.3110    -0.1760    -0.6750 C.2   1 <1>  -0.1100 
  4 C       -0.7430    -2.4010    -0.2880 C.2   1 <1>  -0.1810 
  5 C       -1.6210    -1.3020    -0.0070 C.2   1 <1>  -0.1500 
  6 C       -0.9420    -3.7540     0.3730 C.3   1 <1>   0.0210 
  7 C       -2.2080    -4.4350    -0.1680 C.3   1 <1>  -0.0990 
  8 C       -2.4880    -5.7950     0.4550 C.2   1 <1>   0.5690 
  9 O       -1.7030    -6.2360     1.2610 O.2   1 <1>  -0.5700 
 10 N       -3.6060    -6.5040     0.0970 N.am  1 <1>  -0.6600 
 11 C       -3.9400    -7.7610     0.8510 C.3   1 <1>   0.1400 
 12 C       -4.5430    -6.1110    -1.0070 C.3   1 <1>   0.1400 
 13 C       -4.8790    -8.6550     0.0180 C.3   1 <1>   0.4230 
 14 C       -5.9930    -6.4600    -0.6490 C.3   1 <1>  -0.1600 
 15 N       -5.1000   -10.0480     0.5300 N.4   1 <1>  -0.9590 
 16 C       -6.2280    -7.9370    -0.1960 C.3   1 <1>  -0.1060 
 17 C       -5.8510   -10.8780    -0.4510 C.3   1 <1>   0.3430 
 18 C       -3.8990   -10.7380     1.0720 C.3   1 <1>   0.2630 
 19 C       -7.0470    -7.9290     1.1090 C.2   1 <1>   0.9060 
 20 C       -6.9910    -8.7310    -1.2830 C.3   1 <1>  -0.1600 
 21 C       -7.1660   -10.2020    -0.8610 C.3   1 <1>  -0.1600 
 22 O       -8.0930    -7.2850     1.1460 O.co2 1 <1>  -0.9000 
 23 O       -6.6730    -8.6190     2.0700 O.co2 1 <1>  -0.9000 
 24 H        1.0370    -2.6750    -1.5760 H     1 <1>   0.1500 
 25 H       -1.7620     0.8000    -0.6850 H     1 <1>   0.1500 
 26 H       -2.4400    -1.4070     0.6830 H     1 <1>   0.1500 
 27 H       -0.0880    -4.3790     0.1770 H     1 <1>   0.0800 
 28 H       -1.0190    -3.6240     1.4390 H     1 <1>   0.0800 
 29 H       -2.1070    -4.5550    -1.2300 H     1 <1>   0.0800 
 30 H       -3.0500    -3.7980     0.0270 H     1 <1>   0.0800 
 31 H       -3.0250    -8.2830     1.0610 H     1 <1>   0.0800 
 32 H       -4.4060    -7.4950     1.7850 H     1 <1>   0.0800 
 33 H       -4.4860    -5.0550    -1.2010 H     1 <1>   0.0800 
 34 H       -4.2580    -6.6270    -1.9080 H     1 <1>   0.0800 
 35 H       -4.4070    -8.7490    -0.9440 H     1 <1>   0.0800 
 36 H       -6.2820    -5.7920     0.1460 H     1 <1>   0.0800 
 37 H       -6.6350    -6.2190    -1.4780 H     1 <1>   0.0800 
 38 H       -5.7550    -9.8540     1.3370 H     1 <1>   0.4500 
 39 H       -5.2430   -11.0290    -1.3270 H     1 <1>   0.0800 
 40 H       -6.0700   -11.8410    -0.0200 H     1 <1>   0.0800 
 41 H       -3.1530   -10.8520     0.3030 H     1 <1>   0.0800 
 42 H       -4.1700   -11.7110     1.4470 H     1 <1>   0.0800 
 43 H       -3.4810   -10.1680     1.8850 H     1 <1>   0.0800 
 44 H       -7.9640    -8.2900    -1.4310 H     1 <1>   0.0800 
 45 H       -6.4600    -8.6820    -2.2180 H     1 <1>   0.0800 
 46 H       -7.6080   -10.7550    -1.6700 H     1 <1>   0.0800 
 47 H       -7.8530   -10.2580    -0.0330 H     1 <1>   0.0800 
@<TRIPOS>BOND
  1   1   2  1   
  2   1   3  1   
  3   2   4  2   
  4   2  24  1   
  5   3   5  2   
  6   3  25  1   
  7   4   5  1   
  8   4   6  1   
  9   5  26  1   
 10   6   7  1   
 11   6  27  1   
 12   6  28  1   
 13   7   8  1   
 14   7  29  1   
 15   7  30  1   
 16   8   9  2   
 17   8  10  am  
 18  10  11  1   
 19  10  12  1   
 20  11  13  1   
 21  11  31  1   
 22  11  32  1   
 23  12  14  1   
 24  12  33  1   
 25  12  34  1   
 26  13  15  1   
 27  13  16  1   
 28  13  35  1   
 29  14  16  1   
 30  14  36  1   
 31  14  37  1   
 32  15  17  1   
 33  15  18  1   
 34  15  38  1   
 35  16  19  1   
 36  16  20  1   
 37  17  21  1   
 38  17  39  1   
 39  17  40  1   
 40  18  41  1   
 41  18  42  1   
 42  18  43  1   
 43  19  22  ar  
 44  19  23  ar  
 45  20  21  1   
 46  20  44  1   
 47  20  45  1   
 48  21  46  1   
 49  21  47  1   
@<TRIPOS>SUBSTRUCTURE
  1 ****  10 GROUP 4 **** **** 0

# MOE 2024.06 (io_trps.svl 2023.06)
