@<TRIPOS>MOLECULE
NONAME
60 62 1 0 0 
SMALL
USER_CHARGES


@<TRIPOS>ATOM
  1 O        1.2080    -0.9210    -2.7060 O.2   1 <1>  -0.5700 
  2 C        1.2440    -1.6370    -1.7360 C.2   1 <1>   0.5690 
  3 N        2.0160    -1.3100    -0.6430 N.am  1 <1>  -0.6600 
  4 C        0.4050    -2.8980    -1.8320 C.3   1 <1>  -0.0990 
  5 C        2.2970    -2.2020     0.5270 C.3   1 <1>   0.1400 
  6 C        2.5910     0.0670    -0.5300 C.3   1 <1>   0.1400 
  7 C        0.1760    -3.6660    -0.5330 C.3   1 <1>   0.1200 
  8 C        2.5030    -3.7120     0.1980 C.3   1 <1>   0.2800 
  9 C        1.9740     0.8120     0.6560 C.3   1 <1>  -0.1600 
 10 O        1.3220    -4.3700    -0.1520 O.3   1 <1>  -0.5600 
 11 C        3.5030    -3.9630    -0.9430 C.3   1 <1>  -0.1600 
 12 C        2.9990    -4.4610     1.4420 C.3   1 <1>  -0.1600 
 13 C        2.4350     2.2670     0.6840 C.3   1 <1>   0.1200 
 14 C        4.9160    -3.5530    -0.5550 C.3   1 <1>   0.3430 
 15 C        4.4350    -4.0970     1.8160 C.3   1 <1>   0.3430 
 16 O        2.0120     2.8090     1.8880 O.3   1 <1>  -0.5600 
 17 N        5.3470    -4.3160     0.6560 N.4   1 <1>  -0.9590 
 18 C        2.2930     4.1650     2.0290 C.3   1 <1>   0.0400 
 19 C        6.7640    -4.0380     1.0570 C.3   1 <1>   0.3430 
 20 C        7.7810    -4.4770    -0.0080 C.3   1 <1>  -0.0800 
 21 C        9.0120    -5.0880     0.6810 C.3   1 <1>   0.1200 
 22 C        8.2370    -3.3090    -0.9070 C.3   1 <1>  -0.1600 
 23 O        9.9060    -5.5160    -0.2930 O.3   1 <1>  -0.5600 
 24 C        9.3560    -3.7840    -1.8450 C.3   1 <1>  -0.1600 
 25 C       10.4670    -4.5000    -1.0670 C.3   1 <1>   0.1200 
 26 H        0.8300    -3.5520    -2.5680 H     1 <1>   0.0800 
 27 H       -0.5580    -2.5970    -2.2020 H     1 <1>   0.0800 
 28 H        1.5130    -2.0900     1.2550 H     1 <1>   0.0800 
 29 H        3.1930    -1.8400     0.9940 H     1 <1>   0.0800 
 30 H        2.4000     0.6300    -1.4290 H     1 <1>   0.0800 
 31 H        3.6590     0.0030    -0.4130 H     1 <1>   0.0800 
 32 H       -0.5940    -4.4010    -0.6960 H     1 <1>   0.0800 
 33 H       -0.1520    -3.0240     0.2660 H     1 <1>   0.0800 
 34 H        2.2660     0.3460     1.5780 H     1 <1>   0.0800 
 35 H        0.9020     0.7960     0.5700 H     1 <1>   0.0800 
 36 H        3.2250    -3.4140    -1.8230 H     1 <1>   0.0800 
 37 H        3.4990    -5.0060    -1.2060 H     1 <1>   0.0800 
 38 H        2.9480    -5.5220     1.2680 H     1 <1>   0.0800 
 39 H        2.3530    -4.2410     2.2740 H     1 <1>   0.0800 
 40 H        1.9940     2.8230    -0.1270 H     1 <1>   0.0800 
 41 H        3.5090     2.3360     0.6400 H     1 <1>   0.0800 
 42 H        4.9500    -2.4930    -0.3610 H     1 <1>   0.0800 
 43 H        5.5750    -3.7700    -1.3800 H     1 <1>   0.0800 
 44 H        4.7470    -4.7070     2.6490 H     1 <1>   0.0800 
 45 H        4.4790    -3.0650     2.1240 H     1 <1>   0.0800 
 46 H        5.2880    -5.3160     0.4100 H     1 <1>   0.4500 
 47 H        1.9320     4.4820     2.9920 H     1 <1>   0.0800 
 48 H        1.7870     4.7150     1.2550 H     1 <1>   0.0800 
 49 H        3.3560     4.3170     1.9720 H     1 <1>   0.0800 
 50 H        6.9730    -4.5820     1.9650 H     1 <1>   0.0800 
 51 H        6.8940    -2.9890     1.2710 H     1 <1>   0.0800 
 52 H        7.3510    -5.2570    -0.6130 H     1 <1>   0.0800 
 53 H        8.7400    -5.9510     1.2630 H     1 <1>   0.0800 
 54 H        9.5140    -4.3780     1.3180 H     1 <1>   0.0800 
 55 H        8.6190    -2.5080    -0.2970 H     1 <1>   0.0800 
 56 H        7.4300    -2.9190    -1.5000 H     1 <1>   0.0800 
 57 H        9.7760    -2.9450    -2.3740 H     1 <1>   0.0800 
 58 H        8.9600    -4.4650    -2.5780 H     1 <1>   0.0800 
 59 H       11.1720    -4.9530    -1.7440 H     1 <1>   0.0800 
 60 H       10.9950    -3.8220    -0.4170 H     1 <1>   0.0800 
@<TRIPOS>BOND
  1   1   2  2   
  2   2   3  am  
  3   2   4  1   
  4   3   5  1   
  5   3   6  1   
  6   4   7  1   
  7   4  26  1   
  8   4  27  1   
  9   5   8  1   
 10   5  28  1   
 11   5  29  1   
 12   6   9  1   
 13   6  30  1   
 14   6  31  1   
 15   7  10  1   
 16   7  32  1   
 17   7  33  1   
 18   8  10  1   
 19   8  11  1   
 20   8  12  1   
 21   9  13  1   
 22   9  34  1   
 23   9  35  1   
 24  11  14  1   
 25  11  36  1   
 26  11  37  1   
 27  12  15  1   
 28  12  38  1   
 29  12  39  1   
 30  13  16  1   
 31  13  40  1   
 32  13  41  1   
 33  14  17  1   
 34  14  42  1   
 35  14  43  1   
 36  15  17  1   
 37  15  44  1   
 38  15  45  1   
 39  16  18  1   
 40  17  19  1   
 41  17  46  1   
 42  18  47  1   
 43  18  48  1   
 44  18  49  1   
 45  19  20  1   
 46  19  50  1   
 47  19  51  1   
 48  20  21  1   
 49  20  22  1   
 50  20  52  1   
 51  21  23  1   
 52  21  53  1   
 53  21  54  1   
 54  22  24  1   
 55  22  55  1   
 56  22  56  1   
 57  23  25  1   
 58  24  25  1   
 59  24  57  1   
 60  24  58  1   
 61  25  59  1   
 62  25  60  1   
@<TRIPOS>SUBSTRUCTURE
  1 ****  14 GROUP 4 **** **** 0

# MOE 2024.06 (io_trps.svl 2023.06)
