@<TRIPOS>MOLECULE
NONAME
39 41 1 0 0 
SMALL
USER_CHARGES


@<TRIPOS>ATOM
  1 O       -0.5670     0.1010    -0.5160 O.2   1 <1>  -0.5700 
  2 C       -1.6410     0.6570    -0.5290 C.2   1 <1>   0.5770 
  3 N       -2.8060    -0.0610    -0.5600 N.am  1 <1>  -0.6600 
  4 C       -1.6940     2.1840    -0.5220 C.3   1 <1>   0.0530 
  5 C       -4.1830     0.4920    -0.5880 C.3   1 <1>   0.1400 
  6 C       -2.8360    -1.5430    -0.5670 C.3   1 <1>   0.1400 
  7 C       -0.3420     2.9380    -0.3630 C.3   1 <1>   0.0000 
  8 C       -2.1020     2.8070     0.8400 C.3   1 <1>   0.0000 
  9 C       -5.1000    -0.7300    -0.6640 C.3   1 <1>   0.2000 
 10 C       -4.2660    -1.9100    -0.1680 C.3   1 <1>  -0.0800 
 11 C       -1.1050     3.9520     0.5270 C.3   1 <1>   0.0000 
 12 O       -6.2220    -0.5720     0.1360 O.3   1 <1>  -0.6800 
 13 C       -4.7530    -3.2560    -0.7310 C.3   1 <1>  -0.0160 
 14 C       -3.9240    -4.4170    -0.2080 C.ar  1 <1>   0.1670 
 15 N       -2.7990    -4.6750    -0.8560 N.ar  1 <1>  -0.6200 
 16 C       -4.3660    -5.1340     0.8950 C.ar  1 <1>  -0.1500 
 17 C       -2.0830    -5.6830    -0.3860 C.ar  1 <1>   0.1600 
 18 C       -3.6100    -6.1830     1.3730 C.ar  1 <1>  -0.1500 
 19 C       -2.4360    -6.4570     0.7060 C.ar  1 <1>  -0.1500 
 20 H       -2.2740     2.5870    -1.3360 H     1 <1>   0.0000 
 21 H       -4.3630     1.0500     0.3140 H     1 <1>   0.0800 
 22 H       -4.3170     1.1200    -1.4510 H     1 <1>   0.0800 
 23 H       -2.6100    -1.8950    -1.5600 H     1 <1>   0.0800 
 24 H       -2.1140    -1.9510     0.1220 H     1 <1>   0.0800 
 25 H        0.4010     2.3950     0.1960 H     1 <1>   0.0000 
 26 H        0.0320     3.3610    -1.2780 H     1 <1>   0.0000 
 27 H       -3.1280     3.1260     0.8860 H     1 <1>   0.0000 
 28 H       -1.7970     2.2110     1.6850 H     1 <1>   0.0000 
 29 H       -5.4250    -0.8780    -1.6800 H     1 <1>   0.0800 
 30 H       -4.2940    -1.9440     0.9070 H     1 <1>   0.0800 
 31 H       -1.5530     4.7500    -0.0400 H     1 <1>   0.0000 
 32 H       -0.5470     4.2900     1.3820 H     1 <1>   0.0000 
 33 H       -5.9600    -0.4850     1.0730 H     1 <1>   0.4000 
 34 H       -4.7010    -3.2470    -1.8060 H     1 <1>   0.0800 
 35 H       -5.7830    -3.4020    -0.4600 H     1 <1>   0.0800 
 36 H       -5.2900    -4.8750     1.3770 H     1 <1>   0.1500 
 37 H       -1.1630    -5.9050    -0.9000 H     1 <1>   0.1500 
 38 H       -3.9220    -6.7610     2.2260 H     1 <1>   0.1500 
 39 H       -1.7990    -7.2600     1.0270 H     1 <1>   0.1500 
@<TRIPOS>BOND
  1   1   2  2   
  2   2   3  am  
  3   2   4  1   
  4   3   5  1   
  5   3   6  1   
  6   4   7  1   
  7   4   8  1   
  8   4  20  1   
  9   5   9  1   
 10   5  21  1   
 11   5  22  1   
 12   6  10  1   
 13   6  23  1   
 14   6  24  1   
 15   7  11  1   
 16   7  25  1   
 17   7  26  1   
 18   8  11  1   
 19   8  27  1   
 20   8  28  1   
 21   9  10  1   
 22   9  12  1   
 23   9  29  1   
 24  10  13  1   
 25  10  30  1   
 26  11  31  1   
 27  11  32  1   
 28  12  33  1   
 29  13  14  1   
 30  13  34  1   
 31  13  35  1   
 32  14  15  ar  
 33  14  16  ar  
 34  15  17  ar  
 35  16  18  ar  
 36  16  36  1   
 37  17  19  ar  
 38  17  37  1   
 39  18  19  ar  
 40  18  38  1   
 41  19  39  1   
@<TRIPOS>SUBSTRUCTURE
  1 ****   6 GROUP 4 **** **** 0

# MOE 2024.06 (io_trps.svl 2023.06)
