@<TRIPOS>MOLECULE
NONAME
40 42 1 0 0 
SMALL
USER_CHARGES


@<TRIPOS>ATOM
  1 O        0.0050    -1.2740    -0.0530 O.co2 1 <1>  -0.9000 
  2 C       -0.5130    -2.3000    -0.5470 C.2   1 <1>   0.9790 
  3 O        0.1750    -2.9450    -1.3650 O.co2 1 <1>  -0.9000 
  4 C       -1.8640    -2.7050    -0.1460 C.ar  1 <1>   0.1310 
  5 N       -2.5110    -3.7030    -0.7880 N.ar  1 <1>  -0.3100 
  6 C       -2.4860    -2.0500     0.9120 C.ar  1 <1>  -0.1500 
  7 N       -3.7160    -4.0720    -0.4330 N.ar  1 <1>  -0.3100 
  8 C       -3.7460    -2.4370     1.2880 C.ar  1 <1>  -0.1500 
  9 C       -4.3360    -3.4670     0.5870 C.ar  1 <1>   0.4100 
 10 N       -5.6070    -3.8950     0.9250 N.pl3 1 <1>  -0.8380 
 11 C       -6.7090    -3.4390     0.0290 C.3   1 <1>   0.2090 
 12 C       -5.7730    -5.3550     1.1220 C.3   1 <1>   0.2090 
 13 C       -7.4940    -4.6930    -0.3950 C.3   1 <1>   0.2000 
 14 C       -6.5180    -5.8330    -0.1220 C.3   1 <1>  -0.0800 
 15 O       -8.6230    -4.8670     0.4170 O.3   1 <1>  -0.5600 
 16 C       -7.1400    -7.2300     0.0360 C.3   1 <1>   0.0200 
 17 C       -9.7520    -4.1530     0.0220 C.3   1 <1>   0.0400 
 18 C       -6.0800    -8.3180     0.1100 C.2   1 <1>  -0.0400 
 19 O       -6.4340    -9.5380     0.4160 O.3   1 <1>  -0.0190 
 20 C       -4.7510    -8.3160    -0.0880 C.2   1 <1>  -0.1500 
 21 N       -5.4160   -10.3500     0.4380 N.2   1 <1>  -0.4100 
 22 C       -4.3880    -9.6400     0.1380 C.2   1 <1>   0.1080 
 23 C       -2.9780   -10.1780     0.0430 C.3   1 <1>  -0.0590 
 24 H       -1.9730    -1.2520     1.4210 H     1 <1>   0.1500 
 25 H       -4.2700    -1.9710     2.0980 H     1 <1>   0.1500 
 26 H       -7.3380    -2.7350     0.5430 H     1 <1>   0.0800 
 27 H       -6.2870    -2.9670    -0.8430 H     1 <1>   0.0800 
 28 H       -4.8230    -5.8490     1.2380 H     1 <1>   0.0800 
 29 H       -6.3670    -5.5220     2.0050 H     1 <1>   0.0800 
 30 H       -7.7960    -4.6630    -1.4270 H     1 <1>   0.0800 
 31 H       -5.8170    -5.8580    -0.9380 H     1 <1>   0.0800 
 32 H       -7.7830    -7.4360    -0.8010 H     1 <1>   0.0800 
 33 H       -7.7410    -7.2640     0.9280 H     1 <1>   0.0800 
 34 H      -10.5410    -4.3660     0.7220 H     1 <1>   0.0800 
 35 H      -10.0480    -4.4720    -0.9620 H     1 <1>   0.0800 
 36 H       -9.5370    -3.0990     0.0320 H     1 <1>   0.0800 
 37 H       -4.0870    -7.5140    -0.3590 H     1 <1>   0.1500 
 38 H       -2.2700    -9.4040     0.2780 H     1 <1>   0.0800 
 39 H       -2.7960   -10.5350    -0.9530 H     1 <1>   0.0800 
 40 H       -2.8520   -10.9900     0.7360 H     1 <1>   0.0800 
@<TRIPOS>BOND
  1   1   2  ar  
  2   2   3  ar  
  3   2   4  1   
  4   4   5  ar  
  5   4   6  ar  
  6   5   7  ar  
  7   6   8  ar  
  8   6  24  1   
  9   7   9  ar  
 10   8   9  ar  
 11   8  25  1   
 12   9  10  1   
 13  10  11  1   
 14  10  12  1   
 15  11  13  1   
 16  11  26  1   
 17  11  27  1   
 18  12  14  1   
 19  12  28  1   
 20  12  29  1   
 21  13  14  1   
 22  13  15  1   
 23  13  30  1   
 24  14  16  1   
 25  14  31  1   
 26  15  17  1   
 27  16  18  1   
 28  16  32  1   
 29  16  33  1   
 30  17  34  1   
 31  17  35  1   
 32  17  36  1   
 33  18  19  1   
 34  18  20  2   
 35  19  21  1   
 36  20  22  1   
 37  20  37  1   
 38  21  22  2   
 39  22  23  1   
 40  23  38  1   
 41  23  39  1   
 42  23  40  1   
@<TRIPOS>SUBSTRUCTURE
  1 ****  12 GROUP 4 **** **** 0

# MOE 2024.06 (io_trps.svl 2023.06)
