@<TRIPOS>MOLECULE
NONAME
49 51 1 0 0 
SMALL
USER_CHARGES


@<TRIPOS>ATOM
  1 O       -1.1870     2.0080     0.0500 O.3   1 <1>  -0.3630 
  2 C       -1.4870     0.8300     0.6420 C.ar  1 <1>   0.0830 
  3 C       -1.5940     2.1780    -1.2970 C.3   1 <1>   0.1200 
  4 C       -0.5370    -0.2220     0.6400 C.ar  1 <1>   0.3100 
  5 C       -2.7100     0.6910     1.2480 C.ar  1 <1>  -0.1500 
  6 C       -0.3680     2.2260    -2.2230 C.3   1 <1>   0.2090 
  7 N        0.6850    -0.0380     0.0530 N.ar  1 <1>  -0.6200 
  8 C       -0.9010    -1.4400     1.2580 C.ar  1 <1>   0.0000 
  9 C       -3.0520    -0.5130     1.8650 C.ar  1 <1>  -0.1500 
 10 N        0.5440     3.3650    -1.9050 N.pl3 1 <1>  -0.8690 
 11 C        1.5070    -1.0440     0.0410 C.ar  1 <1>   0.1670 
 12 C        0.0250    -2.4940     1.2340 C.ar  1 <1>  -0.1500 
 13 C       -2.1660    -1.5560     1.8670 C.ar  1 <1>  -0.1500 
 14 C        1.4070     3.5500    -0.8990 C.ar  1 <1>   0.7710 
 15 C        1.2230    -2.2890     0.6210 C.ar  1 <1>  -0.1500 
 16 C        2.8490    -0.8520    -0.6360 C.3   1 <1>  -0.0970 
 17 N        2.1100     4.6610    -0.9370 N.ar  1 <1>  -0.6200 
 18 N        1.5330     2.6450     0.0780 N.ar  1 <1>  -0.1790 
 19 C        2.9810     4.8720     0.0350 C.ar  1 <1>   0.4100 
 20 C        2.3770     2.8380     1.1120 C.ar  1 <1>   0.2110 
 21 N        3.7250     6.0040    -0.0640 N.pl3 1 <1>  -0.8380 
 22 C        3.1270     3.9690     1.1220 C.ar  1 <1>  -0.1430 
 23 C        5.2140     5.9870    -0.0950 C.3   1 <1>   0.1290 
 24 C        3.1250     7.2850    -0.5340 C.3   1 <1>   0.1290 
 25 C        4.0590     4.2600     2.2970 C.3   1 <1>  -0.0970 
 26 H       -2.1470     3.0990    -1.3620 H     1 <1>   0.0800 
 27 H       -2.2430     1.3650    -1.5770 H     1 <1>   0.0800 
 28 H       -3.4130     1.5060     1.2540 H     1 <1>   0.1500 
 29 H       -0.7100     2.3340    -3.2380 H     1 <1>   0.0800 
 30 H        0.1670     1.2930    -2.1690 H     1 <1>   0.0800 
 31 H       -4.0170    -0.6080     2.3360 H     1 <1>   0.1500 
 32 H        0.5270     4.1380    -2.5790 H     1 <1>   0.4000 
 33 H       -0.2240    -3.4360     1.6910 H     1 <1>   0.1500 
 34 H       -2.4280    -2.4870     2.3390 H     1 <1>   0.1500 
 35 H        1.9570    -3.0740     0.5770 H     1 <1>   0.1500 
 36 H        2.7640    -0.1500    -1.4450 H     1 <1>   0.0800 
 37 H        3.2040    -1.7840    -1.0380 H     1 <1>   0.0800 
 38 H        3.5670    -0.4850     0.0740 H     1 <1>   0.0800 
 39 H        0.9180     1.8210     0.0230 H     1 <1>   0.4570 
 40 H        2.4120     2.0930     1.8900 H     1 <1>   0.1500 
 41 H        5.5790     4.9760    -0.0840 H     1 <1>   0.0800 
 42 H        5.6030     6.5170     0.7570 H     1 <1>   0.0800 
 43 H        5.5670     6.4620    -0.9950 H     1 <1>   0.0800 
 44 H        2.0560     7.2650    -0.4110 H     1 <1>   0.0800 
 45 H        3.3510     7.4330    -1.5760 H     1 <1>   0.0800 
 46 H        3.5210     8.1070     0.0360 H     1 <1>   0.0800 
 47 H        3.9530     5.2860     2.6050 H     1 <1>   0.0800 
 48 H        5.0820     4.0870     2.0180 H     1 <1>   0.0800 
 49 H        3.8290     3.6350     3.1410 H     1 <1>   0.0800 
@<TRIPOS>BOND
  1   1   2  1   
  2   1   3  1   
  3   2   4  ar  
  4   2   5  ar  
  5   3   6  1   
  6   3  26  1   
  7   3  27  1   
  8   4   7  ar  
  9   4   8  ar  
 10   5   9  ar  
 11   5  28  1   
 12   6  10  1   
 13   6  29  1   
 14   6  30  1   
 15   7  11  ar  
 16   8  12  ar  
 17   8  13  ar  
 18   9  13  ar  
 19   9  31  1   
 20  10  14  1   
 21  10  32  1   
 22  11  15  ar  
 23  11  16  1   
 24  12  15  ar  
 25  12  33  1   
 26  13  34  1   
 27  14  17  ar  
 28  14  18  ar  
 29  15  35  1   
 30  16  36  1   
 31  16  37  1   
 32  16  38  1   
 33  17  19  ar  
 34  18  20  ar  
 35  18  39  1   
 36  19  21  1   
 37  19  22  ar  
 38  20  22  ar  
 39  20  40  1   
 40  21  23  1   
 41  21  24  1   
 42  22  25  1   
 43  23  41  1   
 44  23  42  1   
 45  23  43  1   
 46  24  44  1   
 47  24  45  1   
 48  24  46  1   
 49  25  47  1   
 50  25  48  1   
 51  25  49  1   
@<TRIPOS>SUBSTRUCTURE
  1 ****  18 GROUP 4 **** **** 0

# MOE 2024.06 (io_trps.svl 2023.06)
