@<TRIPOS>MOLECULE
NONAME
34 36 1 0 0 
SMALL
USER_CHARGES


@<TRIPOS>ATOM
  1 S       -0.2640     0.0160    -0.5320 S.3   1 <1>  -0.0800 
  2 C       -1.2970    -0.8750     0.5260 C.2   1 <1>   0.4420 
  3 C       -0.3340     1.3450     0.5910 C.2   1 <1>   0.3250 
  4 N       -1.6140    -0.2000     1.5690 N.2   1 <1>  -0.3380 
  5 N       -1.6350    -2.1490     0.1310 N.am  1 <1>  -0.4940 
  6 N       -1.0710     1.0470     1.6020 N.2   1 <1>  -0.3380 
  7 C        0.3820     2.5710     0.3180 C.ar  1 <1>   0.0530 
  8 C       -2.4340    -3.0660     0.7430 C.2   1 <1>   0.6300 
  9 C        0.3230     3.6300     1.2270 C.ar  1 <1>  -0.1500 
 10 C        1.1520     2.7740    -0.8320 C.ar  1 <1>  -0.1500 
 11 O       -2.9990    -2.8820     1.7890 O.2   1 <1>  -0.5700 
 12 C       -2.5910    -4.4140     0.0360 C.3   1 <1>  -0.0950 
 13 C        0.9910     4.8190     1.0080 C.ar  1 <1>  -0.1500 
 14 C        1.8220     3.9620    -1.0560 C.ar  1 <1>  -0.1500 
 15 C       -2.9470    -4.4490    -1.4230 C.3   1 <1>  -0.2000 
 16 C       -3.9640    -4.8390    -0.3900 C.3   1 <1>  -0.2000 
 17 C       -1.6460    -5.4860     0.5940 C.3   1 <1>  -0.1450 
 18 C        1.7480     4.9940    -0.1370 C.ar  1 <1>  -0.1430 
 19 C        2.4830     6.3000    -0.3830 C.3   1 <1>  -0.0970 
 20 H       -1.2400    -2.4570    -0.7510 H     1 <1>   0.3700 
 21 H       -0.2600     3.5170     2.1260 H     1 <1>   0.1500 
 22 H        1.2380     2.0010    -1.5730 H     1 <1>   0.1500 
 23 H        0.9190     5.6110     1.7330 H     1 <1>   0.1500 
 24 H        2.4050     4.0840    -1.9530 H     1 <1>   0.1500 
 25 H       -2.5410    -5.2240    -2.0500 H     1 <1>   0.1000 
 26 H       -3.1270    -3.5360    -1.9660 H     1 <1>   0.1000 
 27 H       -4.7860    -4.1750    -0.1810 H     1 <1>   0.1000 
 28 H       -4.2430    -5.8740    -0.2960 H     1 <1>   0.1000 
 29 H       -0.6220    -5.1840     0.4660 H     1 <1>   0.0800 
 30 H       -1.7930    -6.4270     0.0940 H     1 <1>   0.0800 
 31 H       -1.8360    -5.6240     1.6440 H     1 <1>   0.0800 
 32 H        2.7640     6.7540     0.5500 H     1 <1>   0.0800 
 33 H        1.8470     6.9790    -0.9220 H     1 <1>   0.0800 
 34 H        3.3750     6.1280    -0.9580 H     1 <1>   0.0800 
@<TRIPOS>BOND
  1   1   2  1   
  2   1   3  1   
  3   2   4  2   
  4   2   5  1   
  5   3   6  2   
  6   3   7  1   
  7   4   6  1   
  8   5   8  am  
  9   5  20  1   
 10   7   9  ar  
 11   7  10  ar  
 12   8  11  2   
 13   8  12  1   
 14   9  13  ar  
 15   9  21  1   
 16  10  14  ar  
 17  10  22  1   
 18  12  15  1   
 19  12  16  1   
 20  12  17  1   
 21  13  18  ar  
 22  13  23  1   
 23  14  18  ar  
 24  14  24  1   
 25  15  16  1   
 26  15  25  1   
 27  15  26  1   
 28  16  27  1   
 29  16  28  1   
 30  17  29  1   
 31  17  30  1   
 32  17  31  1   
 33  18  19  1   
 34  19  32  1   
 35  19  33  1   
 36  19  34  1   
@<TRIPOS>SUBSTRUCTURE
  1 ****   1 GROUP 4 **** **** 0

# MOE 2024.06 (io_trps.svl 2023.06)
