@<TRIPOS>MOLECULE
NONAME
45 47 1 0 0 
SMALL
USER_CHARGES


@<TRIPOS>ATOM
  1 O        1.0490     0.2730     0.6220 O.2   1 <1>  -0.5700 
  2 C        1.7080    -0.3760    -0.1680 C.2   1 <1>   0.5440 
  3 N        2.5800     0.2780    -1.0180 N.am  1 <1>  -0.6600 
  4 C        1.5800    -1.8140    -0.1660 C.ar  1 <1>   0.0860 
  5 C        3.7900    -0.3900    -1.5900 C.3   1 <1>   0.1400 
  6 C        2.5380     1.7620    -1.1720 C.3   1 <1>   0.1400 
  7 C        1.2820    -2.5100    -1.3340 C.ar  1 <1>   0.1600 
  8 C        1.7440    -2.5650     0.9900 C.ar  1 <1>  -0.1500 
  9 C        4.8840    -0.5670    -0.5260 C.3   1 <1>   0.1400 
 10 C        3.7760     2.4710    -0.5990 C.3   1 <1>  -0.1600 
 11 N        1.1780    -3.8220    -1.4500 N.ar  1 <1>  -0.6200 
 12 C        1.6270    -3.9330     0.8980 C.ar  1 <1>  -0.1500 
 13 N        5.4740     0.7390    -0.0910 N.am  1 <1>  -0.6600 
 14 C        4.5130     1.7100     0.5100 C.3   1 <1>   0.1400 
 15 C        1.3490    -4.5200    -0.3360 C.ar  1 <1>   0.3930 
 16 C        6.8420     0.9720    -0.1670 C.2   1 <1>   0.7160 
 17 O        1.2310    -5.8510    -0.4940 O.3   1 <1>  -0.3630 
 18 O        7.5680     0.0090    -0.3550 O.2   1 <1>  -0.5700 
 19 C        7.4640     2.2870    -0.0340 C.2   1 <1>   0.2030 
 20 C        1.3230    -6.7700     0.5710 C.3   1 <1>   0.0400 
 21 N        6.9220     3.4630    -0.1770 N.2   1 <1>  -0.4100 
 22 C        8.8080     2.4760     0.2580 C.2   1 <1>  -0.1500 
 23 O        7.8120     4.4080     0.0090 O.3   1 <1>  -0.0190 
 24 C        8.9490     3.8030     0.2690 C.2   1 <1>  -0.0400 
 25 C       10.1790     4.6480     0.5260 C.3   1 <1>  -0.0600 
 26 H        4.1800     0.1890    -2.4090 H     1 <1>   0.0800 
 27 H        3.5270    -1.3560    -1.9800 H     1 <1>   0.0800 
 28 H        1.6630     2.1510    -0.6790 H     1 <1>   0.0800 
 29 H        2.4390     2.0040    -2.2160 H     1 <1>   0.0800 
 30 H        1.1250    -1.9340    -2.2300 H     1 <1>   0.1500 
 31 H        1.9530    -2.0750     1.9270 H     1 <1>   0.1500 
 32 H        5.6480    -1.1980    -0.9450 H     1 <1>   0.0800 
 33 H        4.4830    -1.0790     0.3310 H     1 <1>   0.0800 
 34 H        3.4500     3.4150    -0.2010 H     1 <1>   0.0800 
 35 H        4.4630     2.7000    -1.3940 H     1 <1>   0.0800 
 36 H        1.7510    -4.5300     1.7810 H     1 <1>   0.1500 
 37 H        3.8100     1.1940     1.1430 H     1 <1>   0.0800 
 38 H        5.0410     2.4070     1.1360 H     1 <1>   0.0800 
 39 H        1.1700    -7.7570     0.1720 H     1 <1>   0.0800 
 40 H        0.5580    -6.5470     1.2940 H     1 <1>   0.0800 
 41 H        2.3030    -6.7020     1.0100 H     1 <1>   0.0800 
 42 H        9.5280     1.6950     0.4250 H     1 <1>   0.1500 
 43 H       11.0290     4.0200     0.7220 H     1 <1>   0.0800 
 44 H       10.0130     5.2860     1.3750 H     1 <1>   0.0800 
 45 H       10.3870     5.2590    -0.3340 H     1 <1>   0.0800 
@<TRIPOS>BOND
  1   1   2  2   
  2   2   3  am  
  3   2   4  1   
  4   3   5  1   
  5   3   6  1   
  6   4   7  ar  
  7   4   8  ar  
  8   5   9  1   
  9   5  26  1   
 10   5  27  1   
 11   6  10  1   
 12   6  28  1   
 13   6  29  1   
 14   7  11  ar  
 15   7  30  1   
 16   8  12  ar  
 17   8  31  1   
 18   9  13  1   
 19   9  32  1   
 20   9  33  1   
 21  10  14  1   
 22  10  34  1   
 23  10  35  1   
 24  11  15  ar  
 25  12  15  ar  
 26  12  36  1   
 27  13  14  1   
 28  13  16  am  
 29  14  37  1   
 30  14  38  1   
 31  15  17  1   
 32  16  18  2   
 33  16  19  1   
 34  17  20  1   
 35  19  21  2   
 36  19  22  1   
 37  20  39  1   
 38  20  40  1   
 39  20  41  1   
 40  21  23  1   
 41  22  24  2   
 42  22  42  1   
 43  23  24  1   
 44  24  25  1   
 45  25  43  1   
 46  25  44  1   
 47  25  45  1   
@<TRIPOS>SUBSTRUCTURE
  1 ****   9 GROUP 4 **** **** 0

# MOE 2024.06 (io_trps.svl 2023.06)
