@<TRIPOS>MOLECULE
NONAME
52 54 1 0 0 
SMALL
USER_CHARGES


@<TRIPOS>ATOM
  1 CL       0.5740     2.0470    -1.7060 Cl    1 <1>  -0.1770 
  2 C        0.6260     3.2610    -0.4470 C.ar  1 <1>   0.1770 
  3 C        1.7240     3.3890     0.3990 C.ar  1 <1>  -0.1440 
  4 C       -0.4780     4.0850    -0.3260 C.ar  1 <1>  -0.1500 
  5 C        1.6800     4.3710     1.3820 C.ar  1 <1>  -0.1500 
  6 C        2.9660     2.5050     0.3000 C.3   1 <1>   0.3640 
  7 C       -0.5040     5.0580     0.6570 C.ar  1 <1>  -0.1500 
  8 C        0.5760     5.1970     1.5110 C.ar  1 <1>  -0.1500 
  9 N        2.5840     1.1010     0.5700 N.am  1 <1>  -0.7300 
 10 C        3.7480     2.6600    -1.0330 C.3   1 <1>   0.2610 
 11 C        3.0620     0.0520    -0.1350 C.2   1 <1>   0.5690 
 12 O        4.6490     1.5750    -1.2160 O.3   1 <1>  -0.5600 
 13 C        4.4990     3.9930    -1.0320 C.2   1 <1>   0.5690 
 14 O        2.7400    -1.0750     0.1430 O.2   1 <1>  -0.5700 
 15 C        4.0130     0.3160    -1.3070 C.3   1 <1>   0.1810 
 16 O        3.8790     5.0220    -1.1670 O.2   1 <1>  -0.5700 
 17 N        5.8500     3.9910    -0.8680 N.am  1 <1>  -0.7300 
 18 C        6.7530     5.1670    -0.9670 C.3   1 <1>   0.1400 
 19 C        6.7750     5.9650     0.3500 C.3   1 <1>   0.1100 
 20 N        6.4810     7.4040     0.1560 N.3   1 <1>  -0.8100 
 21 C        5.0650     7.6200    -0.2570 C.3   1 <1>   0.1100 
 22 C        6.7760     8.1740     1.3870 C.3   1 <1>   0.1100 
 23 C        4.6390     9.1050    -0.2480 C.3   1 <1>   0.3430 
 24 C        6.5430     9.6950     1.1990 C.3   1 <1>   0.3430 
 25 N        5.8350     9.9940    -0.0910 N.4   1 <1>  -0.9590 
 26 C        5.5330    11.4400    -0.2860 C.3   1 <1>   0.2630 
 27 H       -1.3100     3.9620    -0.9960 H     1 <1>   0.1500 
 28 H        2.5050     4.5020     2.0600 H     1 <1>   0.1500 
 29 H        3.6410     2.7960     1.0860 H     1 <1>   0.0800 
 30 H       -1.3610     5.7020     0.7570 H     1 <1>   0.1500 
 31 H        0.5540     5.9510     2.2790 H     1 <1>   0.1500 
 32 H        1.9120     0.9210     1.3180 H     1 <1>   0.3700 
 33 H        3.0770     2.6700    -1.8700 H     1 <1>   0.0800 
 34 H        3.4640     0.2750    -2.2300 H     1 <1>   0.0800 
 35 H        4.7770    -0.4400    -1.3220 H     1 <1>   0.0800 
 36 H        6.3020     3.0680    -0.8580 H     1 <1>   0.3700 
 37 H        7.7480     4.8210    -1.1890 H     1 <1>   0.0800 
 38 H        6.4340     5.7890    -1.7850 H     1 <1>   0.0800 
 39 H        7.7590     5.8650     0.7750 H     1 <1>   0.0800 
 40 H        6.0710     5.5420     1.0470 H     1 <1>   0.0800 
 41 H        4.9290     7.2500    -1.2580 H     1 <1>   0.0800 
 42 H        4.3990     7.0630     0.3810 H     1 <1>   0.0800 
 43 H        6.1540     7.8200     2.1920 H     1 <1>   0.0800 
 44 H        7.8010     8.0150     1.6770 H     1 <1>   0.0800 
 45 H        3.9510     9.2700     0.5640 H     1 <1>   0.0800 
 46 H        4.1230     9.3260    -1.1680 H     1 <1>   0.0800 
 47 H        7.4970    10.1940     1.2090 H     1 <1>   0.0800 
 48 H        5.9710    10.0680     2.0320 H     1 <1>   0.0800 
 49 H        6.4880     9.6500    -0.8160 H     1 <1>   0.4500 
 50 H        4.8500    11.7850     0.4730 H     1 <1>   0.0800 
 51 H        5.0860    11.6000    -1.2530 H     1 <1>   0.0800 
 52 H        6.4390    12.0210    -0.2270 H     1 <1>   0.0800 
@<TRIPOS>BOND
  1   1   2  1   
  2   2   3  ar  
  3   2   4  ar  
  4   3   5  ar  
  5   3   6  1   
  6   4   7  ar  
  7   4  27  1   
  8   5   8  ar  
  9   5  28  1   
 10   6   9  1   
 11   6  10  1   
 12   6  29  1   
 13   7   8  ar  
 14   7  30  1   
 15   8  31  1   
 16   9  11  am  
 17   9  32  1   
 18  10  12  1   
 19  10  13  1   
 20  10  33  1   
 21  11  14  2   
 22  11  15  1   
 23  12  15  1   
 24  13  16  2   
 25  13  17  am  
 26  15  34  1   
 27  15  35  1   
 28  17  18  1   
 29  17  36  1   
 30  18  19  1   
 31  18  37  1   
 32  18  38  1   
 33  19  20  1   
 34  19  39  1   
 35  19  40  1   
 36  20  21  1   
 37  20  22  1   
 38  21  23  1   
 39  21  41  1   
 40  21  42  1   
 41  22  24  1   
 42  22  43  1   
 43  22  44  1   
 44  23  25  1   
 45  23  45  1   
 46  23  46  1   
 47  24  25  1   
 48  24  47  1   
 49  24  48  1   
 50  25  26  1   
 51  25  49  1   
 52  26  50  1   
 53  26  51  1   
 54  26  52  1   
@<TRIPOS>SUBSTRUCTURE
  1 ****  16 GROUP 4 **** **** 0

# MOE 2024.06 (io_trps.svl 2023.06)
