@<TRIPOS>MOLECULE
NONAME
48 51 1 0 0 
SMALL
USER_CHARGES


@<TRIPOS>ATOM
  1 F        0.8170    -1.0850    -1.2660 F     1 <1>  -0.1900 
  2 C        0.6710    -2.1510    -0.5280 C.ar  1 <1>   0.1900 
  3 C        0.1870    -3.3030    -1.1120 C.ar  1 <1>  -0.1500 
  4 C        1.0080    -2.0810     0.8090 C.ar  1 <1>  -0.1500 
  5 C        0.0220    -4.4580    -0.3450 C.ar  1 <1>   0.0530 
  6 C        0.8490    -3.2170     1.5830 C.ar  1 <1>  -0.1500 
  7 C       -0.4840    -5.6800    -0.9360 C.2   1 <1>   0.4250 
  8 C        0.3640    -4.3820     1.0110 C.ar  1 <1>  -0.1500 
  9 O       -0.5520    -6.7760    -0.2170 O.3   1 <1>  -0.2800 
 10 N       -0.8970    -5.8390    -2.1480 N.2   1 <1>  -0.3380 
 11 C       -1.0520    -7.5980    -1.0930 C.2   1 <1>   0.2980 
 12 N       -1.2670    -7.0950    -2.2450 N.2   1 <1>  -0.3380 
 13 C       -1.3310    -9.0450    -0.6960 C.3   1 <1>   0.2900 
 14 N       -2.3760    -9.1750     0.3480 N.3   1 <1>  -0.8100 
 15 C       -3.6890    -8.6360    -0.0850 C.3   1 <1>   0.1100 
 16 C       -2.6070   -10.5730     0.7270 C.3   1 <1>   0.1100 
 17 C       -4.6990    -9.7960    -0.1020 C.3   1 <1>   0.2000 
 18 C       -3.8100   -11.0360    -0.0920 C.3   1 <1>  -0.0800 
 19 O       -5.4760    -9.7820     1.0630 O.3   1 <1>  -0.5600 
 20 C       -4.4760   -12.3080     0.4640 C.3   1 <1>   0.0200 
 21 C       -6.5730    -8.9250     1.0330 C.3   1 <1>   0.0400 
 22 C       -3.6150   -13.5500     0.2990 C.2   1 <1>  -0.0400 
 23 O       -4.0010   -14.6610     0.8680 O.3   1 <1>  -0.0190 
 24 C       -2.4640   -13.8010    -0.3460 C.2   1 <1>  -0.1500 
 25 N       -3.1720   -15.6380     0.6410 N.2   1 <1>  -0.4100 
 26 C       -2.2350   -15.1490    -0.0880 C.2   1 <1>   0.1080 
 27 C       -1.0500   -15.9420    -0.5920 C.3   1 <1>  -0.0590 
 28 H       -0.0600    -3.3020    -2.1590 H     1 <1>   0.1500 
 29 H        1.3820    -1.1640     1.2270 H     1 <1>   0.1500 
 30 H        1.1030    -3.1930     2.6300 H     1 <1>   0.1500 
 31 H        0.2470    -5.2530     1.6340 H     1 <1>   0.1500 
 32 H       -0.4140    -9.4690    -0.3270 H     1 <1>   0.0800 
 33 H       -1.6250    -9.5930    -1.5740 H     1 <1>   0.0800 
 34 H       -4.0020    -7.8640     0.5950 H     1 <1>   0.0800 
 35 H       -3.6220    -8.2150    -1.0730 H     1 <1>   0.0800 
 36 H       -1.7370   -11.1870     0.5720 H     1 <1>   0.0800 
 37 H       -2.8610   -10.5980     1.7750 H     1 <1>   0.0800 
 38 H       -5.3470    -9.7720    -0.9610 H     1 <1>   0.0800 
 39 H       -3.4870   -11.2210    -1.1000 H     1 <1>   0.0800 
 40 H       -5.4100   -12.4720    -0.0420 H     1 <1>   0.0800 
 41 H       -4.6930   -12.1770     1.5100 H     1 <1>   0.0800 
 42 H       -7.0790    -9.0000     1.9800 H     1 <1>   0.0800 
 43 H       -7.2390    -9.2270     0.2430 H     1 <1>   0.0800 
 44 H       -6.2400    -7.9130     0.8830 H     1 <1>   0.0800 
 45 H       -1.8400   -13.1560    -0.9330 H     1 <1>   0.1500 
 46 H       -0.1370   -15.4360    -0.3410 H     1 <1>   0.0800 
 47 H       -1.1150   -16.0550    -1.6580 H     1 <1>   0.0800 
 48 H       -1.0430   -16.9170    -0.1390 H     1 <1>   0.0800 
@<TRIPOS>BOND
  1   1   2  1   
  2   2   3  ar  
  3   2   4  ar  
  4   3   5  ar  
  5   3  28  1   
  6   4   6  ar  
  7   4  29  1   
  8   5   7  1   
  9   5   8  ar  
 10   6   8  ar  
 11   6  30  1   
 12   7   9  1   
 13   7  10  2   
 14   8  31  1   
 15   9  11  1   
 16  10  12  1   
 17  11  12  2   
 18  11  13  1   
 19  13  14  1   
 20  13  32  1   
 21  13  33  1   
 22  14  15  1   
 23  14  16  1   
 24  15  17  1   
 25  15  34  1   
 26  15  35  1   
 27  16  18  1   
 28  16  36  1   
 29  16  37  1   
 30  17  18  1   
 31  17  19  1   
 32  17  38  1   
 33  18  20  1   
 34  18  39  1   
 35  19  21  1   
 36  20  22  1   
 37  20  40  1   
 38  20  41  1   
 39  21  42  1   
 40  21  43  1   
 41  21  44  1   
 42  22  23  1   
 43  22  24  2   
 44  23  25  1   
 45  24  26  1   
 46  24  45  1   
 47  25  26  2   
 48  26  27  1   
 49  27  46  1   
 50  27  47  1   
 51  27  48  1   
@<TRIPOS>SUBSTRUCTURE
  1 ****  14 GROUP 4 **** **** 0

# MOE 2024.06 (io_trps.svl 2023.06)
