@<TRIPOS>MOLECULE
NONAME
42 44 1 0 0 
SMALL
USER_CHARGES


@<TRIPOS>ATOM
  1 F       -1.6440    -1.0010    -0.7950 F     1 <1>  -0.1900 
  2 C       -1.9090    -0.0320     0.0450 C.ar  1 <1>   0.1900 
  3 C       -1.4330     1.2410    -0.2560 C.ar  1 <1>   0.0820 
  4 C       -2.6450    -0.3370     1.1920 C.ar  1 <1>   0.0860 
  5 O       -0.7390     1.3940    -1.4260 O.3   1 <1>  -0.3630 
  6 C       -1.7160     2.2450     0.6760 C.ar  1 <1>   0.1900 
  7 C       -3.1480    -1.6620     1.4840 C.2   1 <1>   0.5440 
  8 C       -2.8810     0.7080     2.0890 C.ar  1 <1>  -0.1500 
  9 C       -0.0350     2.5700    -1.7630 C.3   1 <1>   0.0400 
 10 F       -1.3310     3.4810     0.4980 F     1 <1>  -0.1900 
 11 C       -2.4250     1.9890     1.8360 C.ar  1 <1>  -0.1500 
 12 O       -2.8900    -2.1690     2.5590 O.2   1 <1>  -0.5700 
 13 N       -3.9640    -2.3520     0.6170 N.am  1 <1>  -0.6600 
 14 C       -4.6430    -1.7900    -0.5740 C.3   1 <1>   0.1400 
 15 C       -4.4880    -3.7120     0.9120 C.3   1 <1>   0.1400 
 16 C       -5.9360    -2.5930    -0.6780 C.3   1 <1>   0.2000 
 17 C       -5.5720    -3.9830    -0.1470 C.3   1 <1>  -0.0800 
 18 O       -6.8630    -2.0370     0.1880 O.3   1 <1>  -0.6800 
 19 C       -5.0600    -4.8920    -1.2820 C.3   1 <1>  -0.0170 
 20 C       -4.9060    -6.3360    -0.8280 C.ar  1 <1>   0.1670 
 21 N       -3.7130    -6.6990    -0.3870 N.ar  1 <1>  -0.6200 
 22 C       -5.9970    -7.2030    -0.8920 C.ar  1 <1>   0.1600 
 23 C       -3.6830    -7.9680    -0.0160 C.ar  1 <1>   0.1600 
 24 N       -5.9700    -8.4730    -0.5220 N.ar  1 <1>  -0.6200 
 25 C       -4.7740    -8.8250    -0.0810 C.ar  1 <1>   0.1600 
 26 H       -3.4280     0.5000     2.9940 H     1 <1>   0.1500 
 27 H        0.5060     2.3860    -2.6740 H     1 <1>   0.0800 
 28 H        0.6560     2.8070    -0.9730 H     1 <1>   0.0800 
 29 H       -0.7380     3.3700    -1.9150 H     1 <1>   0.0800 
 30 H       -2.6160     2.7880     2.5320 H     1 <1>   0.1500 
 31 H       -4.8360    -0.7350    -0.4760 H     1 <1>   0.0800 
 32 H       -4.0300    -1.9670    -1.4410 H     1 <1>   0.0800 
 33 H       -3.6870    -4.4300     0.8790 H     1 <1>   0.0800 
 34 H       -4.9170    -3.7190     1.8990 H     1 <1>   0.0800 
 35 H       -6.3580    -2.5940    -1.6690 H     1 <1>   0.0800 
 36 H       -6.4310    -4.4530     0.3020 H     1 <1>   0.0800 
 37 H       -6.4520    -1.9520     1.0720 H     1 <1>   0.4000 
 38 H       -4.1150    -4.5320    -1.6510 H     1 <1>   0.0800 
 39 H       -5.7560    -4.8670    -2.1020 H     1 <1>   0.0800 
 40 H       -6.9340    -6.8290    -1.2640 H     1 <1>   0.1500 
 41 H       -2.7490    -8.3480     0.3580 H     1 <1>   0.1500 
 42 H       -4.6510    -9.8430     0.2440 H     1 <1>   0.1500 
@<TRIPOS>BOND
  1   1   2  1   
  2   2   3  ar  
  3   2   4  ar  
  4   3   5  1   
  5   3   6  ar  
  6   4   7  1   
  7   4   8  ar  
  8   5   9  1   
  9   6  10  1   
 10   6  11  ar  
 11   7  12  2   
 12   7  13  am  
 13   8  11  ar  
 14   8  26  1   
 15   9  27  1   
 16   9  28  1   
 17   9  29  1   
 18  11  30  1   
 19  13  14  1   
 20  13  15  1   
 21  14  16  1   
 22  14  31  1   
 23  14  32  1   
 24  15  17  1   
 25  15  33  1   
 26  15  34  1   
 27  16  17  1   
 28  16  18  1   
 29  16  35  1   
 30  17  19  1   
 31  17  36  1   
 32  18  37  1   
 33  19  20  1   
 34  19  38  1   
 35  19  39  1   
 36  20  21  ar  
 37  20  22  ar  
 38  21  23  ar  
 39  22  24  ar  
 40  22  40  1   
 41  23  25  ar  
 42  23  41  1   
 43  24  25  ar  
 44  25  42  1   
@<TRIPOS>SUBSTRUCTURE
  1 ****  13 GROUP 4 **** **** 0

# MOE 2024.06 (io_trps.svl 2023.06)
