@<TRIPOS>MOLECULE
NONAME
45 47 1 0 0 
SMALL
USER_CHARGES


@<TRIPOS>ATOM
  1 O        0.3320     1.1040     1.7460 O.3   1 <1>  -0.5160 
  2 C        0.8510     1.7260     0.5920 C.3   1 <1>   0.2580 
  3 C       -0.4270     0.1670     0.9830 C.3   1 <1>   0.2580 
  4 C        2.2690     1.2190     0.3090 C.3   1 <1>  -0.1600 
  5 C        0.7850     3.2420     0.7620 C.3   1 <1>  -0.1600 
  6 C       -0.2860     1.0950    -0.2290 C.3   1 <1>   0.0000 
  7 C        2.8670     1.9610    -0.8820 C.3   1 <1>   0.3430 
  8 C        1.4090     3.9360    -0.4430 C.3   1 <1>   0.3430 
  9 N        2.8020     3.4320    -0.6460 N.4   1 <1>  -0.9590 
 10 C        3.5100     4.1960    -1.7040 C.3   1 <1>   0.5240 
 11 C        3.6730     5.6050    -1.1910 C.2   1 <1>  -0.1810 
 12 C        4.4470     6.0910    -0.1930 C.2   1 <1>  -0.3320 
 13 C        2.9870     6.7080    -1.6840 C.2   1 <1>   0.1390 
 14 N        4.1960     7.4230    -0.1240 N.pl3 1 <1>   0.3140 
 15 C        5.4390     5.3740     0.7140 C.3   1 <1>  -0.0600 
 16 N        3.2840     7.7880    -1.0420 N.2   1 <1>  -0.7070 
 17 C        4.7930     8.4220     0.7900 C.3   1 <1>   0.0960 
 18 C        6.0730     9.0210     0.1900 C.3   1 <1>  -0.1600 
 19 C        6.7080    10.0430     1.1400 C.3   1 <1>  -0.2400 
 20 H       -1.4240     0.0830     1.3770 H     1 <1>   0.0000 
 21 H        0.1100    -0.7620     0.9030 H     1 <1>   0.0000 
 22 H        2.2600     0.1640     0.1000 H     1 <1>   0.0800 
 23 H        2.8870     1.3810     1.1750 H     1 <1>   0.0800 
 24 H        1.3170     3.5310     1.6510 H     1 <1>   0.0800 
 25 H       -0.2370     3.5620     0.8700 H     1 <1>   0.0800 
 26 H        0.0290     0.5980    -1.1290 H     1 <1>   0.0000 
 27 H       -1.1400     1.7340    -0.3700 H     1 <1>   0.0000 
 28 H        2.3150     1.7110    -1.7740 H     1 <1>   0.0800 
 29 H        3.8910     1.6510    -1.0180 H     1 <1>   0.0800 
 30 H        1.4190     5.0010    -0.2700 H     1 <1>   0.0800 
 31 H        0.8150     3.7400    -1.3220 H     1 <1>   0.0800 
 32 H        3.3130     3.6550     0.2190 H     1 <1>   0.4500 
 33 H        2.9490     4.1900    -2.6230 H     1 <1>   0.0800 
 34 H        4.4850     3.7730    -1.8840 H     1 <1>   0.0800 
 35 H        2.2820     6.6970    -2.4990 H     1 <1>   0.1500 
 36 H        5.5330     4.3380     0.4470 H     1 <1>   0.0800 
 37 H        5.1210     5.4380     1.7400 H     1 <1>   0.0800 
 38 H        6.4110     5.8270     0.6290 H     1 <1>   0.0800 
 39 H        5.0030     7.9520     1.7320 H     1 <1>   0.0800 
 40 H        4.0690     9.2000     0.9530 H     1 <1>   0.0800 
 41 H        5.8300     9.5080    -0.7400 H     1 <1>   0.0800 
 42 H        6.7830     8.2380    -0.0110 H     1 <1>   0.0800 
 43 H        6.0240    10.8510     1.3360 H     1 <1>   0.0800 
 44 H        7.5970    10.4540     0.6940 H     1 <1>   0.0800 
 45 H        6.9770     9.5800     2.0730 H     1 <1>   0.0800 
@<TRIPOS>BOND
  1   1   2  1   
  2   1   3  1   
  3   2   4  1   
  4   2   5  1   
  5   2   6  1   
  6   3   6  1   
  7   3  20  1   
  8   3  21  1   
  9   4   7  1   
 10   4  22  1   
 11   4  23  1   
 12   5   8  1   
 13   5  24  1   
 14   5  25  1   
 15   6  26  1   
 16   6  27  1   
 17   7   9  1   
 18   7  28  1   
 19   7  29  1   
 20   8   9  1   
 21   8  30  1   
 22   8  31  1   
 23   9  10  1   
 24   9  32  1   
 25  10  11  1   
 26  10  33  1   
 27  10  34  1   
 28  11  12  2   
 29  11  13  1   
 30  12  14  1   
 31  12  15  1   
 32  13  16  2   
 33  13  35  1   
 34  14  16  1   
 35  14  17  1   
 36  15  36  1   
 37  15  37  1   
 38  15  38  1   
 39  17  18  1   
 40  17  39  1   
 41  17  40  1   
 42  18  19  1   
 43  18  41  1   
 44  18  42  1   
 45  19  43  1   
 46  19  44  1   
 47  19  45  1   
@<TRIPOS>SUBSTRUCTURE
  1 ****   9 GROUP 4 **** **** 0

# MOE 2024.06 (io_trps.svl 2023.06)
