@<TRIPOS>MOLECULE
NONAME
47 49 1 0 0 
SMALL
USER_CHARGES


@<TRIPOS>ATOM
  1 CL      -0.0460     0.5280    -0.4480 Cl    1 <1>  -0.1770 
  2 C        1.5600     1.2200    -0.3120 C.ar  1 <1>   0.1770 
  3 C        2.6860     0.3930    -0.2050 C.ar  1 <1>   0.1000 
  4 C        1.6570     2.5950    -0.3260 C.ar  1 <1>  -0.1500 
  5 N        2.5950    -1.0010    -0.1920 N.pl3 1 <1>  -0.8380 
  6 C        3.9190     1.0340    -0.1020 C.ar  1 <1>  -0.1500 
  7 C        2.8940     3.2340    -0.2370 C.ar  1 <1>   0.0860 
  8 C        1.8920    -1.6840     0.9200 C.3   1 <1>   0.2090 
  9 C        3.5910    -1.9070    -0.8140 C.3   1 <1>   0.2090 
 10 C        4.0190     2.4130    -0.1170 C.ar  1 <1>  -0.1500 
 11 C        2.9890     4.6800    -0.2660 C.2   1 <1>   0.5440 
 12 C        2.6770    -2.9700     1.1460 C.3   1 <1>  -0.1600 
 13 C        3.3020    -3.2760    -0.2110 C.3   1 <1>  -0.1600 
 14 O        2.0530     5.3750     0.0800 O.2   1 <1>  -0.5700 
 15 N        4.1290     5.3080    -0.6940 N.am  1 <1>  -0.7300 
 16 C        4.2620     6.7780    -0.8630 C.3   1 <1>   0.1400 
 17 C        4.3160     7.4740     0.4990 C.3   1 <1>   0.0960 
 18 N        4.5990     8.9100     0.3080 N.pl3 1 <1>   0.0480 
 19 C        5.7900     9.5620     0.3280 C.2   1 <1>   0.0070 
 20 C        3.6880     9.8600     0.0330 C.2   1 <1>  -0.3020 
 21 N        5.6820    10.8300     0.0870 N.2   1 <1>  -0.5650 
 22 C        7.1110     8.8500     0.6100 C.3   1 <1>   0.0200 
 23 C        4.3640    11.0200    -0.0970 C.2   1 <1>   0.0770 
 24 C        8.3400     9.7530     0.4450 C.3   1 <1>  -0.2400 
 25 H        0.7610     3.1840    -0.4090 H     1 <1>   0.1500 
 26 H        4.8100     0.4460     0.0040 H     1 <1>   0.1500 
 27 H        0.8870    -1.9130     0.6090 H     1 <1>   0.0800 
 28 H        1.8670    -1.0690     1.8040 H     1 <1>   0.0800 
 29 H        4.5890    -1.6010    -0.5570 H     1 <1>   0.0800 
 30 H        3.4780    -1.9150    -1.8850 H     1 <1>   0.0800 
 31 H        4.9930     2.8590    -0.0220 H     1 <1>   0.1500 
 32 H        2.0460    -3.7650     1.4990 H     1 <1>   0.0800 
 33 H        3.4490    -2.7810     1.8720 H     1 <1>   0.0800 
 34 H        4.1900    -3.8750    -0.1310 H     1 <1>   0.0800 
 35 H        2.5880    -3.7850    -0.8350 H     1 <1>   0.0800 
 36 H        4.8460     4.7440    -1.1540 H     1 <1>   0.3700 
 37 H        3.4170     7.1460    -1.4200 H     1 <1>   0.0800 
 38 H        5.1610     6.9880    -1.4170 H     1 <1>   0.0800 
 39 H        5.0840     7.0400     1.1100 H     1 <1>   0.0800 
 40 H        3.3710     7.3750     1.0020 H     1 <1>   0.0800 
 41 H        2.6340     9.6660    -0.0530 H     1 <1>   0.1500 
 42 H        7.2070     8.0150    -0.0590 H     1 <1>   0.0800 
 43 H        7.0900     8.4750     1.6180 H     1 <1>   0.0800 
 44 H        3.9670    11.9970    -0.3160 H     1 <1>   0.1500 
 45 H        8.3820    10.1370    -0.5590 H     1 <1>   0.0800 
 46 H        9.2400     9.2020     0.6460 H     1 <1>   0.0800 
 47 H        8.2800    10.5840     1.1250 H     1 <1>   0.0800 
@<TRIPOS>BOND
  1   1   2  1   
  2   2   3  ar  
  3   2   4  ar  
  4   3   5  1   
  5   3   6  ar  
  6   4   7  ar  
  7   4  25  1   
  8   5   8  1   
  9   5   9  1   
 10   6  10  ar  
 11   6  26  1   
 12   7  10  ar  
 13   7  11  1   
 14   8  12  1   
 15   8  27  1   
 16   8  28  1   
 17   9  13  1   
 18   9  29  1   
 19   9  30  1   
 20  10  31  1   
 21  11  14  2   
 22  11  15  am  
 23  12  13  1   
 24  12  32  1   
 25  12  33  1   
 26  13  34  1   
 27  13  35  1   
 28  15  16  1   
 29  15  36  1   
 30  16  17  1   
 31  16  37  1   
 32  16  38  1   
 33  17  18  1   
 34  17  39  1   
 35  17  40  1   
 36  18  19  1   
 37  18  20  1   
 38  19  21  2   
 39  19  22  1   
 40  20  23  2   
 41  20  41  1   
 42  21  23  1   
 43  22  24  1   
 44  22  42  1   
 45  22  43  1   
 46  23  44  1   
 47  24  45  1   
 48  24  46  1   
 49  24  47  1   
@<TRIPOS>SUBSTRUCTURE
  1 ****  11 GROUP 4 **** **** 0

# MOE 2024.06 (io_trps.svl 2023.06)
