@<TRIPOS>MOLECULE
NONAME
43 45 1 0 0 
SMALL
USER_CHARGES


@<TRIPOS>ATOM
  1 F       -1.5450     0.2350    -2.0580 F     1 <1>  -0.3400 
  2 C       -1.4430     0.7870    -0.8550 C.3   1 <1>   1.1640 
  3 F       -0.2130     0.5290    -0.4310 F     1 <1>  -0.3400 
  4 F       -1.5150     2.1000    -1.0350 F     1 <1>  -0.3400 
  5 C       -2.5080     0.2320     0.1080 C.ar  1 <1>  -0.1440 
  6 C       -2.6240    -1.1430     0.2930 C.ar  1 <1>  -0.1500 
  7 C       -3.3660     1.0710     0.8110 C.ar  1 <1>  -0.1500 
  8 C       -3.5780    -1.6740     1.1510 C.ar  1 <1>  -0.1440 
  9 C       -4.3120     0.5490     1.6750 C.ar  1 <1>  -0.1500 
 10 C       -4.4180    -0.8190     1.8460 C.ar  1 <1>  -0.1500 
 11 C       -3.7050    -3.1770     1.3280 C.3   1 <1>   0.4870 
 12 N       -4.3830    -3.7410     0.1280 N.4   1 <1>  -0.9590 
 13 C       -5.7640    -3.1960    -0.0760 C.3   1 <1>   0.3430 
 14 C       -4.4750    -5.2340     0.1510 C.3   1 <1>   0.3430 
 15 C       -6.5850    -4.3650    -0.6160 C.3   1 <1>   0.2000 
 16 C       -5.9560    -5.6010     0.0120 C.3   1 <1>  -0.0800 
 17 O       -7.9220    -4.2670    -0.2670 O.3   1 <1>  -0.6800 
 18 C       -6.2030    -6.8810    -0.8120 C.3   1 <1>  -0.0170 
 19 C       -5.6170    -8.1190    -0.1470 C.ar  1 <1>   0.1670 
 20 N       -4.3020    -8.1380     0.0130 N.ar  1 <1>  -0.6200 
 21 C       -6.4560    -9.1600     0.2520 C.ar  1 <1>   0.1600 
 22 C       -3.8870    -9.2630     0.5790 C.ar  1 <1>   0.1600 
 23 N       -6.0420   -10.2720     0.8320 N.ar  1 <1>  -0.6200 
 24 C       -4.7290   -10.2940     0.9760 C.ar  1 <1>   0.1600 
 25 H       -1.9540    -1.7970    -0.2420 H     1 <1>   0.1500 
 26 H       -3.3050     2.1420     0.6980 H     1 <1>   0.1500 
 27 H       -4.9640     1.2140     2.2160 H     1 <1>   0.1500 
 28 H       -5.1590    -1.1970     2.5310 H     1 <1>   0.1500 
 29 H       -4.2740    -3.3950     2.2160 H     1 <1>   0.0800 
 30 H       -2.7230    -3.6090     1.4370 H     1 <1>   0.0800 
 31 H       -3.8190    -3.4630    -0.6860 H     1 <1>   0.4500 
 32 H       -6.1770    -2.8790     0.8670 H     1 <1>   0.0800 
 33 H       -5.7600    -2.3670    -0.7650 H     1 <1>   0.0800 
 34 H       -3.9230    -5.6460    -0.6810 H     1 <1>   0.0800 
 35 H       -4.0710    -5.6500     1.0610 H     1 <1>   0.0800 
 36 H       -6.5210    -4.3860    -1.6910 H     1 <1>   0.0800 
 37 H       -6.3450    -5.7430     1.0060 H     1 <1>   0.0800 
 38 H       -8.0940    -4.4770     0.6740 H     1 <1>   0.4000 
 39 H       -5.7670    -6.7820    -1.7910 H     1 <1>   0.0800 
 40 H       -7.2630    -7.0120    -0.9470 H     1 <1>   0.0800 
 41 H       -7.5160    -9.0730     0.0870 H     1 <1>   0.1500 
 42 H       -2.8290    -9.3790     0.7370 H     1 <1>   0.1500 
 43 H       -4.3000   -11.1700     1.4300 H     1 <1>   0.1500 
@<TRIPOS>BOND
  1   1   2  1   
  2   2   3  1   
  3   2   4  1   
  4   2   5  1   
  5   5   6  ar  
  6   5   7  ar  
  7   6   8  ar  
  8   6  25  1   
  9   7   9  ar  
 10   7  26  1   
 11   8  10  ar  
 12   8  11  1   
 13   9  10  ar  
 14   9  27  1   
 15  10  28  1   
 16  11  12  1   
 17  11  29  1   
 18  11  30  1   
 19  12  13  1   
 20  12  14  1   
 21  12  31  1   
 22  13  15  1   
 23  13  32  1   
 24  13  33  1   
 25  14  16  1   
 26  14  34  1   
 27  14  35  1   
 28  15  16  1   
 29  15  17  1   
 30  15  36  1   
 31  16  18  1   
 32  16  37  1   
 33  17  38  1   
 34  18  19  1   
 35  18  39  1   
 36  18  40  1   
 37  19  20  ar  
 38  19  21  ar  
 39  20  22  ar  
 40  21  23  ar  
 41  21  41  1   
 42  22  24  ar  
 43  22  42  1   
 44  23  24  ar  
 45  24  43  1   
@<TRIPOS>SUBSTRUCTURE
  1 ****  12 GROUP 4 **** **** 0

# MOE 2024.06 (io_trps.svl 2023.06)
