@<TRIPOS>MOLECULE
NONAME
24 25 1 0 0 
SMALL
USER_CHARGES


@<TRIPOS>ATOM
  1 CL      -0.8710     0.1360     2.0230 Cl    1 <1>  -0.1770 
  2 C       -1.6650     1.0010     0.7210 C.ar  1 <1>   0.1770 
  3 C       -1.0800     2.1490     0.1600 C.ar  1 <1>   0.4100 
  4 C       -2.8720     0.5260     0.2660 C.ar  1 <1>  -0.1500 
  5 N       -1.6470     2.8400    -0.8330 N.ar  1 <1>  -0.6200 
  6 N        0.1330     2.6410     0.6090 N.pl3 1 <1>  -0.8380 
  7 C       -3.4460     1.2490    -0.7570 C.ar  1 <1>   0.1770 
  8 C       -2.8140     2.3730    -1.2640 C.ar  1 <1>   0.1600 
  9 C        1.2720     2.6480    -0.3680 C.3   1 <1>   0.2090 
 10 C        0.1100     3.9860     1.2600 C.3   1 <1>   0.2090 
 11 CL      -4.9820     0.7370    -1.4140 Cl    1 <1>  -0.1770 
 12 C        1.8680     4.0610    -0.3550 C.3   1 <1>   0.2600 
 13 C        0.7830     4.9340     0.2640 C.3   1 <1>   0.2000 
 14 F        2.9070     4.0630     0.4810 F     1 <1>  -0.3400 
 15 O       -0.1480     5.2670    -0.7190 O.3   1 <1>  -0.6800 
 16 H       -3.3370    -0.3490     0.6800 H     1 <1>   0.1500 
 17 H       -3.2970     2.9090    -2.0630 H     1 <1>   0.1500 
 18 H        2.0110     1.9140    -0.0950 H     1 <1>   0.0800 
 19 H        0.9050     2.4250    -1.3560 H     1 <1>   0.0800 
 20 H       -0.8900     4.3070     1.4970 H     1 <1>   0.0800 
 21 H        0.6880     3.9400     2.1670 H     1 <1>   0.0800 
 22 H        2.2310     4.4080    -1.3050 H     1 <1>   0.0800 
 23 H        1.1620     5.8410     0.7010 H     1 <1>   0.0800 
 24 H       -0.7120     4.4660    -0.8850 H     1 <1>   0.4000 
@<TRIPOS>BOND
  1   1   2  1   
  2   2   3  ar  
  3   2   4  ar  
  4   3   5  ar  
  5   3   6  1   
  6   4   7  ar  
  7   4  16  1   
  8   5   8  ar  
  9   6   9  1   
 10   6  10  1   
 11   7   8  ar  
 12   7  11  1   
 13   8  17  1   
 14   9  12  1   
 15   9  18  1   
 16   9  19  1   
 17  10  13  1   
 18  10  20  1   
 19  10  21  1   
 20  12  13  1   
 21  12  14  1   
 22  12  22  1   
 23  13  15  1   
 24  13  23  1   
 25  15  24  1   
@<TRIPOS>SUBSTRUCTURE
  1 ****   3 GROUP 4 **** **** 0

# MOE 2024.06 (io_trps.svl 2023.06)
