@<TRIPOS>MOLECULE
NONAME
47 49 1 0 0 
SMALL
USER_CHARGES


@<TRIPOS>ATOM
  1 O       -0.4780    -1.7730    -0.6440 O.2   1 <1>  -0.5700 
  2 C        0.6000    -2.3410    -0.5450 C.2   1 <1>   0.7670 
  3 N        1.4290    -2.2990    -1.6310 N.2   1 <1>  -0.6610 
  4 C        0.9740    -3.0400     0.6470 C.2   1 <1>  -0.1240 
  5 C        2.5570    -2.8930    -1.5410 C.2   1 <1>   0.4390 
  6 C        2.1890    -3.6470     0.6890 C.2   1 <1>  -0.0380 
  7 C       -0.0250    -3.0920     1.8090 C.3   1 <1>   0.0390 
  8 N        2.9690    -3.5590    -0.4290 N.pl3 1 <1>  -0.5500 
  9 C        3.5070    -2.8790    -2.7120 C.3   1 <1>  -0.1790 
 10 C        2.7850    -4.4400     1.8420 C.3   1 <1>  -0.1020 
 11 C       -0.6070    -4.4860     1.9840 C.2   1 <1>   0.5690 
 12 O       -0.2720    -5.1160     2.9600 O.2   1 <1>  -0.5700 
 13 N       -1.4730    -5.0140     1.0670 N.am  1 <1>  -0.6600 
 14 C       -2.1030    -4.3220    -0.0870 C.3   1 <1>   0.1400 
 15 C       -1.8650    -6.4460     1.0800 C.3   1 <1>   0.1400 
 16 C       -3.2140    -5.2690    -0.5370 C.3   1 <1>   0.2000 
 17 C       -2.6730    -6.6630    -0.2100 C.3   1 <1>  -0.0800 
 18 O       -4.3290    -5.0480     0.2540 O.3   1 <1>  -0.6800 
 19 C       -1.7940    -7.1910    -1.3620 C.3   1 <1>  -0.0160 
 20 C       -1.3180    -8.6130    -1.1130 C.ar  1 <1>   0.1670 
 21 N       -0.0910    -8.7520    -0.6360 N.ar  1 <1>  -0.6200 
 22 C       -2.1670    -9.6740    -1.3910 C.ar  1 <1>  -0.1500 
 23 C        0.3050    -9.9960    -0.4220 C.ar  1 <1>   0.1600 
 24 C       -1.7410   -10.9660    -1.1650 C.ar  1 <1>  -0.1500 
 25 C       -0.4670   -11.1200    -0.6650 C.ar  1 <1>  -0.1500 
 26 H       -0.8310    -2.3940     1.6830 H     1 <1>   0.0800 
 27 H        0.4760    -2.8120     2.7170 H     1 <1>   0.0800 
 28 H        3.8810    -4.0200    -0.4530 H     1 <1>   0.4000 
 29 H        4.4320    -2.4120    -2.4290 H     1 <1>   0.0800 
 30 H        3.0780    -2.3250    -3.5280 H     1 <1>   0.0800 
 31 H        3.6970    -3.8840    -3.0420 H     1 <1>   0.0800 
 32 H        3.7820    -4.0950     2.0510 H     1 <1>   0.0800 
 33 H        2.8240    -5.4830     1.5830 H     1 <1>   0.0800 
 34 H        2.2110    -4.3410     2.7430 H     1 <1>   0.0800 
 35 H       -2.4880    -3.3510     0.1770 H     1 <1>   0.0800 
 36 H       -1.3800    -4.2220    -0.8770 H     1 <1>   0.0800 
 37 H       -0.9930    -7.0750     1.1360 H     1 <1>   0.0800 
 38 H       -2.4800    -6.6310     1.9440 H     1 <1>   0.0800 
 39 H       -3.4960    -5.1350    -1.5670 H     1 <1>   0.0800 
 40 H       -3.4780    -7.3580    -0.0460 H     1 <1>   0.0800 
 41 H       -4.0440    -5.0120     1.1900 H     1 <1>   0.4000 
 42 H       -0.9380    -6.5540    -1.5030 H     1 <1>   0.0800 
 43 H       -2.3590    -7.1780    -2.2770 H     1 <1>   0.0800 
 44 H       -3.1520    -9.4940    -1.7790 H     1 <1>   0.1500 
 45 H        1.2990   -10.1280    -0.0320 H     1 <1>   0.1500 
 46 H       -2.3740   -11.8130    -1.3680 H     1 <1>   0.1500 
 47 H       -0.0710   -12.0990    -0.4650 H     1 <1>   0.1500 
@<TRIPOS>BOND
  1   1   2  2   
  2   2   3  1   
  3   2   4  1   
  4   3   5  2   
  5   4   6  2   
  6   4   7  1   
  7   5   8  1   
  8   5   9  1   
  9   6   8  1   
 10   6  10  1   
 11   7  11  1   
 12   7  26  1   
 13   7  27  1   
 14   8  28  1   
 15   9  29  1   
 16   9  30  1   
 17   9  31  1   
 18  10  32  1   
 19  10  33  1   
 20  10  34  1   
 21  11  12  2   
 22  11  13  am  
 23  13  14  1   
 24  13  15  1   
 25  14  16  1   
 26  14  35  1   
 27  14  36  1   
 28  15  17  1   
 29  15  37  1   
 30  15  38  1   
 31  16  17  1   
 32  16  18  1   
 33  16  39  1   
 34  17  19  1   
 35  17  40  1   
 36  18  41  1   
 37  19  20  1   
 38  19  42  1   
 39  19  43  1   
 40  20  21  ar  
 41  20  22  ar  
 42  21  23  ar  
 43  22  24  ar  
 44  22  44  1   
 45  23  25  ar  
 46  23  45  1   
 47  24  25  ar  
 48  24  46  1   
 49  25  47  1   
@<TRIPOS>SUBSTRUCTURE
  1 ****  13 GROUP 4 **** **** 0

# MOE 2024.06 (io_trps.svl 2023.06)
