@<TRIPOS>MOLECULE
NONAME
41 43 1 0 0 
SMALL
USER_CHARGES


@<TRIPOS>ATOM
  1 O       -1.7210     0.3720    -1.9990 O.2   1 <1>  -0.5700 
  2 C       -1.8410     0.7820    -0.8590 C.2   1 <1>   0.7150 
  3 N       -2.1560    -0.1170     0.1160 N.am  1 <1>  -0.7300 
  4 C       -1.6720     2.1760    -0.5180 C.2   1 <1>   0.0550 
  5 C       -2.3850    -1.5650    -0.0730 C.3   1 <1>   0.2200 
  6 O       -1.8640     2.5710     0.7350 O.3   1 <1>  -0.2800 
  7 C       -1.3350     3.2540    -1.2610 C.2   1 <1>   0.0460 
  8 C       -3.8780    -1.8420    -0.0300 C.3   1 <1>  -0.0800 
  9 C       -1.8910    -2.3280     1.1530 C.3   1 <1>   0.1200 
 10 C       -1.6280     3.8640     0.6550 C.2   1 <1>   0.2980 
 11 N       -1.3110     4.3360    -0.4910 N.2   1 <1>  -0.5650 
 12 C       -1.0060     3.3910    -2.7340 C.3   1 <1>  -0.0590 
 13 C       -4.1420    -1.9400     1.4760 C.3   1 <1>   0.1200 
 14 C       -4.2340    -3.1440    -0.7720 C.3   1 <1>  -0.0160 
 15 O       -2.9320    -2.2920     2.0830 O.3   1 <1>  -0.5600 
 16 C       -1.7490     4.6830     1.9180 C.3   1 <1>  -0.0600 
 17 C       -5.7330    -3.4030    -0.7520 C.ar  1 <1>  -0.1440 
 18 C       -6.6030    -2.6830    -1.5460 C.ar  1 <1>  -0.1500 
 19 C       -6.3010    -4.3670     0.0560 C.ar  1 <1>  -0.1500 
 20 C       -7.9610    -2.9500    -1.4900 C.ar  1 <1>   0.1600 
 21 C       -7.6730    -4.5550     0.0370 C.ar  1 <1>   0.1600 
 22 N       -8.5170    -3.8680    -0.7160 N.ar  1 <1>  -0.6200 
 23 H       -2.2850     0.2320     1.0690 H     1 <1>   0.3700 
 24 H       -1.9140    -1.9050    -0.9800 H     1 <1>   0.0800 
 25 H       -4.4370    -1.0330    -0.4670 H     1 <1>   0.0800 
 26 H       -1.0060    -1.8930     1.5830 H     1 <1>   0.0800 
 27 H       -1.7080    -3.3590     0.9090 H     1 <1>   0.0800 
 28 H       -1.0450     2.4430    -3.2370 H     1 <1>   0.0800 
 29 H       -0.0180     3.7990    -2.8440 H     1 <1>   0.0800 
 30 H       -1.7080     4.0580    -3.1980 H     1 <1>   0.0800 
 31 H       -4.8890    -2.6720     1.7300 H     1 <1>   0.0800 
 32 H       -4.4350    -0.9830     1.8720 H     1 <1>   0.0800 
 33 H       -3.7180    -3.9790    -0.3310 H     1 <1>   0.0800 
 34 H       -3.9130    -3.0690    -1.7970 H     1 <1>   0.0800 
 35 H       -1.5300     5.7140     1.7070 H     1 <1>   0.0800 
 36 H       -1.0550     4.3190     2.6520 H     1 <1>   0.0800 
 37 H       -2.7490     4.6080     2.3030 H     1 <1>   0.0800 
 38 H       -6.2390    -1.9180    -2.2060 H     1 <1>   0.1500 
 39 H       -5.6920    -4.9720     0.7030 H     1 <1>   0.1500 
 40 H       -8.6240    -2.3790    -2.1160 H     1 <1>   0.1500 
 41 H       -8.0990    -5.3100     0.6750 H     1 <1>   0.1500 
@<TRIPOS>BOND
  1   1   2  2   
  2   2   3  am  
  3   2   4  1   
  4   3   5  1   
  5   3  23  1   
  6   4   6  1   
  7   4   7  2   
  8   5   8  1   
  9   5   9  1   
 10   5  24  1   
 11   6  10  1   
 12   7  11  1   
 13   7  12  1   
 14   8  13  1   
 15   8  14  1   
 16   8  25  1   
 17   9  15  1   
 18   9  26  1   
 19   9  27  1   
 20  10  11  2   
 21  10  16  1   
 22  12  28  1   
 23  12  29  1   
 24  12  30  1   
 25  13  15  1   
 26  13  31  1   
 27  13  32  1   
 28  14  17  1   
 29  14  33  1   
 30  14  34  1   
 31  16  35  1   
 32  16  36  1   
 33  16  37  1   
 34  17  18  ar  
 35  17  19  ar  
 36  18  20  ar  
 37  18  38  1   
 38  19  21  ar  
 39  19  39  1   
 40  20  22  ar  
 41  20  40  1   
 42  21  22  ar  
 43  21  41  1   
@<TRIPOS>SUBSTRUCTURE
  1 ****   8 GROUP 4 **** **** 0

# MOE 2024.06 (io_trps.svl 2023.06)
