@<TRIPOS>MOLECULE
NONAME
54 56 1 0 0 
SMALL
USER_CHARGES


@<TRIPOS>ATOM
  1 O       -0.8220     0.8870     1.8780 O.2   1 <1>  -0.5700 
  2 C       -0.6520     2.0610     1.6670 C.2   1 <1>   0.5690 
  3 N       -1.6930     2.8640     1.3610 N.am  1 <1>  -0.7300 
  4 C        0.7600     2.6500     1.7050 C.3   1 <1>   0.1810 
  5 C       -1.5590     4.3140     1.0710 C.3   1 <1>   0.3640 
  6 O        0.7730     4.0570     1.8150 O.3   1 <1>  -0.5600 
  7 C       -2.3610     4.6310    -0.1900 C.ar  1 <1>  -0.1440 
  8 C       -0.0740     4.7370     0.8970 C.3   1 <1>   0.2610 
  9 C       -2.3100     3.8080    -1.3090 C.ar  1 <1>  -0.1500 
 10 C       -3.1530     5.7700    -0.2320 C.ar  1 <1>  -0.1500 
 11 C        0.1080     6.2620     1.0160 C.2   1 <1>   0.5690 
 12 C       -3.0380     4.1170    -2.4440 C.ar  1 <1>  -0.1500 
 13 C       -3.8810     6.0810    -1.3670 C.ar  1 <1>  -0.1500 
 14 O       -0.7640     6.9060     1.5610 O.2   1 <1>  -0.5700 
 15 N        1.2310     6.8830     0.5120 N.am  1 <1>  -0.6600 
 16 C       -3.8240     5.2540    -2.4740 C.ar  1 <1>  -0.1500 
 17 C        2.4480     6.1750     0.0280 C.3   1 <1>   0.1400 
 18 C        1.3810     8.3660     0.5540 C.3   1 <1>   0.1400 
 19 C        3.6250     6.5430     0.9360 C.3   1 <1>  -0.1600 
 20 C        2.5920     8.7320     1.4220 C.3   1 <1>  -0.1600 
 21 C        3.9040     8.0680     0.9210 C.3   1 <1>   0.0610 
 22 C        4.2930     8.6170    -0.4920 C.2   1 <1>   0.5690 
 23 C        5.0020     8.4120     1.9500 C.3   1 <1>  -0.2400 
 24 O        3.8490     9.7020    -0.8020 O.2   1 <1>  -0.5700 
 25 N        5.0950     7.9440    -1.3970 N.am  1 <1>  -0.6600 
 26 C        5.1390     8.3950    -2.8190 C.3   1 <1>   0.0600 
 27 C        6.1270     6.9160    -1.0950 C.3   1 <1>   0.0600 
 28 H       -2.6330     2.4690     1.3270 H     1 <1>   0.3700 
 29 H        1.2850     2.3750     0.8100 H     1 <1>   0.0800 
 30 H        1.2870     2.2520     2.5530 H     1 <1>   0.0800 
 31 H       -1.9820     4.8480     1.9050 H     1 <1>   0.0800 
 32 H        0.2320     4.4530    -0.0920 H     1 <1>   0.0800 
 33 H       -1.7050     2.9170    -1.3050 H     1 <1>   0.1500 
 34 H       -3.2030     6.4290     0.6200 H     1 <1>   0.1500 
 35 H       -2.9940     3.4720    -3.3050 H     1 <1>   0.1500 
 36 H       -4.4900     6.9680    -1.3870 H     1 <1>   0.1500 
 37 H       -4.3910     5.4960    -3.3570 H     1 <1>   0.1500 
 38 H        2.3160     5.1090     0.0440 H     1 <1>   0.0800 
 39 H        2.6500     6.4700    -0.9880 H     1 <1>   0.0800 
 40 H        1.5100     8.7360    -0.4480 H     1 <1>   0.0800 
 41 H        0.4990     8.8300     0.9600 H     1 <1>   0.0800 
 42 H        3.3820     6.2290     1.9370 H     1 <1>   0.0800 
 43 H        4.4840     5.9770     0.6450 H     1 <1>   0.0800 
 44 H        2.6980     9.8030     1.4340 H     1 <1>   0.0800 
 45 H        2.3800     8.4270     2.4310 H     1 <1>   0.0800 
 46 H        4.7120     8.0950     2.9360 H     1 <1>   0.0800 
 47 H        5.1610     9.4770     1.9700 H     1 <1>   0.0800 
 48 H        5.9350     7.9430     1.7110 H     1 <1>   0.0800 
 49 H        5.2200     7.5460    -3.4740 H     1 <1>   0.0800 
 50 H        5.9860     9.0420    -2.9660 H     1 <1>   0.0800 
 51 H        4.2440     8.9360    -3.0740 H     1 <1>   0.0800 
 52 H        7.0330     7.1420    -1.6310 H     1 <1>   0.0800 
 53 H        5.7750     5.9470    -1.4040 H     1 <1>   0.0800 
 54 H        6.3650     6.8920    -0.0510 H     1 <1>   0.0800 
@<TRIPOS>BOND
  1   1   2  2   
  2   2   3  am  
  3   2   4  1   
  4   3   5  1   
  5   3  28  1   
  6   4   6  1   
  7   4  29  1   
  8   4  30  1   
  9   5   7  1   
 10   5   8  1   
 11   5  31  1   
 12   6   8  1   
 13   7   9  ar  
 14   7  10  ar  
 15   8  11  1   
 16   8  32  1   
 17   9  12  ar  
 18   9  33  1   
 19  10  13  ar  
 20  10  34  1   
 21  11  14  2   
 22  11  15  am  
 23  12  16  ar  
 24  12  35  1   
 25  13  16  ar  
 26  13  36  1   
 27  15  17  1   
 28  15  18  1   
 29  16  37  1   
 30  17  19  1   
 31  17  38  1   
 32  17  39  1   
 33  18  20  1   
 34  18  40  1   
 35  18  41  1   
 36  19  21  1   
 37  19  42  1   
 38  19  43  1   
 39  20  21  1   
 40  20  44  1   
 41  20  45  1   
 42  21  22  1   
 43  21  23  1   
 44  22  24  2   
 45  22  25  am  
 46  23  46  1   
 47  23  47  1   
 48  23  48  1   
 49  25  26  1   
 50  25  27  1   
 51  26  49  1   
 52  26  50  1   
 53  26  51  1   
 54  27  52  1   
 55  27  53  1   
 56  27  54  1   
@<TRIPOS>SUBSTRUCTURE
  1 ****  15 GROUP 4 **** **** 0

# MOE 2024.06 (io_trps.svl 2023.06)
