@<TRIPOS>MOLECULE
NONAME
49 50 1 0 0 
SMALL
USER_CHARGES


@<TRIPOS>ATOM
  1 S        0.1290    -0.4630    -0.1100 S.o2  1 <1>   1.0900 
  2 O       -1.0630     0.3010     0.1770 O.2   1 <1>  -0.6500 
  3 O        1.2980     0.1890    -0.6470 O.2   1 <1>  -0.6500 
  4 C       -0.3130    -1.8110    -1.2040 C.3   1 <1>  -0.0550 
  5 C        0.6270    -1.2740     1.3980 C.3   1 <1>  -0.1350 
  6 C       -1.6210    -2.5170    -0.8030 C.3   1 <1>  -0.0990 
  7 C       -1.9120    -3.7610    -1.6250 C.2   1 <1>   0.5690 
  8 O       -1.2330    -3.9720    -2.6020 O.2   1 <1>  -0.5700 
  9 N       -2.9030    -4.6230    -1.2330 N.am  1 <1>  -0.6600 
 10 C       -3.0270    -5.9810    -1.8460 C.3   1 <1>   0.1400 
 11 C       -3.9690    -4.2860    -0.2530 C.3   1 <1>   0.1400 
 12 C       -3.1260    -7.1280    -0.8050 C.3   1 <1>   0.0000 
 13 C       -3.9450    -5.3050     0.8770 C.3   1 <1>  -0.1600 
 14 C       -4.1270    -6.7130     0.3100 C.3   1 <1>   0.2000 
 15 C       -3.7630    -8.3530    -1.5100 C.3   1 <1>   0.1200 
 16 C       -1.7210    -7.5810    -0.2860 C.3   1 <1>  -0.0160 
 17 O       -4.0910    -7.6040     1.3630 O.3   1 <1>  -0.6800 
 18 O       -3.0120    -8.7770    -2.6020 O.3   1 <1>  -0.6800 
 19 C       -0.8680    -6.6200     0.5410 C.ar  1 <1>  -0.1440 
 20 C       -0.8980    -6.6400     1.9290 C.ar  1 <1>  -0.1500 
 21 C        0.0090    -5.7550    -0.0950 C.ar  1 <1>  -0.1500 
 22 C       -0.0930    -5.7860     2.6630 C.ar  1 <1>  -0.1500 
 23 C        0.8240    -4.9080     0.6350 C.ar  1 <1>  -0.1500 
 24 C        0.7690    -4.9180     2.0170 C.ar  1 <1>  -0.1500 
 25 H       -0.4320    -1.4280    -2.2010 H     1 <1>   0.0800 
 26 H        0.4860    -2.5270    -1.2360 H     1 <1>   0.0800 
 27 H       -0.1800    -1.8450     1.8130 H     1 <1>   0.0800 
 28 H        0.9260    -0.5410     2.1210 H     1 <1>   0.0800 
 29 H        1.4590    -1.9260     1.2170 H     1 <1>   0.0800 
 30 H       -1.5620    -2.8130     0.2270 H     1 <1>   0.0800 
 31 H       -2.4370    -1.8270    -0.9170 H     1 <1>   0.0800 
 32 H       -3.9140    -5.9750    -2.4560 H     1 <1>   0.0800 
 33 H       -2.1930    -6.1700    -2.5000 H     1 <1>   0.0800 
 34 H       -3.8430    -3.2980     0.1510 H     1 <1>   0.0800 
 35 H       -4.9230    -4.3150    -0.7520 H     1 <1>   0.0800 
 36 H       -4.7510    -5.0900     1.5560 H     1 <1>   0.0800 
 37 H       -3.0210    -5.2050     1.4110 H     1 <1>   0.0800 
 38 H       -5.1260    -6.7640    -0.0920 H     1 <1>   0.0800 
 39 H       -4.7570    -8.1300    -1.8620 H     1 <1>   0.0800 
 40 H       -3.8300    -9.1820    -0.8250 H     1 <1>   0.0800 
 41 H       -1.8410    -8.4840     0.2870 H     1 <1>   0.0800 
 42 H       -1.1240    -7.8670    -1.1350 H     1 <1>   0.0800 
 43 H       -3.2220    -7.5430     1.8020 H     1 <1>   0.4000 
 44 H       -3.1050    -8.1720    -3.3640 H     1 <1>   0.4000 
 45 H       -1.5350    -7.3270     2.4550 H     1 <1>   0.1500 
 46 H        0.0680    -5.7460    -1.1700 H     1 <1>   0.1500 
 47 H       -0.1300    -5.8060     3.7390 H     1 <1>   0.1500 
 48 H        1.5090    -4.2570     0.1230 H     1 <1>   0.1500 
 49 H        1.4040    -4.2660     2.5910 H     1 <1>   0.1500 
@<TRIPOS>BOND
  1   1   2  2   
  2   1   3  2   
  3   1   4  1   
  4   1   5  1   
  5   4   6  1   
  6   4  25  1   
  7   4  26  1   
  8   5  27  1   
  9   5  28  1   
 10   5  29  1   
 11   6   7  1   
 12   6  30  1   
 13   6  31  1   
 14   7   8  2   
 15   7   9  am  
 16   9  10  1   
 17   9  11  1   
 18  10  12  1   
 19  10  32  1   
 20  10  33  1   
 21  11  13  1   
 22  11  34  1   
 23  11  35  1   
 24  12  14  1   
 25  12  15  1   
 26  12  16  1   
 27  13  14  1   
 28  13  36  1   
 29  13  37  1   
 30  14  17  1   
 31  14  38  1   
 32  15  18  1   
 33  15  39  1   
 34  15  40  1   
 35  16  19  1   
 36  16  41  1   
 37  16  42  1   
 38  17  43  1   
 39  18  44  1   
 40  19  20  ar  
 41  19  21  ar  
 42  20  22  ar  
 43  20  45  1   
 44  21  23  ar  
 45  21  46  1   
 46  22  24  ar  
 47  22  47  1   
 48  23  24  ar  
 49  23  48  1   
 50  24  49  1   
@<TRIPOS>SUBSTRUCTURE
  1 ****   9 GROUP 4 **** **** 0

# MOE 2024.06 (io_trps.svl 2023.06)
