@<TRIPOS>MOLECULE
NONAME
52 54 1 0 0 
SMALL
USER_CHARGES


@<TRIPOS>ATOM
  1 CL       0.5300     0.6140     0.0530 Cl    1 <1>  -0.1770 
  2 C       -1.0740     1.2840     0.1890 C.ar  1 <1>   0.1770 
  3 C       -1.6450     1.9010    -0.9040 C.ar  1 <1>  -0.1500 
  4 C       -1.7520     1.1900     1.3880 C.ar  1 <1>  -0.1500 
  5 C       -2.9110     2.4480    -0.7850 C.ar  1 <1>  -0.1500 
  6 C       -3.0200     1.7360     1.4970 C.ar  1 <1>  -0.1500 
  7 C       -3.6120     2.3910     0.4180 C.ar  1 <1>  -0.1430 
  8 C       -5.0120     3.0520     0.4760 C.3   1 <1>   0.2040 
  9 C       -4.8730     4.5150    -0.0500 C.2   1 <1>   0.5690 
 10 C       -5.9280     2.1740    -0.4350 C.3   1 <1>  -0.1600 
 11 C       -5.6360     3.1250     1.9080 C.3   1 <1>  -0.1600 
 12 O       -5.3110     4.8020    -1.1420 O.2   1 <1>  -0.5700 
 13 N       -4.2180     5.4980     0.6650 N.am  1 <1>  -0.6600 
 14 C       -7.4170     2.2900    -0.0830 C.3   1 <1>  -0.1600 
 15 C       -6.4790     1.8950     2.2760 C.3   1 <1>  -0.1600 
 16 C       -3.1330     5.2880     1.6650 C.3   1 <1>   0.1400 
 17 C       -4.1790     6.9140     0.1990 C.3   1 <1>   0.1400 
 18 C       -7.6910     1.7650     1.3380 C.3   1 <1>  -0.1600 
 19 C       -2.3250     6.5940     1.6880 C.3   1 <1>   0.2000 
 20 C       -2.7350     7.3830     0.4240 C.3   1 <1>   0.4230 
 21 O       -2.6820     7.3380     2.8080 O.3   1 <1>  -0.6800 
 22 N       -1.8500     7.1470    -0.7910 N.4   1 <1>  -0.9590 
 23 C       -1.8160     5.7260    -1.2780 C.3   1 <1>   0.2630 
 24 C       -0.4640     7.6690    -0.5720 C.3   1 <1>   0.2630 
 25 H       -1.1070     1.9390    -1.8350 H     1 <1>   0.1500 
 26 H       -1.2920     0.6890     2.2210 H     1 <1>   0.1500 
 27 H       -3.3560     2.9110    -1.6510 H     1 <1>   0.1500 
 28 H       -3.5250     1.6260     2.4390 H     1 <1>   0.1500 
 29 H       -5.7840     2.4150    -1.4730 H     1 <1>   0.0800 
 30 H       -5.6490     1.1400    -0.3250 H     1 <1>   0.0800 
 31 H       -4.8870     3.2910     2.6570 H     1 <1>   0.0800 
 32 H       -6.2950     3.9760     1.9520 H     1 <1>   0.0800 
 33 H       -7.7140     3.3230    -0.1530 H     1 <1>   0.0800 
 34 H       -8.0080     1.7350    -0.7910 H     1 <1>   0.0800 
 35 H       -5.8720     1.0090     2.2000 H     1 <1>   0.0800 
 36 H       -6.8200     1.9690     3.2950 H     1 <1>   0.0800 
 37 H       -3.5330     5.0600     2.6380 H     1 <1>   0.0800 
 38 H       -2.4930     4.4850     1.3480 H     1 <1>   0.0800 
 39 H       -4.4790     7.0230    -0.8290 H     1 <1>   0.0800 
 40 H       -4.8470     7.4910     0.8140 H     1 <1>   0.0800 
 41 H       -7.9760     0.7270     1.2900 H     1 <1>   0.0800 
 42 H       -8.5270     2.3070     1.7480 H     1 <1>   0.0800 
 43 H       -1.2670     6.4180     1.7500 H     1 <1>   0.0800 
 44 H       -2.7300     8.4370     0.6490 H     1 <1>   0.0800 
 45 H       -3.6210     7.2020     3.0560 H     1 <1>   0.4000 
 46 H       -2.2650     7.7020    -1.5560 H     1 <1>   0.4500 
 47 H       -1.4030     5.0750    -0.5250 H     1 <1>   0.0800 
 48 H       -1.2130     5.6490    -2.1680 H     1 <1>   0.0800 
 49 H       -2.8130     5.3870    -1.5150 H     1 <1>   0.0800 
 50 H        0.0380     7.1030     0.1960 H     1 <1>   0.0800 
 51 H       -0.4960     8.7040    -0.2700 H     1 <1>   0.0800 
 52 H        0.1120     7.5970    -1.4800 H     1 <1>   0.0800 
@<TRIPOS>BOND
  1   1   2  1   
  2   2   3  ar  
  3   2   4  ar  
  4   3   5  ar  
  5   3  25  1   
  6   4   6  ar  
  7   4  26  1   
  8   5   7  ar  
  9   5  27  1   
 10   6   7  ar  
 11   6  28  1   
 12   7   8  1   
 13   8   9  1   
 14   8  10  1   
 15   8  11  1   
 16   9  12  2   
 17   9  13  am  
 18  10  14  1   
 19  10  29  1   
 20  10  30  1   
 21  11  15  1   
 22  11  31  1   
 23  11  32  1   
 24  13  16  1   
 25  13  17  1   
 26  14  18  1   
 27  14  33  1   
 28  14  34  1   
 29  15  18  1   
 30  15  35  1   
 31  15  36  1   
 32  16  19  1   
 33  16  37  1   
 34  16  38  1   
 35  17  20  1   
 36  17  39  1   
 37  17  40  1   
 38  18  41  1   
 39  18  42  1   
 40  19  20  1   
 41  19  21  1   
 42  19  43  1   
 43  20  22  1   
 44  20  44  1   
 45  21  45  1   
 46  22  23  1   
 47  22  24  1   
 48  22  46  1   
 49  23  47  1   
 50  23  48  1   
 51  23  49  1   
 52  24  50  1   
 53  24  51  1   
 54  24  52  1   
@<TRIPOS>SUBSTRUCTURE
  1 ****   9 GROUP 4 **** **** 0

# MOE 2024.06 (io_trps.svl 2023.06)
