@<TRIPOS>MOLECULE
NONAME
48 50 1 0 0 
SMALL
USER_CHARGES


@<TRIPOS>ATOM
  1 O       -1.2190     0.4000     1.8830 O.2   1 <1>  -0.5700 
  2 C       -1.7030     0.8900     0.8800 C.2   1 <1>   0.5440 
  3 N       -2.4080     0.0760     0.0260 N.am  1 <1>  -0.6600 
  4 C       -1.5460     2.3060     0.5940 C.ar  1 <1>   0.0860 
  5 C       -3.2810     0.5490    -1.0760 C.3   1 <1>   0.1400 
  6 C       -2.6280    -1.3690     0.2750 C.3   1 <1>   0.1400 
  7 C       -0.5290     2.7540    -0.2570 C.ar  1 <1>  -0.1440 
  8 C       -2.4200     3.2530     1.1410 C.ar  1 <1>  -0.1440 
  9 C       -4.4050    -0.4840    -1.1180 C.3   1 <1>   0.2000 
 10 C       -3.7000    -1.7920    -0.7370 C.3   1 <1>  -0.0800 
 11 C       -0.4100     4.1000    -0.5600 C.ar  1 <1>  -0.1500 
 12 C        0.4670     1.7690    -0.8570 C.3   1 <1>  -0.0960 
 13 C       -2.2870     4.5940     0.8270 C.ar  1 <1>  -0.1500 
 14 C       -3.5320     2.8240     2.0910 C.3   1 <1>  -0.0970 
 15 O       -5.3230    -0.1530    -0.1330 O.3   1 <1>  -0.6800 
 16 C       -4.6220    -2.9160    -0.2310 C.3   1 <1>  -0.0170 
 17 C       -1.2870     5.0250    -0.0260 C.ar  1 <1>  -0.1440 
 18 C       -3.8300    -4.1870     0.0360 C.ar  1 <1>  -0.1440 
 19 C       -1.1480     6.4990    -0.3630 C.3   1 <1>  -0.0970 
 20 C       -3.5330    -5.0830    -0.9700 C.ar  1 <1>  -0.1500 
 21 C       -3.3630    -4.5070     1.2950 C.ar  1 <1>  -0.1500 
 22 C       -2.8000    -6.2220    -0.6790 C.ar  1 <1>   0.1600 
 23 C       -2.6370    -5.6720     1.4800 C.ar  1 <1>   0.1600 
 24 N       -2.3430    -6.5370     0.5220 N.ar  1 <1>  -0.6200 
 25 H       -3.6580     1.5430    -0.9060 H     1 <1>   0.0800 
 26 H       -2.7240     0.5280    -1.9970 H     1 <1>   0.0800 
 27 H       -1.7130    -1.9210     0.1370 H     1 <1>   0.0800 
 28 H       -2.9720    -1.5010     1.2860 H     1 <1>   0.0800 
 29 H       -4.9130    -0.5240    -2.0660 H     1 <1>   0.0800 
 30 H       -3.1860    -2.1480    -1.6130 H     1 <1>   0.0800 
 31 H        0.3750     4.4360    -1.2160 H     1 <1>   0.1500 
 32 H        1.2280     2.2790    -1.4190 H     1 <1>   0.0800 
 33 H       -0.0390     1.0830    -1.5120 H     1 <1>   0.0800 
 34 H        0.9450     1.2090    -0.0730 H     1 <1>   0.0800 
 35 H       -2.9630     5.3150     1.2510 H     1 <1>   0.1500 
 36 H       -4.0420     3.6770     2.5010 H     1 <1>   0.0800 
 37 H       -3.1200     2.2570     2.9070 H     1 <1>   0.0800 
 38 H       -4.2500     2.2160     1.5710 H     1 <1>   0.0800 
 39 H       -4.8330     0.0010     0.7000 H     1 <1>   0.4000 
 40 H       -5.3800    -3.1170    -0.9690 H     1 <1>   0.0800 
 41 H       -5.1260    -2.6130     0.6700 H     1 <1>   0.0800 
 42 H       -0.7400     6.6220    -1.3500 H     1 <1>   0.0800 
 43 H       -0.4930     6.9720     0.3460 H     1 <1>   0.0800 
 44 H       -2.1060     6.9850    -0.3300 H     1 <1>   0.0800 
 45 H       -3.8630    -4.9080    -1.9770 H     1 <1>   0.1500 
 46 H       -3.5540    -3.8640     2.1350 H     1 <1>   0.1500 
 47 H       -2.5780    -6.9100    -1.4760 H     1 <1>   0.1500 
 48 H       -2.2790    -5.9050     2.4680 H     1 <1>   0.1500 
@<TRIPOS>BOND
  1   1   2  2   
  2   2   3  am  
  3   2   4  1   
  4   3   5  1   
  5   3   6  1   
  6   4   7  ar  
  7   4   8  ar  
  8   5   9  1   
  9   5  25  1   
 10   5  26  1   
 11   6  10  1   
 12   6  27  1   
 13   6  28  1   
 14   7  11  ar  
 15   7  12  1   
 16   8  13  ar  
 17   8  14  1   
 18   9  10  1   
 19   9  15  1   
 20   9  29  1   
 21  10  16  1   
 22  10  30  1   
 23  11  17  ar  
 24  11  31  1   
 25  12  32  1   
 26  12  33  1   
 27  12  34  1   
 28  13  17  ar  
 29  13  35  1   
 30  14  36  1   
 31  14  37  1   
 32  14  38  1   
 33  15  39  1   
 34  16  18  1   
 35  16  40  1   
 36  16  41  1   
 37  17  19  1   
 38  18  20  ar  
 39  18  21  ar  
 40  19  42  1   
 41  19  43  1   
 42  19  44  1   
 43  20  22  ar  
 44  20  45  1   
 45  21  23  ar  
 46  21  46  1   
 47  22  24  ar  
 48  22  47  1   
 49  23  24  ar  
 50  23  48  1   
@<TRIPOS>SUBSTRUCTURE
  1 ****   3 GROUP 4 **** **** 0

# MOE 2024.06 (io_trps.svl 2023.06)
