@<TRIPOS>MOLECULE
NONAME
36 37 1 0 0 
SMALL
USER_CHARGES


@<TRIPOS>ATOM
  1 S        0.3740     1.0590     0.0620 S.3   1 <1>  -0.0800 
  2 C        2.0320     1.3030    -0.4670 C.2   1 <1>  -0.1400 
  3 C        0.5120    -0.6760    -0.1570 C.2   1 <1>  -0.1100 
  4 C        2.6040     0.1250    -0.7790 C.2   1 <1>  -0.1500 
  5 C        2.5640     2.7270    -0.5040 C.3   1 <1>   0.0200 
  6 C        1.7400    -1.0020    -0.6020 C.2   1 <1>  -0.1500 
  7 C        2.6830     3.3350     0.9030 C.3   1 <1>   0.2890 
  8 N        2.9860     4.7810     0.8500 N.pl3 1 <1>  -0.8690 
  9 C        3.7210     2.6330     1.7810 C.3   1 <1>  -0.2400 
 10 C        4.0280     5.4480     0.3190 C.ar  1 <1>   0.7200 
 11 N        3.9990     6.7550     0.5320 N.ar  1 <1>  -0.6200 
 12 N        4.9610     4.7850    -0.3520 N.ar  1 <1>  -0.6200 
 13 C        4.9910     7.4590     0.0480 C.ar  1 <1>   0.1660 
 14 C        5.9480     5.5060    -0.8180 C.ar  1 <1>   0.1600 
 15 C        6.0580     6.8750    -0.6340 C.ar  1 <1>   0.0860 
 16 C        4.8740     8.9590     0.2630 C.3   1 <1>  -0.0970 
 17 C        7.2180     7.5510    -1.1430 C.2   1 <1>   0.4230 
 18 O        7.6850     7.3040    -2.2240 O.2   1 <1>  -0.5700 
 19 C        7.9600     8.5710    -0.3010 C.3   1 <1>  -0.1790 
 20 H       -0.3510    -1.2750     0.0720 H     1 <1>   0.1500 
 21 H        3.6130    -0.0040    -1.1320 H     1 <1>   0.1500 
 22 H        1.8990     3.3290    -1.0960 H     1 <1>   0.0800 
 23 H        3.5250     2.7170    -0.9820 H     1 <1>   0.0800 
 24 H        2.0830    -1.9990    -0.8170 H     1 <1>   0.1500 
 25 H        1.7250     3.2310     1.3840 H     1 <1>   0.0800 
 26 H        2.3490     5.3820     1.3680 H     1 <1>   0.4000 
 27 H        4.6900     2.6600     1.3170 H     1 <1>   0.0800 
 28 H        3.4440     1.6050     1.9260 H     1 <1>   0.0800 
 29 H        3.7740     3.1100     2.7420 H     1 <1>   0.0800 
 30 H        6.7210     4.9990    -1.3710 H     1 <1>   0.1500 
 31 H        3.8400     9.2330     0.3750 H     1 <1>   0.0800 
 32 H        5.2660     9.5010    -0.5770 H     1 <1>   0.0800 
 33 H        5.3960     9.2450     1.1570 H     1 <1>   0.0800 
 34 H        7.7200     8.4590     0.7400 H     1 <1>   0.0800 
 35 H        7.7130     9.5640    -0.6280 H     1 <1>   0.0800 
 36 H        9.0190     8.4270    -0.4220 H     1 <1>   0.0800 
@<TRIPOS>BOND
  1   1   2  1   
  2   1   3  1   
  3   2   4  2   
  4   2   5  1   
  5   3   6  2   
  6   3  20  1   
  7   4   6  1   
  8   4  21  1   
  9   5   7  1   
 10   5  22  1   
 11   5  23  1   
 12   6  24  1   
 13   7   8  1   
 14   7   9  1   
 15   7  25  1   
 16   8  10  1   
 17   8  26  1   
 18   9  27  1   
 19   9  28  1   
 20   9  29  1   
 21  10  11  ar  
 22  10  12  ar  
 23  11  13  ar  
 24  12  14  ar  
 25  13  15  ar  
 26  13  16  1   
 27  14  15  ar  
 28  14  30  1   
 29  15  17  1   
 30  16  31  1   
 31  16  32  1   
 32  16  33  1   
 33  17  18  2   
 34  17  19  1   
 35  19  34  1   
 36  19  35  1   
 37  19  36  1   
@<TRIPOS>SUBSTRUCTURE
  1 ****  12 GROUP 4 **** **** 0

# MOE 2024.06 (io_trps.svl 2023.06)
