@<TRIPOS>MOLECULE
NONAME
53 56 1 0 0 
SMALL
USER_CHARGES


@<TRIPOS>ATOM
  1 O       -0.3390    -0.2030     2.2580 O.co2 1 <1>  -0.9000 
  2 C       -0.7310    -0.0330     1.0890 C.2   1 <1>   0.9790 
  3 O        0.0950    -0.2320     0.1810 O.co2 1 <1>  -0.9000 
  4 C       -2.0440     0.5080     0.8720 C.ar  1 <1>  -0.1790 
  5 C       -2.3350     1.6480     0.1230 C.ar  1 <1>   0.1000 
  6 C       -3.0880    -0.1520     1.5390 C.ar  1 <1>   0.1600 
  7 N       -1.3510     2.4280    -0.4790 N.pl3 1 <1>  -0.8380 
  8 C       -3.7020     1.9830     0.0220 C.ar  1 <1>   0.0000 
  9 N       -4.3530     0.1790     1.5150 N.ar  1 <1>  -0.5670 
 10 C       -1.1100     3.8510    -0.0920 C.3   1 <1>   0.2090 
 11 C       -0.6540     1.8720    -1.6760 C.3   1 <1>   0.1290 
 12 C       -4.6180     1.2490     0.7420 C.ar  1 <1>   0.1050 
 13 C       -4.5080     2.9180    -0.6670 C.2   1 <1>   0.1080 
 14 C        0.3880     4.2110     0.1230 C.3   1 <1>   0.4230 
 15 N       -5.8360     1.8010     0.5010 N.pl3 1 <1>   0.3140 
 16 N       -5.7610     2.8300    -0.3710 N.2   1 <1>  -0.7070 
 17 C       -4.0370     3.9190    -1.6960 C.3   1 <1>  -0.0590 
 18 N        0.9910     3.8080     1.4430 N.4   1 <1>  -0.9590 
 19 C        0.5770     5.7260    -0.0510 C.3   1 <1>  -0.0170 
 20 C       -7.1120     1.3420     1.0600 C.3   1 <1>   0.0160 
 21 C        2.4660     3.9420     1.3830 C.3   1 <1>   0.4860 
 22 C        0.6630     2.4110     1.8380 C.3   1 <1>   0.2630 
 23 C        1.9740     6.1990     0.3240 C.ar  1 <1>  -0.1430 
 24 C        2.8520     5.3640     1.0080 C.ar  1 <1>  -0.1430 
 25 C        2.3650     7.4850    -0.0100 C.ar  1 <1>  -0.1500 
 26 C        4.1130     5.8310     1.3480 C.ar  1 <1>  -0.1500 
 27 C        3.6240     7.9430     0.3330 C.ar  1 <1>  -0.1500 
 28 C        4.4980     7.1160     1.0120 C.ar  1 <1>  -0.1500 
 29 H       -2.8150    -1.0070     2.1370 H     1 <1>   0.1500 
 30 H       -1.6760     4.0870     0.7920 H     1 <1>   0.0800 
 31 H       -1.4850     4.4630    -0.8910 H     1 <1>   0.0800 
 32 H       -1.0700     0.9090    -1.9240 H     1 <1>   0.0800 
 33 H        0.3910     1.7300    -1.4630 H     1 <1>   0.0800 
 34 H       -0.7710     2.5260    -2.5200 H     1 <1>   0.0800 
 35 H        0.9430     3.7250    -0.6610 H     1 <1>   0.0800 
 36 H       -3.2130     3.5150    -2.2530 H     1 <1>   0.0800 
 37 H       -3.7490     4.8300    -1.2090 H     1 <1>   0.0800 
 38 H       -4.8380     4.1330    -2.3800 H     1 <1>   0.0800 
 39 H        0.6490     4.4450     2.1690 H     1 <1>   0.4500 
 40 H       -0.1390     6.2510     0.5570 H     1 <1>   0.0800 
 41 H        0.3830     5.9840    -1.0770 H     1 <1>   0.0800 
 42 H       -7.0190     1.2660     2.1270 H     1 <1>   0.0800 
 43 H       -7.3450     0.3790     0.6470 H     1 <1>   0.0800 
 44 H       -7.8840     2.0450     0.8080 H     1 <1>   0.0800 
 45 H        2.8630     3.2590     0.6500 H     1 <1>   0.0800 
 46 H        2.8940     3.6950     2.3410 H     1 <1>   0.0800 
 47 H        0.9970     1.7170     1.0820 H     1 <1>   0.0800 
 48 H       -0.4020     2.2910     1.9510 H     1 <1>   0.0800 
 49 H        1.1290     2.1430     2.7710 H     1 <1>   0.0800 
 50 H        1.6950     8.1440    -0.5370 H     1 <1>   0.1500 
 51 H        4.8110     5.2020     1.8750 H     1 <1>   0.1500 
 52 H        3.9240     8.9440     0.0710 H     1 <1>   0.1500 
 53 H        5.4780     7.4750     1.2780 H     1 <1>   0.1500 
@<TRIPOS>BOND
  1   1   2  ar  
  2   2   3  ar  
  3   2   4  1   
  4   4   5  ar  
  5   4   6  ar  
  6   5   7  1   
  7   5   8  ar  
  8   6   9  ar  
  9   6  29  1   
 10   7  10  1   
 11   7  11  1   
 12   8  12  ar  
 13   8  13  1   
 14   9  12  ar  
 15  10  14  1   
 16  10  30  1   
 17  10  31  1   
 18  11  32  1   
 19  11  33  1   
 20  11  34  1   
 21  12  15  1   
 22  13  16  2   
 23  13  17  1   
 24  14  18  1   
 25  14  19  1   
 26  14  35  1   
 27  15  16  1   
 28  15  20  1   
 29  17  36  1   
 30  17  37  1   
 31  17  38  1   
 32  18  21  1   
 33  18  22  1   
 34  18  39  1   
 35  19  23  1   
 36  19  40  1   
 37  19  41  1   
 38  20  42  1   
 39  20  43  1   
 40  20  44  1   
 41  21  24  1   
 42  21  45  1   
 43  21  46  1   
 44  22  47  1   
 45  22  48  1   
 46  22  49  1   
 47  23  24  ar  
 48  23  25  ar  
 49  24  26  ar  
 50  25  27  ar  
 51  25  50  1   
 52  26  28  ar  
 53  26  51  1   
 54  27  28  ar  
 55  27  52  1   
 56  28  53  1   
@<TRIPOS>SUBSTRUCTURE
  1 ****  10 GROUP 4 **** **** 0

# MOE 2024.06 (io_trps.svl 2023.06)
