@<TRIPOS>MOLECULE
NONAME
47 49 1 0 0 
SMALL
USER_CHARGES


@<TRIPOS>ATOM
  1 CL      -0.9360     0.6770    -2.0460 Cl    1 <1>  -0.1770 
  2 C       -2.1490     1.4700    -1.0770 C.ar  1 <1>   0.1770 
  3 C       -1.7630     2.2750    -0.0260 C.ar  1 <1>  -0.1500 
  4 C       -3.4830     1.2810    -1.3700 C.ar  1 <1>  -0.1500 
  5 C       -2.7210     2.9120     0.7500 C.ar  1 <1>  -0.1440 
  6 C       -4.4350     1.9200    -0.5960 C.ar  1 <1>  -0.1500 
  7 C       -4.0840     2.7570     0.4640 C.ar  1 <1>  -0.0090 
  8 C       -2.2390     3.7710     1.9130 C.3   1 <1>  -0.0960 
  9 S       -5.3990     3.5640     1.4430 S.o2  1 <1>   1.4470 
 10 O       -5.0320     4.9210     1.7940 O.2   1 <1>  -0.6500 
 11 O       -5.8040     2.6590     2.4960 O.2   1 <1>  -0.6500 
 12 N       -6.6990     3.6940     0.3600 N.am  1 <1>  -0.8490 
 13 C       -7.9720     3.9090     1.0670 C.3   1 <1>   0.1960 
 14 C       -6.4900     4.7590    -0.6270 C.3   1 <1>   0.1960 
 15 C       -9.1720     3.8130     0.1050 C.3   1 <1>   0.0000 
 16 C       -7.5930     4.7210    -1.6900 C.3   1 <1>  -0.1600 
 17 C      -10.4900     4.0130     0.8750 C.3   1 <1>   0.2000 
 18 C       -8.9880     4.8310    -1.0530 C.3   1 <1>  -0.1600 
 19 C       -9.3630     2.3880    -0.4480 C.3   1 <1>  -0.1600 
 20 O      -10.7600     5.3640     1.1020 O.3   1 <1>  -0.5600 
 21 C      -11.5710     3.3570     0.0120 C.3   1 <1>  -0.1600 
 22 C      -10.8510     2.2720    -0.8010 C.3   1 <1>  -0.1600 
 23 C      -11.7620     5.6160     2.0350 C.3   1 <1>   0.0400 
 24 H       -0.7130     2.3930     0.1770 H     1 <1>   0.1500 
 25 H       -3.7680     0.6430    -2.1870 H     1 <1>   0.1500 
 26 H       -5.4760     1.7600    -0.8230 H     1 <1>   0.1500 
 27 H       -1.1930     3.6140     2.1040 H     1 <1>   0.0800 
 28 H       -2.7770     3.5270     2.8120 H     1 <1>   0.0800 
 29 H       -2.3870     4.8140     1.6910 H     1 <1>   0.0800 
 30 H       -8.0910     3.1670     1.8380 H     1 <1>   0.0800 
 31 H       -7.9650     4.8770     1.5420 H     1 <1>   0.0800 
 32 H       -6.4930     5.7200    -0.1380 H     1 <1>   0.0800 
 33 H       -5.5350     4.6310    -1.1080 H     1 <1>   0.0800 
 34 H       -7.4500     5.5380    -2.3740 H     1 <1>   0.0800 
 35 H       -7.5050     3.8100    -2.2530 H     1 <1>   0.0800 
 36 H      -10.4260     3.5050     1.8240 H     1 <1>   0.0800 
 37 H       -9.7450     4.6990    -1.8050 H     1 <1>   0.0800 
 38 H       -9.0910     5.8290    -0.6660 H     1 <1>   0.0800 
 39 H       -8.7330     2.1720    -1.2910 H     1 <1>   0.0800 
 40 H       -9.1370     1.6730     0.3250 H     1 <1>   0.0800 
 41 H      -12.3440     2.9300     0.6250 H     1 <1>   0.0800 
 42 H      -11.9970     4.0850    -0.6570 H     1 <1>   0.0800 
 43 H      -11.2230     1.2900    -0.5650 H     1 <1>   0.0800 
 44 H      -10.9950     2.4540    -1.8530 H     1 <1>   0.0800 
 45 H      -11.8580     6.6830     2.1400 H     1 <1>   0.0800 
 46 H      -11.4860     5.1830     2.9810 H     1 <1>   0.0800 
 47 H      -12.6920     5.2040     1.6850 H     1 <1>   0.0800 
@<TRIPOS>BOND
  1   1   2  1   
  2   2   3  ar  
  3   2   4  ar  
  4   3   5  ar  
  5   3  24  1   
  6   4   6  ar  
  7   4  25  1   
  8   5   7  ar  
  9   5   8  1   
 10   6   7  ar  
 11   6  26  1   
 12   7   9  1   
 13   8  27  1   
 14   8  28  1   
 15   8  29  1   
 16   9  10  2   
 17   9  11  2   
 18   9  12  am  
 19  12  13  1   
 20  12  14  1   
 21  13  15  1   
 22  13  30  1   
 23  13  31  1   
 24  14  16  1   
 25  14  32  1   
 26  14  33  1   
 27  15  17  1   
 28  15  18  1   
 29  15  19  1   
 30  16  18  1   
 31  16  34  1   
 32  16  35  1   
 33  17  20  1   
 34  17  21  1   
 35  17  36  1   
 36  18  37  1   
 37  18  38  1   
 38  19  22  1   
 39  19  39  1   
 40  19  40  1   
 41  20  23  1   
 42  21  22  1   
 43  21  41  1   
 44  21  42  1   
 45  22  43  1   
 46  22  44  1   
 47  23  45  1   
 48  23  46  1   
 49  23  47  1   
@<TRIPOS>SUBSTRUCTURE
  1 ****  12 GROUP 4 **** **** 0

# MOE 2024.06 (io_trps.svl 2023.06)
