@<TRIPOS>MOLECULE
NONAME
46 49 1 0 0 
SMALL
USER_CHARGES


@<TRIPOS>ATOM
  1 O       -1.6950    -0.7680    -2.7870 O.2   1 <1>  -0.5700 
  2 C       -1.9820    -1.0850    -1.6650 C.2   1 <1>   0.5690 
  3 N       -1.9860    -0.1690    -0.6810 N.am  1 <1>  -0.7300 
  4 C       -2.3820    -2.5050    -1.3700 C.3   1 <1>  -0.0190 
  5 C       -2.3160    -0.4280     0.7390 C.3   1 <1>   0.2200 
  6 C       -1.4190    -3.1720    -0.3620 C.3   1 <1>   0.1200 
  7 C       -3.8750    -2.5250    -1.0170 C.3   1 <1>   0.3430 
  8 C       -1.3410    -1.4750     1.3350 C.3   1 <1>   0.1200 
  9 C       -3.8160    -0.8130     0.8900 C.3   1 <1>   0.3430 
 10 O       -1.6600    -2.7950     0.9690 O.3   1 <1>  -0.5600 
 11 N       -4.1650    -2.2030     0.4230 N.4   1 <1>  -0.9590 
 12 C       -5.5200    -2.6420     0.8500 C.3   1 <1>   0.4860 
 13 C       -5.6180    -4.1370     0.6230 C.ar  1 <1>  -0.1440 
 14 C       -4.8030    -5.0080     1.3310 C.ar  1 <1>  -0.1500 
 15 C       -6.4940    -4.6480    -0.3230 C.ar  1 <1>  -0.1500 
 16 C       -4.8470    -6.3640     1.0720 C.ar  1 <1>  -0.1500 
 17 C       -6.5330    -6.0070    -0.5730 C.ar  1 <1>  -0.1500 
 18 C       -5.7040    -6.8930     0.1120 C.ar  1 <1>   0.0000 
 19 C       -5.7140    -8.3130    -0.1680 C.ar  1 <1>   0.3100 
 20 N       -4.5430    -8.8960    -0.4290 N.ar  1 <1>  -0.6200 
 21 C       -6.9140    -9.0220    -0.1580 C.ar  1 <1>  -0.1500 
 22 C       -4.5720   -10.1910    -0.6880 C.ar  1 <1>   0.1600 
 23 C       -6.9320   -10.3720    -0.4300 C.ar  1 <1>  -0.1500 
 24 C       -5.7190   -10.9650    -0.7030 C.ar  1 <1>  -0.1500 
 25 H       -1.6530     0.7670    -0.9390 H     1 <1>   0.3700 
 26 H       -2.2750    -3.0380    -2.2980 H     1 <1>   0.0800 
 27 H       -2.1600     0.4980     1.2680 H     1 <1>   0.0800 
 28 H       -0.3930    -2.9490    -0.6050 H     1 <1>   0.0800 
 29 H       -1.5430    -4.2410    -0.4070 H     1 <1>   0.0800 
 30 H       -4.2360    -3.5180    -1.2320 H     1 <1>   0.0800 
 31 H       -4.4050    -1.8420    -1.6630 H     1 <1>   0.0800 
 32 H       -1.3930    -1.4350     2.4090 H     1 <1>   0.0800 
 33 H       -0.3240    -1.2660     1.0470 H     1 <1>   0.0800 
 34 H       -4.4120    -0.0890     0.3590 H     1 <1>   0.0800 
 35 H       -4.0640    -0.7350     1.9350 H     1 <1>   0.0800 
 36 H       -3.4930    -2.8170     0.9260 H     1 <1>   0.4500 
 37 H       -5.6700    -2.4310     1.8970 H     1 <1>   0.0800 
 38 H       -6.2780    -2.1280     0.2810 H     1 <1>   0.0800 
 39 H       -4.1200    -4.6500     2.0840 H     1 <1>   0.1500 
 40 H       -7.1490    -3.9980    -0.8800 H     1 <1>   0.1500 
 41 H       -4.2040    -7.0380     1.6140 H     1 <1>   0.1500 
 42 H       -7.2070    -6.3920    -1.3190 H     1 <1>   0.1500 
 43 H       -7.8290    -8.5070     0.0680 H     1 <1>   0.1500 
 44 H       -3.6290   -10.6640    -0.9010 H     1 <1>   0.1500 
 45 H       -7.8480   -10.9370    -0.4280 H     1 <1>   0.1500 
 46 H       -5.6590   -12.0150    -0.9240 H     1 <1>   0.1500 
@<TRIPOS>BOND
  1   1   2  2   
  2   2   3  am  
  3   2   4  1   
  4   3   5  1   
  5   3  25  1   
  6   4   6  1   
  7   4   7  1   
  8   4  26  1   
  9   5   8  1   
 10   5   9  1   
 11   5  27  1   
 12   6  10  1   
 13   6  28  1   
 14   6  29  1   
 15   7  11  1   
 16   7  30  1   
 17   7  31  1   
 18   8  10  1   
 19   8  32  1   
 20   8  33  1   
 21   9  11  1   
 22   9  34  1   
 23   9  35  1   
 24  11  12  1   
 25  11  36  1   
 26  12  13  1   
 27  12  37  1   
 28  12  38  1   
 29  13  14  ar  
 30  13  15  ar  
 31  14  16  ar  
 32  14  39  1   
 33  15  17  ar  
 34  15  40  1   
 35  16  18  ar  
 36  16  41  1   
 37  17  18  ar  
 38  17  42  1   
 39  18  19  1   
 40  19  20  ar  
 41  19  21  ar  
 42  20  22  ar  
 43  21  23  ar  
 44  21  43  1   
 45  22  24  ar  
 46  22  44  1   
 47  23  24  ar  
 48  23  45  1   
 49  24  46  1   
@<TRIPOS>SUBSTRUCTURE
  1 ****  14 GROUP 4 **** **** 0

# MOE 2024.06 (io_trps.svl 2023.06)
