@<TRIPOS>MOLECULE
NONAME
40 42 1 0 0 
SMALL
USER_CHARGES


@<TRIPOS>ATOM
  1 CL      -1.9950     0.8150    -1.2770 Cl    1 <1>  -0.1230 
  2 C       -3.0850     0.8160     0.1000 C.2   1 <1>   0.1230 
  3 C       -3.6040    -0.3210     0.7260 C.2   1 <1>   0.2030 
  4 C       -3.5870     1.8970     0.7210 C.2   1 <1>  -0.3320 
  5 N       -4.4120     0.0630     1.7070 N.2   1 <1>  -0.7070 
  6 C       -3.2370    -1.6720     0.3240 C.2   1 <1>   0.7160 
  7 N       -4.3810     1.4090     1.6970 N.pl3 1 <1>   0.3000 
  8 C       -3.3750     3.3780     0.4520 C.3   1 <1>  -0.0600 
  9 O       -2.0620    -1.9930     0.4130 O.2   1 <1>  -0.5700 
 10 N       -4.1240    -2.6280    -0.1770 N.am  1 <1>  -0.6600 
 11 C       -5.5140    -2.3930    -0.6680 C.3   1 <1>   0.2200 
 12 C       -3.6910    -4.0520    -0.3120 C.3   1 <1>   0.0600 
 13 C       -6.5020    -2.2130     0.4800 C.3   1 <1>  -0.1600 
 14 C       -5.6600    -1.2000    -1.6150 C.3   1 <1>  -0.1600 
 15 C       -7.5450    -1.1890     0.0130 C.3   1 <1>  -0.0800 
 16 C       -6.9920    -0.5200    -1.2690 C.3   1 <1>  -0.0800 
 17 C       -7.9570    -0.2290     1.1470 C.3   1 <1>   0.1400 
 18 C       -6.8620     1.0140    -1.1820 C.3   1 <1>  -0.0990 
 19 N       -8.5590     0.9970     0.5840 N.am  1 <1>  -0.7300 
 20 C       -8.0590     1.6310    -0.4950 C.2   1 <1>   0.5690 
 21 O       -8.5300     2.6660    -0.8900 O.2   1 <1>  -0.5700 
 22 H       -4.9150     1.9760     2.3680 H     1 <1>   0.2700 
 23 H       -2.7020     3.5140    -0.3760 H     1 <1>   0.0800 
 24 H       -2.9510     3.8570     1.3170 H     1 <1>   0.0800 
 25 H       -4.3110     3.8520     0.2120 H     1 <1>   0.0800 
 26 H       -5.8360    -3.2590    -1.2240 H     1 <1>   0.0800 
 27 H       -4.4710    -4.7080     0.0330 H     1 <1>   0.0800 
 28 H       -2.8090    -4.2470     0.2730 H     1 <1>   0.0800 
 29 H       -3.4750    -4.2670    -1.3440 H     1 <1>   0.0800 
 30 H       -6.9730    -3.1500     0.7150 H     1 <1>   0.0800 
 31 H       -5.9940    -1.8720     1.3620 H     1 <1>   0.0800 
 32 H       -4.8450    -0.5120    -1.5280 H     1 <1>   0.0800 
 33 H       -5.6800    -1.5480    -2.6320 H     1 <1>   0.0800 
 34 H       -8.4280    -1.7360    -0.2730 H     1 <1>   0.0800 
 35 H       -7.6920    -0.7320    -2.0600 H     1 <1>   0.0800 
 36 H       -7.0950     0.0550     1.7260 H     1 <1>   0.0800 
 37 H       -8.6590    -0.7150     1.8030 H     1 <1>   0.0800 
 38 H       -6.7580     1.4330    -2.1670 H     1 <1>   0.0800 
 39 H       -5.9950     1.2830    -0.6130 H     1 <1>   0.0800 
 40 H       -9.3530     1.4250     1.0630 H     1 <1>   0.3700 
@<TRIPOS>BOND
  1   1   2  1   
  2   2   3  1   
  3   2   4  2   
  4   3   5  2   
  5   3   6  1   
  6   4   7  1   
  7   4   8  1   
  8   5   7  1   
  9   6   9  2   
 10   6  10  am  
 11   7  22  1   
 12   8  23  1   
 13   8  24  1   
 14   8  25  1   
 15  10  11  1   
 16  10  12  1   
 17  11  13  1   
 18  11  14  1   
 19  11  26  1   
 20  12  27  1   
 21  12  28  1   
 22  12  29  1   
 23  13  15  1   
 24  13  30  1   
 25  13  31  1   
 26  14  16  1   
 27  14  32  1   
 28  14  33  1   
 29  15  16  1   
 30  15  17  1   
 31  15  34  1   
 32  16  18  1   
 33  16  35  1   
 34  17  19  1   
 35  17  36  1   
 36  17  37  1   
 37  18  20  1   
 38  18  38  1   
 39  18  39  1   
 40  19  20  am  
 41  19  40  1   
 42  20  21  2   
@<TRIPOS>SUBSTRUCTURE
  1 ****   3 GROUP 4 **** **** 0

# MOE 2024.06 (io_trps.svl 2023.06)
