@<TRIPOS>MOLECULE
NONAME
53 57 1 0 0 
SMALL
USER_CHARGES


@<TRIPOS>ATOM
  1 O        0.4200    -0.2250     0.7390 O.3   1 <1>  -0.5600 
  2 C        1.6350    -0.6670     0.1690 C.3   1 <1>   0.4240 
  3 C       -0.7650    -0.6460     0.1470 C.3   1 <1>   0.1200 
  4 C        1.5350    -2.1430    -0.3160 C.ar  1 <1>  -0.1440 
  5 C        2.6520    -0.5320     1.3130 C.3   1 <1>  -0.1600 
  6 C        1.9780     0.3130    -0.9700 C.3   1 <1>  -0.1600 
  7 C       -0.8930    -2.1460     0.3640 C.3   1 <1>  -0.0160 
  8 C        2.6280    -2.8190    -0.8710 C.ar  1 <1>   0.0820 
  9 C        0.3320    -2.8380    -0.1960 C.ar  1 <1>  -0.1440 
 10 C        2.8130     0.9160     1.7800 C.3   1 <1>   0.2090 
 11 C        2.1180     1.7480    -0.4660 C.3   1 <1>   0.2090 
 12 O        3.8030    -2.1650    -1.0400 O.3   1 <1>  -0.3630 
 13 C        2.5140    -4.1480    -1.2680 C.ar  1 <1>  -0.1500 
 14 C        0.2270    -4.1630    -0.5880 C.ar  1 <1>  -0.1500 
 15 N        3.1250     1.8000     0.6250 N.pl3 1 <1>  -0.8380 
 16 C        5.0370    -2.8240    -0.8720 C.3   1 <1>   0.0400 
 17 C        1.3180    -4.8200    -1.1220 C.ar  1 <1>  -0.1500 
 18 C        4.4380     2.1440     0.3320 C.ar  1 <1>   0.4100 
 19 N        5.3540     1.2010     0.4450 N.ar  1 <1>  -0.3100 
 20 C        4.7530     3.4630    -0.0900 C.ar  1 <1>   0.0000 
 21 N        6.6150     1.4400     0.1050 N.ar  1 <1>  -0.3100 
 22 C        6.0800     3.7020    -0.4730 C.ar  1 <1>   0.0000 
 23 C        3.8360     4.5360    -0.1310 C.ar  1 <1>  -0.1500 
 24 C        6.9650     2.6140    -0.3400 C.ar  1 <1>   0.1670 
 25 C        6.4300     4.9910    -0.9410 C.ar  1 <1>  -0.1500 
 26 C        4.2000     5.7770    -0.5760 C.ar  1 <1>  -0.1500 
 27 C        8.4280     2.7750    -0.7170 C.3   1 <1>  -0.0970 
 28 C        5.5140     6.0040    -0.9940 C.ar  1 <1>  -0.1500 
 29 H       -0.7480    -0.4020    -0.9010 H     1 <1>   0.0800 
 30 H       -1.5760    -0.1240     0.6220 H     1 <1>   0.0800 
 31 H        3.6170    -0.8790     1.0070 H     1 <1>   0.0800 
 32 H        2.3400    -1.1470     2.1350 H     1 <1>   0.0800 
 33 H        1.2320     0.2600    -1.7380 H     1 <1>   0.0800 
 34 H        2.9110     0.0450    -1.4230 H     1 <1>   0.0800 
 35 H       -1.7810    -2.4990    -0.1290 H     1 <1>   0.0800 
 36 H       -0.9810    -2.3520     1.4150 H     1 <1>   0.0800 
 37 H        3.6030     0.9770     2.5090 H     1 <1>   0.0800 
 38 H        1.9030     1.2550     2.2450 H     1 <1>   0.0800 
 39 H        1.1730     2.1060    -0.0940 H     1 <1>   0.0800 
 40 H        2.4240     2.3830    -1.2800 H     1 <1>   0.0800 
 41 H        3.3480    -4.6640    -1.7010 H     1 <1>   0.1500 
 42 H       -0.7050    -4.6890    -0.4810 H     1 <1>   0.1500 
 43 H        5.8000    -2.0720    -0.7700 H     1 <1>   0.0800 
 44 H        5.2340    -3.4280    -1.7390 H     1 <1>   0.0800 
 45 H        4.9950    -3.4250     0.0190 H     1 <1>   0.0800 
 46 H        1.2330    -5.8480    -1.4270 H     1 <1>   0.1500 
 47 H        2.8300     4.3620     0.2060 H     1 <1>   0.1500 
 48 H        7.4380     5.1810    -1.2590 H     1 <1>   0.1500 
 49 H        3.4900     6.5850    -0.6070 H     1 <1>   0.1500 
 50 H        8.9640     1.8580    -0.5470 H     1 <1>   0.0800 
 51 H        8.8780     3.5460    -0.1180 H     1 <1>   0.0800 
 52 H        8.5130     3.0310    -1.7570 H     1 <1>   0.0800 
 53 H        5.7880     6.9830    -1.3490 H     1 <1>   0.1500 
@<TRIPOS>BOND
  1   1   2  1   
  2   1   3  1   
  3   2   4  1   
  4   2   5  1   
  5   2   6  1   
  6   3   7  1   
  7   3  29  1   
  8   3  30  1   
  9   4   8  ar  
 10   4   9  ar  
 11   5  10  1   
 12   5  31  1   
 13   5  32  1   
 14   6  11  1   
 15   6  33  1   
 16   6  34  1   
 17   7   9  1   
 18   7  35  1   
 19   7  36  1   
 20   8  12  1   
 21   8  13  ar  
 22   9  14  ar  
 23  10  15  1   
 24  10  37  1   
 25  10  38  1   
 26  11  15  1   
 27  11  39  1   
 28  11  40  1   
 29  12  16  1   
 30  13  17  ar  
 31  13  41  1   
 32  14  17  ar  
 33  14  42  1   
 34  15  18  1   
 35  16  43  1   
 36  16  44  1   
 37  16  45  1   
 38  17  46  1   
 39  18  19  ar  
 40  18  20  ar  
 41  19  21  ar  
 42  20  22  ar  
 43  20  23  ar  
 44  21  24  ar  
 45  22  24  ar  
 46  22  25  ar  
 47  23  26  ar  
 48  23  47  1   
 49  24  27  1   
 50  25  28  ar  
 51  25  48  1   
 52  26  28  ar  
 53  26  49  1   
 54  27  50  1   
 55  27  51  1   
 56  27  52  1   
 57  28  53  1   
@<TRIPOS>SUBSTRUCTURE
  1 ****   6 GROUP 4 **** **** 0

# MOE 2024.06 (io_trps.svl 2023.06)
