@<TRIPOS>MOLECULE
NONAME
34 35 1 0 0 
SMALL
USER_CHARGES


@<TRIPOS>ATOM
  1 CL       2.6160     0.2670    -3.4200 Cl    1 <1>  -0.1770 
  2 C        2.8190     0.3140    -1.6850 C.ar  1 <1>   0.1770 
  3 C        1.7810     0.7120    -0.8590 C.ar  1 <1>   0.1770 
  4 C        4.0410    -0.0510    -1.1470 C.ar  1 <1>  -0.1500 
  5 CL       0.2340     1.1800    -1.5240 Cl    1 <1>  -0.1770 
  6 C        1.9570     0.7480     0.5130 C.ar  1 <1>  -0.1500 
  7 C        4.2260    -0.0180     0.2290 C.ar  1 <1>  -0.1440 
  8 C        3.1810     0.3820     1.0530 C.ar  1 <1>  -0.1500 
  9 C        5.5750    -0.4080     0.8320 C.3   1 <1>   0.0450 
 10 C        6.5310     0.7650     0.9890 C.2   1 <1>   0.5690 
 11 O        7.6360     0.5350     1.4050 O.2   1 <1>  -0.5700 
 12 N        6.0920     2.0140     0.6500 N.am  1 <1>  -0.4940 
 13 C        6.7370     3.2290     0.7190 C.2   1 <1>   0.4420 
 14 S        5.8510     4.6020     0.1460 S.3   1 <1>  -0.0800 
 15 N        7.9070     3.5450     1.1410 N.2   1 <1>  -0.3380 
 16 C        7.2260     5.5710     0.5610 C.2   1 <1>   0.1980 
 17 N        8.1790     4.8830     1.0490 N.2   1 <1>  -0.3380 
 18 C        7.1760     7.0740     0.3080 C.3   1 <1>   0.3800 
 19 O        5.9580     7.5850     0.7750 O.3   1 <1>  -0.5600 
 20 C        7.2950     7.4000    -1.1830 C.3   1 <1>  -0.2400 
 21 C        5.9930     8.9040     1.2240 C.3   1 <1>   0.0400 
 22 H        4.8320    -0.3580    -1.8100 H     1 <1>   0.1500 
 23 H        1.1440     1.0570     1.1460 H     1 <1>   0.1500 
 24 H        3.3110     0.4090     2.1230 H     1 <1>   0.1500 
 25 H        6.0510    -1.1470     0.2140 H     1 <1>   0.0800 
 26 H        5.4280    -0.8500     1.8000 H     1 <1>   0.0800 
 27 H        5.1380     2.0550     0.2980 H     1 <1>   0.3700 
 28 H        7.9820     7.5320     0.8570 H     1 <1>   0.0800 
 29 H        6.4560     6.9950    -1.7200 H     1 <1>   0.0800 
 30 H        8.1960     6.9620    -1.5740 H     1 <1>   0.0800 
 31 H        7.3410     8.4610    -1.3370 H     1 <1>   0.0800 
 32 H        5.0030     9.1710     1.5490 H     1 <1>   0.0800 
 33 H        6.2950     9.5530     0.4210 H     1 <1>   0.0800 
 34 H        6.6760     8.9790     2.0530 H     1 <1>   0.0800 
@<TRIPOS>BOND
  1   1   2  1   
  2   2   3  ar  
  3   2   4  ar  
  4   3   5  1   
  5   3   6  ar  
  6   4   7  ar  
  7   4  22  1   
  8   6   8  ar  
  9   6  23  1   
 10   7   8  ar  
 11   7   9  1   
 12   8  24  1   
 13   9  10  1   
 14   9  25  1   
 15   9  26  1   
 16  10  11  2   
 17  10  12  am  
 18  12  13  1   
 19  12  27  1   
 20  13  14  1   
 21  13  15  2   
 22  14  16  1   
 23  15  17  1   
 24  16  17  2   
 25  16  18  1   
 26  18  19  1   
 27  18  20  1   
 28  18  28  1   
 29  19  21  1   
 30  20  29  1   
 31  20  30  1   
 32  20  31  1   
 33  21  32  1   
 34  21  33  1   
 35  21  34  1   
@<TRIPOS>SUBSTRUCTURE
  1 ****  12 GROUP 4 **** **** 0

# MOE 2024.06 (io_trps.svl 2023.06)
