@<TRIPOS>MOLECULE
NONAME
51 53 1 0 0 
SMALL
USER_CHARGES


@<TRIPOS>ATOM
  1 CL      -2.4170    -2.6880    -4.6450 Cl    1 <1>  -0.1770 
  2 C       -2.7590    -3.6540    -3.2340 C.ar  1 <1>   0.1770 
  3 C       -4.0380    -3.6750    -2.7140 C.ar  1 <1>  -0.1500 
  4 C       -1.7450    -4.3870    -2.6490 C.ar  1 <1>  -0.1500 
  5 C       -4.3020    -4.4410    -1.5930 C.ar  1 <1>  -0.1500 
  6 C       -2.0230    -5.1520    -1.5300 C.ar  1 <1>  -0.1500 
  7 C       -3.3050    -5.2010    -0.9730 C.ar  1 <1>   0.0530 
  8 C       -3.5690    -6.0030     0.2010 C.2   1 <1>   0.0870 
  9 O       -2.5720    -6.4070     0.9520 O.3   1 <1>  -0.0190 
 10 C       -4.7030    -6.4990     0.7610 C.2   1 <1>  -0.2330 
 11 N       -2.9580    -7.1270     1.9710 N.2   1 <1>  -0.4100 
 12 C       -4.2400    -7.1800     1.8930 C.2   1 <1>   0.3720 
 13 C       -6.0390    -6.4620     0.2590 C.2   1 <1>   1.0330 
 14 N       -4.9900    -7.8570     2.8630 N.pl3 1 <1>  -0.8210 
 15 O       -7.0090    -6.0850     0.9360 O.co2 1 <1>  -0.9000 
 16 O       -6.2730    -6.8830    -0.8900 O.co2 1 <1>  -0.9000 
 17 C       -5.2870    -9.3020     2.6700 C.3   1 <1>   0.2090 
 18 C       -6.0290    -7.0520     3.5660 C.3   1 <1>   0.1290 
 19 C       -6.2740    -9.5220     1.5060 C.3   1 <1>  -0.0800 
 20 C       -7.3020   -10.6320     1.7450 C.3   1 <1>  -0.1600 
 21 C       -5.5660    -9.8050     0.1720 C.3   1 <1>  -0.1600 
 22 C       -8.3140   -10.6330     0.5930 C.3   1 <1>   0.3430 
 23 C       -6.5910    -9.7920    -0.9580 C.3   1 <1>   0.3430 
 24 N       -7.6250   -10.8460    -0.7210 N.4   1 <1>  -0.9590 
 25 C       -8.5780   -10.8130    -1.8740 C.3   1 <1>   0.3430 
 26 C       -9.6100   -11.9510    -1.8250 C.3   1 <1>   0.1200 
 27 O      -10.2800   -12.0150    -3.0360 O.3   1 <1>  -0.6800 
 28 H       -4.8180    -3.1020    -3.1810 H     1 <1>   0.1500 
 29 H       -0.7550    -4.3580    -3.0670 H     1 <1>   0.1500 
 30 H       -5.3020    -4.4480    -1.1980 H     1 <1>   0.1500 
 31 H       -1.2310    -5.7240    -1.0780 H     1 <1>   0.1500 
 32 H       -5.7050    -9.6810     3.5860 H     1 <1>   0.0800 
 33 H       -4.3660    -9.8290     2.4880 H     1 <1>   0.0800 
 34 H       -5.8530    -6.0010     3.4050 H     1 <1>   0.0800 
 35 H       -5.9870    -7.2500     4.6210 H     1 <1>   0.0800 
 36 H       -7.0120    -7.2870     3.1970 H     1 <1>   0.0800 
 37 H       -6.8490    -8.6210     1.4030 H     1 <1>   0.0800 
 38 H       -7.8290   -10.4370     2.6630 H     1 <1>   0.0800 
 39 H       -6.8250   -11.5920     1.8300 H     1 <1>   0.0800 
 40 H       -5.0480   -10.7470     0.1990 H     1 <1>   0.0800 
 41 H       -4.8340    -9.0470    -0.0330 H     1 <1>   0.0800 
 42 H       -8.8220    -9.6800     0.5780 H     1 <1>   0.0800 
 43 H       -9.0450   -11.4060     0.7610 H     1 <1>   0.0800 
 44 H       -6.0930    -9.9510    -1.9000 H     1 <1>   0.0800 
 45 H       -7.0740    -8.8300    -0.9960 H     1 <1>   0.0800 
 46 H       -7.1350   -11.7470    -0.7000 H     1 <1>   0.4500 
 47 H       -8.0200   -10.9070    -2.7910 H     1 <1>   0.0800 
 48 H       -9.0910    -9.8640    -1.8880 H     1 <1>   0.0800 
 49 H      -10.3360   -11.8040    -1.0450 H     1 <1>   0.0800 
 50 H       -9.1140   -12.8970    -1.6910 H     1 <1>   0.0800 
 51 H      -11.0220   -11.3760    -3.0900 H     1 <1>   0.4000 
@<TRIPOS>BOND
  1   1   2  1   
  2   2   3  ar  
  3   2   4  ar  
  4   3   5  ar  
  5   3  28  1   
  6   4   6  ar  
  7   4  29  1   
  8   5   7  ar  
  9   5  30  1   
 10   6   7  ar  
 11   6  31  1   
 12   7   8  1   
 13   8   9  1   
 14   8  10  2   
 15   9  11  1   
 16  10  12  1   
 17  10  13  1   
 18  11  12  2   
 19  12  14  1   
 20  13  15  ar  
 21  13  16  ar  
 22  14  17  1   
 23  14  18  1   
 24  17  19  1   
 25  17  32  1   
 26  17  33  1   
 27  18  34  1   
 28  18  35  1   
 29  18  36  1   
 30  19  20  1   
 31  19  21  1   
 32  19  37  1   
 33  20  22  1   
 34  20  38  1   
 35  20  39  1   
 36  21  23  1   
 37  21  40  1   
 38  21  41  1   
 39  22  24  1   
 40  22  42  1   
 41  22  43  1   
 42  23  24  1   
 43  23  44  1   
 44  23  45  1   
 45  24  25  1   
 46  24  46  1   
 47  25  26  1   
 48  25  47  1   
 49  25  48  1   
 50  26  27  1   
 51  26  49  1   
 52  26  50  1   
 53  27  51  1   
@<TRIPOS>SUBSTRUCTURE
  1 ****  16 GROUP 4 **** **** 0

# MOE 2024.06 (io_trps.svl 2023.06)
