@<TRIPOS>MOLECULE
NONAME
44 47 1 0 0 
SMALL
USER_CHARGES


@<TRIPOS>ATOM
  1 F       -1.1480    -0.5170    -0.6620 F     1 <1>  -0.3400 
  2 C       -2.1110    -1.2760    -1.1650 C.3   1 <1>   1.2400 
  3 F       -2.2180    -0.9940    -2.4550 F     1 <1>  -0.3400 
  4 O       -1.7880    -2.6490    -0.9950 O.3   1 <1>  -0.3630 
  5 O       -3.3380    -1.0090    -0.5050 O.3   1 <1>  -0.3630 
  6 C       -2.7890    -3.1520    -0.2650 C.ar  1 <1>   0.0820 
  7 C       -3.7080    -2.1800     0.0260 C.ar  1 <1>   0.0820 
  8 C       -2.9480    -4.4510     0.1740 C.ar  1 <1>  -0.1500 
  9 C       -4.8330    -2.4570     0.7740 C.ar  1 <1>  -0.1500 
 10 C       -4.0810    -4.7560     0.9250 C.ar  1 <1>  -0.1440 
 11 C       -5.0110    -3.7590     1.2230 C.ar  1 <1>  -0.1500 
 12 C       -4.3130    -6.1710     1.4270 C.3   1 <1>   0.4870 
 13 N       -4.7040    -7.0490     0.2890 N.4   1 <1>  -0.9590 
 14 C       -5.9860    -6.5900    -0.3370 C.3   1 <1>   0.3430 
 15 C       -4.9410    -8.4460     0.7760 C.3   1 <1>   0.3430 
 16 C       -7.0770    -7.4830     0.2550 C.3   1 <1>   0.2000 
 17 C       -6.3770    -8.8320     0.3830 C.3   1 <1>  -0.0800 
 18 O       -7.3760    -7.0220     1.5340 O.3   1 <1>  -0.6800 
 19 C       -6.4400    -9.6240    -0.9410 C.3   1 <1>  -0.0160 
 20 C       -5.6880   -10.9420    -0.8570 C.ar  1 <1>   0.1670 
 21 N       -4.3780   -10.8740    -1.0320 N.ar  1 <1>  -0.6200 
 22 C       -6.3810   -12.1190    -0.6130 C.ar  1 <1>  -0.1500 
 23 C       -3.7320   -12.0300    -0.9750 C.ar  1 <1>   0.1600 
 24 C       -5.6940   -13.3120    -0.5480 C.ar  1 <1>  -0.1500 
 25 C       -4.3310   -13.2550    -0.7370 C.ar  1 <1>  -0.1500 
 26 H       -2.1990    -5.1850    -0.0690 H     1 <1>   0.1500 
 27 H       -5.5420    -1.6780     0.9970 H     1 <1>   0.1500 
 28 H       -5.8860    -3.9860     1.8120 H     1 <1>   0.1500 
 29 H       -5.0960    -6.1660     2.1690 H     1 <1>   0.0800 
 30 H       -3.4110    -6.5400     1.8870 H     1 <1>   0.0800 
 31 H       -3.9520    -7.0370    -0.4120 H     1 <1>   0.4500 
 32 H       -6.1920    -5.5490    -0.1510 H     1 <1>   0.0800 
 33 H       -5.9400    -6.7510    -1.4010 H     1 <1>   0.0800 
 34 H       -4.2120    -9.1250     0.3710 H     1 <1>   0.0800 
 35 H       -4.8640    -8.4730     1.8510 H     1 <1>   0.0800 
 36 H       -7.9790    -7.4970    -0.3350 H     1 <1>   0.0800 
 37 H       -6.8240    -9.4350     1.1550 H     1 <1>   0.0800 
 38 H       -8.1870    -7.4490     1.8850 H     1 <1>   0.4000 
 39 H       -6.0230    -9.0530    -1.7520 H     1 <1>   0.0800 
 40 H       -7.4670    -9.8250    -1.1890 H     1 <1>   0.0800 
 41 H       -7.4480   -12.1130    -0.4790 H     1 <1>   0.1500 
 42 H       -2.6660   -12.0040    -1.1270 H     1 <1>   0.1500 
 43 H       -6.1980   -14.2450    -0.3610 H     1 <1>   0.1500 
 44 H       -3.7370   -14.1510    -0.7040 H     1 <1>   0.1500 
@<TRIPOS>BOND
  1   1   2  1   
  2   2   3  1   
  3   2   4  1   
  4   2   5  1   
  5   4   6  1   
  6   5   7  1   
  7   6   7  ar  
  8   6   8  ar  
  9   7   9  ar  
 10   8  10  ar  
 11   8  26  1   
 12   9  11  ar  
 13   9  27  1   
 14  10  11  ar  
 15  10  12  1   
 16  11  28  1   
 17  12  13  1   
 18  12  29  1   
 19  12  30  1   
 20  13  14  1   
 21  13  15  1   
 22  13  31  1   
 23  14  16  1   
 24  14  32  1   
 25  14  33  1   
 26  15  17  1   
 27  15  34  1   
 28  15  35  1   
 29  16  17  1   
 30  16  18  1   
 31  16  36  1   
 32  17  19  1   
 33  17  37  1   
 34  18  38  1   
 35  19  20  1   
 36  19  39  1   
 37  19  40  1   
 38  20  21  ar  
 39  20  22  ar  
 40  21  23  ar  
 41  22  24  ar  
 42  22  41  1   
 43  23  25  ar  
 44  23  42  1   
 45  24  25  ar  
 46  24  43  1   
 47  25  44  1   
@<TRIPOS>SUBSTRUCTURE
  1 ****  13 GROUP 4 **** **** 0

# MOE 2024.06 (io_trps.svl 2023.06)
