@<TRIPOS>MOLECULE
NONAME
57 59 1 0 0 
SMALL
USER_CHARGES


@<TRIPOS>ATOM
  1 S       -2.2270     1.3340     0.9010 S.3   1 <1>  -0.4600 
  2 C       -1.3580     2.2460    -0.4100 C.3   1 <1>   0.2140 
  3 C       -1.2260    -0.1810     1.1520 C.3   1 <1>   0.1310 
  4 C        0.1390     2.0080    -0.2930 C.ar  1 <1>  -0.1440 
  5 C       -2.0800    -1.3410     1.6500 C.2   1 <1>   0.5690 
  6 C        0.8170     1.3240    -1.2900 C.ar  1 <1>  -0.1500 
  7 C        0.8340     2.4630     0.8150 C.ar  1 <1>  -0.1500 
  8 O       -1.8540    -1.7720     2.7590 O.2   1 <1>  -0.5700 
  9 N       -3.0340    -1.9250     0.8510 N.am  1 <1>  -0.6600 
 10 C        2.1770     1.0870    -1.1800 C.ar  1 <1>  -0.1430 
 11 C        2.1940     2.2310     0.9370 C.ar  1 <1>  -0.1430 
 12 C       -3.9010    -3.0270     1.3580 C.3   1 <1>   0.1400 
 13 C       -3.2000    -1.6830    -0.6100 C.3   1 <1>   0.1400 
 14 C        2.8590     1.5430    -0.0640 C.ar  1 <1>  -0.1500 
 15 C        2.9200     0.3390    -2.2720 C.3   1 <1>  -0.0970 
 16 C        2.9460     2.7280     2.1580 C.3   1 <1>  -0.0970 
 17 C       -3.4950    -4.3390     0.6500 C.3   1 <1>   0.4230 
 18 C       -2.8160    -2.9720    -1.3530 C.3   1 <1>  -0.1600 
 19 N       -4.2210    -5.5610     1.1380 N.4   1 <1>  -0.9590 
 20 C       -3.6610    -4.1910    -0.8800 C.3   1 <1>  -0.1060 
 21 C       -3.6960    -6.8050     0.5200 C.3   1 <1>   0.3430 
 22 C       -4.3620    -5.6710     2.6140 C.3   1 <1>   0.2630 
 23 C       -5.1520    -3.9690    -1.2020 C.2   1 <1>   0.9060 
 24 C       -3.1360    -5.4670    -1.5790 C.3   1 <1>  -0.1600 
 25 C       -3.7970    -6.7310    -1.0060 C.3   1 <1>  -0.1600 
 26 O       -6.0090    -4.4750    -0.4600 O.co2 1 <1>  -0.9000 
 27 O       -5.4650    -3.2950    -2.1820 O.co2 1 <1>  -0.9000 
 28 H       -1.7450     1.8930    -1.3490 H     1 <1>   0.0800 
 29 H       -1.5990     3.2870    -0.2870 H     1 <1>   0.0800 
 30 H       -0.7630    -0.4370     0.2190 H     1 <1>   0.0800 
 31 H       -0.4660     0.0620     1.8720 H     1 <1>   0.0800 
 32 H        0.2870     0.9710    -2.1570 H     1 <1>   0.1500 
 33 H        0.3110     2.9970     1.5900 H     1 <1>   0.1500 
 34 H       -3.7790    -3.1200     2.4210 H     1 <1>   0.0800 
 35 H       -4.9310    -2.7850     1.1570 H     1 <1>   0.0800 
 36 H       -4.2260    -1.4230    -0.8160 H     1 <1>   0.0800 
 37 H       -2.5860    -0.8700    -0.9500 H     1 <1>   0.0800 
 38 H        3.9160     1.3650     0.0250 H     1 <1>   0.1500 
 39 H        3.7160    -0.2470    -1.8500 H     1 <1>   0.0800 
 40 H        3.3380     1.0410    -2.9710 H     1 <1>   0.0800 
 41 H        2.2550    -0.3220    -2.7990 H     1 <1>   0.0800 
 42 H        3.7850     2.0890     2.3690 H     1 <1>   0.0800 
 43 H        2.3020     2.7370     3.0180 H     1 <1>   0.0800 
 44 H        3.3050     3.7260     1.9810 H     1 <1>   0.0800 
 45 H       -2.4480    -4.4800     0.8550 H     1 <1>   0.0800 
 46 H       -2.9680    -2.8160    -2.4080 H     1 <1>   0.0800 
 47 H       -1.7670    -3.1570    -1.2040 H     1 <1>   0.0800 
 48 H       -5.1760    -5.4010     0.7120 H     1 <1>   0.4500 
 49 H       -2.6670    -6.9420     0.8060 H     1 <1>   0.0800 
 50 H       -4.2640    -7.6520     0.8690 H     1 <1>   0.0800 
 51 H       -3.3910    -5.7160     3.0800 H     1 <1>   0.0800 
 52 H       -4.9150    -6.5600     2.8680 H     1 <1>   0.0800 
 53 H       -4.8970    -4.8190     3.0010 H     1 <1>   0.0800 
 54 H       -3.3420    -5.4040    -2.6360 H     1 <1>   0.0800 
 55 H       -2.0700    -5.5410    -1.4540 H     1 <1>   0.0800 
 56 H       -3.3320    -7.6020    -1.4330 H     1 <1>   0.0800 
 57 H       -4.8360    -6.7580    -1.2890 H     1 <1>   0.0800 
@<TRIPOS>BOND
  1   1   2  1   
  2   1   3  1   
  3   2   4  1   
  4   2  28  1   
  5   2  29  1   
  6   3   5  1   
  7   3  30  1   
  8   3  31  1   
  9   4   6  ar  
 10   4   7  ar  
 11   5   8  2   
 12   5   9  am  
 13   6  10  ar  
 14   6  32  1   
 15   7  11  ar  
 16   7  33  1   
 17   9  12  1   
 18   9  13  1   
 19  10  14  ar  
 20  10  15  1   
 21  11  14  ar  
 22  11  16  1   
 23  12  17  1   
 24  12  34  1   
 25  12  35  1   
 26  13  18  1   
 27  13  36  1   
 28  13  37  1   
 29  14  38  1   
 30  15  39  1   
 31  15  40  1   
 32  15  41  1   
 33  16  42  1   
 34  16  43  1   
 35  16  44  1   
 36  17  19  1   
 37  17  20  1   
 38  17  45  1   
 39  18  20  1   
 40  18  46  1   
 41  18  47  1   
 42  19  21  1   
 43  19  22  1   
 44  19  48  1   
 45  20  23  1   
 46  20  24  1   
 47  21  25  1   
 48  21  49  1   
 49  21  50  1   
 50  22  51  1   
 51  22  52  1   
 52  22  53  1   
 53  23  26  ar  
 54  23  27  ar  
 55  24  25  1   
 56  24  54  1   
 57  24  55  1   
 58  25  56  1   
 59  25  57  1   
@<TRIPOS>SUBSTRUCTURE
  1 ****   9 GROUP 4 **** **** 0

# MOE 2024.06 (io_trps.svl 2023.06)
