@<TRIPOS>MOLECULE
NONAME
48 50 1 0 0 
SMALL
USER_CHARGES


@<TRIPOS>ATOM
  1 O        4.1710    -1.6960    -1.9940 O.2   1 <1>  -0.5700 
  2 C        3.2240    -1.5780    -1.2370 C.2   1 <1>   0.5440 
  3 N        3.0850    -0.3490    -0.6440 N.am  1 <1>  -0.6600 
  4 C        2.3440    -2.6900    -0.9190 C.ar  1 <1>   0.0860 
  5 C        3.6640    -0.1870     0.7350 C.3   1 <1>   0.2200 
  6 C        2.9500     0.8510    -1.5270 C.3   1 <1>   0.1400 
  7 C        1.1940    -2.5200    -0.1490 C.ar  1 <1>  -0.1500 
  8 C        2.6140    -3.9820    -1.3690 C.ar  1 <1>  -0.1500 
  9 C        3.0500     0.9900     1.5100 C.3   1 <1>   0.1200 
 10 C        5.2100    -0.0640     0.6800 C.3   1 <1>   0.3430 
 11 C        3.8800     2.0280    -1.1760 C.3   1 <1>  -0.0800 
 12 C        0.3560    -3.5690     0.1810 C.ar  1 <1>   0.0830 
 13 C        1.7940    -5.0490    -1.0500 C.ar  1 <1>  -0.1500 
 14 O        3.7370     2.1740     1.2330 O.3   1 <1>  -0.5600 
 15 N        5.7210     0.3040    -0.6870 N.4   1 <1>  -0.9590 
 16 C        3.3880     2.8110     0.0510 C.3   1 <1>   0.1200 
 17 C        5.3880     1.7020    -1.1040 C.3   1 <1>   0.3430 
 18 O       -0.7160    -3.2100     0.9420 O.3   1 <1>  -0.3630 
 19 C        0.6590    -4.8680    -0.2640 C.ar  1 <1>   0.0830 
 20 C        7.1720     0.0100    -0.8340 C.3   1 <1>   0.2630 
 21 C       -1.9240    -3.9390     0.9200 C.3   1 <1>   0.0400 
 22 O       -0.1350    -5.9170     0.0830 O.3   1 <1>  -0.3630 
 23 C        0.1480    -7.2480    -0.2900 C.3   1 <1>   0.0400 
 24 H        3.4250    -1.0740     1.2960 H     1 <1>   0.0800 
 25 H        3.1390     0.5560    -2.5470 H     1 <1>   0.0800 
 26 H        1.9270     1.1840    -1.4880 H     1 <1>   0.0800 
 27 H        0.9280    -1.5420     0.2050 H     1 <1>   0.1500 
 28 H        3.4850    -4.1540    -1.9790 H     1 <1>   0.1500 
 29 H        3.1620     0.8140     2.5650 H     1 <1>   0.0800 
 30 H        2.0000     1.1070     1.2990 H     1 <1>   0.0800 
 31 H        5.6220    -1.0190     0.9590 H     1 <1>   0.0800 
 32 H        5.5430     0.6560     1.4090 H     1 <1>   0.0800 
 33 H        3.7750     2.7230    -1.9900 H     1 <1>   0.0800 
 34 H        2.0630    -6.0180    -1.4260 H     1 <1>   0.1500 
 35 H        5.1920    -0.3310    -1.3300 H     1 <1>   0.4500 
 36 H        2.3200     2.9580     0.0310 H     1 <1>   0.0800 
 37 H        3.8550     3.7820     0.0740 H     1 <1>   0.0800 
 38 H        5.8620     2.3990    -0.4320 H     1 <1>   0.0800 
 39 H        5.8050     1.8650    -2.0850 H     1 <1>   0.0800 
 40 H        7.7500     0.6270    -0.1660 H     1 <1>   0.0800 
 41 H        7.4900     0.2000    -1.8470 H     1 <1>   0.0800 
 42 H        7.3660    -1.0260    -0.6080 H     1 <1>   0.0800 
 43 H       -2.6990    -3.3170     1.3310 H     1 <1>   0.0800 
 44 H       -1.8090    -4.8210     1.5250 H     1 <1>   0.0800 
 45 H       -2.1610    -4.1990    -0.0960 H     1 <1>   0.0800 
 46 H       -0.6150    -7.8810     0.1260 H     1 <1>   0.0800 
 47 H        1.1080    -7.5270     0.1070 H     1 <1>   0.0800 
 48 H        0.1360    -7.3210    -1.3630 H     1 <1>   0.0800 
@<TRIPOS>BOND
  1   1   2  2   
  2   2   3  am  
  3   2   4  1   
  4   3   5  1   
  5   3   6  1   
  6   4   7  ar  
  7   4   8  ar  
  8   5   9  1   
  9   5  10  1   
 10   5  24  1   
 11   6  11  1   
 12   6  25  1   
 13   6  26  1   
 14   7  12  ar  
 15   7  27  1   
 16   8  13  ar  
 17   8  28  1   
 18   9  14  1   
 19   9  29  1   
 20   9  30  1   
 21  10  15  1   
 22  10  31  1   
 23  10  32  1   
 24  11  16  1   
 25  11  17  1   
 26  11  33  1   
 27  12  18  1   
 28  12  19  ar  
 29  13  19  ar  
 30  13  34  1   
 31  14  16  1   
 32  15  17  1   
 33  15  20  1   
 34  15  35  1   
 35  16  36  1   
 36  16  37  1   
 37  17  38  1   
 38  17  39  1   
 39  18  21  1   
 40  19  22  1   
 41  20  40  1   
 42  20  41  1   
 43  20  42  1   
 44  21  43  1   
 45  21  44  1   
 46  21  45  1   
 47  22  23  1   
 48  23  46  1   
 49  23  47  1   
 50  23  48  1   
@<TRIPOS>SUBSTRUCTURE
  1 ****   2 GROUP 4 **** **** 0

# MOE 2024.06 (io_trps.svl 2023.06)
