@<TRIPOS>MOLECULE
NONAME
52 53 1 0 0 
SMALL
USER_CHARGES


@<TRIPOS>ATOM
  1 CL      -4.0650    -0.2210     2.6290 Cl    1 <1>  -0.1770 
  2 C       -3.4710    -1.2530     1.3540 C.ar  1 <1>   0.1770 
  3 C       -3.6020    -2.6240     1.4780 C.ar  1 <1>  -0.1500 
  4 C       -2.8810    -0.6850     0.2410 C.ar  1 <1>  -0.1500 
  5 C       -3.1330    -3.4500     0.4680 C.ar  1 <1>  -0.1440 
  6 C       -2.4130    -1.5090    -0.7690 C.ar  1 <1>  -0.1500 
  7 C       -2.5400    -2.8840    -0.6530 C.ar  1 <1>  -0.1500 
  8 C       -3.2710    -4.9600     0.5800 C.3   1 <1>  -0.0160 
  9 C       -4.5340    -5.4320    -0.1370 C.3   1 <1>   0.1400 
 10 N       -4.6770    -6.8970     0.0080 N.am  1 <1>  -0.7300 
 11 C       -4.4030    -7.8250    -0.9450 C.2   1 <1>   0.5690 
 12 O       -3.9750    -7.5210    -2.0330 O.2   1 <1>  -0.5700 
 13 C       -4.6420    -9.3020    -0.6140 C.3   1 <1>   0.1710 
 14 N       -5.6750    -9.5470     0.4390 N.3   1 <1>  -0.8100 
 15 C       -7.0320    -9.2000    -0.0050 C.3   1 <1>   0.1100 
 16 C       -5.7380   -10.9590     0.8450 C.3   1 <1>   0.1100 
 17 C       -7.9340    -9.9300     0.9810 C.3   1 <1>   0.2000 
 18 C       -7.2080   -11.2570     1.2050 C.3   1 <1>  -0.0800 
 19 O       -7.9040    -9.2280     2.1700 O.3   1 <1>  -0.6800 
 20 C       -7.8150   -12.3650     0.3220 C.3   1 <1>  -0.0550 
 21 S       -7.1280   -13.9940     0.6290 S.o2  1 <1>   1.3330 
 22 O       -7.4010   -14.3400     2.0050 O.2   1 <1>  -0.6500 
 23 O       -5.7710   -14.0430     0.1320 O.2   1 <1>  -0.6500 
 24 N       -8.0800   -14.9860    -0.3670 N.am  1 <1>  -0.8490 
 25 C       -8.2500   -16.3340     0.1850 C.3   1 <1>   0.1160 
 26 C       -7.5920   -15.0710    -1.7480 C.3   1 <1>   0.1160 
 27 H       -4.0660    -3.0290     2.3580 H     1 <1>   0.1500 
 28 H       -2.7910     0.3840     0.1690 H     1 <1>   0.1500 
 29 H       -1.9510    -1.0830    -1.6430 H     1 <1>   0.1500 
 30 H       -2.1740    -3.5170    -1.4450 H     1 <1>   0.1500 
 31 H       -3.3140    -5.2440     1.6160 H     1 <1>   0.0800 
 32 H       -2.4130    -5.4330     0.1350 H     1 <1>   0.0800 
 33 H       -4.4720    -5.1750    -1.1820 H     1 <1>   0.0800 
 34 H       -5.4000    -4.9450     0.2780 H     1 <1>   0.0800 
 35 H       -5.0730    -7.2550     0.8830 H     1 <1>   0.3700 
 36 H       -3.7040    -9.7080    -0.2810 H     1 <1>   0.0800 
 37 H       -4.9160    -9.8130    -1.5200 H     1 <1>   0.0800 
 38 H       -7.2030    -8.1370     0.0080 H     1 <1>   0.0800 
 39 H       -7.2050    -9.5770    -0.9990 H     1 <1>   0.0800 
 40 H       -5.4050   -11.5890     0.0370 H     1 <1>   0.0800 
 41 H       -5.0940   -11.1230     1.6940 H     1 <1>   0.0800 
 42 H       -8.9570   -10.0200     0.6570 H     1 <1>   0.0800 
 43 H       -7.2900   -11.5630     2.2350 H     1 <1>   0.0800 
 44 H       -6.9610    -9.0610     2.3730 H     1 <1>   0.4000 
 45 H       -7.6850   -12.1120    -0.7110 H     1 <1>   0.0800 
 46 H       -8.8690   -12.4110     0.5170 H     1 <1>   0.0800 
 47 H       -8.8690   -16.9290    -0.4640 H     1 <1>   0.0800 
 48 H       -8.7300   -16.2800     1.1480 H     1 <1>   0.0800 
 49 H       -7.2920   -16.8140     0.3020 H     1 <1>   0.0800 
 50 H       -8.2840   -15.6330    -2.3510 H     1 <1>   0.0800 
 51 H       -6.6280   -15.5530    -1.7780 H     1 <1>   0.0800 
 52 H       -7.4970   -14.0850    -2.1700 H     1 <1>   0.0800 
@<TRIPOS>BOND
  1   1   2  1   
  2   2   3  ar  
  3   2   4  ar  
  4   3   5  ar  
  5   3  27  1   
  6   4   6  ar  
  7   4  28  1   
  8   5   7  ar  
  9   5   8  1   
 10   6   7  ar  
 11   6  29  1   
 12   7  30  1   
 13   8   9  1   
 14   8  31  1   
 15   8  32  1   
 16   9  10  1   
 17   9  33  1   
 18   9  34  1   
 19  10  11  am  
 20  10  35  1   
 21  11  12  2   
 22  11  13  1   
 23  13  14  1   
 24  13  36  1   
 25  13  37  1   
 26  14  15  1   
 27  14  16  1   
 28  15  17  1   
 29  15  38  1   
 30  15  39  1   
 31  16  18  1   
 32  16  40  1   
 33  16  41  1   
 34  17  18  1   
 35  17  19  1   
 36  17  42  1   
 37  18  20  1   
 38  18  43  1   
 39  19  44  1   
 40  20  21  1   
 41  20  45  1   
 42  20  46  1   
 43  21  22  2   
 44  21  23  2   
 45  21  24  am  
 46  24  25  1   
 47  24  26  1   
 48  25  47  1   
 49  25  48  1   
 50  25  49  1   
 51  26  50  1   
 52  26  51  1   
 53  26  52  1   
@<TRIPOS>SUBSTRUCTURE
  1 ****  14 GROUP 4 **** **** 0

# MOE 2024.06 (io_trps.svl 2023.06)
