@<TRIPOS>MOLECULE
NONAME
46 48 1 0 0 
SMALL
USER_CHARGES


@<TRIPOS>ATOM
  1 O       -0.0570     1.4400     1.8300 O.2   1 <1>  -0.5700 
  2 C       -0.1830     2.5270     1.3300 C.2   1 <1>   0.5690 
  3 N       -1.3590     3.1870     1.3960 N.am  1 <1>  -0.7300 
  4 C        0.9810     3.1740     0.5800 C.3   1 <1>   0.1810 
  5 C       -1.6130     4.5020     0.7560 C.3   1 <1>   0.3640 
  6 O        0.8570     4.5780     0.5160 O.3   1 <1>  -0.5600 
  7 C       -2.8230     4.3500    -0.1620 C.ar  1 <1>  -0.1440 
  8 C       -0.3780     5.0490    -0.0200 C.3   1 <1>   0.2610 
  9 C       -2.9370     3.2690    -1.0290 C.ar  1 <1>   0.1600 
 10 C       -3.8330     5.2930    -0.1540 C.ar  1 <1>  -0.1500 
 11 C       -0.3840     6.5850    -0.0180 C.2   1 <1>   0.5690 
 12 N       -3.9420     3.0650    -1.8650 N.ar  1 <1>  -0.6200 
 13 C       -4.8890     5.0950    -1.0160 C.ar  1 <1>  -0.1500 
 14 O       -1.3890     7.1930    -0.2960 O.2   1 <1>  -0.5700 
 15 N        0.7620     7.2490     0.2980 N.am  1 <1>  -0.7300 
 16 C       -4.8940     3.9830    -1.8390 C.ar  1 <1>   0.1600 
 17 C        0.9130     8.7080     0.3370 C.3   1 <1>   0.2200 
 18 C        1.5950     9.1730    -0.9470 C.3   1 <1>  -0.1600 
 19 C        1.7310     9.1040     1.5630 C.3   1 <1>  -0.1600 
 20 C        1.8420    10.6780    -0.9040 C.3   1 <1>   0.3430 
 21 C        1.9800    10.6110     1.5720 C.3   1 <1>   0.3430 
 22 N        2.6520    11.0250     0.3040 N.4   1 <1>  -0.9590 
 23 C        2.9670    12.4860     0.3250 C.3   1 <1>   0.2630 
 24 H       -2.1400     2.7390     1.8800 H     1 <1>   0.3700 
 25 H        1.0280     2.7860    -0.4210 H     1 <1>   0.0800 
 26 H        1.9010     2.9470     1.0870 H     1 <1>   0.0800 
 27 H       -1.8590     5.2010     1.5370 H     1 <1>   0.0800 
 28 H       -0.4290     4.7230    -1.0430 H     1 <1>   0.0800 
 29 H       -2.1600     2.5240    -1.0400 H     1 <1>   0.1500 
 30 H       -3.8030     6.1570     0.4890 H     1 <1>   0.1500 
 31 H       -5.7010     5.7980    -1.0560 H     1 <1>   0.1500 
 32 H        1.5730     6.6670     0.5370 H     1 <1>   0.3700 
 33 H       -5.7240     3.8400    -2.5100 H     1 <1>   0.1500 
 34 H       -0.0640     9.1630     0.4020 H     1 <1>   0.0800 
 35 H        2.5280     8.6570    -1.0890 H     1 <1>   0.0800 
 36 H        0.9570     8.9500    -1.7840 H     1 <1>   0.0800 
 37 H        1.1880     8.8360     2.4530 H     1 <1>   0.0800 
 38 H        2.6730     8.5860     1.5750 H     1 <1>   0.0800 
 39 H        0.8960    11.1950    -0.8700 H     1 <1>   0.0800 
 40 H        2.3610    10.9820    -1.7990 H     1 <1>   0.0800 
 41 H        2.5970    10.8680     2.4190 H     1 <1>   0.0800 
 42 H        1.0390    11.1290     1.6710 H     1 <1>   0.0800 
 43 H        3.5400    10.5050     0.2390 H     1 <1>   0.4500 
 44 H        2.0600    13.0650     0.3910 H     1 <1>   0.0800 
 45 H        3.4920    12.7690    -0.5740 H     1 <1>   0.0800 
 46 H        3.5900    12.7220     1.1730 H     1 <1>   0.0800 
@<TRIPOS>BOND
  1   1   2  2   
  2   2   3  am  
  3   2   4  1   
  4   3   5  1   
  5   3  24  1   
  6   4   6  1   
  7   4  25  1   
  8   4  26  1   
  9   5   7  1   
 10   5   8  1   
 11   5  27  1   
 12   6   8  1   
 13   7   9  ar  
 14   7  10  ar  
 15   8  11  1   
 16   8  28  1   
 17   9  12  ar  
 18   9  29  1   
 19  10  13  ar  
 20  10  30  1   
 21  11  14  2   
 22  11  15  am  
 23  12  16  ar  
 24  13  16  ar  
 25  13  31  1   
 26  15  17  1   
 27  15  32  1   
 28  16  33  1   
 29  17  18  1   
 30  17  19  1   
 31  17  34  1   
 32  18  20  1   
 33  18  35  1   
 34  18  36  1   
 35  19  21  1   
 36  19  37  1   
 37  19  38  1   
 38  20  22  1   
 39  20  39  1   
 40  20  40  1   
 41  21  22  1   
 42  21  41  1   
 43  21  42  1   
 44  22  23  1   
 45  22  43  1   
 46  23  44  1   
 47  23  45  1   
 48  23  46  1   
@<TRIPOS>SUBSTRUCTURE
  1 ****  11 GROUP 4 **** **** 0

# MOE 2024.06 (io_trps.svl 2023.06)
