@<TRIPOS>MOLECULE
NONAME
49 51 1 0 0 
SMALL
USER_CHARGES


@<TRIPOS>ATOM
  1 O        0.2480     0.0590    -1.4010 O.2   1 <1>  -0.5700 
  2 C        0.9430    -0.5220    -0.5860 C.2   1 <1>   0.5440 
  3 N        1.7530     0.2330     0.2050 N.am  1 <1>  -0.7300 
  4 C        0.9600    -1.9620    -0.4680 C.ar  1 <1>   0.0860 
  5 C        2.0870     1.6450    -0.0310 C.3   1 <1>   0.3200 
  6 C       -0.2260    -2.7400    -0.3260 C.ar  1 <1>   0.0000 
  7 C        2.1790    -2.6130    -0.4850 C.ar  1 <1>  -0.1500 
  8 C        3.5310     1.8940     0.3960 C.2   1 <1>   0.0060 
  9 C       -0.1300    -4.1520    -0.2300 C.ar  1 <1>   0.0000 
 10 C       -1.5180    -2.1630    -0.2680 C.ar  1 <1>  -0.1500 
 11 C        2.2740    -3.9900    -0.3640 C.ar  1 <1>  -0.1500 
 12 N        4.2610     1.0350     1.0440 N.2   1 <1>  -0.5650 
 13 N        4.1770     3.0580     0.1300 N.pl3 1 <1>   0.0480 
 14 C        1.1510    -4.7740    -0.2270 C.ar  1 <1>   0.1000 
 15 C       -1.3230    -4.9020    -0.1450 C.ar  1 <1>  -0.1500 
 16 C       -2.6510    -2.9200    -0.1630 C.ar  1 <1>  -0.1500 
 17 C        5.4360     1.6670     1.2090 C.2   1 <1>   0.0770 
 18 C        5.4030     2.8990     0.6600 C.2   1 <1>  -0.3020 
 19 C        3.6880     4.2590    -0.5810 C.3   1 <1>   0.0960 
 20 N        1.2970    -6.1440    -0.0680 N.pl3 1 <1>  -0.8380 
 21 C       -2.5550    -4.3100    -0.1080 C.ar  1 <1>  -0.1500 
 22 C        2.9570     5.1980     0.3870 C.3   1 <1>  -0.1600 
 23 C        2.1130    -6.9380    -1.0210 C.3   1 <1>   0.1290 
 24 C        1.0860    -6.7450     1.2750 C.3   1 <1>   0.1290 
 25 C        2.4270     6.4400    -0.3370 C.3   1 <1>  -0.2400 
 26 H        2.4600    -0.2110     0.8030 H     1 <1>   0.3700 
 27 H        1.4220     2.2640     0.5450 H     1 <1>   0.0800 
 28 H        1.9650     1.8740    -1.0750 H     1 <1>   0.0800 
 29 H        3.0860    -2.0440    -0.5950 H     1 <1>   0.1500 
 30 H       -1.6200    -1.0940    -0.3120 H     1 <1>   0.1500 
 31 H        3.2430    -4.4510    -0.3680 H     1 <1>   0.1500 
 32 H       -1.2500    -5.9730    -0.1130 H     1 <1>   0.1500 
 33 H       -3.6220    -2.4580    -0.1260 H     1 <1>   0.1500 
 34 H        6.2570     1.1950     1.7240 H     1 <1>   0.1500 
 35 H        6.1690     3.6510     0.6210 H     1 <1>   0.1500 
 36 H        3.0310     3.9550    -1.3760 H     1 <1>   0.0800 
 37 H        4.5310     4.7660    -1.0160 H     1 <1>   0.0800 
 38 H       -3.4520    -4.9000    -0.0400 H     1 <1>   0.1500 
 39 H        3.6350     5.5060     1.1660 H     1 <1>   0.0800 
 40 H        2.1310     4.6800     0.8430 H     1 <1>   0.0800 
 41 H        2.2300    -6.3950    -1.9430 H     1 <1>   0.0800 
 42 H        1.6200    -7.8710    -1.2310 H     1 <1>   0.0800 
 43 H        3.0840    -7.1340    -0.6010 H     1 <1>   0.0800 
 44 H        0.5880    -6.0410     1.9190 H     1 <1>   0.0800 
 45 H        2.0340    -7.0050     1.7130 H     1 <1>   0.0800 
 46 H        0.4780    -7.6280     1.1870 H     1 <1>   0.0800 
 47 H        3.2360     6.9920    -0.7840 H     1 <1>   0.0800 
 48 H        1.9220     7.0850     0.3610 H     1 <1>   0.0800 
 49 H        1.7290     6.1610    -1.1080 H     1 <1>   0.0800 
@<TRIPOS>BOND
  1   1   2  2   
  2   2   3  am  
  3   2   4  1   
  4   3   5  1   
  5   3  26  1   
  6   4   6  ar  
  7   4   7  ar  
  8   5   8  1   
  9   5  27  1   
 10   5  28  1   
 11   6   9  ar  
 12   6  10  ar  
 13   7  11  ar  
 14   7  29  1   
 15   8  12  2   
 16   8  13  1   
 17   9  14  ar  
 18   9  15  ar  
 19  10  16  ar  
 20  10  30  1   
 21  11  14  ar  
 22  11  31  1   
 23  12  17  1   
 24  13  18  1   
 25  13  19  1   
 26  14  20  1   
 27  15  21  ar  
 28  15  32  1   
 29  16  21  ar  
 30  16  33  1   
 31  17  18  2   
 32  17  34  1   
 33  18  35  1   
 34  19  22  1   
 35  19  36  1   
 36  19  37  1   
 37  20  23  1   
 38  20  24  1   
 39  21  38  1   
 40  22  25  1   
 41  22  39  1   
 42  22  40  1   
 43  23  41  1   
 44  23  42  1   
 45  23  43  1   
 46  24  44  1   
 47  24  45  1   
 48  24  46  1   
 49  25  47  1   
 50  25  48  1   
 51  25  49  1   
@<TRIPOS>SUBSTRUCTURE
  1 ****   2 GROUP 4 **** **** 0

# MOE 2024.06 (io_trps.svl 2023.06)
