@<TRIPOS>MOLECULE
NONAME
64 68 1 0 0 
SMALL
USER_CHARGES


@<TRIPOS>ATOM
  1 O       -2.8870     1.0670    -1.8380 O.2   1 <1>  -0.5700 
  2 C       -2.5090     1.1350    -0.6940 C.2   1 <1>   0.5690 
  3 N       -2.3300     0.0300     0.0660 N.am  1 <1>  -0.7300 
  4 C       -2.2310     2.5120    -0.0950 C.3   1 <1>  -0.0190 
  5 C       -2.5430    -1.3570    -0.4060 C.3   1 <1>   0.2200 
  6 C       -3.4980     3.3880    -0.1240 C.3   1 <1>  -0.1600 
  7 C       -1.0840     3.2100    -0.8510 C.3   1 <1>  -0.1600 
  8 C       -3.8980    -1.8450     0.0790 C.3   1 <1>  -0.0800 
  9 C       -1.6000    -2.2930     0.3380 C.3   1 <1>   0.1200 
 10 C       -3.2230     4.8160     0.3410 C.3   1 <1>   0.3430 
 11 C       -0.8620     4.6430    -0.3740 C.3   1 <1>   0.3430 
 12 C       -3.5850    -2.3600     1.4910 C.3   1 <1>   0.1200 
 13 C       -4.4590    -2.9530    -0.8360 C.3   1 <1>  -0.0170 
 14 O       -2.1950    -2.4950     1.5830 O.3   1 <1>  -0.5600 
 15 N       -2.1380     5.4140    -0.4890 N.4   1 <1>  -0.9590 
 16 C       -5.8590    -3.3800    -0.4040 C.ar  1 <1>  -0.1440 
 17 C       -2.0080     6.8800    -0.2220 C.3   1 <1>   0.4230 
 18 C       -7.0060    -2.5950    -0.6730 C.ar  1 <1>   0.0000 
 19 C       -6.0420    -4.5540     0.2660 C.ar  1 <1>  -0.1500 
 20 C       -1.0420     7.5370    -1.2110 C.3   1 <1>  -0.1600 
 21 C       -1.4510     7.1850     1.1790 C.3   1 <1>  -0.1600 
 22 C       -8.2540    -3.0740    -0.2050 C.ar  1 <1>   0.3100 
 23 C       -6.9920    -1.3700    -1.3810 C.ar  1 <1>  -0.1500 
 24 C       -7.3220    -4.9400     0.6780 C.ar  1 <1>   0.1600 
 25 C        0.2710     7.7550    -0.4590 C.3   1 <1>  -0.1600 
 26 C       -0.1510     7.9760     0.9900 C.3   1 <1>  -0.1600 
 27 N       -8.3950    -4.2450     0.4680 N.ar  1 <1>  -0.6200 
 28 C       -9.4090    -2.3120    -0.4450 C.ar  1 <1>  -0.1500 
 29 C       -8.1370    -0.6540    -1.6010 C.ar  1 <1>  -0.1500 
 30 C       -9.3620    -1.1270    -1.1260 C.ar  1 <1>  -0.1500 
 31 H       -2.0650     0.0820     1.0530 H     1 <1>   0.3700 
 32 H       -1.9320     2.3810     0.9300 H     1 <1>   0.0800 
 33 H       -2.4230    -1.4150    -1.4760 H     1 <1>   0.0800 
 34 H       -4.2480     2.9480     0.5120 H     1 <1>   0.0800 
 35 H       -3.9040     3.4150    -1.1210 H     1 <1>   0.0800 
 36 H       -1.2940     3.2200    -1.9070 H     1 <1>   0.0800 
 37 H       -0.1760     2.6490    -0.7140 H     1 <1>   0.0800 
 38 H       -4.6060    -1.0360     0.1210 H     1 <1>   0.0800 
 39 H       -0.6150    -1.8790     0.4680 H     1 <1>   0.0800 
 40 H       -1.5340    -3.2460    -0.1550 H     1 <1>   0.0800 
 41 H       -2.9300     4.8100     1.3780 H     1 <1>   0.0800 
 42 H       -4.1250     5.4010     0.2470 H     1 <1>   0.0800 
 43 H       -0.0980     5.0990    -0.9820 H     1 <1>   0.0800 
 44 H       -0.5230     4.6390     0.6490 H     1 <1>   0.0800 
 45 H       -4.0370    -3.3130     1.6990 H     1 <1>   0.0800 
 46 H       -3.8940    -1.6500     2.2380 H     1 <1>   0.0800 
 47 H       -3.8030    -3.8050    -0.8180 H     1 <1>   0.0800 
 48 H       -4.4940    -2.6090    -1.8550 H     1 <1>   0.0800 
 49 H       -2.4380     5.3250    -1.4680 H     1 <1>   0.4500 
 50 H       -2.9770     7.3430    -0.3310 H     1 <1>   0.0800 
 51 H       -5.2200    -5.2060     0.4970 H     1 <1>   0.1500 
 52 H       -0.9090     6.9790    -2.1210 H     1 <1>   0.0800 
 53 H       -1.4400     8.5040    -1.4670 H     1 <1>   0.0800 
 54 H       -2.1550     7.7870     1.7260 H     1 <1>   0.0800 
 55 H       -1.2570     6.2950     1.7490 H     1 <1>   0.0800 
 56 H       -6.0630    -0.9870    -1.7600 H     1 <1>   0.1500 
 57 H       -7.4210    -5.8730     1.2060 H     1 <1>   0.1500 
 58 H        0.8980     6.8840    -0.5270 H     1 <1>   0.0800 
 59 H        0.8190     8.5990    -0.8460 H     1 <1>   0.0800 
 60 H       -0.3460     9.0250     1.1430 H     1 <1>   0.0800 
 61 H        0.6160     7.6680     1.6810 H     1 <1>   0.0800 
 62 H      -10.3400    -2.6980    -0.0730 H     1 <1>   0.1500 
 63 H       -8.1100     0.2770    -2.1420 H     1 <1>   0.1500 
 64 H      -10.2560    -0.5540    -1.3040 H     1 <1>   0.1500 
@<TRIPOS>BOND
  1   1   2  2   
  2   2   3  am  
  3   2   4  1   
  4   3   5  1   
  5   3  31  1   
  6   4   6  1   
  7   4   7  1   
  8   4  32  1   
  9   5   8  1   
 10   5   9  1   
 11   5  33  1   
 12   6  10  1   
 13   6  34  1   
 14   6  35  1   
 15   7  11  1   
 16   7  36  1   
 17   7  37  1   
 18   8  12  1   
 19   8  13  1   
 20   8  38  1   
 21   9  14  1   
 22   9  39  1   
 23   9  40  1   
 24  10  15  1   
 25  10  41  1   
 26  10  42  1   
 27  11  15  1   
 28  11  43  1   
 29  11  44  1   
 30  12  14  1   
 31  12  45  1   
 32  12  46  1   
 33  13  16  1   
 34  13  47  1   
 35  13  48  1   
 36  15  17  1   
 37  15  49  1   
 38  16  18  ar  
 39  16  19  ar  
 40  17  20  1   
 41  17  21  1   
 42  17  50  1   
 43  18  22  ar  
 44  18  23  ar  
 45  19  24  ar  
 46  19  51  1   
 47  20  25  1   
 48  20  52  1   
 49  20  53  1   
 50  21  26  1   
 51  21  54  1   
 52  21  55  1   
 53  22  27  ar  
 54  22  28  ar  
 55  23  29  ar  
 56  23  56  1   
 57  24  27  ar  
 58  24  57  1   
 59  25  26  1   
 60  25  58  1   
 61  25  59  1   
 62  26  60  1   
 63  26  61  1   
 64  28  30  ar  
 65  28  62  1   
 66  29  30  ar  
 67  29  63  1   
 68  30  64  1   
@<TRIPOS>SUBSTRUCTURE
  1 ****   2 GROUP 4 **** **** 0

# MOE 2024.06 (io_trps.svl 2023.06)
