@<TRIPOS>MOLECULE
NONAME
53 55 1 0 0 
SMALL
USER_CHARGES


@<TRIPOS>ATOM
  1 O       -1.7930     1.0830    -2.8910 O.2   1 <1>  -0.5700 
  2 C       -2.3000     0.6090    -1.8920 C.2   1 <1>   0.7800 
  3 O       -2.9530    -0.5540    -1.8910 O.3   1 <1>  -0.2320 
  4 N       -2.3080     1.1730    -0.6480 N.am  1 <1>  -0.4770 
  5 C       -3.3990    -0.7470    -0.6330 C.ar  1 <1>   0.0830 
  6 C       -3.0150     0.3090     0.1620 C.ar  1 <1>   0.1170 
  7 C       -1.6680     2.4480    -0.2660 C.3   1 <1>   0.1400 
  8 C       -4.1330    -1.8070    -0.1360 C.ar  1 <1>  -0.1500 
  9 C       -3.3640     0.3380     1.5040 C.ar  1 <1>  -0.1500 
 10 C       -2.6200     3.6080    -0.5510 C.3   1 <1>  -0.0990 
 11 C       -4.4810    -1.7810     1.2060 C.ar  1 <1>  -0.1500 
 12 C       -4.1010    -0.7170     2.0250 C.ar  1 <1>  -0.1440 
 13 C       -1.9570     4.9170    -0.1990 C.2   1 <1>   0.5690 
 14 C       -4.5040    -0.7260     3.4890 C.3   1 <1>  -0.0960 
 15 O       -1.6990     5.1470     0.9560 O.2   1 <1>  -0.5700 
 16 N       -1.6560     5.7940    -1.1900 N.am  1 <1>  -0.7300 
 17 C       -1.1030     7.1530    -0.9570 C.3   1 <1>   0.1400 
 18 C        0.3880     7.0810    -0.6360 C.3   1 <1>   0.0960 
 19 N        0.8630     8.4250    -0.2770 N.pl3 1 <1>   0.3140 
 20 N        1.2690     9.2880    -1.2230 N.2   1 <1>  -0.7070 
 21 C        0.9160     8.9780     0.9570 C.2   1 <1>  -0.3320 
 22 C        1.5830    10.3650    -0.5770 C.2   1 <1>   0.1080 
 23 C        1.3800    10.2370     0.7950 C.2   1 <1>  -0.1810 
 24 C        0.5110     8.2500     2.2310 C.3   1 <1>  -0.0600 
 25 C        2.1030    11.5960    -1.2840 C.3   1 <1>  -0.0590 
 26 C        1.6330    11.2980     1.8530 C.3   1 <1>   0.0210 
 27 C        3.0590    11.1800     2.3940 C.3   1 <1>  -0.2400 
 28 H       -0.7620     2.5710    -0.8350 H     1 <1>   0.0800 
 29 H       -1.4120     2.4250     0.7790 H     1 <1>   0.0800 
 30 H       -4.4200    -2.6200    -0.7780 H     1 <1>   0.1500 
 31 H       -3.0640     1.1660     2.1190 H     1 <1>   0.1500 
 32 H       -3.5070     3.5050     0.0460 H     1 <1>   0.0800 
 33 H       -2.8960     3.6080    -1.5900 H     1 <1>   0.0800 
 34 H       -5.0530    -2.5940     1.6190 H     1 <1>   0.1500 
 35 H       -4.0750     0.1090     4.0120 H     1 <1>   0.0800 
 36 H       -4.1650    -1.6330     3.9570 H     1 <1>   0.0800 
 37 H       -5.5750    -0.6700     3.5730 H     1 <1>   0.0800 
 38 H       -1.8610     5.5560    -2.1640 H     1 <1>   0.3700 
 39 H       -1.6240     7.6030    -0.1280 H     1 <1>   0.0800 
 40 H       -1.2570     7.7630    -1.8320 H     1 <1>   0.0800 
 41 H        0.9390     6.7440    -1.4930 H     1 <1>   0.0800 
 42 H        0.5650     6.4180     0.1890 H     1 <1>   0.0800 
 43 H       -0.5170     7.9390     2.1730 H     1 <1>   0.0800 
 44 H        0.6250     8.8880     3.0880 H     1 <1>   0.0800 
 45 H        1.1290     7.3820     2.3730 H     1 <1>   0.0800 
 46 H        2.3770    11.3470    -2.2930 H     1 <1>   0.0800 
 47 H        2.9680    11.9760    -0.7730 H     1 <1>   0.0800 
 48 H        1.3380    12.3490    -1.3050 H     1 <1>   0.0800 
 49 H        0.9310    11.1780     2.6570 H     1 <1>   0.0800 
 50 H        1.4800    12.2750     1.4310 H     1 <1>   0.0800 
 51 H        3.2060    10.2080     2.8300 H     1 <1>   0.0800 
 52 H        3.2350    11.9300     3.1440 H     1 <1>   0.0800 
 53 H        3.7700    11.3090     1.5970 H     1 <1>   0.0800 
@<TRIPOS>BOND
  1   1   2  2   
  2   2   3  1   
  3   2   4  am  
  4   3   5  1   
  5   4   6  1   
  6   4   7  1   
  7   5   6  ar  
  8   5   8  ar  
  9   6   9  ar  
 10   7  10  1   
 11   7  28  1   
 12   7  29  1   
 13   8  11  ar  
 14   8  30  1   
 15   9  12  ar  
 16   9  31  1   
 17  10  13  1   
 18  10  32  1   
 19  10  33  1   
 20  11  12  ar  
 21  11  34  1   
 22  12  14  1   
 23  13  15  2   
 24  13  16  am  
 25  14  35  1   
 26  14  36  1   
 27  14  37  1   
 28  16  17  1   
 29  16  38  1   
 30  17  18  1   
 31  17  39  1   
 32  17  40  1   
 33  18  19  1   
 34  18  41  1   
 35  18  42  1   
 36  19  20  1   
 37  19  21  1   
 38  20  22  2   
 39  21  23  2   
 40  21  24  1   
 41  22  23  1   
 42  22  25  1   
 43  23  26  1   
 44  24  43  1   
 45  24  44  1   
 46  24  45  1   
 47  25  46  1   
 48  25  47  1   
 49  25  48  1   
 50  26  27  1   
 51  26  49  1   
 52  26  50  1   
 53  27  51  1   
 54  27  52  1   
 55  27  53  1   
@<TRIPOS>SUBSTRUCTURE
  1 ****  13 GROUP 4 **** **** 0

# MOE 2024.06 (io_trps.svl 2023.06)
