@<TRIPOS>MOLECULE
NONAME
36 36 1 0 0 
SMALL
USER_CHARGES


@<TRIPOS>ATOM
  1 O        1.5260     1.2330    -1.0900 O.2   1 <1>  -0.5700 
  2 C        1.2230     0.9620     0.0530 C.2   1 <1>   0.7800 
  3 O        1.8600     0.0310     0.7590 O.3   1 <1>  -0.4300 
  4 N        0.2050     1.5710     0.6980 N.am  1 <1>  -0.7300 
  5 C        2.9290    -0.7800     0.3230 C.3   1 <1>   0.2800 
  6 C       -0.7220     2.5700     0.1120 C.3   1 <1>   0.1400 
  7 C        2.4810    -1.6590    -0.8510 C.3   1 <1>  -0.2400 
  8 C        3.2670    -1.6720     1.5180 C.3   1 <1>  -0.2400 
  9 C        4.1460     0.0850    -0.0240 C.3   1 <1>  -0.2400 
 10 C       -2.1460     2.0190    -0.1440 C.3   1 <1>   0.0000 
 11 C       -2.2030     0.7010    -0.9710 C.3   1 <1>   0.0000 
 12 C       -2.7980     1.2500     1.0440 C.3   1 <1>   0.0000 
 13 C       -3.0650     3.1010    -0.7360 C.3   1 <1>   0.1200 
 14 C       -2.4230    -0.0860     0.3480 C.3   1 <1>   0.0000 
 15 O       -3.2230     4.1370     0.1740 O.3   1 <1>  -0.6800 
 16 H        0.0050     1.2470     1.6420 H     1 <1>   0.3700 
 17 H       -0.3140     2.9250    -0.8200 H     1 <1>   0.0800 
 18 H       -0.7780     3.4130     0.7790 H     1 <1>   0.0800 
 19 H        1.5850    -2.1960    -0.5970 H     1 <1>   0.0800 
 20 H        3.2500    -2.3710    -1.0900 H     1 <1>   0.0800 
 21 H        2.3020    -1.0690    -1.7310 H     1 <1>   0.0800 
 22 H        2.4160    -2.2690     1.7920 H     1 <1>   0.0800 
 23 H        3.5590    -1.0700     2.3610 H     1 <1>   0.0800 
 24 H        4.0800    -2.3320     1.2750 H     1 <1>   0.0800 
 25 H        3.9670     0.6730    -0.9050 H     1 <1>   0.0800 
 26 H        4.9970    -0.5420    -0.2200 H     1 <1>   0.0800 
 27 H        4.3860     0.7380     0.7950 H     1 <1>   0.0800 
 28 H       -1.2870     0.4480    -1.4750 H     1 <1>   0.0000 
 29 H       -3.0630     0.6410    -1.6160 H     1 <1>   0.0000 
 30 H       -3.8650     1.3830     1.1010 H     1 <1>   0.0000 
 31 H       -2.3070     1.3940     1.9900 H     1 <1>   0.0000 
 32 H       -4.0400     2.7060    -0.9660 H     1 <1>   0.0800 
 33 H       -2.6340     3.5110    -1.6340 H     1 <1>   0.0800 
 34 H       -1.5180    -0.5210     0.7330 H     1 <1>   0.0000 
 35 H       -3.2390    -0.7840     0.2970 H     1 <1>   0.0000 
 36 H       -3.6940     3.8240     0.9710 H     1 <1>   0.4000 
@<TRIPOS>BOND
  1   1   2  2   
  2   2   3  1   
  3   2   4  am  
  4   3   5  1   
  5   4   6  1   
  6   4  16  1   
  7   5   7  1   
  8   5   8  1   
  9   5   9  1   
 10   6  10  1   
 11   6  17  1   
 12   6  18  1   
 13   7  19  1   
 14   7  20  1   
 15   7  21  1   
 16   8  22  1   
 17   8  23  1   
 18   8  24  1   
 19   9  25  1   
 20   9  26  1   
 21   9  27  1   
 22  10  11  1   
 23  10  12  1   
 24  10  13  1   
 25  11  14  1   
 26  11  28  1   
 27  11  29  1   
 28  12  14  1   
 29  12  30  1   
 30  12  31  1   
 31  13  15  1   
 32  13  32  1   
 33  13  33  1   
 34  14  34  1   
 35  14  35  1   
 36  15  36  1   
@<TRIPOS>SUBSTRUCTURE
  1 ****   4 GROUP 4 **** **** 0

# MOE 2024.06 (io_trps.svl 2023.06)
