@<TRIPOS>MOLECULE
NONAME
41 43 1 0 0 
SMALL
USER_CHARGES


@<TRIPOS>ATOM
  1 O       -0.4820     0.2970    -0.7300 O.2   1 <1>  -0.5700 
  2 C       -1.5100     0.9340    -0.5790 C.2   1 <1>   0.7150 
  3 N       -2.7010     0.2340    -0.6200 N.am  1 <1>  -0.6600 
  4 C       -1.4420     2.3670    -0.3570 C.2   1 <1>   0.0550 
  5 C       -4.0250     0.7540    -0.1930 C.3   1 <1>   0.1400 
  6 C       -2.7720    -1.2310    -0.8340 C.3   1 <1>   0.1400 
  7 O       -2.4760     3.1560    -0.6290 O.3   1 <1>  -0.2800 
  8 C       -0.4320     3.1390     0.1050 C.2   1 <1>   0.0460 
  9 C       -4.9250    -0.4780    -0.0700 C.3   1 <1>   0.2000 
 10 C       -3.9860    -1.6840    -0.0240 C.3   1 <1>  -0.0800 
 11 C       -2.0110     4.3450    -0.3110 C.2   1 <1>   0.2980 
 12 N       -0.8140     4.4100     0.1330 N.2   1 <1>  -0.5650 
 13 C        0.9680     2.7820     0.5650 C.3   1 <1>  -0.0590 
 14 O       -5.6920    -0.4340     1.0830 O.3   1 <1>  -0.6800 
 15 C       -4.6440    -2.9660    -0.5580 C.3   1 <1>   0.0200 
 16 C       -2.9250     5.5330    -0.4950 C.3   1 <1>  -0.0600 
 17 C       -3.7330    -4.1790    -0.4920 C.2   1 <1>  -0.0400 
 18 O       -4.0980    -5.2710    -1.1090 O.3   1 <1>  -0.0190 
 19 C       -2.5500    -4.4210     0.0970 C.2   1 <1>  -0.1500 
 20 N       -3.2250    -6.2260    -0.9710 N.2   1 <1>  -0.4100 
 21 C       -2.2800    -5.7420    -0.2480 C.2   1 <1>   0.1080 
 22 C       -1.0460    -6.5120     0.1660 C.3   1 <1>  -0.0590 
 23 H       -3.9280     1.2640     0.7500 H     1 <1>   0.0800 
 24 H       -4.4140     1.4260    -0.9380 H     1 <1>   0.0800 
 25 H       -2.9150    -1.4220    -1.8850 H     1 <1>   0.0800 
 26 H       -1.8710    -1.7210    -0.5050 H     1 <1>   0.0800 
 27 H       -5.5900    -0.5270    -0.9160 H     1 <1>   0.0800 
 28 H       -3.6590    -1.8430     0.9880 H     1 <1>   0.0800 
 29 H        1.1220     1.7200     0.5730 H     1 <1>   0.0800 
 30 H        1.1280     3.1600     1.5580 H     1 <1>   0.0800 
 31 H        1.6870     3.2310    -0.0960 H     1 <1>   0.0800 
 32 H       -5.1220    -0.4070     1.8760 H     1 <1>   0.4000 
 33 H       -4.9430    -2.8170    -1.5810 H     1 <1>   0.0800 
 34 H       -5.5320    -3.1770     0.0130 H     1 <1>   0.0800 
 35 H       -2.4170     6.4330    -0.2000 H     1 <1>   0.0800 
 36 H       -3.8030     5.4100     0.1100 H     1 <1>   0.0800 
 37 H       -3.2100     5.6120    -1.5270 H     1 <1>   0.0800 
 38 H       -1.9260    -3.7870     0.6980 H     1 <1>   0.1500 
 39 H       -0.1670    -6.0180    -0.2030 H     1 <1>   0.0800 
 40 H       -1.0820    -7.5080    -0.2390 H     1 <1>   0.0800 
 41 H       -0.9970    -6.5740     1.2370 H     1 <1>   0.0800 
@<TRIPOS>BOND
  1   1   2  2   
  2   2   3  am  
  3   2   4  1   
  4   3   5  1   
  5   3   6  1   
  6   4   7  1   
  7   4   8  2   
  8   5   9  1   
  9   5  23  1   
 10   5  24  1   
 11   6  10  1   
 12   6  25  1   
 13   6  26  1   
 14   7  11  1   
 15   8  12  1   
 16   8  13  1   
 17   9  10  1   
 18   9  14  1   
 19   9  27  1   
 20  10  15  1   
 21  10  28  1   
 22  11  12  2   
 23  11  16  1   
 24  13  29  1   
 25  13  30  1   
 26  13  31  1   
 27  14  32  1   
 28  15  17  1   
 29  15  33  1   
 30  15  34  1   
 31  16  35  1   
 32  16  36  1   
 33  16  37  1   
 34  17  18  1   
 35  17  19  2   
 36  18  20  1   
 37  19  21  1   
 38  19  38  1   
 39  20  21  2   
 40  21  22  1   
 41  22  39  1   
 42  22  40  1   
 43  22  41  1   
@<TRIPOS>SUBSTRUCTURE
  1 ****   3 GROUP 4 **** **** 0

# MOE 2024.06 (io_trps.svl 2023.06)
