@<TRIPOS>MOLECULE
NONAME
51 55 1 0 0 
SMALL
USER_CHARGES


@<TRIPOS>ATOM
  1 O       -2.3860    -0.8340    -3.3560 O.co2 1 <1>  -0.9000 
  2 C       -3.4520    -1.4610    -3.2120 C.2   1 <1>   1.0330 
  3 O       -4.1420    -1.7210    -4.2150 O.co2 1 <1>  -0.9000 
  4 C       -3.8780    -1.8510    -1.8690 C.2   1 <1>  -0.0060 
  5 N       -4.9720    -2.6120    -1.5280 N.2   1 <1>  -0.5650 
  6 C       -3.2640    -1.5130    -0.7160 C.2   1 <1>  -0.0100 
  7 C       -4.9300    -2.6560    -0.2510 C.2   1 <1>   0.2980 
  8 O       -3.9250    -2.0150     0.2900 O.3   1 <1>  -0.2800 
  9 C       -5.9430    -3.3690     0.6320 C.3   1 <1>   0.5230 
 10 N       -7.1460    -3.8090    -0.1640 N.4   1 <1>  -0.9590 
 11 C       -7.9390    -2.6490    -0.7140 C.3   1 <1>   0.3430 
 12 C       -8.0020    -4.7940     0.5650 C.3   1 <1>   0.3430 
 13 C       -8.6400    -1.8100     0.3820 C.3   1 <1>   0.1430 
 14 C       -9.1850    -4.1300     1.2950 C.3   1 <1>  -0.1600 
 15 C       -9.9280    -1.2660    -0.2020 C.ar  1 <1>   0.1670 
 16 C       -8.9560    -2.6490     1.6480 C.3   1 <1>  -0.1600 
 17 C       -7.8590    -0.5120     0.7290 C.3   1 <1>  -0.1600 
 18 N      -10.8230    -1.9840    -0.8330 N.ar  1 <1>  -0.6200 
 19 C      -10.0580     0.0710     0.0070 C.ar  1 <1>  -0.1440 
 20 C       -8.8830     0.6380     0.7630 C.3   1 <1>  -0.0170 
 21 C      -11.8980    -1.3140    -1.2750 C.ar  1 <1>   0.6200 
 22 C      -11.1850     0.6840    -0.4750 C.ar  1 <1>   0.1600 
 23 N      -12.1050     0.0000    -1.1170 N.ar  1 <1>  -0.6200 
 24 C      -12.9130    -2.0750    -1.9860 C.ar  1 <1>   0.0000 
 25 C      -13.6150    -1.5260    -3.0620 C.ar  1 <1>  -0.1500 
 26 C      -13.2290    -3.3880    -1.6260 C.ar  1 <1>  -0.1500 
 27 C      -14.5770    -2.2470    -3.7450 C.ar  1 <1>  -0.1500 
 28 C      -14.1900    -4.1150    -2.3050 C.ar  1 <1>  -0.1500 
 29 C      -14.8670    -3.5460    -3.3680 C.ar  1 <1>  -0.1500 
 30 H       -2.3730    -0.9270    -0.5620 H     1 <1>   0.1500 
 31 H       -6.2400    -2.7060     1.4250 H     1 <1>   0.0800 
 32 H       -5.4580    -4.2250     1.0690 H     1 <1>   0.0800 
 33 H       -6.7270    -4.2520    -1.0000 H     1 <1>   0.4500 
 34 H       -8.6990    -3.0440    -1.3680 H     1 <1>   0.0800 
 35 H       -7.3120    -2.0120    -1.3170 H     1 <1>   0.0800 
 36 H       -7.4000    -5.3340     1.2770 H     1 <1>   0.0800 
 37 H       -8.3970    -5.5130    -0.1350 H     1 <1>   0.0800 
 38 H       -9.4040    -4.6900     2.1880 H     1 <1>   0.0800 
 39 H      -10.0570    -4.2080     0.6670 H     1 <1>   0.0800 
 40 H       -9.8310    -2.2540     2.1380 H     1 <1>   0.0800 
 41 H       -8.1480    -2.5880     2.3540 H     1 <1>   0.0800 
 42 H       -7.1500    -0.2960    -0.0530 H     1 <1>   0.0800 
 43 H       -7.3210    -0.5750     1.6580 H     1 <1>   0.0800 
 44 H       -8.4980     1.5260     0.2910 H     1 <1>   0.0800 
 45 H       -9.1780     0.8610     1.7740 H     1 <1>   0.0800 
 46 H      -11.3370     1.7410    -0.3360 H     1 <1>   0.1500 
 47 H      -13.4030    -0.5150    -3.3660 H     1 <1>   0.1500 
 48 H      -12.7160    -3.8430    -0.7990 H     1 <1>   0.1500 
 49 H      -15.1020    -1.7970    -4.5700 H     1 <1>   0.1500 
 50 H      -14.4150    -5.1240    -2.0060 H     1 <1>   0.1500 
 51 H      -15.6160    -4.1090    -3.8980 H     1 <1>   0.1500 
@<TRIPOS>BOND
  1   1   2  ar  
  2   2   3  ar  
  3   2   4  1   
  4   4   5  1   
  5   4   6  2   
  6   5   7  2   
  7   6   8  1   
  8   6  30  1   
  9   7   8  1   
 10   7   9  1   
 11   9  10  1   
 12   9  31  1   
 13   9  32  1   
 14  10  11  1   
 15  10  12  1   
 16  10  33  1   
 17  11  13  1   
 18  11  34  1   
 19  11  35  1   
 20  12  14  1   
 21  12  36  1   
 22  12  37  1   
 23  13  15  1   
 24  13  16  1   
 25  13  17  1   
 26  14  16  1   
 27  14  38  1   
 28  14  39  1   
 29  15  18  ar  
 30  15  19  ar  
 31  16  40  1   
 32  16  41  1   
 33  17  20  1   
 34  17  42  1   
 35  17  43  1   
 36  18  21  ar  
 37  19  20  1   
 38  19  22  ar  
 39  20  44  1   
 40  20  45  1   
 41  21  23  ar  
 42  21  24  1   
 43  22  23  ar  
 44  22  46  1   
 45  24  25  ar  
 46  24  26  ar  
 47  25  27  ar  
 48  25  47  1   
 49  26  28  ar  
 50  26  48  1   
 51  27  29  ar  
 52  27  49  1   
 53  28  29  ar  
 54  28  50  1   
 55  29  51  1   
@<TRIPOS>SUBSTRUCTURE
  1 ****  11 GROUP 4 **** **** 0

# MOE 2024.06 (io_trps.svl 2023.06)
