@<TRIPOS>MOLECULE
NONAME
52 54 1 0 0 
SMALL
USER_CHARGES


@<TRIPOS>ATOM
  1 O       -2.5030     0.6970    -1.7660 O.2   1 <1>  -0.5700 
  2 C       -2.2080     0.6110    -0.6000 C.2   1 <1>   0.5690 
  3 N       -2.0910    -0.5860     0.0210 N.am  1 <1>  -0.7300 
  4 C       -1.9630     1.8960     0.1870 C.3   1 <1>  -0.0190 
  5 C       -2.2200    -1.9030    -0.6510 C.3   1 <1>   0.2200 
  6 C       -3.2210     2.7870     0.1860 C.3   1 <1>  -0.1600 
  7 C       -0.7610     2.6650    -0.3970 C.3   1 <1>  -0.1600 
  8 C       -3.5190    -2.6000    -0.2640 C.3   1 <1>  -0.0800 
  9 C       -1.2050    -2.8560    -0.0370 C.3   1 <1>   0.1200 
 10 C       -2.9660     4.1530     0.8200 C.3   1 <1>   0.3430 
 11 C       -0.5750     4.0350     0.2520 C.3   1 <1>   0.3430 
 12 C       -3.1630    -3.2980     1.0540 C.3   1 <1>   0.1200 
 13 C       -4.7690    -1.7040    -0.1930 C.3   1 <1>  -0.0170 
 14 O       -1.7720    -3.2300     1.1810 O.3   1 <1>  -0.5600 
 15 N       -1.8350     4.8230     0.1180 N.4   1 <1>  -0.9590 
 16 C       -6.0140    -2.5330     0.0840 C.ar  1 <1>  -0.1440 
 17 C       -1.6830     6.2300     0.6160 C.3   1 <1>   0.3430 
 18 C       -6.6790    -3.1990    -0.9260 C.ar  1 <1>  -0.1500 
 19 C       -6.5430    -2.6660     1.3520 C.ar  1 <1>  -0.1500 
 20 C       -0.7550     7.0820    -0.2640 C.3   1 <1>   0.1200 
 21 C       -7.8040    -3.9480    -0.6270 C.ar  1 <1>   0.1600 
 22 C       -7.6750    -3.4410     1.5440 C.ar  1 <1>   0.1600 
 23 O       -0.7200     8.3540     0.2760 O.3   1 <1>  -0.6800 
 24 N       -8.3170    -4.0870     0.5850 N.ar  1 <1>  -0.6200 
 25 H       -1.8610    -0.6710     1.0140 H     1 <1>   0.3700 
 26 H       -1.7350     1.6320     1.2050 H     1 <1>   0.0800 
 27 H       -2.1000    -1.8060    -1.7170 H     1 <1>   0.0800 
 28 H       -4.0090     2.2890     0.7250 H     1 <1>   0.0800 
 29 H       -3.5700     2.9300    -0.8230 H     1 <1>   0.0800 
 30 H       -0.8900     2.7960    -1.4580 H     1 <1>   0.0800 
 31 H        0.1340     2.0830    -0.2570 H     1 <1>   0.0800 
 32 H       -3.7040    -3.3700    -0.9930 H     1 <1>   0.0800 
 33 H       -0.2450    -2.4010     0.1300 H     1 <1>   0.0800 
 34 H       -1.0940    -3.7420    -0.6380 H     1 <1>   0.0800 
 35 H       -2.7290     4.0320     1.8650 H     1 <1>   0.0800 
 36 H       -3.8580     4.7540     0.7420 H     1 <1>   0.0800 
 37 H        0.2410     4.5470    -0.2330 H     1 <1>   0.0800 
 38 H       -0.3270     3.9130     1.2940 H     1 <1>   0.0800 
 39 H       -3.4630    -4.3330     1.0490 H     1 <1>   0.0800 
 40 H       -3.5930    -2.8000     1.9050 H     1 <1>   0.0800 
 41 H       -4.8890    -1.1850    -1.1290 H     1 <1>   0.0800 
 42 H       -4.6580    -0.9620     0.5770 H     1 <1>   0.0800 
 43 H       -2.0820     4.8540    -0.8820 H     1 <1>   0.4500 
 44 H       -2.6490     6.7090     0.6320 H     1 <1>   0.0800 
 45 H       -1.2960     6.2210     1.6210 H     1 <1>   0.0800 
 46 H       -6.3330    -3.1420    -1.9420 H     1 <1>   0.1500 
 47 H       -6.0900    -2.1760     2.1940 H     1 <1>   0.1500 
 48 H       -1.1350     7.1570    -1.2680 H     1 <1>   0.0800 
 49 H        0.2500     6.6980    -0.2680 H     1 <1>   0.0800 
 50 H       -8.3090    -4.4610    -1.4280 H     1 <1>   0.1500 
 51 H       -8.0740    -3.5340     2.5400 H     1 <1>   0.1500 
 52 H       -0.1590     8.9620    -0.2520 H     1 <1>   0.4000 
@<TRIPOS>BOND
  1   1   2  2   
  2   2   3  am  
  3   2   4  1   
  4   3   5  1   
  5   3  25  1   
  6   4   6  1   
  7   4   7  1   
  8   4  26  1   
  9   5   8  1   
 10   5   9  1   
 11   5  27  1   
 12   6  10  1   
 13   6  28  1   
 14   6  29  1   
 15   7  11  1   
 16   7  30  1   
 17   7  31  1   
 18   8  12  1   
 19   8  13  1   
 20   8  32  1   
 21   9  14  1   
 22   9  33  1   
 23   9  34  1   
 24  10  15  1   
 25  10  35  1   
 26  10  36  1   
 27  11  15  1   
 28  11  37  1   
 29  11  38  1   
 30  12  14  1   
 31  12  39  1   
 32  12  40  1   
 33  13  16  1   
 34  13  41  1   
 35  13  42  1   
 36  15  17  1   
 37  15  43  1   
 38  16  18  ar  
 39  16  19  ar  
 40  17  20  1   
 41  17  44  1   
 42  17  45  1   
 43  18  21  ar  
 44  18  46  1   
 45  19  22  ar  
 46  19  47  1   
 47  20  23  1   
 48  20  48  1   
 49  20  49  1   
 50  21  24  ar  
 51  21  50  1   
 52  22  24  ar  
 53  22  51  1   
 54  23  52  1   
@<TRIPOS>SUBSTRUCTURE
  1 ****   2 GROUP 4 **** **** 0

# MOE 2024.06 (io_trps.svl 2023.06)
