@<TRIPOS>MOLECULE
NONAME
48 51 1 0 0 
SMALL
USER_CHARGES


@<TRIPOS>ATOM
  1 F       -3.5550    -0.4080    -1.8190 F     1 <1>  -0.1900 
  2 C       -3.2440     0.4250    -0.8630 C.ar  1 <1>   0.1900 
  3 C       -2.9450    -0.0740     0.4040 C.ar  1 <1>   0.0860 
  4 C       -3.2340     1.7710    -1.1660 C.ar  1 <1>  -0.1500 
  5 C       -2.9670    -1.4850     0.7100 C.2   1 <1>   0.5440 
  6 C       -2.6080     0.8670     1.3780 C.ar  1 <1>  -0.1500 
  7 C       -2.9080     2.6850    -0.1790 C.ar  1 <1>   0.0830 
  8 O       -1.9250    -2.0320     1.0160 O.2   1 <1>  -0.5700 
  9 N       -4.1280    -2.2300     0.6980 N.am  1 <1>  -0.6600 
 10 C       -2.5900     2.2230     1.0980 C.ar  1 <1>  -0.1500 
 11 O       -2.9160     3.9900    -0.5270 O.3   1 <1>  -0.3620 
 12 C       -4.1210    -3.7200     0.8380 C.3   1 <1>   0.1400 
 13 C       -5.4950    -1.6940     0.4170 C.3   1 <1>   0.1400 
 14 C       -2.5590     5.0070     0.3820 C.3   1 <1>   0.0400 
 15 C       -4.8550    -4.3860    -0.3420 C.3   1 <1>   0.3430 
 16 C       -6.1470    -2.4540    -0.7600 C.3   1 <1>   0.2950 
 17 O       -6.1360    -3.8290    -0.4980 O.3   1 <1>  -0.5600 
 18 C       -4.9760    -5.8910    -0.1180 C.ar  1 <1>  -0.1440 
 19 C       -7.6080    -2.0670    -1.0480 C.3   1 <1>  -0.1950 
 20 C       -6.0550    -6.4380     0.5650 C.ar  1 <1>  -0.1500 
 21 C       -3.9830    -6.7360    -0.5930 C.ar  1 <1>  -0.1500 
 22 C       -8.1600    -0.6890    -0.8380 C.3   1 <1>  -0.2000 
 23 C       -8.6360    -1.8320     0.0170 C.3   1 <1>  -0.2000 
 24 C       -6.1380    -7.8040     0.7700 C.ar  1 <1>  -0.1500 
 25 C       -4.0650    -8.1020    -0.3890 C.ar  1 <1>  -0.1500 
 26 C       -5.1430    -8.6380     0.2940 C.ar  1 <1>  -0.1500 
 27 H       -3.4740     2.1120    -2.1560 H     1 <1>   0.1500 
 28 H       -2.3530     0.5180     2.3640 H     1 <1>   0.1500 
 29 H       -2.3260     2.9080     1.8830 H     1 <1>   0.1500 
 30 H       -3.1140    -4.0970     0.8770 H     1 <1>   0.0800 
 31 H       -4.6080    -3.9940     1.7570 H     1 <1>   0.0800 
 32 H       -6.1000    -1.8160     1.2970 H     1 <1>   0.0800 
 33 H       -5.4570    -0.6460     0.1890 H     1 <1>   0.0800 
 34 H       -2.6280     5.9510    -0.1280 H     1 <1>   0.0800 
 35 H       -1.5470     4.8430     0.7100 H     1 <1>   0.0800 
 36 H       -3.2420     4.9910     1.2130 H     1 <1>   0.0800 
 37 H       -4.3070    -4.2080    -1.2500 H     1 <1>   0.0800 
 38 H       -5.5690    -2.2800    -1.6520 H     1 <1>   0.0800 
 39 H       -7.9530    -2.5760    -1.9310 H     1 <1>   0.1000 
 40 H       -6.8360    -5.7970     0.9360 H     1 <1>   0.1500 
 41 H       -3.1370    -6.3350    -1.1240 H     1 <1>   0.1500 
 42 H       -7.5720     0.0800    -0.3690 H     1 <1>   0.1000 
 43 H       -8.8320    -0.2880    -1.5780 H     1 <1>   0.1000 
 44 H       -9.6250    -2.2260    -0.1410 H     1 <1>   0.1000 
 45 H       -8.3480    -1.8670     1.0520 H     1 <1>   0.1000 
 46 H       -6.9790    -8.2160     1.2990 H     1 <1>   0.1500 
 47 H       -3.2900    -8.7490    -0.7610 H     1 <1>   0.1500 
 48 H       -5.2070    -9.7000     0.4530 H     1 <1>   0.1500 
@<TRIPOS>BOND
  1   1   2  1   
  2   2   3  ar  
  3   2   4  ar  
  4   3   5  1   
  5   3   6  ar  
  6   4   7  ar  
  7   4  27  1   
  8   5   8  2   
  9   5   9  am  
 10   6  10  ar  
 11   6  28  1   
 12   7  10  ar  
 13   7  11  1   
 14   9  12  1   
 15   9  13  1   
 16  10  29  1   
 17  11  14  1   
 18  12  15  1   
 19  12  30  1   
 20  12  31  1   
 21  13  16  1   
 22  13  32  1   
 23  13  33  1   
 24  14  34  1   
 25  14  35  1   
 26  14  36  1   
 27  15  17  1   
 28  15  18  1   
 29  15  37  1   
 30  16  17  1   
 31  16  19  1   
 32  16  38  1   
 33  18  20  ar  
 34  18  21  ar  
 35  19  22  1   
 36  19  23  1   
 37  19  39  1   
 38  20  24  ar  
 39  20  40  1   
 40  21  25  ar  
 41  21  41  1   
 42  22  23  1   
 43  22  42  1   
 44  22  43  1   
 45  23  44  1   
 46  23  45  1   
 47  24  26  ar  
 48  24  46  1   
 49  25  26  ar  
 50  25  47  1   
 51  26  48  1   
@<TRIPOS>SUBSTRUCTURE
  1 ****   9 GROUP 4 **** **** 0

# MOE 2024.06 (io_trps.svl 2023.06)
