@<TRIPOS>MOLECULE
NONAME
50 52 1 0 0 
SMALL
USER_CHARGES


@<TRIPOS>ATOM
  1 O        0.4420    -0.2670     1.6400 O.3   1 <1>  -0.6800 
  2 C        1.0110    -0.4820     0.3880 C.3   1 <1>   0.2000 
  3 C        2.0320    -1.6100     0.5210 C.3   1 <1>  -0.0800 
  4 C        1.8770     0.7310     0.0380 C.3   1 <1>   0.3430 
  5 C        3.2500    -0.9170     1.1470 C.3   1 <1>   0.3430 
  6 C        2.3740    -2.2410    -0.8440 C.3   1 <1>  -0.0160 
  7 N        3.1620     0.5210     0.7670 N.4   1 <1>  -0.9590 
  8 C        3.5340    -3.2150    -0.7120 C.ar  1 <1>  -0.1430 
  9 C        3.2460     1.4280     1.9400 C.3   1 <1>   0.5240 
 10 C        3.3990    -4.4240    -0.0590 C.ar  1 <1>  -0.1500 
 11 C        4.7840    -2.9390    -1.2330 C.ar  1 <1>  -0.1500 
 12 C        3.6140     2.8040     1.4050 C.2   1 <1>   0.0460 
 13 C        4.4930    -5.2660     0.0550 C.ar  1 <1>   0.1600 
 14 C        5.8120    -3.8510    -1.0640 C.ar  1 <1>   0.1600 
 15 N        4.5060     2.9180     0.3950 N.2   1 <1>  -0.5650 
 16 C        3.1590     4.0190     1.7830 C.2   1 <1>  -0.3020 
 17 N        5.6960    -5.0020    -0.4240 N.ar  1 <1>  -0.6200 
 18 C        4.5850     4.1940     0.1910 C.2   1 <1>   0.0060 
 19 N        3.7860     4.9190     1.0040 N.pl3 1 <1>   0.0330 
 20 C        5.4830     4.8350    -0.8540 C.3   1 <1>   0.0200 
 21 C        6.6370     5.6060    -0.1980 C.3   1 <1>  -0.1600 
 22 C        7.5600     6.2380    -1.2480 C.3   1 <1>  -0.1600 
 23 C        8.7050     7.0050    -0.5830 C.3   1 <1>  -0.2400 
 24 H       -0.2650    -0.9210     1.8260 H     1 <1>   0.4000 
 25 H        0.2280    -0.6630    -0.3290 H     1 <1>   0.0800 
 26 H        1.6720    -2.3870     1.1730 H     1 <1>   0.0800 
 27 H        1.3930     1.6530     0.3170 H     1 <1>   0.0800 
 28 H        2.0660     0.7410    -1.0220 H     1 <1>   0.0800 
 29 H        4.1750    -1.3580     0.8120 H     1 <1>   0.0800 
 30 H        3.1890    -1.0130     2.2190 H     1 <1>   0.0800 
 31 H        2.6300    -1.4830    -1.5630 H     1 <1>   0.0800 
 32 H        1.5170    -2.7710    -1.2240 H     1 <1>   0.0800 
 33 H        3.9480     0.8470     0.1750 H     1 <1>   0.4500 
 34 H        2.3120     1.4560     2.4760 H     1 <1>   0.0800 
 35 H        4.0280     1.0980     2.6030 H     1 <1>   0.0800 
 36 H        2.4580    -4.7270     0.3620 H     1 <1>   0.1500 
 37 H        4.9770    -2.0300    -1.7730 H     1 <1>   0.1500 
 38 H        4.3720    -6.2070     0.5670 H     1 <1>   0.1500 
 39 H        6.7810    -3.6240    -1.4770 H     1 <1>   0.1500 
 40 H        2.4470     4.2960     2.5410 H     1 <1>   0.1500 
 41 H        3.6940     5.9410     1.0210 H     1 <1>   0.2700 
 42 H        5.8850     4.0640    -1.4880 H     1 <1>   0.0800 
 43 H        4.8990     5.4960    -1.4680 H     1 <1>   0.0800 
 44 H        6.2410     6.3780     0.4380 H     1 <1>   0.0800 
 45 H        7.2040     4.9270     0.4160 H     1 <1>   0.0800 
 46 H        7.9720     5.4680    -1.8800 H     1 <1>   0.0800 
 47 H        6.9970     6.9140    -1.8700 H     1 <1>   0.0800 
 48 H        9.2960     6.3440     0.0280 H     1 <1>   0.0800 
 49 H        8.3210     7.7970     0.0350 H     1 <1>   0.0800 
 50 H        9.3440     7.4370    -1.3330 H     1 <1>   0.0800 
@<TRIPOS>BOND
  1   1   2  1   
  2   1  24  1   
  3   2   3  1   
  4   2   4  1   
  5   2  25  1   
  6   3   5  1   
  7   3   6  1   
  8   3  26  1   
  9   4   7  1   
 10   4  27  1   
 11   4  28  1   
 12   5   7  1   
 13   5  29  1   
 14   5  30  1   
 15   6   8  1   
 16   6  31  1   
 17   6  32  1   
 18   7   9  1   
 19   7  33  1   
 20   8  10  ar  
 21   8  11  ar  
 22   9  12  1   
 23   9  34  1   
 24   9  35  1   
 25  10  13  ar  
 26  10  36  1   
 27  11  14  ar  
 28  11  37  1   
 29  12  15  1   
 30  12  16  2   
 31  13  17  ar  
 32  13  38  1   
 33  14  17  ar  
 34  14  39  1   
 35  15  18  2   
 36  16  19  1   
 37  16  40  1   
 38  18  19  1   
 39  18  20  1   
 40  19  41  1   
 41  20  21  1   
 42  20  42  1   
 43  20  43  1   
 44  21  22  1   
 45  21  44  1   
 46  21  45  1   
 47  22  23  1   
 48  22  46  1   
 49  22  47  1   
 50  23  48  1   
 51  23  49  1   
 52  23  50  1   
@<TRIPOS>SUBSTRUCTURE
  1 ****   7 GROUP 4 **** **** 0

# MOE 2024.06 (io_trps.svl 2023.06)
