@<TRIPOS>MOLECULE
Untitled Document
47 51 1 0 0 
SMALL
USER_CHARGES


@<TRIPOS>ATOM
  1 F       -0.1740    -1.8730    -1.3050 F     1 <1>  -0.1900 
  2 C        1.0770    -1.9610    -0.9110 C.ar  1 <1>   0.1900 
  3 C        1.5850    -1.1570     0.1030 C.ar  1 <1>   0.4100 
  4 C        1.8970    -2.8910    -1.4800 C.ar  1 <1>   0.1600 
  5 N        2.8120    -1.3280     0.5380 N.ar  1 <1>  -0.6200 
  6 N        0.9160    -0.1370     0.7230 N.pl3 1 <1>  -0.8690 
  7 N        3.1420    -3.0610    -1.0680 N.ar  1 <1>  -0.6200 
  8 C        3.5500    -2.2530    -0.0810 C.ar  1 <1>   0.6740 
  9 C        0.4650     1.0000    -0.1270 C.3   1 <1>   0.2890 
 10 C        4.9190    -2.4110     0.3620 C.2   1 <1>  -0.0540 
 11 C        1.8260     1.7780    -1.0290 C.3   1 <1>  -0.1860 
 12 C       -0.3400     2.2130     0.8710 C.3   1 <1>  -0.0800 
 13 C        5.7410    -1.3950     0.9350 C.ar  1 <1>   0.0000 
 14 C        5.6990    -3.5370     0.3220 C.2   1 <1>  -0.3020 
 15 C        1.5690     1.7600    -2.5240 C.2   1 <1>   0.9060 
 16 C        2.1140     3.3960    -0.3620 C.3   1 <1>  -0.0800 
 17 C        0.0240     2.8960    -0.1580 C.3   1 <1>  -0.1600 
 18 C       -0.0440     3.8160     1.5550 C.3   1 <1>  -0.1600 
 19 C        6.9760    -1.9810     1.2240 C.ar  1 <1>   0.1050 
 20 C        5.5710    -0.0410     1.2260 C.ar  1 <1>  -0.1500 
 21 N        6.9310    -3.2860     0.8410 N.pl3 1 <1>   0.0330 
 22 O        1.0450     0.7530    -3.0120 O.co2 1 <1>  -0.9000 
 23 O        1.8900     2.7350    -3.2110 O.co2 1 <1>  -0.9000 
 24 C        1.7560     2.7230     0.6750 C.3   1 <1>  -0.1600 
 25 C        1.3010     4.6160     0.6250 C.3   1 <1>  -0.1600 
 26 N        8.0400    -1.3760     1.7770 N.ar  1 <1>  -0.5670 
 27 C        6.6540     0.5790     1.7900 C.ar  1 <1>   0.1900 
 28 C        7.8490    -0.1030     2.0490 C.ar  1 <1>   0.1600 
 29 F        6.5780     1.8490     2.1020 F     1 <1>  -0.1900 
 30 H        1.5270    -3.5070    -2.2790 H     1 <1>   0.1500 
 31 H        1.4460     0.2170     1.5180 H     1 <1>   0.4000 
 32 H       -0.2340     0.5820    -0.8390 H     1 <1>   0.0800 
 33 H        2.7110     1.1670    -0.9570 H     1 <1>   0.0800 
 34 H       -1.3980     2.0250     0.8490 H     1 <1>   0.0800 
 35 H        5.4190    -4.5040    -0.0580 H     1 <1>   0.1500 
 36 H        3.1710     3.5950    -0.3790 H     1 <1>   0.0800 
 37 H       -0.3270     2.5840    -1.1610 H     1 <1>   0.0800 
 38 H       -0.5540     3.8020    -0.4290 H     1 <1>   0.0800 
 39 H       -0.9310     4.4330     1.5570 H     1 <1>   0.0800 
 40 H        0.2270     3.7080     2.5930 H     1 <1>   0.0800 
 41 H        4.6530     0.4770     1.0170 H     1 <1>   0.1500 
 42 H        7.7200    -3.9300     0.9420 H     1 <1>   0.2700 
 43 H        2.3520     1.8350     0.9480 H     1 <1>   0.0800 
 44 H        2.1040     3.0530     1.6750 H     1 <1>   0.0800 
 45 H        1.9810     5.1320     1.2860 H     1 <1>   0.0800 
 46 H        0.9080     5.3780    -0.0300 H     1 <1>   0.0800 
 47 H        8.6570     0.4480     2.4950 H     1 <1>   0.1500 
@<TRIPOS>BOND
  1   1   2  1   
  2   2   3  ar  
  3   2   4  ar  
  4   3   5  ar  
  5   3   6  1   
  6   4   7  ar  
  7   4  30  1   
  8   5   8  ar  
  9   6   9  1   
 10   6  31  1   
 11   7   8  ar  
 12   8  10  1   
 13   9  11  1   
 14   9  12  1   
 15   9  32  1   
 16  10  13  1   
 17  10  14  2   
 18  11  15  1   
 19  11  16  1   
 20  11  33  1   
 21  12  17  1   
 22  12  18  1   
 23  12  34  1   
 24  13  19  ar  
 25  13  20  ar  
 26  14  21  1   
 27  14  35  1   
 28  15  22  ar  
 29  15  23  ar  
 30  16  24  1   
 31  16  25  1   
 32  16  36  1   
 33  17  24  1   
 34  17  37  1   
 35  17  38  1   
 36  18  25  1   
 37  18  39  1   
 38  18  40  1   
 39  19  21  1   
 40  19  26  ar  
 41  20  27  ar  
 42  20  41  1   
 43  21  42  1   
 44  24  43  1   
 45  24  44  1   
 46  25  45  1   
 47  25  46  1   
 48  26  28  ar  
 49  27  28  ar  
 50  27  29  1   
 51  28  47  1   
@<TRIPOS>SUBSTRUCTURE
  1 ****   5 GROUP 4 **** **** 0

# MOE 2024.06 (io_trps.svl 2023.06)
