@<TRIPOS>MOLECULE
NONAME
45 48 1 0 0 
SMALL
USER_CHARGES


@<TRIPOS>ATOM
  1 O       -1.9650     0.6490    -1.8990 O.2   1 <1>  -0.5700 
  2 C       -2.0620    -0.2430    -1.0930 C.2   1 <1>   0.5690 
  3 N       -2.3450     0.0330     0.1950 N.am  1 <1>  -0.7300 
  4 C       -1.8260    -1.6770    -1.5230 C.3   1 <1>  -0.0190 
  5 C       -2.5520    -1.0020     1.2390 C.3   1 <1>   0.2200 
  6 C       -0.6510    -2.3050    -0.7560 C.3   1 <1>   0.1200 
  7 C       -3.1020    -2.5370    -1.4820 C.3   1 <1>   0.1100 
  8 C       -1.2580    -1.8100     1.4790 C.3   1 <1>   0.1200 
  9 C       -3.7610    -1.9230     0.9400 C.3   1 <1>   0.1100 
 10 O       -1.0280    -2.7820     0.5000 O.3   1 <1>  -0.5600 
 11 N       -4.1250    -2.1230    -0.4900 N.3   1 <1>  -0.8100 
 12 C       -5.4220    -2.8070    -0.6710 C.3   1 <1>   0.2480 
 13 C       -5.4860    -4.2910    -0.2810 C.2   1 <1>  -0.1240 
 14 C       -6.7810    -4.8860    -0.4390 C.2   1 <1>   0.6160 
 15 C       -4.4540    -5.0430     0.1790 C.2   1 <1>  -0.1780 
 16 O       -7.7240    -4.2230    -0.8530 O.2   1 <1>  -0.5700 
 17 N       -6.9620    -6.2260    -0.1180 N.am  1 <1>  -0.4770 
 18 C       -4.6250    -6.4190     0.5120 C.ar  1 <1>   0.0280 
 19 C       -5.8930    -7.0090     0.3610 C.ar  1 <1>   0.1170 
 20 C       -8.3140    -6.8430    -0.2850 C.3   1 <1>   0.0600 
 21 C       -3.5580    -7.1850     0.9840 C.ar  1 <1>  -0.1500 
 22 C       -6.0350    -8.3620     0.6960 C.ar  1 <1>  -0.1500 
 23 C       -3.7240    -8.5130     1.3060 C.ar  1 <1>  -0.1500 
 24 C       -4.9700    -9.1030     1.1610 C.ar  1 <1>  -0.1500 
 25 H       -2.6400     0.9880     0.3990 H     1 <1>   0.3700 
 26 H       -1.5120    -1.6360    -2.5490 H     1 <1>   0.0800 
 27 H       -2.7590    -0.4890     2.1610 H     1 <1>   0.0800 
 28 H        0.1580    -1.6030    -0.6410 H     1 <1>   0.0800 
 29 H       -0.2840    -3.1520    -1.3080 H     1 <1>   0.0800 
 30 H       -2.8290    -3.5660    -1.3440 H     1 <1>   0.0800 
 31 H       -3.5580    -2.4650    -2.4550 H     1 <1>   0.0800 
 32 H       -1.3460    -2.3350     2.4120 H     1 <1>   0.0800 
 33 H       -0.4040    -1.1580     1.5400 H     1 <1>   0.0800 
 34 H       -4.6120    -1.4810     1.4280 H     1 <1>   0.0800 
 35 H       -3.5980    -2.8680     1.4220 H     1 <1>   0.0800 
 36 H       -6.1640    -2.2760    -0.0990 H     1 <1>   0.0800 
 37 H       -5.7140    -2.7150    -1.7040 H     1 <1>   0.0800 
 38 H       -3.4640    -4.6530     0.3170 H     1 <1>   0.1500 
 39 H       -8.2520    -7.6590    -0.9840 H     1 <1>   0.0800 
 40 H       -9.0340    -6.1370    -0.6580 H     1 <1>   0.0800 
 41 H       -8.6620    -7.2080     0.6650 H     1 <1>   0.0800 
 42 H       -2.5910    -6.7270     1.0960 H     1 <1>   0.1500 
 43 H       -6.9840    -8.8510     0.5970 H     1 <1>   0.1500 
 44 H       -2.8940    -9.0950     1.6700 H     1 <1>   0.1500 
 45 H       -5.0990   -10.1420     1.4140 H     1 <1>   0.1500 
@<TRIPOS>BOND
  1   1   2  2   
  2   2   3  am  
  3   2   4  1   
  4   3   5  1   
  5   3  25  1   
  6   4   6  1   
  7   4   7  1   
  8   4  26  1   
  9   5   8  1   
 10   5   9  1   
 11   5  27  1   
 12   6  10  1   
 13   6  28  1   
 14   6  29  1   
 15   7  11  1   
 16   7  30  1   
 17   7  31  1   
 18   8  10  1   
 19   8  32  1   
 20   8  33  1   
 21   9  11  1   
 22   9  34  1   
 23   9  35  1   
 24  11  12  1   
 25  12  13  1   
 26  12  36  1   
 27  12  37  1   
 28  13  14  1   
 29  13  15  2   
 30  14  16  2   
 31  14  17  am  
 32  15  18  1   
 33  15  38  1   
 34  17  19  1   
 35  17  20  1   
 36  18  19  ar  
 37  18  21  ar  
 38  19  22  ar  
 39  20  39  1   
 40  20  40  1   
 41  20  41  1   
 42  21  23  ar  
 43  21  42  1   
 44  22  24  ar  
 45  22  43  1   
 46  23  24  ar  
 47  23  44  1   
 48  24  45  1   
@<TRIPOS>SUBSTRUCTURE
  1 ****  15 GROUP 4 **** **** 0

# MOE 2024.06 (io_trps.svl 2023.06)
