@<TRIPOS>MOLECULE
NONAME
58 60 1 0 0 
SMALL
USER_CHARGES


@<TRIPOS>ATOM
  1 O       -0.1430     1.0870     0.7320 O.2   1 <1>  -0.5700 
  2 C       -0.2450     2.2390     0.3960 C.2   1 <1>   0.5690 
  3 N       -0.9000     3.1310     1.1670 N.am  1 <1>  -0.7300 
  4 C        0.3350     2.7090    -0.9370 C.3   1 <1>   0.1810 
  5 C       -1.1560     4.5390     0.7730 C.3   1 <1>   0.3640 
  6 O        0.5900     4.0950    -0.9430 O.3   1 <1>  -0.5600 
  7 C       -2.6690     4.7550     0.7650 C.ar  1 <1>  -0.1440 
  8 C       -0.5280     4.9160    -0.6020 C.3   1 <1>   0.2610 
  9 C       -3.5280     3.8390     0.1670 C.ar  1 <1>  -0.1500 
 10 C       -3.2090     5.8870     1.3610 C.ar  1 <1>  -0.1500 
 11 C       -0.0990     6.3900    -0.6020 C.2   1 <1>   0.5690 
 12 C       -4.8950     4.0510     0.1680 C.ar  1 <1>  -0.1500 
 13 C       -4.5760     6.1000     1.3610 C.ar  1 <1>  -0.1500 
 14 O       -0.8400     7.2340    -0.1540 O.2   1 <1>  -0.5700 
 15 N        1.1270     6.7060    -1.1030 N.am  1 <1>  -0.7300 
 16 C       -5.4210     5.1810     0.7650 C.ar  1 <1>  -0.1500 
 17 C        1.7710     8.0230    -1.2320 C.3   1 <1>   0.3000 
 18 C        1.7570     8.7260     0.1640 C.3   1 <1>   0.1100 
 19 C        0.9920     8.7940    -2.3050 C.3   1 <1>  -0.2400 
 20 C        3.1800     7.7220    -1.7480 C.3   1 <1>  -0.2400 
 21 N        2.6560     9.8850     0.4390 N.3   1 <1>  -0.8100 
 22 C        4.0470     9.5730     0.8440 C.3   1 <1>   0.1100 
 23 C        2.5470    11.0560    -0.4550 C.3   1 <1>   0.1100 
 24 C        4.8020    10.8300     1.3430 C.3   1 <1>   0.3430 
 25 C        3.2300    12.3090     0.1470 C.3   1 <1>   0.3430 
 26 N        3.8730    12.0020     1.4710 N.4   1 <1>  -0.9590 
 27 C        4.4940    13.1910     2.1190 C.3   1 <1>   0.2630 
 28 H       -1.3450     2.8030     2.0260 H     1 <1>   0.3700 
 29 H       -0.3510     2.4820    -1.7320 H     1 <1>   0.0800 
 30 H        1.2640     2.2020    -1.1190 H     1 <1>   0.0800 
 31 H       -0.7200     5.1700     1.5290 H     1 <1>   0.0800 
 32 H       -1.2650     4.7900    -1.3730 H     1 <1>   0.0800 
 33 H       -3.1400     2.9510    -0.3010 H     1 <1>   0.1500 
 34 H       -2.5680     6.6180     1.8230 H     1 <1>   0.1500 
 35 H       -5.5520     3.3350    -0.2960 H     1 <1>   0.1500 
 36 H       -4.9810     6.9830     1.8240 H     1 <1>   0.1500 
 37 H        1.6840     5.9160    -1.4400 H     1 <1>   0.3700 
 38 H       -6.4850     5.3470     0.7660 H     1 <1>   0.1500 
 39 H        1.9620     7.9750     0.9080 H     1 <1>   0.0800 
 40 H        0.7510     9.0610     0.3450 H     1 <1>   0.0800 
 41 H        1.4960     9.6980    -2.5810 H     1 <1>   0.0800 
 42 H        0.0120     9.0510    -1.9440 H     1 <1>   0.0800 
 43 H        0.8850     8.1960    -3.1920 H     1 <1>   0.0800 
 44 H        3.7020     8.6340    -1.9650 H     1 <1>   0.0800 
 45 H        3.1350     7.1510    -2.6580 H     1 <1>   0.0800 
 46 H        3.7380     7.1690    -1.0140 H     1 <1>   0.0800 
 47 H        4.0270     8.8440     1.6360 H     1 <1>   0.0800 
 48 H        4.5950     9.1450     0.0250 H     1 <1>   0.0800 
 49 H        3.0050    10.8350    -1.4030 H     1 <1>   0.0800 
 50 H        1.5070    11.2760    -0.6330 H     1 <1>   0.0800 
 51 H        5.5920    11.0650     0.6490 H     1 <1>   0.0800 
 52 H        5.2560    10.6100     2.2950 H     1 <1>   0.0800 
 53 H        2.4890    13.0810     0.2720 H     1 <1>   0.0800 
 54 H        3.9690    12.6740    -0.5460 H     1 <1>   0.0800 
 55 H        3.0920    11.6340     2.0400 H     1 <1>   0.4500 
 56 H        5.3050    13.5660     1.5170 H     1 <1>   0.0800 
 57 H        4.8780    12.9280     3.0920 H     1 <1>   0.0800 
 58 H        3.7620    13.9740     2.2410 H     1 <1>   0.0800 
@<TRIPOS>BOND
  1   1   2  2   
  2   2   3  am  
  3   2   4  1   
  4   3   5  1   
  5   3  28  1   
  6   4   6  1   
  7   4  29  1   
  8   4  30  1   
  9   5   7  1   
 10   5   8  1   
 11   5  31  1   
 12   6   8  1   
 13   7   9  ar  
 14   7  10  ar  
 15   8  11  1   
 16   8  32  1   
 17   9  12  ar  
 18   9  33  1   
 19  10  13  ar  
 20  10  34  1   
 21  11  14  2   
 22  11  15  am  
 23  12  16  ar  
 24  12  35  1   
 25  13  16  ar  
 26  13  36  1   
 27  15  17  1   
 28  15  37  1   
 29  16  38  1   
 30  17  18  1   
 31  17  19  1   
 32  17  20  1   
 33  18  21  1   
 34  18  39  1   
 35  18  40  1   
 36  19  41  1   
 37  19  42  1   
 38  19  43  1   
 39  20  44  1   
 40  20  45  1   
 41  20  46  1   
 42  21  22  1   
 43  21  23  1   
 44  22  24  1   
 45  22  47  1   
 46  22  48  1   
 47  23  25  1   
 48  23  49  1   
 49  23  50  1   
 50  24  26  1   
 51  24  51  1   
 52  24  52  1   
 53  25  26  1   
 54  25  53  1   
 55  25  54  1   
 56  26  27  1   
 57  26  55  1   
 58  27  56  1   
 59  27  57  1   
 60  27  58  1   
@<TRIPOS>SUBSTRUCTURE
  1 ****  11 GROUP 4 **** **** 0

# MOE 2024.06 (io_trps.svl 2023.06)
