@<TRIPOS>MOLECULE
NONAME
44 47 1 0 0 
SMALL
USER_CHARGES


@<TRIPOS>ATOM
  1 O       -0.0850     0.6660    -0.9900 O.2   1 <1>  -0.5700 
  2 C       -0.0190     1.8750    -0.8720 C.2   1 <1>   0.5440 
  3 N       -1.1510     2.6340    -1.0960 N.am  1 <1>  -0.6600 
  4 C        1.2420     2.4770    -0.4890 C.ar  1 <1>   0.0860 
  5 C       -2.3810     2.0520    -1.7040 C.3   1 <1>   0.1400 
  6 C       -1.3320     4.0260    -0.6010 C.3   1 <1>   0.1400 
  7 C        1.9070     2.0550     0.6670 C.ar  1 <1>  -0.1500 
  8 C        1.8310     3.4890    -1.2640 C.ar  1 <1>  -0.1500 
  9 C       -3.5090     2.0590    -0.6720 C.3   1 <1>  -0.1600 
 10 C       -2.4470     4.0440     0.4460 C.3   1 <1>  -0.1600 
 11 C        3.0980     2.6560     1.0110 C.ar  1 <1>   0.0830 
 12 C        3.0320     4.0840    -0.9060 C.ar  1 <1>  -0.1500 
 13 C       -3.7550     3.4610    -0.1070 C.3   1 <1>   0.4180 
 14 O        3.8790     2.4070     2.0690 O.3   1 <1>  -0.3630 
 15 C        3.6470     3.6460     0.2490 C.ar  1 <1>   0.0830 
 16 O       -4.1960     4.2490    -1.1880 O.3   1 <1>  -0.5600 
 17 C       -4.8260     3.3960     0.9780 C.2   1 <1>  -0.2880 
 18 C        4.9990     3.2840     1.9670 C.3   1 <1>   0.4000 
 19 O        4.7920     4.0620     0.7900 O.3   1 <1>  -0.3630 
 20 C       -4.8950     5.4250    -0.8880 C.3   1 <1>   0.1200 
 21 C       -5.9490     4.1190     0.9680 C.2   1 <1>  -0.2760 
 22 C       -6.2060     5.1030    -0.1570 C.3   1 <1>  -0.0220 
 23 C       -7.0390     4.0310     2.0210 C.3   1 <1>  -0.1020 
 24 H       -2.2020     1.0460    -2.0430 H     1 <1>   0.0800 
 25 H       -2.6640     2.6440    -2.5580 H     1 <1>   0.0800 
 26 H       -1.5950     4.6630    -1.4290 H     1 <1>   0.0800 
 27 H       -0.4270     4.4020    -0.1580 H     1 <1>   0.0800 
 28 H        1.4950     1.2710     1.2750 H     1 <1>   0.1500 
 29 H        1.3300     3.8040    -2.1640 H     1 <1>   0.1500 
 30 H       -3.2440     1.3880     0.1250 H     1 <1>   0.0800 
 31 H       -4.4160     1.6940    -1.1180 H     1 <1>   0.0800 
 32 H       -2.6070     5.0430     0.8010 H     1 <1>   0.0800 
 33 H       -2.1310     3.4560     1.2890 H     1 <1>   0.0800 
 34 H        3.4820     4.8600    -1.4990 H     1 <1>   0.1500 
 35 H       -4.5870     2.6940     1.7550 H     1 <1>   0.1500 
 36 H        5.9010     2.7060     1.8640 H     1 <1>   0.0800 
 37 H        5.0330     3.9290     2.8270 H     1 <1>   0.0800 
 38 H       -5.0990     5.9320    -1.8140 H     1 <1>   0.0800 
 39 H       -4.2700     6.0520    -0.2790 H     1 <1>   0.0800 
 40 H       -6.9160     4.6880    -0.8500 H     1 <1>   0.0800 
 41 H       -6.6130     6.0190     0.2330 H     1 <1>   0.0800 
 42 H       -7.9690     3.7410     1.5670 H     1 <1>   0.0800 
 43 H       -7.1680     4.9830     2.5040 H     1 <1>   0.0800 
 44 H       -6.7820     3.3020     2.7690 H     1 <1>   0.0800 
@<TRIPOS>BOND
  1   1   2  2   
  2   2   3  am  
  3   2   4  1   
  4   3   5  1   
  5   3   6  1   
  6   4   7  ar  
  7   4   8  ar  
  8   5   9  1   
  9   5  24  1   
 10   5  25  1   
 11   6  10  1   
 12   6  26  1   
 13   6  27  1   
 14   7  11  ar  
 15   7  28  1   
 16   8  12  ar  
 17   8  29  1   
 18   9  13  1   
 19   9  30  1   
 20   9  31  1   
 21  10  13  1   
 22  10  32  1   
 23  10  33  1   
 24  11  14  1   
 25  11  15  ar  
 26  12  15  ar  
 27  12  34  1   
 28  13  16  1   
 29  13  17  1   
 30  14  18  1   
 31  15  19  1   
 32  16  20  1   
 33  17  21  2   
 34  17  35  1   
 35  18  19  1   
 36  18  36  1   
 37  18  37  1   
 38  20  22  1   
 39  20  38  1   
 40  20  39  1   
 41  21  22  1   
 42  21  23  1   
 43  22  40  1   
 44  22  41  1   
 45  23  42  1   
 46  23  43  1   
 47  23  44  1   
@<TRIPOS>SUBSTRUCTURE
  1 ****   6 GROUP 4 **** **** 0

# MOE 2024.06 (io_trps.svl 2023.06)
