@<TRIPOS>MOLECULE
NONAME
60 62 1 0 0 
SMALL
USER_CHARGES


@<TRIPOS>ATOM
  1 O       -0.2460    -1.1500    -1.6310 O.3   1 <1>  -0.6800 
  2 C        0.6890    -2.1040    -1.2780 C.3   1 <1>   0.1200 
  3 C        1.1950    -1.8540     0.1780 C.3   1 <1>   0.0000 
  4 C        2.5750    -2.5330     0.3930 C.3   1 <1>   0.4230 
  5 C        1.3730    -0.3370     0.4670 C.3   1 <1>  -0.1600 
  6 C        0.1670    -2.4140     1.2000 C.3   1 <1>  -0.1600 
  7 N        2.5290    -4.0590     0.2630 N.4   1 <1>  -0.9590 
  8 C        3.6860    -1.8200    -0.4510 C.3   1 <1>   0.3430 
  9 C        2.3690     0.3260    -0.4790 C.3   1 <1>   0.3430 
 10 C        0.5200    -3.8150     1.7330 C.3   1 <1>  -0.1600 
 11 C        1.2170    -4.6730     0.6810 C.3   1 <1>   0.3430 
 12 C        2.9260    -4.6410    -1.0650 C.3   1 <1>   0.2630 
 13 N        3.7100    -0.3170    -0.3030 N.4   1 <1>  -0.9590 
 14 C        4.7140     0.3290    -1.2040 C.3   1 <1>   0.4860 
 15 C        4.9120     1.7520    -0.7300 C.ar  1 <1>  -0.1440 
 16 C        4.3380     2.8080    -1.4240 C.ar  1 <1>  -0.1500 
 17 C        5.6620     2.0140     0.4080 C.ar  1 <1>  -0.1500 
 18 C        4.4990     4.1060    -0.9740 C.ar  1 <1>  -0.1500 
 19 C        5.8180     3.3140     0.8540 C.ar  1 <1>  -0.1500 
 20 C        5.2370     4.3670     0.1680 C.ar  1 <1>  -0.1440 
 21 C        5.4160     5.7970     0.6650 C.3   1 <1>  -0.0170 
 22 C        6.8090     6.3660     0.3390 C.3   1 <1>  -0.0800 
 23 C        6.9710     7.7610     0.9540 C.3   1 <1>  -0.2400 
 24 C        7.0590     6.4380    -1.1740 C.3   1 <1>  -0.2400 
 25 H       -0.7640    -1.4070    -2.4250 H     1 <1>   0.4000 
 26 H        0.2190    -3.0680    -1.3650 H     1 <1>   0.0800 
 27 H        1.4820    -2.0400    -2.0020 H     1 <1>   0.0800 
 28 H        2.8250    -2.3330     1.4220 H     1 <1>   0.0800 
 29 H        1.6970    -0.1760     1.4800 H     1 <1>   0.0800 
 30 H        0.4270     0.1710     0.3720 H     1 <1>   0.0800 
 31 H        0.0730    -1.7610     2.0520 H     1 <1>   0.0800 
 32 H       -0.8110    -2.4410     0.7450 H     1 <1>   0.0800 
 33 H        3.2050    -4.4240     0.9550 H     1 <1>   0.4500 
 34 H        3.5240    -2.0540    -1.4890 H     1 <1>   0.0800 
 35 H        4.6460    -2.2150    -0.1640 H     1 <1>   0.0800 
 36 H        2.4290     1.3810    -0.2520 H     1 <1>   0.0800 
 37 H        2.0260     0.2230    -1.4970 H     1 <1>   0.0800 
 38 H       -0.3860    -4.3070     2.0460 H     1 <1>   0.0800 
 39 H        1.1490    -3.7380     2.6030 H     1 <1>   0.0800 
 40 H        0.5640    -4.7640    -0.1720 H     1 <1>   0.0800 
 41 H        1.3830    -5.6650     1.0730 H     1 <1>   0.0800 
 42 H        2.2510    -4.3150    -1.8400 H     1 <1>   0.0800 
 43 H        2.8920    -5.7190    -1.0220 H     1 <1>   0.0800 
 44 H        3.9300    -4.3520    -1.3280 H     1 <1>   0.0800 
 45 H        4.0220    -0.0490     0.6430 H     1 <1>   0.4500 
 46 H        5.6580    -0.1900    -1.1540 H     1 <1>   0.0800 
 47 H        4.3700     0.3230    -2.2260 H     1 <1>   0.0800 
 48 H        3.7640     2.6430    -2.3200 H     1 <1>   0.1500 
 49 H        6.1400     1.2240     0.9610 H     1 <1>   0.1500 
 50 H        4.0510     4.9190    -1.5200 H     1 <1>   0.1500 
 51 H        6.4010     3.5110     1.7380 H     1 <1>   0.1500 
 52 H        4.6600     6.4300     0.2330 H     1 <1>   0.0800 
 53 H        5.2680     5.8090     1.7310 H     1 <1>   0.0800 
 54 H        7.5530     5.7190     0.7740 H     1 <1>   0.0800 
 55 H        6.2500     8.4450     0.5420 H     1 <1>   0.0800 
 56 H        7.9570     8.1440     0.7570 H     1 <1>   0.0800 
 57 H        6.8350     7.7200     2.0210 H     1 <1>   0.0800 
 58 H        6.3160     7.0530    -1.6530 H     1 <1>   0.0800 
 59 H        7.0260     5.4560    -1.6100 H     1 <1>   0.0800 
 60 H        8.0300     6.8560    -1.3730 H     1 <1>   0.0800 
@<TRIPOS>BOND
  1   1   2  1   
  2   1  25  1   
  3   2   3  1   
  4   2  26  1   
  5   2  27  1   
  6   3   4  1   
  7   3   5  1   
  8   3   6  1   
  9   4   7  1   
 10   4   8  1   
 11   4  28  1   
 12   5   9  1   
 13   5  29  1   
 14   5  30  1   
 15   6  10  1   
 16   6  31  1   
 17   6  32  1   
 18   7  11  1   
 19   7  12  1   
 20   7  33  1   
 21   8  13  1   
 22   8  34  1   
 23   8  35  1   
 24   9  13  1   
 25   9  36  1   
 26   9  37  1   
 27  10  11  1   
 28  10  38  1   
 29  10  39  1   
 30  11  40  1   
 31  11  41  1   
 32  12  42  1   
 33  12  43  1   
 34  12  44  1   
 35  13  14  1   
 36  13  45  1   
 37  14  15  1   
 38  14  46  1   
 39  14  47  1   
 40  15  16  ar  
 41  15  17  ar  
 42  16  18  ar  
 43  16  48  1   
 44  17  19  ar  
 45  17  49  1   
 46  18  20  ar  
 47  18  50  1   
 48  19  20  ar  
 49  19  51  1   
 50  20  21  1   
 51  21  22  1   
 52  21  52  1   
 53  21  53  1   
 54  22  23  1   
 55  22  24  1   
 56  22  54  1   
 57  23  55  1   
 58  23  56  1   
 59  23  57  1   
 60  24  58  1   
 61  24  59  1   
 62  24  60  1   
@<TRIPOS>SUBSTRUCTURE
  1 ****  13 GROUP 4 **** **** 0

# MOE 2024.06 (io_trps.svl 2023.06)
