@<TRIPOS>MOLECULE
NONAME
42 43 1 0 0 
SMALL
USER_CHARGES


@<TRIPOS>ATOM
  1 S       -0.3350     0.0180     0.5240 S.o2  1 <1>   1.3330 
  2 O       -1.0650     1.2660     0.5240 O.2   1 <1>  -0.6500 
  3 O       -0.1290    -0.6870     1.7680 O.2   1 <1>  -0.6500 
  4 N       -1.0980    -1.0460    -0.5570 N.am  1 <1>  -0.8490 
  5 C        1.2440     0.3170    -0.2730 C.3   1 <1>  -0.0550 
  6 C       -0.7310    -2.4510    -0.3460 C.3   1 <1>   0.1160 
  7 C       -2.5570    -0.9040    -0.5410 C.3   1 <1>   0.1160 
  8 C        2.1220     1.3490     0.4640 C.3   1 <1>  -0.0800 
  9 C        3.3330     1.7340    -0.3690 C.3   1 <1>   0.2200 
 10 C        2.7680     0.7600     1.7240 C.3   1 <1>   0.1200 
 11 N        3.8180     3.0650     0.0660 N.am  1 <1>  -0.7300 
 12 C        4.3420     0.6670     0.0380 C.3   1 <1>   0.1200 
 13 O        4.0610     0.3610     1.3710 O.3   1 <1>  -0.5600 
 14 C        3.9950     4.1490    -0.7490 C.2   1 <1>   0.5440 
 15 O        3.7500     4.0200    -1.9320 O.2   1 <1>  -0.5700 
 16 C        4.4730     5.4090    -0.2260 C.ar  1 <1>   0.0860 
 17 C        5.0560     6.3550    -1.0710 C.ar  1 <1>   0.1600 
 18 C        4.3810     5.7540     1.1230 C.ar  1 <1>  -0.1500 
 19 N        5.5380     7.5330    -0.7110 N.ar  1 <1>  -0.6200 
 20 C        4.8760     6.9740     1.5140 C.ar  1 <1>  -0.1500 
 21 C        5.4440     7.8240     0.5710 C.ar  1 <1>   0.4100 
 22 N        5.9380     9.0340     0.9100 N.pl3 1 <1>  -0.9000 
 23 H        1.7780    -0.6090    -0.3690 H     1 <1>   0.0800 
 24 H        1.0460     0.6830    -1.2620 H     1 <1>   0.0800 
 25 H       -1.1680    -3.0670    -1.1140 H     1 <1>   0.0800 
 26 H       -1.0790    -2.7910     0.6160 H     1 <1>   0.0800 
 27 H        0.3380    -2.5670    -0.3860 H     1 <1>   0.0800 
 28 H       -3.0060    -1.5810    -1.2470 H     1 <1>   0.0800 
 29 H       -2.8320     0.1000    -0.8180 H     1 <1>   0.0800 
 30 H       -2.9430    -1.1090     0.4440 H     1 <1>   0.0800 
 31 H        1.5210     2.2130     0.6950 H     1 <1>   0.0800 
 32 H        3.1410     1.7250    -1.4290 H     1 <1>   0.0800 
 33 H        2.2430    -0.0910     2.1210 H     1 <1>   0.0800 
 34 H        2.8580     1.5080     2.4920 H     1 <1>   0.0800 
 35 H        4.1830     3.0790     1.0200 H     1 <1>   0.3700 
 36 H        5.3600     1.0030    -0.0510 H     1 <1>   0.0800 
 37 H        4.2020    -0.2290    -0.5390 H     1 <1>   0.0800 
 38 H        5.1270     6.1100    -2.1180 H     1 <1>   0.1500 
 39 H        3.9310     5.0890     1.8370 H     1 <1>   0.1500 
 40 H        4.8350     7.2860     2.5400 H     1 <1>   0.1500 
 41 H        6.2180     9.6080     0.1120 H     1 <1>   0.4000 
 42 H        5.5210     9.5570     1.6790 H     1 <1>   0.4000 
@<TRIPOS>BOND
  1   1   2  2   
  2   1   3  2   
  3   1   4  am  
  4   1   5  1   
  5   4   6  1   
  6   4   7  1   
  7   5   8  1   
  8   5  23  1   
  9   5  24  1   
 10   6  25  1   
 11   6  26  1   
 12   6  27  1   
 13   7  28  1   
 14   7  29  1   
 15   7  30  1   
 16   8   9  1   
 17   8  10  1   
 18   8  31  1   
 19   9  11  1   
 20   9  12  1   
 21   9  32  1   
 22  10  13  1   
 23  10  33  1   
 24  10  34  1   
 25  11  14  am  
 26  11  35  1   
 27  12  13  1   
 28  12  36  1   
 29  12  37  1   
 30  14  15  2   
 31  14  16  1   
 32  16  17  ar  
 33  16  18  ar  
 34  17  19  ar  
 35  17  38  1   
 36  18  20  ar  
 37  18  39  1   
 38  19  21  ar  
 39  20  21  ar  
 40  20  40  1   
 41  21  22  1   
 42  22  41  1   
 43  22  42  1   
@<TRIPOS>SUBSTRUCTURE
  1 ****  11 GROUP 4 **** **** 0

# MOE 2024.06 (io_trps.svl 2023.06)
