@<TRIPOS>MOLECULE
NONAME
50 53 1 0 0 
SMALL
USER_CHARGES


@<TRIPOS>ATOM
  1 O       -2.7330    -1.1300    -3.0890 O.2   1 <1>  -0.5700 
  2 C       -2.6880    -1.3490    -1.9100 C.2   1 <1>   0.5690 
  3 N       -2.4430    -0.3530    -1.0420 N.am  1 <1>  -0.7300 
  4 C       -2.9440    -2.7410    -1.4000 C.3   1 <1>  -0.0190 
  5 C       -2.3570    -0.4900     0.4300 C.3   1 <1>   0.2200 
  6 C       -1.7150    -3.3070    -0.6540 C.3   1 <1>   0.1200 
  7 C       -4.2790    -2.7450    -0.6410 C.3   1 <1>   0.3430 
  8 C       -1.2250    -1.4750     0.8150 C.3   1 <1>   0.1200 
  9 C       -3.7450    -0.8710     1.0210 C.3   1 <1>   0.3430 
 10 O       -1.5920    -2.8230     0.6580 O.3   1 <1>  -0.5600 
 11 N       -4.1700    -2.2990     0.7910 N.4   1 <1>  -0.9590 
 12 C       -5.3610    -2.6760     1.5960 C.3   1 <1>   0.4860 
 13 C       -5.4900    -4.1860     1.5890 C.ar  1 <1>  -0.1440 
 14 C       -6.5230    -4.7860     0.8860 C.ar  1 <1>  -0.1500 
 15 C       -4.5850    -4.9800     2.2780 C.ar  1 <1>  -0.1500 
 16 C       -6.6670    -6.1700     0.8540 C.ar  1 <1>  -0.0230 
 17 C       -4.7210    -6.3560     2.2650 C.ar  1 <1>  -0.1500 
 18 N       -7.7410    -6.7520     0.1180 N.pl3 1 <1>   0.5930 
 19 C       -5.7560    -6.9460     1.5630 C.ar  1 <1>  -0.1500 
 20 N       -9.0020    -6.2560     0.1970 N.2   1 <1>  -0.7070 
 21 C       -7.6980    -7.7530    -0.8080 C.2   1 <1>  -0.3320 
 22 C       -9.7070    -6.9520    -0.6320 C.2   1 <1>   0.1080 
 23 C       -8.9460    -7.9050    -1.2960 C.2   1 <1>  -0.1500 
 24 C       -6.4560    -8.5320    -1.2170 C.3   1 <1>  -0.0600 
 25 C      -11.1870    -6.7220    -0.8340 C.3   1 <1>  -0.0590 
 26 H       -2.2190     0.5590    -1.4580 H     1 <1>   0.3700 
 27 H       -3.0830    -3.3510    -2.2750 H     1 <1>   0.0800 
 28 H       -2.0900     0.4790     0.8170 H     1 <1>   0.0800 
 29 H       -0.8060    -3.0900    -1.1910 H     1 <1>   0.0800 
 30 H       -1.8060    -4.3780    -0.5800 H     1 <1>   0.0800 
 31 H       -4.6530    -3.7550    -0.6600 H     1 <1>   0.0800 
 32 H       -4.9890    -2.1270    -1.1660 H     1 <1>   0.0800 
 33 H       -0.9800    -1.3430     1.8550 H     1 <1>   0.0800 
 34 H       -0.3330    -1.2830     0.2410 H     1 <1>   0.0800 
 35 H       -4.4860    -0.2000     0.6180 H     1 <1>   0.0800 
 36 H       -3.6990    -0.7000     2.0840 H     1 <1>   0.0800 
 37 H       -3.3770    -2.8670     1.1500 H     1 <1>   0.4500 
 38 H       -5.2470    -2.3390     2.6130 H     1 <1>   0.0800 
 39 H       -6.2500    -2.2270     1.1830 H     1 <1>   0.0800 
 40 H       -7.2470    -4.1900     0.3530 H     1 <1>   0.1500 
 41 H       -3.7740    -4.5450     2.8380 H     1 <1>   0.1500 
 42 H       -4.0240    -6.9730     2.8080 H     1 <1>   0.1500 
 43 H       -5.8620    -8.0170     1.5790 H     1 <1>   0.1500 
 44 H       -9.3060    -8.5950    -2.0380 H     1 <1>   0.1500 
 45 H       -6.6680    -9.1360    -2.0810 H     1 <1>   0.0800 
 46 H       -6.1410    -9.1820    -0.4220 H     1 <1>   0.0800 
 47 H       -5.6540    -7.8580    -1.4620 H     1 <1>   0.0800 
 48 H      -11.5920    -7.4470    -1.5150 H     1 <1>   0.0800 
 49 H      -11.3470    -5.7370    -1.2300 H     1 <1>   0.0800 
 50 H      -11.6930    -6.8050     0.1100 H     1 <1>   0.0800 
@<TRIPOS>BOND
  1   1   2  2   
  2   2   3  am  
  3   2   4  1   
  4   3   5  1   
  5   3  26  1   
  6   4   6  1   
  7   4   7  1   
  8   4  27  1   
  9   5   8  1   
 10   5   9  1   
 11   5  28  1   
 12   6  10  1   
 13   6  29  1   
 14   6  30  1   
 15   7  11  1   
 16   7  31  1   
 17   7  32  1   
 18   8  10  1   
 19   8  33  1   
 20   8  34  1   
 21   9  11  1   
 22   9  35  1   
 23   9  36  1   
 24  11  12  1   
 25  11  37  1   
 26  12  13  1   
 27  12  38  1   
 28  12  39  1   
 29  13  14  ar  
 30  13  15  ar  
 31  14  16  ar  
 32  14  40  1   
 33  15  17  ar  
 34  15  41  1   
 35  16  18  1   
 36  16  19  ar  
 37  17  19  ar  
 38  17  42  1   
 39  18  20  1   
 40  18  21  1   
 41  19  43  1   
 42  20  22  2   
 43  21  23  2   
 44  21  24  1   
 45  22  23  1   
 46  22  25  1   
 47  23  44  1   
 48  24  45  1   
 49  24  46  1   
 50  24  47  1   
 51  25  48  1   
 52  25  49  1   
 53  25  50  1   
@<TRIPOS>SUBSTRUCTURE
  1 ****  13 GROUP 4 **** **** 0

# MOE 2024.06 (io_trps.svl 2023.06)
