@<TRIPOS>MOLECULE
NONAME
51 54 1 0 0 
SMALL
USER_CHARGES


@<TRIPOS>ATOM
  1 O        1.3280     0.4950    -0.0680 O.2   1 <1>  -0.5700 
  2 C        2.1500    -0.3790     0.0720 C.2   1 <1>   0.5690 
  3 N        3.3900    -0.0830     0.5910 N.am  1 <1>  -0.6600 
  4 C        1.7940    -1.7980    -0.3690 C.3   1 <1>  -0.0190 
  5 C        4.5890    -0.9750     0.5500 C.3   1 <1>   0.1400 
  6 C        3.6300     1.2450     1.2210 C.3   1 <1>   0.1400 
  7 C        0.4960    -1.9050    -1.1560 C.3   1 <1>   0.1200 
  8 C        1.5340    -2.7670     0.7830 C.3   1 <1>  -0.1600 
  9 C        5.5600    -0.5990    -0.5920 C.3   1 <1>   0.3430 
 10 C        4.0340     2.2790     0.1650 C.3   1 <1>  -0.1600 
 11 O        0.1390    -3.2400    -1.0290 O.3   1 <1>  -0.5600 
 12 C        0.4300    -3.6840     0.2560 C.3   1 <1>   0.1200 
 13 N        5.9150     0.8630    -0.6500 N.4   1 <1>  -0.9590 
 14 C        4.7510     1.7080    -1.0590 C.3   1 <1>   0.3430 
 15 C        7.0850     1.1050    -1.5370 C.3   1 <1>   0.4860 
 16 C        7.6010     2.5030    -1.2610 C.ar  1 <1>  -0.1440 
 17 C        8.2990     2.7670    -0.0850 C.ar  1 <1>  -0.1500 
 18 C        7.3720     3.5250    -2.1810 C.ar  1 <1>  -0.1500 
 19 C        8.7390     4.0550     0.1540 C.ar  1 <1>  -0.1440 
 20 C        7.8190     4.8120    -1.9280 C.ar  1 <1>  -0.1500 
 21 C        8.4980     5.0530    -0.7510 C.ar  1 <1>   0.0820 
 22 C        9.5050     4.6350     1.3080 C.3   1 <1>  -0.0170 
 23 O        8.9900     6.2400    -0.3680 O.3   1 <1>  -0.3630 
 24 C        9.6560     6.1070     0.8800 C.3   1 <1>   0.1200 
 25 H        2.5690    -2.1820    -1.0040 H     1 <1>   0.0800 
 26 H        4.2920    -2.0000     0.4290 H     1 <1>   0.0800 
 27 H        5.1060    -0.9170     1.4930 H     1 <1>   0.0800 
 28 H        4.3990     1.1580     1.9690 H     1 <1>   0.0800 
 29 H        2.7350     1.5770     1.7240 H     1 <1>   0.0800 
 30 H        0.6130    -1.6620    -2.1980 H     1 <1>   0.0800 
 31 H       -0.2900    -1.3090    -0.7220 H     1 <1>   0.0800 
 32 H        1.1710    -2.2460     1.6520 H     1 <1>   0.0800 
 33 H        2.4100    -3.3290     1.0510 H     1 <1>   0.0800 
 34 H        5.1140    -0.8930    -1.5280 H     1 <1>   0.0800 
 35 H        6.4590    -1.1810    -0.4680 H     1 <1>   0.0800 
 36 H        4.6340     3.0470     0.6200 H     1 <1>   0.0800 
 37 H        3.1360     2.7590    -0.1830 H     1 <1>   0.0800 
 38 H       -0.4640    -3.6060     0.8510 H     1 <1>   0.0800 
 39 H        0.7440    -4.7120     0.1960 H     1 <1>   0.0800 
 40 H        6.1960     1.1910     0.2810 H     1 <1>   0.4500 
 41 H        5.0780     2.5320    -1.6720 H     1 <1>   0.0800 
 42 H        4.0550     1.1210    -1.6360 H     1 <1>   0.0800 
 43 H        6.8020     1.0070    -2.5720 H     1 <1>   0.0800 
 44 H        7.8680     0.3950    -1.3260 H     1 <1>   0.0800 
 45 H        8.5090     1.9980     0.6370 H     1 <1>   0.1500 
 46 H        6.8490     3.3360    -3.1030 H     1 <1>   0.1500 
 47 H        7.6540     5.6180    -2.6220 H     1 <1>   0.1500 
 48 H       10.4670     4.1680     1.4180 H     1 <1>   0.0800 
 49 H        8.9520     4.5590     2.2270 H     1 <1>   0.0800 
 50 H       10.6880     6.3730     0.7370 H     1 <1>   0.0800 
 51 H        9.1910     6.7760     1.5820 H     1 <1>   0.0800 
@<TRIPOS>BOND
  1   1   2  2   
  2   2   3  am  
  3   2   4  1   
  4   3   5  1   
  5   3   6  1   
  6   4   7  1   
  7   4   8  1   
  8   4  25  1   
  9   5   9  1   
 10   5  26  1   
 11   5  27  1   
 12   6  10  1   
 13   6  28  1   
 14   6  29  1   
 15   7  11  1   
 16   7  30  1   
 17   7  31  1   
 18   8  12  1   
 19   8  32  1   
 20   8  33  1   
 21   9  13  1   
 22   9  34  1   
 23   9  35  1   
 24  10  14  1   
 25  10  36  1   
 26  10  37  1   
 27  11  12  1   
 28  12  38  1   
 29  12  39  1   
 30  13  14  1   
 31  13  15  1   
 32  13  40  1   
 33  14  41  1   
 34  14  42  1   
 35  15  16  1   
 36  15  43  1   
 37  15  44  1   
 38  16  17  ar  
 39  16  18  ar  
 40  17  19  ar  
 41  17  45  1   
 42  18  20  ar  
 43  18  46  1   
 44  19  21  ar  
 45  19  22  1   
 46  20  21  ar  
 47  20  47  1   
 48  21  23  1   
 49  22  24  1   
 50  22  48  1   
 51  22  49  1   
 52  23  24  1   
 53  24  50  1   
 54  24  51  1   
@<TRIPOS>SUBSTRUCTURE
  1 ****  14 GROUP 4 **** **** 0

# MOE 2024.06 (io_trps.svl 2023.06)
