@<TRIPOS>MOLECULE
NONAME
48 50 1 0 0 
SMALL
USER_CHARGES


@<TRIPOS>ATOM
  1 F       -1.6890    -0.7120     2.1990 F     1 <1>  -0.1900 
  2 C       -2.4260    -1.3220     1.2970 C.ar  1 <1>   0.1900 
  3 C       -2.6890    -0.7960     0.0360 C.ar  1 <1>   0.3920 
  4 C       -2.9580    -2.5440     1.6190 C.ar  1 <1>   0.1600 
  5 O       -2.2420     0.3900    -0.4370 O.3   1 <1>  -0.3630 
  6 N       -3.4340    -1.4620    -0.8200 N.ar  1 <1>  -0.6200 
  7 N       -3.7060    -3.2200     0.7700 N.ar  1 <1>  -0.6200 
  8 C       -1.4730     1.3120     0.3030 C.3   1 <1>   0.0400 
  9 C       -3.8990    -2.6260    -0.4060 C.ar  1 <1>   0.7200 
 10 N       -4.6610    -3.2650    -1.3230 N.pl3 1 <1>  -0.8690 
 11 C       -4.8500    -4.7270    -1.3560 C.3   1 <1>   0.2090 
 12 C       -6.1360    -5.0900    -0.5990 C.3   1 <1>  -0.0800 
 13 C       -6.1760    -6.6030    -0.3260 C.3   1 <1>   0.3430 
 14 C       -7.4030    -4.6030    -1.3300 C.3   1 <1>  -0.1600 
 15 N       -7.5740    -7.1350    -0.2150 N.4   1 <1>  -0.9590 
 16 C       -8.6700    -4.9480    -0.5230 C.3   1 <1>  -0.1600 
 17 C       -8.5080    -6.1550     0.4100 C.3   1 <1>   0.3430 
 18 C       -7.6110    -8.4580     0.4630 C.3   1 <1>   0.4860 
 19 C       -8.9910    -9.0550     0.2780 C.ar  1 <1>  -0.1430 
 20 C       -9.8880    -9.0850     1.3370 C.ar  1 <1>  -0.1500 
 21 C       -9.3720    -9.5720    -0.9530 C.ar  1 <1>  -0.1500 
 22 C      -11.1540    -9.6140     1.1630 C.ar  1 <1>  -0.1500 
 23 C      -10.6390   -10.1000    -1.1250 C.ar  1 <1>  -0.1500 
 24 C      -11.5310   -10.1190    -0.0680 C.ar  1 <1>  -0.1500 
 25 H       -2.7650    -2.9690     2.5890 H     1 <1>   0.1500 
 26 H       -1.2920     2.1700    -0.3190 H     1 <1>   0.0800 
 27 H       -0.5370     0.8550     0.5720 H     1 <1>   0.0800 
 28 H       -2.0250     1.6080     1.1780 H     1 <1>   0.0800 
 29 H       -4.6250    -2.7830    -2.2230 H     1 <1>   0.4000 
 30 H       -3.9980    -5.2020    -0.8950 H     1 <1>   0.0800 
 31 H       -4.9050    -5.0570    -2.3800 H     1 <1>   0.0800 
 32 H       -6.0880    -4.6000     0.3590 H     1 <1>   0.0800 
 33 H       -5.6340    -6.7940     0.5870 H     1 <1>   0.0800 
 34 H       -5.6690    -7.1210    -1.1240 H     1 <1>   0.0800 
 35 H       -7.4570    -5.0680    -2.3000 H     1 <1>   0.0800 
 36 H       -7.3600    -3.5370    -1.4850 H     1 <1>   0.0800 
 37 H       -7.9420    -7.2860    -1.1620 H     1 <1>   0.4500 
 38 H       -9.4890    -5.1240    -1.1990 H     1 <1>   0.0800 
 39 H       -8.9460    -4.1010     0.0830 H     1 <1>   0.0800 
 40 H       -8.1060    -5.8280     1.3550 H     1 <1>   0.0800 
 41 H       -9.4740    -6.6010     0.5860 H     1 <1>   0.0800 
 42 H       -7.3930    -8.3470     1.5130 H     1 <1>   0.0800 
 43 H       -6.8800    -9.1190     0.0290 H     1 <1>   0.0800 
 44 H       -9.6160    -8.7040     2.3070 H     1 <1>   0.1500 
 45 H       -8.6940    -9.5780    -1.7900 H     1 <1>   0.1500 
 46 H      -11.8510    -9.6370     1.9850 H     1 <1>   0.1500 
 47 H      -10.9360   -10.5020    -2.0790 H     1 <1>   0.1500 
 48 H      -12.5170   -10.5310    -0.2020 H     1 <1>   0.1500 
@<TRIPOS>BOND
  1   1   2  1   
  2   2   3  ar  
  3   2   4  ar  
  4   3   5  1   
  5   3   6  ar  
  6   4   7  ar  
  7   4  25  1   
  8   5   8  1   
  9   6   9  ar  
 10   7   9  ar  
 11   8  26  1   
 12   8  27  1   
 13   8  28  1   
 14   9  10  1   
 15  10  11  1   
 16  10  29  1   
 17  11  12  1   
 18  11  30  1   
 19  11  31  1   
 20  12  13  1   
 21  12  14  1   
 22  12  32  1   
 23  13  15  1   
 24  13  33  1   
 25  13  34  1   
 26  14  16  1   
 27  14  35  1   
 28  14  36  1   
 29  15  17  1   
 30  15  18  1   
 31  15  37  1   
 32  16  17  1   
 33  16  38  1   
 34  16  39  1   
 35  17  40  1   
 36  17  41  1   
 37  18  19  1   
 38  18  42  1   
 39  18  43  1   
 40  19  20  ar  
 41  19  21  ar  
 42  20  22  ar  
 43  20  44  1   
 44  21  23  ar  
 45  21  45  1   
 46  22  24  ar  
 47  22  46  1   
 48  23  24  ar  
 49  23  47  1   
 50  24  48  1   
@<TRIPOS>SUBSTRUCTURE
  1 ****  12 GROUP 4 **** **** 0

# MOE 2024.06 (io_trps.svl 2023.06)
