@<TRIPOS>MOLECULE
NONAME
41 43 1 0 0 
SMALL
USER_CHARGES


@<TRIPOS>ATOM
  1 CL       0.0410     0.1170     0.8960 Cl    1 <1>  -0.1770 
  2 C        1.3300    -0.7700     0.0890 C.ar  1 <1>   0.1770 
  3 C        1.1740    -2.1400    -0.2900 C.ar  1 <1>   0.4100 
  4 C        2.5110    -0.1330    -0.1550 C.ar  1 <1>   0.2170 
  5 N        2.1880    -2.7930    -0.8420 N.ar  1 <1>  -0.6200 
  6 N        0.0320    -2.8810    -0.1360 N.pl3 1 <1>  -0.8380 
  7 N        3.4940    -0.8600    -0.7440 N.ar  1 <1>  -0.1790 
  8 C        2.8320     1.3200     0.1820 C.3   1 <1>  -0.0970 
  9 C        3.3130    -2.1520    -1.0610 C.ar  1 <1>   0.7710 
 10 C       -1.3620    -2.3820     0.0720 C.3   1 <1>   0.2090 
 11 C       -0.0160    -4.3540    -0.3840 C.3   1 <1>   0.2090 
 12 N        4.2920    -2.8510    -1.6260 N.pl3 1 <1>  -0.9000 
 13 C       -2.2740    -3.5700    -0.2350 C.3   1 <1>   0.2000 
 14 C       -1.4190    -4.8050     0.0210 C.3   1 <1>  -0.0800 
 15 O       -3.3990    -3.5870     0.5770 O.3   1 <1>  -0.6800 
 16 C       -1.9120    -6.0400    -0.7490 C.3   1 <1>   0.0200 
 17 C       -1.0510    -7.2680    -0.5060 C.2   1 <1>  -0.0400 
 18 O       -1.1330    -8.2690    -1.3400 O.3   1 <1>  -0.0190 
 19 C       -0.1550    -7.5970     0.4400 C.2   1 <1>  -0.1500 
 20 N       -0.3380    -9.2450    -1.0100 N.2   1 <1>  -0.4100 
 21 C        0.2630    -8.8690     0.0610 C.2   1 <1>   0.1080 
 22 C        1.2840    -9.7040     0.8000 C.3   1 <1>  -0.0590 
 23 H        4.4020    -0.4570    -0.9580 H     1 <1>   0.4570 
 24 H        1.9940     1.8260     0.6270 H     1 <1>   0.0800 
 25 H        3.1000     1.8600    -0.7080 H     1 <1>   0.0800 
 26 H        3.6500     1.3700     0.8800 H     1 <1>   0.0800 
 27 H       -1.4830    -2.0830     1.0990 H     1 <1>   0.0800 
 28 H       -1.5800    -1.5620    -0.5890 H     1 <1>   0.0800 
 29 H        0.1520    -4.5400    -1.4320 H     1 <1>   0.0800 
 30 H        0.7400    -4.8630     0.1900 H     1 <1>   0.0800 
 31 H        5.2360    -2.5550    -1.8820 H     1 <1>   0.4000 
 32 H        4.0980    -3.8320    -1.8530 H     1 <1>   0.4000 
 33 H       -2.5980    -3.5210    -1.2610 H     1 <1>   0.0800 
 34 H       -1.4030    -5.0160     1.0760 H     1 <1>   0.0800 
 35 H       -3.1500    -3.6770     1.5180 H     1 <1>   0.4000 
 36 H       -1.9130    -5.8260    -1.8040 H     1 <1>   0.0800 
 37 H       -2.9230    -6.2680    -0.4620 H     1 <1>   0.0800 
 38 H        0.1850    -7.0510     1.3000 H     1 <1>   0.1500 
 39 H        2.2240    -9.1850     0.8360 H     1 <1>   0.0800 
 40 H        1.4250   -10.6430     0.2960 H     1 <1>   0.0800 
 41 H        0.9440    -9.8950     1.8010 H     1 <1>   0.0800 
@<TRIPOS>BOND
  1   1   2  1   
  2   2   3  ar  
  3   2   4  ar  
  4   3   5  ar  
  5   3   6  1   
  6   4   7  ar  
  7   4   8  1   
  8   5   9  ar  
  9   6  10  1   
 10   6  11  1   
 11   7   9  ar  
 12   7  23  1   
 13   8  24  1   
 14   8  25  1   
 15   8  26  1   
 16   9  12  1   
 17  10  13  1   
 18  10  27  1   
 19  10  28  1   
 20  11  14  1   
 21  11  29  1   
 22  11  30  1   
 23  12  31  1   
 24  12  32  1   
 25  13  14  1   
 26  13  15  1   
 27  13  33  1   
 28  14  16  1   
 29  14  34  1   
 30  15  35  1   
 31  16  17  1   
 32  16  36  1   
 33  16  37  1   
 34  17  18  1   
 35  17  19  2   
 36  18  20  1   
 37  19  21  1   
 38  19  38  1   
 39  20  21  2   
 40  21  22  1   
 41  22  39  1   
 42  22  40  1   
 43  22  41  1   
@<TRIPOS>SUBSTRUCTURE
  1 ****  11 GROUP 4 **** **** 0

# MOE 2024.06 (io_trps.svl 2023.06)
