@<TRIPOS>MOLECULE
NONAME
48 51 1 0 0 
SMALL
USER_CHARGES


@<TRIPOS>ATOM
  1 O        2.4950     1.7760    -1.0230 O.3   1 <1>  -0.0190 
  2 N        3.3530     0.8590    -0.6940 N.2   1 <1>  -0.4100 
  3 C        1.5780     1.9360    -0.1060 C.2   1 <1>  -0.0400 
  4 C        2.9700     0.4000     0.4430 C.2   1 <1>   0.1080 
  5 C        1.8260     1.0630     0.8810 C.2   1 <1>  -0.1500 
  6 C        0.5110     2.9980    -0.2850 C.3   1 <1>   0.0200 
  7 C        3.6760    -0.7080     1.1950 C.3   1 <1>  -0.0590 
  8 C        1.1520     4.3250    -0.7370 C.3   1 <1>  -0.0800 
  9 C        0.2520     5.5580    -0.7500 C.3   1 <1>   0.2000 
 10 C        2.3410     4.7460     0.1330 C.3   1 <1>   0.3430 
 11 O       -0.4440     5.6410     0.4540 O.3   1 <1>  -0.6800 
 12 C        1.2760     6.6950    -0.7940 C.3   1 <1>   0.3430 
 13 N        2.4280     6.2360     0.0510 N.4   1 <1>  -0.9590 
 14 C        2.3660     6.8440     1.4040 C.3   1 <1>   0.5230 
 15 C        2.5720     8.3340     1.2770 C.2   1 <1>  -0.3320 
 16 N        3.7110     8.8800     0.7810 N.pl3 1 <1>   0.5930 
 17 C        1.7400     9.3480     1.6010 C.2   1 <1>  -0.1500 
 18 N        3.6010    10.2240     0.7500 N.2   1 <1>  -0.7070 
 19 C        4.7820     8.1550     0.1950 C.ar  1 <1>  -0.0230 
 20 C        2.4380    10.4970     1.2520 C.2   1 <1>   0.1390 
 21 C        5.6090     7.3500     0.9720 C.ar  1 <1>  -0.1500 
 22 C        4.9790     8.1950    -1.1820 C.ar  1 <1>  -0.1500 
 23 C        6.5860     6.5700     0.3790 C.ar  1 <1>  -0.1500 
 24 C        5.9560     7.4150    -1.7740 C.ar  1 <1>  -0.1500 
 25 C        6.7540     6.5970    -0.9950 C.ar  1 <1>  -0.1500 
 26 H        1.3010     0.8820     1.8020 H     1 <1>   0.1500 
 27 H       -0.1950     2.6650    -1.0270 H     1 <1>   0.0800 
 28 H       -0.0120     3.1130     0.6480 H     1 <1>   0.0800 
 29 H        3.0190    -1.5520     1.3000 H     1 <1>   0.0800 
 30 H        3.9700    -0.3630     2.1680 H     1 <1>   0.0800 
 31 H        4.5530    -1.0170     0.6550 H     1 <1>   0.0800 
 32 H        1.5300     4.1810    -1.7350 H     1 <1>   0.0800 
 33 H       -0.4450     5.5920    -1.5710 H     1 <1>   0.0800 
 34 H        3.2500     4.2770    -0.2110 H     1 <1>   0.0800 
 35 H        2.1570     4.4420     1.1510 H     1 <1>   0.0800 
 36 H       -1.3060     5.1750     0.3980 H     1 <1>   0.4000 
 37 H        0.8480     7.6190    -0.4410 H     1 <1>   0.0800 
 38 H        1.6100     6.8280    -1.8090 H     1 <1>   0.0800 
 39 H        3.3220     6.5100    -0.3850 H     1 <1>   0.4500 
 40 H        1.4050     6.6440     1.8520 H     1 <1>   0.0800 
 41 H        3.1330     6.4250     2.0340 H     1 <1>   0.0800 
 42 H        0.7520     9.3270     2.0300 H     1 <1>   0.1500 
 43 H        2.0650    11.5020     1.3740 H     1 <1>   0.1500 
 44 H        5.4990     7.3340     2.0430 H     1 <1>   0.1500 
 45 H        4.3720     8.8460    -1.7900 H     1 <1>   0.1500 
 46 H        7.2250     5.9470     0.9830 H     1 <1>   0.1500 
 47 H        6.1060     7.4510    -2.8410 H     1 <1>   0.1500 
 48 H        7.5180     5.9920    -1.4560 H     1 <1>   0.1500 
@<TRIPOS>BOND
  1   1   2  1   
  2   1   3  1   
  3   2   4  2   
  4   3   5  2   
  5   3   6  1   
  6   4   5  1   
  7   4   7  1   
  8   5  26  1   
  9   6   8  1   
 10   6  27  1   
 11   6  28  1   
 12   7  29  1   
 13   7  30  1   
 14   7  31  1   
 15   8   9  1   
 16   8  10  1   
 17   8  32  1   
 18   9  11  1   
 19   9  12  1   
 20   9  33  1   
 21  10  13  1   
 22  10  34  1   
 23  10  35  1   
 24  11  36  1   
 25  12  13  1   
 26  12  37  1   
 27  12  38  1   
 28  13  14  1   
 29  13  39  1   
 30  14  15  1   
 31  14  40  1   
 32  14  41  1   
 33  15  16  1   
 34  15  17  2   
 35  16  18  1   
 36  16  19  1   
 37  17  20  1   
 38  17  42  1   
 39  18  20  2   
 40  19  21  ar  
 41  19  22  ar  
 42  20  43  1   
 43  21  23  ar  
 44  21  44  1   
 45  22  24  ar  
 46  22  45  1   
 47  23  25  ar  
 48  23  46  1   
 49  24  25  ar  
 50  24  47  1   
 51  25  48  1   
@<TRIPOS>SUBSTRUCTURE
  1 ****  13 GROUP 4 **** **** 0

# MOE 2024.06 (io_trps.svl 2023.06)
