@<TRIPOS>MOLECULE
NONAME
49 51 1 0 0 
SMALL
USER_CHARGES


@<TRIPOS>ATOM
  1 F        0.6160     4.1860    -0.2710 F     1 <1>  -0.1900 
  2 C        1.9210     4.2020    -0.3000 C.ar  1 <1>   0.1900 
  3 C        2.5620     4.1140    -1.5210 C.ar  1 <1>  -0.1500 
  4 C        2.6140     4.3060     0.8910 C.ar  1 <1>  -0.1500 
  5 C        3.9460     4.1310    -1.5450 C.ar  1 <1>  -0.1500 
  6 C        3.9980     4.3220     0.8520 C.ar  1 <1>  -0.1500 
  7 C        4.6680     4.2330    -0.3620 C.ar  1 <1>  -0.1430 
  8 C        6.1900     4.2470    -0.4020 C.3   1 <1>  -0.0160 
  9 C        6.7650     2.8210    -0.4980 C.3   1 <1>  -0.0800 
 10 C        8.2850     2.7440    -0.6720 C.3   1 <1>   0.2890 
 11 C        6.4650     1.9330     0.7170 C.3   1 <1>  -0.1600 
 12 N        8.9780     3.6040     0.3120 N.pl3 1 <1>  -0.8690 
 13 C        8.5960     1.2920    -0.3270 C.3   1 <1>  -0.1600 
 14 C        7.5820     0.8810     0.7520 C.3   1 <1>  -0.1600 
 15 C        9.5110     4.8380     0.0520 C.ar  1 <1>   0.4100 
 16 N        9.3890     5.3170    -1.1800 N.ar  1 <1>  -0.6200 
 17 C       10.1410     5.5410     1.0740 C.ar  1 <1>  -0.1500 
 18 C        9.8990     6.5180    -1.3920 C.ar  1 <1>   0.1600 
 19 C       10.6590     6.7910     0.8360 C.ar  1 <1>  -0.1500 
 20 C       10.5280     7.3210    -0.4440 C.ar  1 <1>   0.0860 
 21 C       11.0160     8.6310    -0.8080 C.2   1 <1>   0.5440 
 22 O       11.6090     8.7680    -1.8620 O.2   1 <1>  -0.5700 
 23 N       10.8210     9.7410    -0.0060 N.am  1 <1>  -0.6600 
 24 C        9.7360     9.8460     1.0080 C.3   1 <1>   0.0600 
 25 C       11.5560    11.0120    -0.2560 C.3   1 <1>   0.0600 
 26 H        1.9890     4.0350    -2.4270 H     1 <1>   0.1500 
 27 H        2.0810     4.3740     1.8210 H     1 <1>   0.1500 
 28 H        4.4630     4.0640    -2.4870 H     1 <1>   0.1500 
 29 H        4.5540     4.4020     1.7700 H     1 <1>   0.1500 
 30 H        6.5180     4.8170    -1.2540 H     1 <1>   0.0800 
 31 H        6.5690     4.7420     0.4730 H     1 <1>   0.0800 
 32 H        6.3310     2.3470    -1.3610 H     1 <1>   0.0800 
 33 H        8.5900     2.9860    -1.6770 H     1 <1>   0.0800 
 34 H        6.5030     2.5200     1.6190 H     1 <1>   0.0800 
 35 H        5.4910     1.4810     0.6380 H     1 <1>   0.0800 
 36 H        8.9330     3.2640     1.2710 H     1 <1>   0.4000 
 37 H        8.4290     0.6940    -1.2050 H     1 <1>   0.0800 
 38 H        9.6160     1.1610    -0.0130 H     1 <1>   0.0800 
 39 H        7.1930    -0.1020     0.5460 H     1 <1>   0.0800 
 40 H        8.0490     0.8730     1.7220 H     1 <1>   0.0800 
 41 H       10.2180     5.0910     2.0450 H     1 <1>   0.1500 
 42 H        9.8170     6.9090    -2.3930 H     1 <1>   0.1500 
 43 H       11.1580     7.3510     1.6070 H     1 <1>   0.1500 
 44 H        9.1960    10.7670     0.8700 H     1 <1>   0.0800 
 45 H       10.1610     9.8330     1.9970 H     1 <1>   0.0800 
 46 H        9.0390     9.0320     0.9120 H     1 <1>   0.0800 
 47 H       11.8550    11.4540     0.6780 H     1 <1>   0.0800 
 48 H       10.9220    11.6980    -0.7900 H     1 <1>   0.0800 
 49 H       12.4390    10.8290    -0.8440 H     1 <1>   0.0800 
@<TRIPOS>BOND
  1   1   2  1   
  2   2   3  ar  
  3   2   4  ar  
  4   3   5  ar  
  5   3  26  1   
  6   4   6  ar  
  7   4  27  1   
  8   5   7  ar  
  9   5  28  1   
 10   6   7  ar  
 11   6  29  1   
 12   7   8  1   
 13   8   9  1   
 14   8  30  1   
 15   8  31  1   
 16   9  10  1   
 17   9  11  1   
 18   9  32  1   
 19  10  12  1   
 20  10  13  1   
 21  10  33  1   
 22  11  14  1   
 23  11  34  1   
 24  11  35  1   
 25  12  15  1   
 26  12  36  1   
 27  13  14  1   
 28  13  37  1   
 29  13  38  1   
 30  14  39  1   
 31  14  40  1   
 32  15  16  ar  
 33  15  17  ar  
 34  16  18  ar  
 35  17  19  ar  
 36  17  41  1   
 37  18  20  ar  
 38  18  42  1   
 39  19  20  ar  
 40  19  43  1   
 41  20  21  1   
 42  21  22  2   
 43  21  23  am  
 44  23  24  1   
 45  23  25  1   
 46  24  44  1   
 47  24  45  1   
 48  24  46  1   
 49  25  47  1   
 50  25  48  1   
 51  25  49  1   
@<TRIPOS>SUBSTRUCTURE
  1 ****   8 GROUP 4 **** **** 0

# MOE 2024.06 (io_trps.svl 2023.06)
