@<TRIPOS>MOLECULE
NONAME
50 52 1 0 0 
SMALL
USER_CHARGES


@<TRIPOS>ATOM
  1 O        0.5960     0.0240     0.6300 O.2   1 <1>  -0.5700 
  2 C        1.1840    -1.0020     0.3620 C.2   1 <1>   0.5440 
  3 N        2.5330    -0.9150     0.2200 N.am  1 <1>  -0.7300 
  4 C        0.4910    -2.2660     0.1640 C.ar  1 <1>   0.0860 
  5 C        3.3480    -1.9680    -0.4270 C.3   1 <1>   0.1400 
  6 C        1.0360    -3.4860     0.5870 C.ar  1 <1>  -0.1430 
  7 C       -0.7410    -2.2950    -0.4890 C.ar  1 <1>  -0.1500 
  8 C        3.6040    -3.1730     0.5190 C.3   1 <1>   0.0000 
  9 C        0.3780    -4.6780     0.3290 C.ar  1 <1>  -0.1500 
 10 C        2.3490    -3.5060     1.3700 C.3   1 <1>  -0.0170 
 11 C       -1.3980    -3.4840    -0.7410 C.ar  1 <1>  -0.1500 
 12 C        4.7720    -2.8640     1.4850 C.3   1 <1>  -0.1600 
 13 C        3.9780    -4.4110    -0.3290 C.3   1 <1>  -0.1600 
 14 C       -0.8350    -4.6800    -0.3360 C.ar  1 <1>  -0.1500 
 15 C        6.1350    -2.7490     0.7930 C.3   1 <1>   0.1400 
 16 C        5.3240    -4.2580    -1.0450 C.3   1 <1>   0.1400 
 17 N        6.3780    -3.9540    -0.0420 N.am  1 <1>  -0.6600 
 18 C        7.4900    -4.7370     0.1410 C.2   1 <1>   0.7800 
 19 O        8.3370    -4.4710     0.9710 O.2   1 <1>  -0.5700 
 20 O        7.6110    -5.8170    -0.6370 O.3   1 <1>  -0.4300 
 21 C        8.6530    -6.7680    -0.6300 C.3   1 <1>   0.2800 
 22 C        8.7130    -7.4820     0.7250 C.3   1 <1>  -0.2400 
 23 C        8.2760    -7.7780    -1.7150 C.3   1 <1>  -0.2400 
 24 C        9.9830    -6.1020    -1.0020 C.3   1 <1>  -0.2400 
 25 H        2.9350     0.0190     0.3210 H     1 <1>   0.3700 
 26 H        4.2700    -1.5390    -0.7740 H     1 <1>   0.0800 
 27 H        2.8140    -2.3090    -1.2980 H     1 <1>   0.0800 
 28 H       -1.1810    -1.3640    -0.8040 H     1 <1>   0.1500 
 29 H        0.8000    -5.6140     0.6500 H     1 <1>   0.1500 
 30 H        2.4770    -4.4620     1.8450 H     1 <1>   0.0800 
 31 H        2.2620    -2.7910     2.1700 H     1 <1>   0.0800 
 32 H       -2.3460    -3.4800    -1.2510 H     1 <1>   0.1500 
 33 H        4.8480    -3.6470     2.2190 H     1 <1>   0.0800 
 34 H        4.5750    -1.9490     2.0160 H     1 <1>   0.0800 
 35 H        3.2120    -4.6040    -1.0590 H     1 <1>   0.0800 
 36 H        4.0420    -5.2810     0.3010 H     1 <1>   0.0800 
 37 H       -1.3430    -5.6080    -0.5320 H     1 <1>   0.1500 
 38 H        6.9030    -2.6450     1.5410 H     1 <1>   0.0800 
 39 H        6.1750    -1.8750     0.1670 H     1 <1>   0.0800 
 40 H        5.2830    -3.4600    -1.7650 H     1 <1>   0.0800 
 41 H        5.5470    -5.1670    -1.5770 H     1 <1>   0.0800 
 42 H        7.7460    -7.8720     0.9850 H     1 <1>   0.0800 
 43 H        9.0450    -6.8160     1.5000 H     1 <1>   0.0800 
 44 H        9.4100    -8.2980     0.6800 H     1 <1>   0.0800 
 45 H        7.3320    -8.2380    -1.4840 H     1 <1>   0.0800 
 46 H        9.0220    -8.5500    -1.7830 H     1 <1>   0.0800 
 47 H        8.2050    -7.2900    -2.6700 H     1 <1>   0.0800 
 48 H       10.3150    -5.4370    -0.2260 H     1 <1>   0.0800 
 49 H        9.8820    -5.5520    -1.9200 H     1 <1>   0.0800 
 50 H       10.7440    -6.8500    -1.1340 H     1 <1>   0.0800 
@<TRIPOS>BOND
  1   1   2  2   
  2   2   3  am  
  3   2   4  1   
  4   3   5  1   
  5   3  25  1   
  6   4   6  ar  
  7   4   7  ar  
  8   5   8  1   
  9   5  26  1   
 10   5  27  1   
 11   6   9  ar  
 12   6  10  1   
 13   7  11  ar  
 14   7  28  1   
 15   8  10  1   
 16   8  12  1   
 17   8  13  1   
 18   9  14  ar  
 19   9  29  1   
 20  10  30  1   
 21  10  31  1   
 22  11  14  ar  
 23  11  32  1   
 24  12  15  1   
 25  12  33  1   
 26  12  34  1   
 27  13  16  1   
 28  13  35  1   
 29  13  36  1   
 30  14  37  1   
 31  15  17  1   
 32  15  38  1   
 33  15  39  1   
 34  16  17  1   
 35  16  40  1   
 36  16  41  1   
 37  17  18  am  
 38  18  19  2   
 39  18  20  1   
 40  20  21  1   
 41  21  22  1   
 42  21  23  1   
 43  21  24  1   
 44  22  42  1   
 45  22  43  1   
 46  22  44  1   
 47  23  45  1   
 48  23  46  1   
 49  23  47  1   
 50  24  48  1   
 51  24  49  1   
 52  24  50  1   
@<TRIPOS>SUBSTRUCTURE
  1 ****  13 GROUP 4 **** **** 0

# MOE 2024.06 (io_trps.svl 2023.06)
