@<TRIPOS>MOLECULE
NONAME
45 47 1 0 0 
SMALL
USER_CHARGES


@<TRIPOS>ATOM
  1 S       -0.2050     1.1150    -1.6520 S.3   1 <1>  -0.0800 
  2 C        0.1770     1.8560    -0.1050 C.2   1 <1>  -0.0450 
  3 C       -1.8350     0.7390    -1.1240 C.2   1 <1>  -0.1100 
  4 C       -0.8890     1.7960     0.7170 C.2   1 <1>  -0.1500 
  5 C        1.5780     2.4250     0.0700 C.3   1 <1>   0.0850 
  6 C       -2.0330     1.1610     0.1380 C.2   1 <1>  -0.1500 
  7 C        1.7910     3.6600    -0.8130 C.2   1 <1>   0.6300 
  8 C        2.7250     1.5240     0.4470 C.3   1 <1>  -0.1900 
  9 C        2.1540     2.4490     1.4710 C.3   1 <1>  -0.2000 
 10 O        2.2930     3.5550    -1.9110 O.2   1 <1>  -0.5700 
 11 N        1.4430     4.8760    -0.3160 N.am  1 <1>  -0.7300 
 12 C        4.1450     1.8120    -0.0630 C.3   1 <1>  -0.1450 
 13 C        2.4890     0.0160     0.6160 C.3   1 <1>  -0.1450 
 14 C        1.7170     6.1600    -0.9970 C.3   1 <1>   0.2780 
 15 C        3.1640     6.5790    -0.7360 C.2   1 <1>  -0.0380 
 16 N        4.0970     5.7440    -1.3070 N.pl3 1 <1>  -0.6000 
 17 C        3.5830     7.6670    -0.0200 C.2   1 <1>  -0.1240 
 18 C        5.4450     5.9660    -1.2020 C.2   1 <1>  -0.0500 
 19 C        4.9850     7.9360     0.1070 C.2   1 <1>   0.5410 
 20 C        2.6380     8.6500     0.6760 C.3   1 <1>  -0.1020 
 21 C        5.9080     7.0390    -0.5120 C.2   1 <1>  -0.1240 
 22 O        5.3910     8.9170     0.7340 O.2   1 <1>  -0.5700 
 23 C        7.4030     7.3070    -0.3840 C.3   1 <1>  -0.1020 
 24 H       -2.4770     0.2370    -1.8250 H     1 <1>   0.1500 
 25 H       -0.9240     2.1750     1.7230 H     1 <1>   0.1500 
 26 H       -2.9470     1.0520     0.6960 H     1 <1>   0.1500 
 27 H        1.5870     2.0270     2.2810 H     1 <1>   0.1000 
 28 H        2.7440     3.2940     1.7810 H     1 <1>   0.1000 
 29 H        1.1400     4.9390     0.6540 H     1 <1>   0.3700 
 30 H        4.3460     2.8690    -0.0890 H     1 <1>   0.0800 
 31 H        4.2610     1.4220    -1.0590 H     1 <1>   0.0800 
 32 H        4.8740     1.3490     0.5780 H     1 <1>   0.0800 
 33 H        1.5270    -0.1850     1.0510 H     1 <1>   0.0800 
 34 H        3.2410    -0.4110     1.2550 H     1 <1>   0.0800 
 35 H        2.5340    -0.4710    -0.3420 H     1 <1>   0.0800 
 36 H        1.0080     6.8960    -0.6700 H     1 <1>   0.0800 
 37 H        1.5790     6.0340    -2.0580 H     1 <1>   0.0800 
 38 H        3.7390     4.9000    -1.7990 H     1 <1>   0.4000 
 39 H        6.1010     5.2590    -1.6830 H     1 <1>   0.1500 
 40 H        2.9640     8.8070     1.6900 H     1 <1>   0.0800 
 41 H        1.6230     8.3080     0.7160 H     1 <1>   0.0800 
 42 H        2.6650     9.5970     0.1660 H     1 <1>   0.0800 
 43 H        7.6380     8.2680    -0.8050 H     1 <1>   0.0800 
 44 H        7.9770     6.5560    -0.8960 H     1 <1>   0.0800 
 45 H        7.6840     7.3100     0.6540 H     1 <1>   0.0800 
@<TRIPOS>BOND
  1   1   2  1   
  2   1   3  1   
  3   2   4  2   
  4   2   5  1   
  5   3   6  2   
  6   3  24  1   
  7   4   6  1   
  8   4  25  1   
  9   5   7  1   
 10   5   8  1   
 11   5   9  1   
 12   6  26  1   
 13   7  10  2   
 14   7  11  am  
 15   8   9  1   
 16   8  12  1   
 17   8  13  1   
 18   9  27  1   
 19   9  28  1   
 20  11  14  1   
 21  11  29  1   
 22  12  30  1   
 23  12  31  1   
 24  12  32  1   
 25  13  33  1   
 26  13  34  1   
 27  13  35  1   
 28  14  15  1   
 29  14  36  1   
 30  14  37  1   
 31  15  16  1   
 32  15  17  2   
 33  16  18  1   
 34  16  38  1   
 35  17  19  1   
 36  17  20  1   
 37  18  21  2   
 38  18  39  1   
 39  19  21  1   
 40  19  22  2   
 41  20  40  1   
 42  20  41  1   
 43  20  42  1   
 44  21  23  1   
 45  23  43  1   
 46  23  44  1   
 47  23  45  1   
@<TRIPOS>SUBSTRUCTURE
  1 ****   7 GROUP 4 **** **** 0

# MOE 2024.06 (io_trps.svl 2023.06)
