@<TRIPOS>MOLECULE
NONAME
25 25 1 0 0 
SMALL
USER_CHARGES


@<TRIPOS>ATOM
  1 F       -1.5800     0.2360    -1.5810 F     1 <1>  -0.3400 
  2 C       -1.4000    -0.7590    -0.7210 C.3   1 <1>   1.1640 
  3 F       -0.5450    -1.5830    -1.3170 F     1 <1>  -0.3400 
  4 F       -0.7480    -0.2650     0.3220 F     1 <1>  -0.3400 
  5 C       -2.7130    -1.4610    -0.3270 C.ar  1 <1>  -0.1440 
  6 C       -3.8610    -0.7220     0.0080 C.ar  1 <1>   0.0860 
  7 C       -2.7700    -2.8520    -0.3150 C.ar  1 <1>  -0.1500 
  8 C       -3.9100     0.7260     0.0640 C.2   1 <1>   0.6340 
  9 C       -5.0280    -1.4260     0.3150 C.ar  1 <1>  -0.1500 
 10 C       -3.9380    -3.5190     0.0020 C.ar  1 <1>  -0.1500 
 11 O       -3.0820     1.3990     0.6350 O.2   1 <1>  -0.5700 
 12 O       -4.9390     1.3290    -0.5360 O.3   1 <1>  -0.4300 
 13 C       -5.0800    -2.8080     0.3170 C.ar  1 <1>  -0.1440 
 14 C       -5.0700     2.7380    -0.5500 C.3   1 <1>   0.0400 
 15 C       -6.3650    -3.5410     0.6620 C.3   1 <1>   0.2640 
 16 O       -6.8090    -4.1800    -0.4780 O.3   1 <1>  -0.6800 
 17 H       -1.9030    -3.4460    -0.5580 H     1 <1>   0.1500 
 18 H       -5.9140    -0.8660     0.5630 H     1 <1>   0.1500 
 19 H       -3.9600    -4.5970    -0.0010 H     1 <1>   0.1500 
 20 H       -5.9630     2.9940    -1.0900 H     1 <1>   0.0800 
 21 H       -4.2070     3.1620    -1.0350 H     1 <1>   0.0800 
 22 H       -5.1350     3.0910     0.4650 H     1 <1>   0.0800 
 23 H       -7.1330    -2.8610     0.9880 H     1 <1>   0.0800 
 24 H       -6.2000    -4.2850     1.4230 H     1 <1>   0.0800 
 25 H       -6.6970    -3.5840    -1.2430 H     1 <1>   0.4000 
@<TRIPOS>BOND
  1   1   2  1   
  2   2   3  1   
  3   2   4  1   
  4   2   5  1   
  5   5   6  ar  
  6   5   7  ar  
  7   6   8  1   
  8   6   9  ar  
  9   7  10  ar  
 10   7  17  1   
 11   8  11  2   
 12   8  12  1   
 13   9  13  ar  
 14   9  18  1   
 15  10  13  ar  
 16  10  19  1   
 17  12  14  1   
 18  13  15  1   
 19  14  20  1   
 20  14  21  1   
 21  14  22  1   
 22  15  16  1   
 23  15  23  1   
 24  15  24  1   
 25  16  25  1   
@<TRIPOS>SUBSTRUCTURE
  1 ****   6 GROUP 4 **** **** 0

# MOE 2024.06 (io_trps.svl 2023.06)
