@<TRIPOS>MOLECULE
NONAME
47 48 1 0 0 
SMALL
USER_CHARGES


@<TRIPOS>ATOM
  1 S       -0.3430     0.1270    -0.0040 S.o2  1 <1>   1.3330 
  2 O       -0.3920    -0.3750     1.3500 O.2   1 <1>  -0.6500 
  3 O       -1.0820     1.3200    -0.3490 O.2   1 <1>  -0.6500 
  4 N       -0.8370    -1.1250    -1.0390 N.am  1 <1>  -0.8490 
  5 C        1.3640     0.3850    -0.4940 C.3   1 <1>  -0.0550 
  6 C       -0.5010    -2.4620    -0.5380 C.3   1 <1>   0.1160 
  7 C       -2.2670    -1.0550    -1.3550 C.3   1 <1>   0.1160 
  8 C        2.0480     1.5530     0.2460 C.3   1 <1>  -0.0800 
  9 C        3.4020     1.8700    -0.3670 C.3   1 <1>   0.2200 
 10 C        2.4230     1.1830     1.6870 C.3   1 <1>   0.1200 
 11 N        3.7600     3.2700    -0.0550 N.am  1 <1>  -0.7300 
 12 C        4.3190     0.9270     0.4000 C.3   1 <1>   0.1200 
 13 O        3.7730     0.8200     1.6800 O.3   1 <1>  -0.5600 
 14 C        3.9480     4.2450    -0.9750 C.2   1 <1>   0.5690 
 15 O        3.8350     4.0390    -2.1580 O.2   1 <1>  -0.5700 
 16 C        4.3250     5.6290    -0.4990 C.3   1 <1>  -0.0990 
 17 C        5.8410     5.8420    -0.5720 C.3   1 <1>  -0.0170 
 18 C        6.2060     7.2150    -0.0330 C.ar  1 <1>  -0.1440 
 19 C        6.1500     8.3250    -0.8620 C.ar  1 <1>  -0.1500 
 20 C        6.5930     7.3710     1.2890 C.ar  1 <1>  -0.1500 
 21 C        6.4770     9.5790    -0.3740 C.ar  1 <1>  -0.1500 
 22 C        6.9200     8.6250     1.7780 C.ar  1 <1>  -0.1500 
 23 C        6.8610     9.7290     0.9470 C.ar  1 <1>  -0.1500 
 24 H        1.9210    -0.5180    -0.3390 H     1 <1>   0.0800 
 25 H        1.3720     0.5980    -1.5460 H     1 <1>   0.0800 
 26 H       -0.7520    -3.2070    -1.2740 H     1 <1>   0.0800 
 27 H       -1.0440    -2.6710     0.3700 H     1 <1>   0.0800 
 28 H        0.5530    -2.5290    -0.3320 H     1 <1>   0.0800 
 29 H       -2.5420    -1.8520    -2.0230 H     1 <1>   0.0800 
 30 H       -2.4930    -0.1190    -1.8390 H     1 <1>   0.0800 
 31 H       -2.8530    -1.1280    -0.4530 H     1 <1>   0.0800 
 32 H        1.3980     2.4110     0.2150 H     1 <1>   0.0800 
 33 H        3.4410     1.6990    -1.4310 H     1 <1>   0.0800 
 34 H        1.8500     0.3640     2.0860 H     1 <1>   0.0800 
 35 H        2.3200     2.0350     2.3380 H     1 <1>   0.0800 
 36 H        3.8980     3.4580     0.9400 H     1 <1>   0.3700 
 37 H        5.3290     1.2930     0.4650 H     1 <1>   0.0800 
 38 H        4.3150    -0.0540    -0.0420 H     1 <1>   0.0800 
 39 H        3.8300     6.3520    -1.1210 H     1 <1>   0.0800 
 40 H        3.9840     5.7700     0.5100 H     1 <1>   0.0800 
 41 H        6.1690     5.7540    -1.5940 H     1 <1>   0.0800 
 42 H        6.3450     5.0820    -0.0020 H     1 <1>   0.0800 
 43 H        5.8520     8.2170    -1.8900 H     1 <1>   0.1500 
 44 H        6.6420     6.5200     1.9450 H     1 <1>   0.1500 
 45 H        6.4310    10.4360    -1.0220 H     1 <1>   0.1500 
 46 H        7.2190     8.7400     2.8050 H     1 <1>   0.1500 
 47 H        7.1150    10.7030     1.3260 H     1 <1>   0.1500 
@<TRIPOS>BOND
  1   1   2  2   
  2   1   3  2   
  3   1   4  am  
  4   1   5  1   
  5   4   6  1   
  6   4   7  1   
  7   5   8  1   
  8   5  24  1   
  9   5  25  1   
 10   6  26  1   
 11   6  27  1   
 12   6  28  1   
 13   7  29  1   
 14   7  30  1   
 15   7  31  1   
 16   8   9  1   
 17   8  10  1   
 18   8  32  1   
 19   9  11  1   
 20   9  12  1   
 21   9  33  1   
 22  10  13  1   
 23  10  34  1   
 24  10  35  1   
 25  11  14  am  
 26  11  36  1   
 27  12  13  1   
 28  12  37  1   
 29  12  38  1   
 30  14  15  2   
 31  14  16  1   
 32  16  17  1   
 33  16  39  1   
 34  16  40  1   
 35  17  18  1   
 36  17  41  1   
 37  17  42  1   
 38  18  19  ar  
 39  18  20  ar  
 40  19  21  ar  
 41  19  43  1   
 42  20  22  ar  
 43  20  44  1   
 44  21  23  ar  
 45  21  45  1   
 46  22  23  ar  
 47  22  46  1   
 48  23  47  1   
@<TRIPOS>SUBSTRUCTURE
  1 ****  11 GROUP 4 **** **** 0

# MOE 2024.06 (io_trps.svl 2023.06)
