@<TRIPOS>MOLECULE
NONAME
52 54 1 0 0 
SMALL
USER_CHARGES


@<TRIPOS>ATOM
  1 O       -0.5310     1.0040    -1.1410 O.2   1 <1>  -0.5700 
  2 C       -0.5760     2.1750    -0.8420 C.2   1 <1>   0.5690 
  3 N       -1.4730     2.7000     0.0550 N.am  1 <1>  -0.6600 
  4 C        0.4190     3.1130    -1.5200 C.3   1 <1>   0.1810 
  5 C       -1.4900     4.1740     0.3450 C.3   1 <1>   0.3640 
  6 C       -2.4220     1.8940     0.8740 C.3   1 <1>   0.2200 
  7 O        0.7700     4.1880    -0.6890 O.3   1 <1>  -0.5600 
  8 C       -2.8320     4.7550    -0.1090 C.ar  1 <1>  -0.1440 
  9 C       -0.3290     4.9930    -0.2900 C.3   1 <1>   0.2610 
 10 C       -1.6510     0.9720     1.8170 C.3   1 <1>  -0.2400 
 11 C       -3.4040     1.1220    -0.0070 C.3   1 <1>  -0.2400 
 12 C       -3.5540     5.5800     0.7420 C.ar  1 <1>  -0.1500 
 13 C       -3.3470     4.4770    -1.3700 C.ar  1 <1>  -0.1500 
 14 C        0.1380     6.0830     0.6850 C.2   1 <1>   0.5690 
 15 C       -4.7670     6.1140     0.3440 C.ar  1 <1>  -0.1500 
 16 C       -4.5590     5.0100    -1.7690 C.ar  1 <1>  -0.1500 
 17 O       -0.6750     6.7840     1.2400 O.2   1 <1>  -0.5700 
 18 N        1.4660     6.2500     0.9070 N.am  1 <1>  -0.7300 
 19 C       -5.2710     5.8290    -0.9120 C.ar  1 <1>  -0.1500 
 20 C        2.0910     7.3070     1.7370 C.3   1 <1>   0.2840 
 21 C        3.0330     8.1590     0.8900 C.ar  1 <1>   0.1670 
 22 N        4.2750     7.6970     0.7960 N.ar  1 <1>  -0.6200 
 23 C        2.5870     9.3280     0.2710 C.ar  1 <1>  -0.1440 
 24 C        5.1100     8.4210     0.0710 C.ar  1 <1>   0.1600 
 25 C        3.4810    10.0650    -0.4800 C.ar  1 <1>  -0.1500 
 26 C        1.1480     9.8190     0.3870 C.3   1 <1>  -0.0970 
 27 C        4.7710     9.5930    -0.5770 C.ar  1 <1>  -0.1500 
 28 H        0.0000     3.4980    -2.4310 H     1 <1>   0.0800 
 29 H        1.3180     2.5700    -1.7490 H     1 <1>   0.0800 
 30 H       -1.4170     4.2850     1.4130 H     1 <1>   0.0800 
 31 H       -3.0050     2.5650     1.4840 H     1 <1>   0.0800 
 32 H       -0.6900     5.4890    -1.1720 H     1 <1>   0.0800 
 33 H       -1.1070     0.2270     1.2640 H     1 <1>   0.0800 
 34 H       -2.3360     0.4670     2.4730 H     1 <1>   0.0800 
 35 H       -0.9640     1.5420     2.4150 H     1 <1>   0.0800 
 36 H       -2.9010     0.3690    -0.5860 H     1 <1>   0.0800 
 37 H       -3.9200     1.7940    -0.6670 H     1 <1>   0.0800 
 38 H       -4.1340     0.6320     0.6110 H     1 <1>   0.0800 
 39 H       -3.1730     5.8210     1.7200 H     1 <1>   0.1500 
 40 H       -2.8090     3.8360    -2.0460 H     1 <1>   0.1500 
 41 H       -5.3170     6.7540     1.0120 H     1 <1>   0.1500 
 42 H       -4.9510     4.7860    -2.7460 H     1 <1>   0.1500 
 43 H        2.1270     5.6650     0.3840 H     1 <1>   0.3700 
 44 H       -6.2150     6.2450    -1.2210 H     1 <1>   0.1500 
 45 H        1.3330     7.9170     2.1950 H     1 <1>   0.0800 
 46 H        2.6540     6.8420     2.5270 H     1 <1>   0.0800 
 47 H        6.1210     8.0600    -0.0110 H     1 <1>   0.1500 
 48 H        3.1900    10.9750    -0.9760 H     1 <1>   0.1500 
 49 H        0.9780    10.6670    -0.2520 H     1 <1>   0.0800 
 50 H        0.9360    10.1120     1.3990 H     1 <1>   0.0800 
 51 H        0.4640     9.0420     0.0970 H     1 <1>   0.0800 
 52 H        5.5070    10.1270    -1.1480 H     1 <1>   0.1500 
@<TRIPOS>BOND
  1   1   2  2   
  2   2   3  am  
  3   2   4  1   
  4   3   5  1   
  5   3   6  1   
  6   4   7  1   
  7   4  28  1   
  8   4  29  1   
  9   5   8  1   
 10   5   9  1   
 11   5  30  1   
 12   6  10  1   
 13   6  11  1   
 14   6  31  1   
 15   7   9  1   
 16   8  12  ar  
 17   8  13  ar  
 18   9  14  1   
 19   9  32  1   
 20  10  33  1   
 21  10  34  1   
 22  10  35  1   
 23  11  36  1   
 24  11  37  1   
 25  11  38  1   
 26  12  15  ar  
 27  12  39  1   
 28  13  16  ar  
 29  13  40  1   
 30  14  17  2   
 31  14  18  am  
 32  15  19  ar  
 33  15  41  1   
 34  16  19  ar  
 35  16  42  1   
 36  18  20  1   
 37  18  43  1   
 38  19  44  1   
 39  20  21  1   
 40  20  45  1   
 41  20  46  1   
 42  21  22  ar  
 43  21  23  ar  
 44  22  24  ar  
 45  23  25  ar  
 46  23  26  1   
 47  24  27  ar  
 48  24  47  1   
 49  25  27  ar  
 50  25  48  1   
 51  26  49  1   
 52  26  50  1   
 53  26  51  1   
 54  27  52  1   
@<TRIPOS>SUBSTRUCTURE
  1 ****   9 GROUP 4 **** **** 0

# MOE 2024.06 (io_trps.svl 2023.06)
