@<TRIPOS>MOLECULE
NONAME
40 42 1 0 0 
SMALL
USER_CHARGES


@<TRIPOS>ATOM
  1 O       -0.4080    -0.1130     0.1800 O.3   1 <1>  -0.3630 
  2 C       -1.6150    -0.7510     0.1620 C.ar  1 <1>   0.0830 
  3 C       -0.3240     1.2620    -0.1270 C.3   1 <1>   0.0400 
  4 C       -2.8240    -0.1620    -0.1620 C.ar  1 <1>   0.1600 
  5 C       -1.6590    -2.0890     0.4880 C.ar  1 <1>   0.1600 
  6 N       -3.9560    -0.8270    -0.1620 N.ar  1 <1>  -0.6200 
  7 N       -2.7750    -2.7820     0.4980 N.ar  1 <1>  -0.6200 
  8 C       -3.8790    -2.1150     0.1700 C.ar  1 <1>   0.7200 
  9 N       -5.0580    -2.8240     0.1860 N.pl3 1 <1>  -0.8380 
 10 C       -6.3260    -2.2620    -0.3470 C.3   1 <1>   0.2090 
 11 C       -5.0840    -4.3080     0.0670 C.3   1 <1>   0.2090 
 12 C       -7.3190    -3.4160    -0.2290 C.3   1 <1>   0.2000 
 13 C       -6.4570    -4.6450    -0.5260 C.3   1 <1>  -0.0800 
 14 O       -7.7530    -3.4670     1.0880 O.3   1 <1>  -0.6800 
 15 C       -7.0280    -5.9900    -0.0420 C.3   1 <1>   0.0210 
 16 C       -6.0840    -7.1290    -0.3770 C.2   1 <1>   0.1080 
 17 N       -5.7470    -7.4310    -1.5920 N.2   1 <1>  -0.7070 
 18 C       -5.4750    -7.9590     0.5590 C.2   1 <1>  -0.1500 
 19 N       -4.9040    -8.4730    -1.4630 N.pl3 1 <1>   0.3000 
 20 C       -4.7230    -8.8110    -0.1690 C.2   1 <1>  -0.3320 
 21 C       -3.8290    -9.9440     0.3000 C.3   1 <1>  -0.0600 
 22 H        0.7070     1.5600    -0.0450 H     1 <1>   0.0800 
 23 H       -0.9190     1.8170     0.5760 H     1 <1>   0.0800 
 24 H       -0.6670     1.4190    -1.1350 H     1 <1>   0.0800 
 25 H       -2.8710     0.8780    -0.4270 H     1 <1>   0.1500 
 26 H       -0.7450    -2.5920     0.7470 H     1 <1>   0.1500 
 27 H       -6.6430    -1.3980     0.2120 H     1 <1>   0.0800 
 28 H       -6.1880    -1.9930    -1.3800 H     1 <1>   0.0800 
 29 H       -4.2930    -4.6660    -0.5720 H     1 <1>   0.0800 
 30 H       -4.9690    -4.7380     1.0470 H     1 <1>   0.0800 
 31 H       -8.1730    -3.3180    -0.8760 H     1 <1>   0.0800 
 32 H       -6.3310    -4.7040    -1.5930 H     1 <1>   0.0800 
 33 H       -6.9680    -3.3130     1.6560 H     1 <1>   0.4000 
 34 H       -7.9720    -6.1730    -0.5210 H     1 <1>   0.0800 
 35 H       -7.1910    -5.9720     1.0200 H     1 <1>   0.0800 
 36 H       -5.5960    -7.9080     1.6260 H     1 <1>   0.1500 
 37 H       -4.4710    -8.9280    -2.2740 H     1 <1>   0.2700 
 38 H       -3.8530   -10.0150     1.3730 H     1 <1>   0.0800 
 39 H       -2.8130    -9.7680    -0.0090 H     1 <1>   0.0800 
 40 H       -4.1650   -10.8780    -0.1130 H     1 <1>   0.0800 
@<TRIPOS>BOND
  1   1   2  1   
  2   1   3  1   
  3   2   4  ar  
  4   2   5  ar  
  5   3  22  1   
  6   3  23  1   
  7   3  24  1   
  8   4   6  ar  
  9   4  25  1   
 10   5   7  ar  
 11   5  26  1   
 12   6   8  ar  
 13   7   8  ar  
 14   8   9  1   
 15   9  10  1   
 16   9  11  1   
 17  10  12  1   
 18  10  27  1   
 19  10  28  1   
 20  11  13  1   
 21  11  29  1   
 22  11  30  1   
 23  12  13  1   
 24  12  14  1   
 25  12  31  1   
 26  13  15  1   
 27  13  32  1   
 28  14  33  1   
 29  15  16  1   
 30  15  34  1   
 31  15  35  1   
 32  16  17  2   
 33  16  18  1   
 34  17  19  1   
 35  18  20  2   
 36  18  36  1   
 37  19  20  1   
 38  19  37  1   
 39  20  21  1   
 40  21  38  1   
 41  21  39  1   
 42  21  40  1   
@<TRIPOS>SUBSTRUCTURE
  1 ****  11 GROUP 4 **** **** 0

# MOE 2024.06 (io_trps.svl 2023.06)
