@<TRIPOS>MOLECULE
NONAME
39 40 1 0 0 
SMALL
USER_CHARGES


@<TRIPOS>ATOM
  1 F       -0.2330     0.0330     0.8740 F     1 <1>  -0.3400 
  2 C       -0.8230     0.7240    -0.0900 C.3   1 <1>   1.1640 
  3 F        0.0150     0.7200    -1.1210 F     1 <1>  -0.3400 
  4 F       -1.8830     0.0210    -0.4690 F     1 <1>  -0.3400 
  5 C       -1.1670     2.1560     0.3570 C.ar  1 <1>  -0.1440 
  6 C       -0.1840     3.1420     0.3730 C.ar  1 <1>  -0.1500 
  7 C       -2.4540     2.4960     0.7610 C.ar  1 <1>  -0.1500 
  8 C       -0.4760     4.4390     0.7710 C.ar  1 <1>  -0.1440 
  9 C       -2.7490     3.7840     1.1680 C.ar  1 <1>  -0.1500 
 10 C       -1.7640     4.7540     1.1750 C.ar  1 <1>  -0.1500 
 11 C        0.5980     5.5110     0.7660 C.3   1 <1>   0.4870 
 12 N        0.8190     5.9410    -0.6480 N.4   1 <1>  -0.9590 
 13 C        2.1170     6.6860    -0.8020 C.3   1 <1>   0.5230 
 14 C       -0.3480     6.7480    -1.1340 C.3   1 <1>   0.2630 
 15 C        2.1610     8.0270    -0.0670 C.2   1 <1>   0.0060 
 16 N        1.3690     8.3850     0.8860 N.2   1 <1>  -0.3380 
 17 N        3.0460     8.9930    -0.3370 N.pl3 1 <1>   0.0330 
 18 N        1.7240     9.6110     1.2560 N.2   1 <1>  -0.3380 
 19 C        2.7210     9.9590     0.5210 C.2   1 <1>   0.0060 
 20 C        3.4420    11.2930     0.6160 C.3   1 <1>   0.0200 
 21 C        3.2930    12.1090    -0.6720 C.3   1 <1>  -0.2400 
 22 H        0.8200     2.8830     0.0760 H     1 <1>   0.1500 
 23 H       -3.2400     1.7570     0.7670 H     1 <1>   0.1500 
 24 H       -3.7500     4.0290     1.4840 H     1 <1>   0.1500 
 25 H       -2.0150     5.7500     1.5030 H     1 <1>   0.1500 
 26 H        1.5060     5.1060     1.1830 H     1 <1>   0.0800 
 27 H        0.2880     6.3450     1.3740 H     1 <1>   0.0800 
 28 H        0.8570     5.0770    -1.2020 H     1 <1>   0.4500 
 29 H        2.2890     6.8690    -1.8490 H     1 <1>   0.0800 
 30 H        2.9260     6.0730    -0.4400 H     1 <1>   0.0800 
 31 H       -0.4710     7.6350    -0.5330 H     1 <1>   0.0800 
 32 H       -1.2550     6.1680    -1.0730 H     1 <1>   0.0800 
 33 H       -0.2020     7.0450    -2.1600 H     1 <1>   0.0800 
 34 H        3.8030     9.0300    -1.0250 H     1 <1>   0.2700 
 35 H        4.4830    11.1260     0.8280 H     1 <1>   0.0800 
 36 H        3.0280    11.8530     1.4380 H     1 <1>   0.0800 
 37 H        3.7440    11.6020    -1.5050 H     1 <1>   0.0800 
 38 H        3.7700    13.0660    -0.5550 H     1 <1>   0.0800 
 39 H        2.2510    12.2730    -0.8840 H     1 <1>   0.0800 
@<TRIPOS>BOND
  1   1   2  1   
  2   2   3  1   
  3   2   4  1   
  4   2   5  1   
  5   5   6  ar  
  6   5   7  ar  
  7   6   8  ar  
  8   6  22  1   
  9   7   9  ar  
 10   7  23  1   
 11   8  10  ar  
 12   8  11  1   
 13   9  10  ar  
 14   9  24  1   
 15  10  25  1   
 16  11  12  1   
 17  11  26  1   
 18  11  27  1   
 19  12  13  1   
 20  12  14  1   
 21  12  28  1   
 22  13  15  1   
 23  13  29  1   
 24  13  30  1   
 25  14  31  1   
 26  14  32  1   
 27  14  33  1   
 28  15  16  2   
 29  15  17  1   
 30  16  18  1   
 31  17  19  1   
 32  17  34  1   
 33  18  19  2   
 34  19  20  1   
 35  20  21  1   
 36  20  35  1   
 37  20  36  1   
 38  21  37  1   
 39  21  38  1   
 40  21  39  1   
@<TRIPOS>SUBSTRUCTURE
  1 ****  11 GROUP 4 **** **** 0

# MOE 2024.06 (io_trps.svl 2023.06)
