@<TRIPOS>MOLECULE
NONAME
47 49 1 0 0 
SMALL
USER_CHARGES


@<TRIPOS>ATOM
  1 N       -0.1170    -0.0960    -0.1570 N.ar  1 <1>  -0.6200 
  2 C        0.9490     0.6700     0.0060 C.ar  1 <1>   0.7710 
  3 C       -1.2950     0.4900    -0.1490 C.ar  1 <1>   0.4100 
  4 N        0.8510     1.9970     0.1660 N.ar  1 <1>  -0.1790 
  5 N        2.1800     0.1020     0.0090 N.pl3 1 <1>  -0.8380 
  6 N       -2.3640    -0.3000    -0.3360 N.pl3 1 <1>  -0.8690 
  7 C       -1.4620     1.8850     0.0390 C.ar  1 <1>  -0.1430 
  8 C       -0.3390     2.6440     0.1810 C.ar  1 <1>   0.2170 
  9 C        2.3630    -1.3610    -0.2080 C.3   1 <1>   0.2090 
 10 C        3.5020     0.7470     0.2410 C.3   1 <1>   0.2090 
 11 C       -2.4140    -1.7690    -0.4280 C.3   1 <1>   0.3890 
 12 C       -2.8880     2.4500     0.0780 C.3   1 <1>  -0.0970 
 13 C       -0.2890     4.1570     0.3580 C.3   1 <1>  -0.0970 
 14 C        3.8660    -1.5620    -0.3380 C.3   1 <1>  -0.1600 
 15 C        4.4750    -0.4050     0.4430 C.3   1 <1>  -0.1600 
 16 C       -3.8740    -2.2120    -0.3280 C.2   1 <1>   0.0060 
 17 N       -4.8840    -1.3940    -0.2620 N.2   1 <1>  -0.5650 
 18 N       -4.2360    -3.5200    -0.2980 N.pl3 1 <1>   0.0480 
 19 C       -5.9540    -2.2060    -0.1850 C.2   1 <1>   0.0770 
 20 C       -5.5780    -3.5020    -0.2050 C.2   1 <1>  -0.3020 
 21 C       -3.3890    -4.7320    -0.3540 C.3   1 <1>   0.0960 
 22 C       -2.9200    -5.1270     1.0500 C.3   1 <1>  -0.2400 
 23 H        1.7310     2.4830     0.2670 H     1 <1>   0.4570 
 24 H       -3.3310     0.0560    -0.3160 H     1 <1>   0.4000 
 25 H        1.8470    -1.6940    -1.0940 H     1 <1>   0.0800 
 26 H        1.9870    -1.8970     0.6490 H     1 <1>   0.0800 
 27 H        3.4900     1.3860     1.1090 H     1 <1>   0.0800 
 28 H        3.7860     1.3090    -0.6330 H     1 <1>   0.0800 
 29 H       -1.8400    -2.1980     0.3740 H     1 <1>   0.0800 
 30 H       -2.0000    -2.0800    -1.3700 H     1 <1>   0.0800 
 31 H       -3.4940     1.8740     0.7570 H     1 <1>   0.0800 
 32 H       -3.3320     2.3900    -0.9010 H     1 <1>   0.0800 
 33 H       -2.9300     3.4690     0.4100 H     1 <1>   0.0800 
 34 H        0.5660     4.5720    -0.1450 H     1 <1>   0.0800 
 35 H       -0.2310     4.4050     1.4040 H     1 <1>   0.0800 
 36 H       -1.1580     4.6320    -0.0590 H     1 <1>   0.0800 
 37 H        4.1410    -1.4930    -1.3760 H     1 <1>   0.0800 
 38 H        4.1750    -2.5210     0.0410 H     1 <1>   0.0800 
 39 H        4.5180    -0.6540     1.4900 H     1 <1>   0.0800 
 40 H        5.4660    -0.1600     0.1040 H     1 <1>   0.0800 
 41 H       -6.9530    -1.8100    -0.1170 H     1 <1>   0.1500 
 42 H       -6.1830    -4.3890    -0.1580 H     1 <1>   0.1500 
 43 H       -2.5450    -4.5440    -0.9920 H     1 <1>   0.0800 
 44 H       -3.9650    -5.5310    -0.7850 H     1 <1>   0.0800 
 45 H       -2.3340    -4.3420     1.4920 H     1 <1>   0.0800 
 46 H       -2.3140    -6.0140     0.9950 H     1 <1>   0.0800 
 47 H       -3.7670    -5.3330     1.6800 H     1 <1>   0.0800 
@<TRIPOS>BOND
  1   1   2  ar  
  2   1   3  ar  
  3   2   4  ar  
  4   2   5  1   
  5   3   6  1   
  6   3   7  ar  
  7   4   8  ar  
  8   4  23  1   
  9   5   9  1   
 10   5  10  1   
 11   6  11  1   
 12   6  24  1   
 13   7   8  ar  
 14   7  12  1   
 15   8  13  1   
 16   9  14  1   
 17   9  25  1   
 18   9  26  1   
 19  10  15  1   
 20  10  27  1   
 21  10  28  1   
 22  11  16  1   
 23  11  29  1   
 24  11  30  1   
 25  12  31  1   
 26  12  32  1   
 27  12  33  1   
 28  13  34  1   
 29  13  35  1   
 30  13  36  1   
 31  14  15  1   
 32  14  37  1   
 33  14  38  1   
 34  15  39  1   
 35  15  40  1   
 36  16  17  2   
 37  16  18  1   
 38  17  19  1   
 39  18  20  1   
 40  18  21  1   
 41  19  20  2   
 42  19  41  1   
 43  20  42  1   
 44  21  22  1   
 45  21  43  1   
 46  21  44  1   
 47  22  45  1   
 48  22  46  1   
 49  22  47  1   
@<TRIPOS>SUBSTRUCTURE
  1 ****   1 GROUP 4 **** **** 0

# MOE 2024.06 (io_trps.svl 2023.06)
