@<TRIPOS>MOLECULE
NONAME
47 49 1 0 0 
SMALL
USER_CHARGES


@<TRIPOS>ATOM
  1 F        0.4840    -0.4570    -0.3450 F     1 <1>  -0.1900 
  2 C        0.1660    -1.6860    -0.0500 C.ar  1 <1>   0.1900 
  3 C        0.6830    -2.7130    -0.8150 C.ar  1 <1>  -0.1500 
  4 C       -0.6770    -1.9200     1.0160 C.ar  1 <1>  -0.1500 
  5 C        0.3460    -4.0230    -0.5090 C.ar  1 <1>  -0.1440 
  6 C       -1.0070    -3.2280     1.3160 C.ar  1 <1>  -0.1500 
  7 C       -0.5100    -4.3020     0.5700 C.ar  1 <1>   0.0860 
  8 C        0.9200    -5.1440    -1.3670 C.3   1 <1>  -0.0960 
  9 C       -0.9070    -5.6510     0.9340 C.2   1 <1>   0.5440 
 10 O       -0.0690    -6.5000     1.1860 O.2   1 <1>  -0.5700 
 11 N       -2.2330    -6.0140     0.9910 N.am  1 <1>  -0.6600 
 12 C       -2.6410    -7.3290     1.5640 C.3   1 <1>   0.1400 
 13 C       -3.2640    -5.4260     0.0900 C.3   1 <1>   0.1400 
 14 C       -2.8170    -8.3300     0.4000 C.3   1 <1>   0.4230 
 15 C       -3.5130    -6.4070    -1.0660 C.3   1 <1>  -0.1600 
 16 N       -3.1040    -9.7400     0.8310 N.4   1 <1>  -0.9590 
 17 C       -3.9160    -7.8250    -0.5620 C.3   1 <1>  -0.1060 
 18 C       -3.1390   -10.6750    -0.3220 C.3   1 <1>   0.3430 
 19 C       -2.2580   -10.2430     1.9450 C.3   1 <1>   0.2630 
 20 C       -5.2530    -7.7710     0.2050 C.2   1 <1>   0.9060 
 21 C       -4.0180    -8.7760    -1.7780 C.3   1 <1>  -0.1600 
 22 C       -4.1990   -10.2370    -1.3360 C.3   1 <1>  -0.1600 
 23 O       -5.4680    -8.6080     1.0960 O.co2 1 <1>  -0.9000 
 24 O       -6.0710    -6.8930    -0.0650 O.co2 1 <1>  -0.9000 
 25 H        1.3380    -2.4770    -1.6340 H     1 <1>   0.1500 
 26 H       -1.0620    -1.0980     1.5920 H     1 <1>   0.1500 
 27 H       -1.6630    -3.4330     2.1460 H     1 <1>   0.1500 
 28 H        1.4290    -4.7530    -2.2290 H     1 <1>   0.0800 
 29 H        0.1340    -5.7950    -1.7050 H     1 <1>   0.0800 
 30 H        1.6220    -5.7200    -0.7900 H     1 <1>   0.0800 
 31 H       -1.8820    -7.6660     2.2450 H     1 <1>   0.0800 
 32 H       -3.5580    -7.2080     2.1140 H     1 <1>   0.0800 
 33 H       -4.1750    -5.2610     0.6430 H     1 <1>   0.0800 
 34 H       -2.9410    -4.4780    -0.3030 H     1 <1>   0.0800 
 35 H       -1.8840    -8.3360    -0.1360 H     1 <1>   0.0800 
 36 H       -4.2980    -6.0100    -1.6880 H     1 <1>   0.0800 
 37 H       -2.6230    -6.4600    -1.6670 H     1 <1>   0.0800 
 38 H       -4.1030    -9.6430     1.1630 H     1 <1>   0.4500 
 39 H       -2.1730   -10.6960    -0.7970 H     1 <1>   0.0800 
 40 H       -3.3730   -11.6690     0.0230 H     1 <1>   0.0800 
 41 H       -1.2190   -10.2280     1.6620 H     1 <1>   0.0800 
 42 H       -2.5400   -11.2520     2.1970 H     1 <1>   0.0800 
 43 H       -2.3910    -9.6280     2.8200 H     1 <1>   0.0800 
 44 H       -4.8540    -8.4810    -2.3910 H     1 <1>   0.0800 
 45 H       -3.1260    -8.7000    -2.3770 H     1 <1>   0.0800 
 46 H       -4.1500   -10.8790    -2.1980 H     1 <1>   0.0800 
 47 H       -5.1750   -10.3670    -0.9000 H     1 <1>   0.0800 
@<TRIPOS>BOND
  1   1   2  1   
  2   2   3  ar  
  3   2   4  ar  
  4   3   5  ar  
  5   3  25  1   
  6   4   6  ar  
  7   4  26  1   
  8   5   7  ar  
  9   5   8  1   
 10   6   7  ar  
 11   6  27  1   
 12   7   9  1   
 13   8  28  1   
 14   8  29  1   
 15   8  30  1   
 16   9  10  2   
 17   9  11  am  
 18  11  12  1   
 19  11  13  1   
 20  12  14  1   
 21  12  31  1   
 22  12  32  1   
 23  13  15  1   
 24  13  33  1   
 25  13  34  1   
 26  14  16  1   
 27  14  17  1   
 28  14  35  1   
 29  15  17  1   
 30  15  36  1   
 31  15  37  1   
 32  16  18  1   
 33  16  19  1   
 34  16  38  1   
 35  17  20  1   
 36  17  21  1   
 37  18  22  1   
 38  18  39  1   
 39  18  40  1   
 40  19  41  1   
 41  19  42  1   
 42  19  43  1   
 43  20  23  ar  
 44  20  24  ar  
 45  21  22  1   
 46  21  44  1   
 47  21  45  1   
 48  22  46  1   
 49  22  47  1   
@<TRIPOS>SUBSTRUCTURE
  1 ****  11 GROUP 4 **** **** 0

# MOE 2024.06 (io_trps.svl 2023.06)
