@<TRIPOS>MOLECULE
NONAME
47 50 1 0 0 
SMALL
USER_CHARGES


@<TRIPOS>ATOM
  1 O       -1.0710    -0.7090     1.3410 O.co2 1 <1>  -0.9000 
  2 C       -1.0950    -1.5240     0.4030 C.2   1 <1>   0.9790 
  3 O       -0.4760    -1.2630    -0.6430 O.co2 1 <1>  -0.9000 
  4 C       -1.8660    -2.7560     0.5140 C.ar  1 <1>  -0.1790 
  5 C       -1.8880    -3.6930    -0.5190 C.ar  1 <1>  -0.1500 
  6 C       -2.6190    -3.0440     1.6520 C.ar  1 <1>  -0.1500 
  7 C       -2.6520    -4.8410    -0.4390 C.ar  1 <1>  -0.1500 
  8 C       -3.3870    -4.1890     1.7430 C.ar  1 <1>  -0.1500 
  9 C       -3.4250    -5.0840     0.6860 C.ar  1 <1>  -0.1430 
 10 C       -4.3390    -6.2850     0.7250 C.3   1 <1>   0.4870 
 11 N       -5.4900    -5.9280    -0.1400 N.4   1 <1>  -0.9590 
 12 C       -6.3710    -4.9080     0.5250 C.3   1 <1>   0.3430 
 13 C       -6.2690    -7.1010    -0.6150 C.3   1 <1>   0.3430 
 14 C       -7.4300    -4.3640    -0.4470 C.3   1 <1>   0.1430 
 15 C       -7.3050    -6.6290    -1.6410 C.3   1 <1>  -0.1600 
 16 C       -8.3530    -3.4520     0.3250 C.ar  1 <1>   0.1670 
 17 C       -8.2250    -5.5270    -1.0800 C.3   1 <1>  -0.1600 
 18 C       -6.8150    -3.4130    -1.5120 C.3   1 <1>  -0.1600 
 19 N       -8.9370    -3.7740     1.4520 N.ar  1 <1>  -0.6200 
 20 C       -8.4970    -2.2400    -0.2800 C.ar  1 <1>  -0.1430 
 21 C       -7.7030    -2.1530    -1.5590 C.3   1 <1>  -0.0170 
 22 C       -9.6880    -2.8040     1.9580 C.ar  1 <1>   0.7200 
 23 C       -9.3050    -1.3150     0.3350 C.ar  1 <1>   0.1600 
 24 N       -9.9140    -1.5940     1.4670 N.ar  1 <1>  -0.6200 
 25 N      -10.3130    -3.0860     3.1010 N.pl3 1 <1>  -0.9000 
 26 H       -1.2910    -3.4960    -1.3960 H     1 <1>   0.1500 
 27 H       -2.5930    -2.3400     2.4700 H     1 <1>   0.1500 
 28 H       -2.6320    -5.5260    -1.2680 H     1 <1>   0.1500 
 29 H       -3.9540    -4.3560     2.6430 H     1 <1>   0.1500 
 30 H       -4.6600    -6.4920     1.7320 H     1 <1>   0.0800 
 31 H       -3.8190    -7.1430     0.3320 H     1 <1>   0.0800 
 32 H       -5.0690    -5.4570    -0.9520 H     1 <1>   0.4500 
 33 H       -5.7820    -4.0810     0.8880 H     1 <1>   0.0800 
 34 H       -6.8730    -5.3520     1.3690 H     1 <1>   0.0800 
 35 H       -6.7700    -7.5690     0.2170 H     1 <1>   0.0800 
 36 H       -5.6130    -7.8250    -1.0710 H     1 <1>   0.0800 
 37 H       -7.9080    -7.4710    -1.9380 H     1 <1>   0.0800 
 38 H       -6.7980    -6.2780    -2.5220 H     1 <1>   0.0800 
 39 H       -8.8730    -5.1530    -1.8550 H     1 <1>   0.0800 
 40 H       -8.8580    -5.9640    -0.3240 H     1 <1>   0.0800 
 41 H       -6.7430    -3.8660    -2.4850 H     1 <1>   0.0800 
 42 H       -5.8280    -3.1090    -1.2070 H     1 <1>   0.0800 
 43 H       -8.3700    -2.1850    -2.4040 H     1 <1>   0.0800 
 44 H       -7.1110    -1.2540    -1.5970 H     1 <1>   0.0800 
 45 H       -9.4540    -0.3410    -0.1000 H     1 <1>   0.1500 
 46 H      -11.0680    -2.4480     3.3410 H     1 <1>   0.4000 
 47 H      -10.4770    -4.0690     3.2910 H     1 <1>   0.4000 
@<TRIPOS>BOND
  1   1   2  ar  
  2   2   3  ar  
  3   2   4  1   
  4   4   5  ar  
  5   4   6  ar  
  6   5   7  ar  
  7   5  26  1   
  8   6   8  ar  
  9   6  27  1   
 10   7   9  ar  
 11   7  28  1   
 12   8   9  ar  
 13   8  29  1   
 14   9  10  1   
 15  10  11  1   
 16  10  30  1   
 17  10  31  1   
 18  11  12  1   
 19  11  13  1   
 20  11  32  1   
 21  12  14  1   
 22  12  33  1   
 23  12  34  1   
 24  13  15  1   
 25  13  35  1   
 26  13  36  1   
 27  14  16  1   
 28  14  17  1   
 29  14  18  1   
 30  15  17  1   
 31  15  37  1   
 32  15  38  1   
 33  16  19  ar  
 34  16  20  ar  
 35  17  39  1   
 36  17  40  1   
 37  18  21  1   
 38  18  41  1   
 39  18  42  1   
 40  19  22  ar  
 41  20  21  1   
 42  20  23  ar  
 43  21  43  1   
 44  21  44  1   
 45  22  24  ar  
 46  22  25  1   
 47  23  24  ar  
 48  23  45  1   
 49  25  46  1   
 50  25  47  1   
@<TRIPOS>SUBSTRUCTURE
  1 ****  12 GROUP 4 **** **** 0

# MOE 2024.06 (io_trps.svl 2023.06)
