@<TRIPOS>MOLECULE
NONAME
50 52 1 0 0 
SMALL
USER_CHARGES


@<TRIPOS>ATOM
  1 CL      -0.5680     0.0740    -0.4750 Cl    1 <1>  -0.1770 
  2 C       -2.2030     0.5140    -0.0600 C.ar  1 <1>   0.1770 
  3 C       -2.4330     1.6520     0.6880 C.ar  1 <1>  -0.1500 
  4 C       -3.2510    -0.2800    -0.4820 C.ar  1 <1>  -0.1500 
  5 C       -3.7330     1.9960     1.0140 C.ar  1 <1>  -0.1500 
  6 C       -4.5460     0.0720    -0.1480 C.ar  1 <1>  -0.1500 
  7 C       -4.8220     1.2180     0.6060 C.ar  1 <1>   0.0530 
  8 C       -6.1690     1.5970     0.9640 C.2   1 <1>   0.0870 
  9 O       -6.3810     2.3830     1.9900 O.3   1 <1>  -0.0190 
 10 C       -7.3900     1.3000     0.4440 C.2   1 <1>  -0.0860 
 11 N       -7.6470     2.6340     2.1930 N.2   1 <1>  -0.4100 
 12 C       -8.2730     2.0010     1.2720 C.2   1 <1>   0.3720 
 13 C       -7.7300     0.5000    -0.6870 C.2   1 <1>   0.7160 
 14 N       -9.6560     2.0640     1.2040 N.pl3 1 <1>  -0.8520 
 15 O       -7.3820     0.8550    -1.7980 O.2   1 <1>  -0.5700 
 16 N       -8.4130    -0.6860    -0.5650 N.am  1 <1>  -0.6600 
 17 C      -10.2490     2.4780    -0.0970 C.3   1 <1>   0.2090 
 18 C       -8.9390    -1.2590     0.6980 C.3   1 <1>   0.1400 
 19 C       -8.9030    -1.4520    -1.7310 C.3   1 <1>   0.1400 
 20 C      -11.7660     2.6060     0.0380 C.3   1 <1>   0.1200 
 21 C      -10.0840    -2.1850     0.2660 C.3   1 <1>   0.0000 
 22 C       -9.6540    -2.6390    -1.1340 C.3   1 <1>  -0.1600 
 23 O      -12.2970     2.9570    -1.2000 O.3   1 <1>  -0.5600 
 24 C      -11.4050    -1.3980     0.1870 C.3   1 <1>  -0.2400 
 25 C      -10.2540    -3.3760     1.2190 C.3   1 <1>  -0.2400 
 26 C      -13.6830     3.0760    -1.2070 C.3   1 <1>   0.0400 
 27 H       -1.6040     2.2580     1.0070 H     1 <1>   0.1500 
 28 H       -3.0500    -1.1610    -1.0640 H     1 <1>   0.1500 
 29 H       -3.9080     2.8850     1.5940 H     1 <1>   0.1500 
 30 H       -5.3500    -0.5590    -0.4810 H     1 <1>   0.1500 
 31 H       -9.9660     2.6950     1.9500 H     1 <1>   0.4000 
 32 H      -10.0340     1.7380    -0.8490 H     1 <1>   0.0800 
 33 H       -9.8300     3.4220    -0.4030 H     1 <1>   0.0800 
 34 H       -9.2860    -0.5000     1.3750 H     1 <1>   0.0800 
 35 H       -8.1560    -1.8250     1.1710 H     1 <1>   0.0800 
 36 H       -8.0830    -1.7690    -2.3520 H     1 <1>   0.0800 
 37 H       -9.5690    -0.8300    -2.3050 H     1 <1>   0.0800 
 38 H      -12.0140     3.3750     0.7480 H     1 <1>   0.0800 
 39 H      -12.1890     1.6640     0.3390 H     1 <1>   0.0800 
 40 H       -8.9710    -3.4670    -1.0630 H     1 <1>   0.0800 
 41 H      -10.4840    -2.9350    -1.7510 H     1 <1>   0.0800 
 42 H      -11.3120    -0.5610    -0.4820 H     1 <1>   0.0800 
 43 H      -11.6750    -1.0230     1.1580 H     1 <1>   0.0800 
 44 H      -12.2000    -2.0300    -0.1680 H     1 <1>   0.0800 
 45 H       -9.3400    -3.9380     1.2930 H     1 <1>   0.0800 
 46 H      -11.0290    -4.0320     0.8640 H     1 <1>   0.0800 
 47 H      -10.5210    -3.0320     2.2030 H     1 <1>   0.0800 
 48 H      -13.9900     3.3490    -2.2010 H     1 <1>   0.0800 
 49 H      -13.9790     3.8430    -0.5130 H     1 <1>   0.0800 
 50 H      -14.1230     2.1300    -0.9400 H     1 <1>   0.0800 
@<TRIPOS>BOND
  1   1   2  1   
  2   2   3  ar  
  3   2   4  ar  
  4   3   5  ar  
  5   3  27  1   
  6   4   6  ar  
  7   4  28  1   
  8   5   7  ar  
  9   5  29  1   
 10   6   7  ar  
 11   6  30  1   
 12   7   8  1   
 13   8   9  1   
 14   8  10  2   
 15   9  11  1   
 16  10  12  1   
 17  10  13  1   
 18  11  12  2   
 19  12  14  1   
 20  13  15  2   
 21  13  16  am  
 22  14  17  1   
 23  14  31  1   
 24  16  18  1   
 25  16  19  1   
 26  17  20  1   
 27  17  32  1   
 28  17  33  1   
 29  18  21  1   
 30  18  34  1   
 31  18  35  1   
 32  19  22  1   
 33  19  36  1   
 34  19  37  1   
 35  20  23  1   
 36  20  38  1   
 37  20  39  1   
 38  21  22  1   
 39  21  24  1   
 40  21  25  1   
 41  22  40  1   
 42  22  41  1   
 43  23  26  1   
 44  24  42  1   
 45  24  43  1   
 46  24  44  1   
 47  25  45  1   
 48  25  46  1   
 49  25  47  1   
 50  26  48  1   
 51  26  49  1   
 52  26  50  1   
@<TRIPOS>SUBSTRUCTURE
  1 ****  10 GROUP 4 **** **** 0

# MOE 2024.06 (io_trps.svl 2023.06)
