@<TRIPOS>MOLECULE
NONAME
48 51 1 0 0 
SMALL
USER_CHARGES


@<TRIPOS>ATOM
  1 O       -2.4810     0.8990    -2.1680 O.2   1 <1>  -0.5700 
  2 C       -2.4790     0.9000    -0.9610 C.2   1 <1>   0.5690 
  3 N       -2.6550    -0.2380    -0.2570 N.am  1 <1>  -0.7300 
  4 C       -2.2620     2.2000    -0.1840 C.3   1 <1>  -0.0190 
  5 C       -2.7660    -1.5700    -0.8540 C.3   1 <1>   0.5070 
  6 C       -2.4750     3.4660    -1.0400 C.3   1 <1>  -0.1600 
  7 C       -0.8620     2.2180     0.4780 C.3   1 <1>  -0.1600 
  8 C       -3.7930    -2.3790    -0.0780 C.ar  1 <1>  -0.1440 
  9 C       -1.4970    -2.3530    -0.5620 C.ar  1 <1>  -0.1440 
 10 C       -2.3960     4.7610    -0.2010 C.3   1 <1>   0.2000 
 11 C       -0.3740     3.6290     0.8670 C.3   1 <1>  -0.1600 
 12 C       -3.1810    -3.4460     0.5550 C.ar  1 <1>   0.0000 
 13 C       -5.1540    -2.1590     0.0400 C.ar  1 <1>  -0.1500 
 14 C       -1.7770    -3.4300     0.2590 C.ar  1 <1>   0.0000 
 15 C       -0.2110    -2.1010    -1.0040 C.ar  1 <1>  -0.1500 
 16 O       -1.8320     5.7740    -0.9960 O.3   1 <1>  -0.5600 
 17 C       -1.5440     4.5920     1.0840 C.3   1 <1>   0.2000 
 18 C       -3.9410    -4.3160     1.3260 C.ar  1 <1>  -0.1500 
 19 C       -5.9090    -3.0290     0.8110 C.ar  1 <1>  -0.1500 
 20 C       -0.7500    -4.2770     0.6530 C.ar  1 <1>  -0.1500 
 21 C        0.8120    -2.9500    -0.6090 C.ar  1 <1>  -0.1500 
 22 C       -2.6950     6.3480    -1.9300 C.3   1 <1>   0.0400 
 23 O       -1.0280     5.8170     1.4520 O.3   1 <1>  -0.6800 
 24 C       -5.3040    -4.1020     1.4500 C.ar  1 <1>  -0.1500 
 25 C        0.5420    -4.0330     0.2160 C.ar  1 <1>  -0.1500 
 26 H       -2.5850    -0.2590     0.7580 H     1 <1>   0.3700 
 27 H       -3.0030     2.2170     0.5960 H     1 <1>   0.0800 
 28 H       -2.9870    -1.5340    -1.9080 H     1 <1>   0.0800 
 29 H       -3.4340     3.4140    -1.5230 H     1 <1>   0.0800 
 30 H       -1.7150     3.4870    -1.8030 H     1 <1>   0.0800 
 31 H       -0.8870     1.5960     1.3550 H     1 <1>   0.0800 
 32 H       -0.1410     1.7890    -0.1980 H     1 <1>   0.0800 
 33 H       -3.3840     5.0680     0.0990 H     1 <1>   0.0800 
 34 H        0.2390     4.0160     0.0710 H     1 <1>   0.0800 
 35 H        0.2260     3.5720     1.7580 H     1 <1>   0.0800 
 36 H       -5.6170    -1.3250    -0.4580 H     1 <1>   0.1500 
 37 H       -0.0110    -1.2580    -1.6450 H     1 <1>   0.1500 
 38 H       -2.1550     4.2350     1.8950 H     1 <1>   0.0800 
 39 H       -3.4700    -5.1460     1.8190 H     1 <1>   0.1500 
 40 H       -6.9690    -2.8730     0.9130 H     1 <1>   0.1500 
 41 H       -0.9610    -5.1160     1.2920 H     1 <1>   0.1500 
 42 H        1.8180    -2.7690    -0.9450 H     1 <1>   0.1500 
 43 H       -2.1550     7.1170    -2.4540 H     1 <1>   0.0800 
 44 H       -3.5360     6.7830    -1.4180 H     1 <1>   0.0800 
 45 H       -3.0200     5.5990    -2.6290 H     1 <1>   0.0800 
 46 H       -0.8940     6.3120     0.6110 H     1 <1>   0.4000 
 47 H       -5.8990    -4.7730     2.0460 H     1 <1>   0.1500 
 48 H        1.3420    -4.6860     0.5180 H     1 <1>   0.1500 
@<TRIPOS>BOND
  1   1   2  2   
  2   2   3  am  
  3   2   4  1   
  4   3   5  1   
  5   3  26  1   
  6   4   6  1   
  7   4   7  1   
  8   4  27  1   
  9   5   8  1   
 10   5   9  1   
 11   5  28  1   
 12   6  10  1   
 13   6  29  1   
 14   6  30  1   
 15   7  11  1   
 16   7  31  1   
 17   7  32  1   
 18   8  12  ar  
 19   8  13  ar  
 20   9  14  ar  
 21   9  15  ar  
 22  10  16  1   
 23  10  17  1   
 24  10  33  1   
 25  11  17  1   
 26  11  34  1   
 27  11  35  1   
 28  12  14  1   
 29  12  18  ar  
 30  13  19  ar  
 31  13  36  1   
 32  14  20  ar  
 33  15  21  ar  
 34  15  37  1   
 35  16  22  1   
 36  17  23  1   
 37  17  38  1   
 38  18  24  ar  
 39  18  39  1   
 40  19  24  ar  
 41  19  40  1   
 42  20  25  ar  
 43  20  41  1   
 44  21  25  ar  
 45  21  42  1   
 46  22  43  1   
 47  22  44  1   
 48  22  45  1   
 49  23  46  1   
 50  24  47  1   
 51  25  48  1   
@<TRIPOS>SUBSTRUCTURE
  1 ****   3 GROUP 4 **** **** 0

# MOE 2024.06 (io_trps.svl 2023.06)
