@<TRIPOS>MOLECULE
NONAME
46 47 1 0 0 
SMALL
USER_CHARGES


@<TRIPOS>ATOM
  1 S       -0.5280     0.5850    -1.6400 S.o2  1 <1>   1.4470 
  2 O       -0.1690     0.0360    -2.9300 O.2   1 <1>  -0.6500 
  3 O       -1.4820     1.6720    -1.5770 O.2   1 <1>  -0.6500 
  4 N       -1.1170    -0.6890    -0.6930 N.am  1 <1>  -0.8490 
  5 C        0.9970     1.0640    -0.7810 C.ar  1 <1>  -0.0090 
  6 C       -2.0160    -1.5810    -1.4660 C.3   1 <1>   0.1960 
  7 C       -1.6550    -0.2760     0.6240 C.3   1 <1>   0.1960 
  8 C        1.3230     2.4010    -0.5880 C.ar  1 <1>  -0.1500 
  9 C        1.8880     0.1050    -0.3080 C.ar  1 <1>  -0.1500 
 10 C       -2.8970    -2.4260    -0.5360 C.3   1 <1>   0.2000 
 11 C       -3.1840    -0.1760     0.6040 C.3   1 <1>  -0.1600 
 12 C        2.4930     2.7500     0.0590 C.ar  1 <1>   0.1900 
 13 C        3.0610     0.4590     0.3410 C.ar  1 <1>  -0.1500 
 14 O       -3.6040    -3.3900    -1.2330 O.3   1 <1>  -0.6800 
 15 C       -3.8520    -1.5610     0.3290 C.3   1 <1>  -0.1060 
 16 F        2.7150     4.0330     0.2000 F     1 <1>  -0.1900 
 17 C        3.3900     1.7910     0.5390 C.ar  1 <1>   0.0820 
 18 C       -3.9900    -2.3970     1.6120 C.2   1 <1>   0.9060 
 19 C       -5.2790    -1.3180    -0.2660 C.3   1 <1>  -0.1600 
 20 O        4.5670     2.0120     1.1880 O.3   1 <1>  -0.3630 
 21 O       -3.5200    -1.9850     2.6790 O.co2 1 <1>  -0.9000 
 22 O       -4.5160    -3.5160     1.5210 O.co2 1 <1>  -0.9000 
 23 C       -5.3620    -0.7170    -1.6840 C.3   1 <1>  -0.1600 
 24 C        5.0810     3.3020     1.4340 C.3   1 <1>   0.0400 
 25 C       -6.8200    -0.5050    -2.0980 C.3   1 <1>  -0.2400 
 26 H       -2.6500    -0.9900    -2.1020 H     1 <1>   0.0800 
 27 H       -1.4200    -2.2300    -2.0840 H     1 <1>   0.0800 
 28 H       -1.3720    -1.0080     1.3640 H     1 <1>   0.0800 
 29 H       -1.2320     0.6660     0.9300 H     1 <1>   0.0800 
 30 H        0.6610     3.1730    -0.9420 H     1 <1>   0.1500 
 31 H        1.6560    -0.9380    -0.4500 H     1 <1>   0.1500 
 32 H       -2.2250    -2.9680     0.1090 H     1 <1>   0.0800 
 33 H       -3.5270     0.2110     1.5480 H     1 <1>   0.0800 
 34 H       -3.4520     0.5530    -0.1340 H     1 <1>   0.0800 
 35 H        3.7310    -0.3030     0.6990 H     1 <1>   0.1500 
 36 H       -4.1650    -3.8420    -0.5530 H     1 <1>   0.4000 
 37 H       -5.8090    -2.2550    -0.2790 H     1 <1>   0.0800 
 38 H       -5.8150    -0.6810     0.4160 H     1 <1>   0.0800 
 39 H       -4.8500     0.2260    -1.7360 H     1 <1>   0.0800 
 40 H       -4.9010    -1.3870    -2.3880 H     1 <1>   0.0800 
 41 H        6.0270     3.1950     1.9340 H     1 <1>   0.0800 
 42 H        4.3950     3.8390     2.0640 H     1 <1>   0.0800 
 43 H        5.2210     3.8090     0.4950 H     1 <1>   0.0800 
 44 H       -7.3060     0.1780    -1.4230 H     1 <1>   0.0800 
 45 H       -7.3500    -1.4410    -2.0860 H     1 <1>   0.0800 
 46 H       -6.8640    -0.0970    -3.0920 H     1 <1>   0.0800 
@<TRIPOS>BOND
  1   1   2  2   
  2   1   3  2   
  3   1   4  am  
  4   1   5  1   
  5   4   6  1   
  6   4   7  1   
  7   5   8  ar  
  8   5   9  ar  
  9   6  10  1   
 10   6  26  1   
 11   6  27  1   
 12   7  11  1   
 13   7  28  1   
 14   7  29  1   
 15   8  12  ar  
 16   8  30  1   
 17   9  13  ar  
 18   9  31  1   
 19  10  14  1   
 20  10  15  1   
 21  10  32  1   
 22  11  15  1   
 23  11  33  1   
 24  11  34  1   
 25  12  16  1   
 26  12  17  ar  
 27  13  17  ar  
 28  13  35  1   
 29  14  36  1   
 30  15  18  1   
 31  15  19  1   
 32  17  20  1   
 33  18  21  ar  
 34  18  22  ar  
 35  19  23  1   
 36  19  37  1   
 37  19  38  1   
 38  20  24  1   
 39  23  25  1   
 40  23  39  1   
 41  23  40  1   
 42  24  41  1   
 43  24  42  1   
 44  24  43  1   
 45  25  44  1   
 46  25  45  1   
 47  25  46  1   
@<TRIPOS>SUBSTRUCTURE
  1 ****   4 GROUP 4 **** **** 0

# MOE 2024.06 (io_trps.svl 2023.06)
