@<TRIPOS>MOLECULE
NONAME
54 57 1 0 0 
SMALL
USER_CHARGES


@<TRIPOS>ATOM
  1 O       -1.3880    -5.6070    -0.9060 O.2   1 <1>  -0.5700 
  2 C       -0.2550    -5.2070    -0.9780 C.2   1 <1>   0.5690 
  3 N        0.5630    -5.5790    -1.9850 N.am  1 <1>  -0.7300 
  4 C        0.3100    -4.2770     0.0730 C.3   1 <1>  -0.0990 
  5 C        1.9600    -5.1150    -2.1050 C.3   1 <1>   0.1400 
  6 C        1.1370    -3.1510    -0.5800 C.3   1 <1>  -0.0800 
  7 C        2.0430    -3.6170    -1.7490 C.3   1 <1>  -0.0800 
  8 C        2.0500    -2.4170     0.4130 C.3   1 <1>  -0.1600 
  9 C        3.4650    -3.1700    -1.3890 C.3   1 <1>  -0.1600 
 10 C        3.2650    -2.0120    -0.4190 C.3   1 <1>   0.2200 
 11 N        4.4980    -1.7140     0.3700 N.am  1 <1>  -0.6600 
 12 C        5.3320    -0.6860    -0.0320 C.2   1 <1>   0.5440 
 13 C        4.8710    -2.6370     1.4850 C.3   1 <1>   0.0600 
 14 O        5.1880    -0.2070    -1.1420 O.2   1 <1>  -0.5700 
 15 C        6.3820    -0.1700     0.8270 C.ar  1 <1>   0.0860 
 16 C        7.6910    -0.0590     0.3650 C.ar  1 <1>  -0.1500 
 17 C        6.1220     0.2350     2.1360 C.ar  1 <1>  -0.1500 
 18 C        8.7260     0.4140     1.1640 C.ar  1 <1>   0.0000 
 19 C        7.1320     0.7100     2.9500 C.ar  1 <1>  -0.1500 
 20 C       10.0760     0.5080     0.6560 C.ar  1 <1>   0.0000 
 21 C        8.4240     0.7950     2.4670 C.ar  1 <1>  -0.1500 
 22 C       10.7660     1.7170     0.6690 C.ar  1 <1>  -0.1500 
 23 C       10.7270    -0.6090     0.1400 C.ar  1 <1>  -0.1500 
 24 C       12.0590     1.8130     0.1880 C.ar  1 <1>  -0.1500 
 25 C       12.0190    -0.5210    -0.3440 C.ar  1 <1>  -0.1500 
 26 C       12.6970     0.6860    -0.3240 C.ar  1 <1>   0.0820 
 27 O       13.9590     0.6900    -0.8150 O.3   1 <1>  -0.3620 
 28 C       14.7360     1.8660    -0.8420 C.3   1 <1>   0.0400 
 29 H        0.1940    -6.2300    -2.6810 H     1 <1>   0.3700 
 30 H       -0.4930    -3.8590     0.6520 H     1 <1>   0.0800 
 31 H        0.9250    -4.8670     0.7260 H     1 <1>   0.0800 
 32 H        2.5680    -5.6940    -1.4310 H     1 <1>   0.0800 
 33 H        2.3160    -5.2740    -3.1090 H     1 <1>   0.0800 
 34 H        0.4420    -2.4350    -0.9890 H     1 <1>   0.0800 
 35 H        1.7420    -3.0650    -2.6240 H     1 <1>   0.0800 
 36 H        2.3310    -3.0910     1.2000 H     1 <1>   0.0800 
 37 H        1.5620    -1.5560     0.8340 H     1 <1>   0.0800 
 38 H        4.0150    -2.8520    -2.2570 H     1 <1>   0.0800 
 39 H        3.9940    -3.9690    -0.9010 H     1 <1>   0.0800 
 40 H        2.9870    -1.1420    -0.9920 H     1 <1>   0.0800 
 41 H        4.6390    -3.6540     1.2240 H     1 <1>   0.0800 
 42 H        4.3270    -2.3700     2.3740 H     1 <1>   0.0800 
 43 H        5.9260    -2.5800     1.6910 H     1 <1>   0.0800 
 44 H        7.9020    -0.3450    -0.6500 H     1 <1>   0.1500 
 45 H        5.1150     0.1770     2.5090 H     1 <1>   0.1500 
 46 H        6.9140     1.0160     3.9590 H     1 <1>   0.1500 
 47 H        9.2110     1.1590     3.1040 H     1 <1>   0.1500 
 48 H       10.2770     2.5930     1.0580 H     1 <1>   0.1500 
 49 H       10.2150    -1.5550     0.1200 H     1 <1>   0.1500 
 50 H       12.5520     2.7660     0.2170 H     1 <1>   0.1500 
 51 H       12.5130    -1.3900    -0.7400 H     1 <1>   0.1500 
 52 H       15.6920     1.6250    -1.2710 H     1 <1>   0.0800 
 53 H       14.8660     2.2210     0.1650 H     1 <1>   0.0800 
 54 H       14.2370     2.6000    -1.4490 H     1 <1>   0.0800 
@<TRIPOS>BOND
  1   1   2  2   
  2   2   3  am  
  3   2   4  1   
  4   3   5  1   
  5   3  29  1   
  6   4   6  1   
  7   4  30  1   
  8   4  31  1   
  9   5   7  1   
 10   5  32  1   
 11   5  33  1   
 12   6   7  1   
 13   6   8  1   
 14   6  34  1   
 15   7   9  1   
 16   7  35  1   
 17   8  10  1   
 18   8  36  1   
 19   8  37  1   
 20   9  10  1   
 21   9  38  1   
 22   9  39  1   
 23  10  11  1   
 24  10  40  1   
 25  11  12  am  
 26  11  13  1   
 27  12  14  2   
 28  12  15  1   
 29  13  41  1   
 30  13  42  1   
 31  13  43  1   
 32  15  16  ar  
 33  15  17  ar  
 34  16  18  ar  
 35  16  44  1   
 36  17  19  ar  
 37  17  45  1   
 38  18  20  1   
 39  18  21  ar  
 40  19  21  ar  
 41  19  46  1   
 42  20  22  ar  
 43  20  23  ar  
 44  21  47  1   
 45  22  24  ar  
 46  22  48  1   
 47  23  25  ar  
 48  23  49  1   
 49  24  26  ar  
 50  24  50  1   
 51  25  26  ar  
 52  25  51  1   
 53  26  27  1   
 54  27  28  1   
 55  28  52  1   
 56  28  53  1   
 57  28  54  1   
@<TRIPOS>SUBSTRUCTURE
  1 ****  12 GROUP 4 **** **** 0

# MOE 2024.06 (io_trps.svl 2023.06)
