@<TRIPOS>MOLECULE
NONAME
48 51 1 0 0 
SMALL
USER_CHARGES


@<TRIPOS>ATOM
  1 CL       0.4070    -1.0050    -2.7640 Cl    1 <1>  -0.1770 
  2 C       -0.0490    -2.5720    -2.1310 C.ar  1 <1>   0.1770 
  3 C       -0.9100    -2.6510    -1.0140 C.ar  1 <1>   0.3100 
  4 C        0.4540    -3.6820    -2.7540 C.ar  1 <1>  -0.1500 
  5 N       -1.3790    -1.5160    -0.4290 N.ar  1 <1>  -0.6200 
  6 C       -1.2570    -3.9390    -0.5440 C.ar  1 <1>   0.0000 
  7 C        0.1150    -4.9500    -2.2790 C.ar  1 <1>  -0.1500 
  8 C       -2.1550    -1.6280     0.6000 C.ar  1 <1>   0.1670 
  9 C       -2.1360    -4.0320     0.5630 C.ar  1 <1>   0.0860 
 10 C       -0.7190    -5.0700    -1.2000 C.ar  1 <1>  -0.1500 
 11 C       -2.5550    -2.8560     1.1270 C.ar  1 <1>  -0.1500 
 12 C       -2.6400    -0.3420     1.2360 C.3   1 <1>  -0.0960 
 13 C       -2.6010    -5.3040     1.0650 C.2   1 <1>   0.5440 
 14 O       -1.8300    -6.0150     1.6820 O.2   1 <1>  -0.5700 
 15 N       -3.8990    -5.7300     0.8630 N.am  1 <1>  -0.6600 
 16 C       -4.8060    -5.0500    -0.1110 C.3   1 <1>   0.2200 
 17 C       -4.4060    -6.9400     1.5830 C.3   1 <1>   0.0600 
 18 C       -5.5590    -5.9950    -1.0450 C.3   1 <1>  -0.1600 
 19 C       -5.9010    -4.2440     0.5760 C.3   1 <1>  -0.1600 
 20 C       -6.7200    -5.1450    -1.5780 C.3   1 <1>  -0.0800 
 21 C       -6.9780    -4.0600    -0.5020 C.3   1 <1>  -0.0800 
 22 C       -7.9440    -5.9900    -1.9900 C.3   1 <1>   0.1400 
 23 C       -8.4090    -4.0640     0.0700 C.3   1 <1>  -0.0990 
 24 N       -9.1580    -5.1470    -1.9940 N.am  1 <1>  -0.7300 
 25 C       -9.4210    -4.2280    -1.0420 C.2   1 <1>   0.5690 
 26 O      -10.4240    -3.5640    -1.0650 O.2   1 <1>  -0.5700 
 27 H        1.1080    -3.5830    -3.6020 H     1 <1>   0.1500 
 28 H        0.5180    -5.8220    -2.7670 H     1 <1>   0.1500 
 29 H       -0.9670    -6.0540    -0.8360 H     1 <1>   0.1500 
 30 H       -3.2040    -2.8780     1.9830 H     1 <1>   0.1500 
 31 H       -3.2800    -0.5370     2.0760 H     1 <1>   0.0800 
 32 H       -3.1830     0.2340     0.5100 H     1 <1>   0.0800 
 33 H       -1.7940     0.2320     1.5680 H     1 <1>   0.0800 
 34 H       -4.2400    -4.3780    -0.7350 H     1 <1>   0.0800 
 35 H       -5.4450    -6.8280     1.8330 H     1 <1>   0.0800 
 36 H       -3.8560    -7.0920     2.4960 H     1 <1>   0.0800 
 37 H       -4.2800    -7.8090     0.9610 H     1 <1>   0.0800 
 38 H       -4.9260    -6.3490    -1.8390 H     1 <1>   0.0800 
 39 H       -5.9570    -6.8310    -0.5000 H     1 <1>   0.0800 
 40 H       -6.2990    -4.7990     1.4060 H     1 <1>   0.0800 
 41 H       -5.5330    -3.2970     0.9250 H     1 <1>   0.0800 
 42 H       -6.3720    -4.6380    -2.4630 H     1 <1>   0.0800 
 43 H       -6.8240    -3.1040    -0.9750 H     1 <1>   0.0800 
 44 H       -8.0970    -6.7940    -1.2900 H     1 <1>   0.0800 
 45 H       -7.7880    -6.4130    -2.9680 H     1 <1>   0.0800 
 46 H       -8.6010    -3.1480     0.5990 H     1 <1>   0.0800 
 47 H       -8.5420    -4.8830     0.7520 H     1 <1>   0.0800 
 48 H       -9.8580    -5.2850    -2.7260 H     1 <1>   0.3700 
@<TRIPOS>BOND
  1   1   2  1   
  2   2   3  ar  
  3   2   4  ar  
  4   3   5  ar  
  5   3   6  ar  
  6   4   7  ar  
  7   4  27  1   
  8   5   8  ar  
  9   6   9  ar  
 10   6  10  ar  
 11   7  10  ar  
 12   7  28  1   
 13   8  11  ar  
 14   8  12  1   
 15   9  11  ar  
 16   9  13  1   
 17  10  29  1   
 18  11  30  1   
 19  12  31  1   
 20  12  32  1   
 21  12  33  1   
 22  13  14  2   
 23  13  15  am  
 24  15  16  1   
 25  15  17  1   
 26  16  18  1   
 27  16  19  1   
 28  16  34  1   
 29  17  35  1   
 30  17  36  1   
 31  17  37  1   
 32  18  20  1   
 33  18  38  1   
 34  18  39  1   
 35  19  21  1   
 36  19  40  1   
 37  19  41  1   
 38  20  21  1   
 39  20  22  1   
 40  20  42  1   
 41  21  23  1   
 42  21  43  1   
 43  22  24  1   
 44  22  44  1   
 45  22  45  1   
 46  23  25  1   
 47  23  46  1   
 48  23  47  1   
 49  24  25  am  
 50  24  48  1   
 51  25  26  2   
@<TRIPOS>SUBSTRUCTURE
  1 ****  16 GROUP 4 **** **** 0

# MOE 2024.06 (io_trps.svl 2023.06)
