@<TRIPOS>MOLECULE
NONAME
58 60 1 0 0 
SMALL
USER_CHARGES


@<TRIPOS>ATOM
  1 O        4.3600     0.5260    -0.9700 O.2   1 <1>  -0.5700 
  2 C        3.3160    -0.0610    -1.1980 C.2   1 <1>   0.7800 
  3 O        2.6970     0.1690    -2.3580 O.3   1 <1>  -0.4300 
  4 N        2.7090    -0.9250    -0.3190 N.am  1 <1>  -0.6600 
  5 C        3.2580     0.9780    -3.3710 C.3   1 <1>   0.0400 
  6 C        3.4620    -1.7650     0.6850 C.3   1 <1>   0.2810 
  7 C        1.3700    -1.5040    -0.6320 C.3   1 <1>   0.1400 
  8 C        4.7440    -1.1470     1.2950 C.2   1 <1>   0.5690 
  9 C        3.7060    -3.1480     0.0500 C.3   1 <1>  -0.1600 
 10 C        1.5580    -2.8850    -1.2710 C.3   1 <1>  -0.1600 
 11 O        5.8200    -1.4670     0.8350 O.2   1 <1>  -0.5700 
 12 N        4.6910    -0.2470     2.3430 N.am  1 <1>  -0.6600 
 13 C        2.3910    -3.8190    -0.3790 C.3   1 <1>  -0.1600 
 14 C        5.9670     0.3480     2.8250 C.3   1 <1>   0.1400 
 15 C        3.4590     0.3890     2.8820 C.3   1 <1>   0.1400 
 16 C        6.4840     1.3260     1.7610 C.3   1 <1>   0.3430 
 17 C        3.5660     1.9200     2.8280 C.3   1 <1>  -0.1600 
 18 N        5.6210     2.5370     1.4600 N.4   1 <1>  -0.9590 
 19 C        4.1280     2.4050     1.4920 C.3   1 <1>   0.3430 
 20 C        6.0040     3.0200     0.1010 C.3   1 <1>   0.5230 
 21 C        7.4770     3.3760     0.0820 C.2   1 <1>   0.0060 
 22 N        8.0480     4.0600     1.0140 N.2   1 <1>  -0.3380 
 23 N        8.3470     2.9990    -0.8640 N.pl3 1 <1>   0.0480 
 24 N        9.3360     4.1470     0.6950 N.2   1 <1>  -0.3380 
 25 C        9.4930     3.5160    -0.4160 C.2   1 <1>   0.0360 
 26 C        8.1470     2.2020    -2.0970 C.3   1 <1>   0.0960 
 27 C        8.0180     0.7090    -1.7780 C.3   1 <1>  -0.2400 
 28 H        2.5910     0.9740    -4.2150 H     1 <1>   0.0800 
 29 H        4.2120     0.5670    -3.6550 H     1 <1>   0.0800 
 30 H        3.3730     1.9790    -2.9960 H     1 <1>   0.0800 
 31 H        2.8040    -1.9340     1.5170 H     1 <1>   0.0800 
 32 H        0.8170    -0.8640    -1.2980 H     1 <1>   0.0800 
 33 H        0.8000    -1.5980     0.2770 H     1 <1>   0.0800 
 34 H        4.2130    -3.7810     0.7570 H     1 <1>   0.0800 
 35 H        4.3540    -3.0340    -0.8030 H     1 <1>   0.0800 
 36 H        2.0450    -2.7650    -2.2230 H     1 <1>   0.0800 
 37 H        0.5940    -3.3270    -1.4540 H     1 <1>   0.0800 
 38 H        1.8190    -4.0750     0.4970 H     1 <1>   0.0800 
 39 H        2.6050    -4.7310    -0.9090 H     1 <1>   0.0800 
 40 H        6.6930    -0.4370     2.9530 H     1 <1>   0.0800 
 41 H        5.8480     0.8330     3.7780 H     1 <1>   0.0800 
 42 H        3.3070     0.0670     3.8990 H     1 <1>   0.0800 
 43 H        2.6030     0.0830     2.3080 H     1 <1>   0.0800 
 44 H        6.6110     0.7540     0.8570 H     1 <1>   0.0800 
 45 H        7.4650     1.6630     2.0570 H     1 <1>   0.0800 
 46 H        4.1370     2.3090     3.6510 H     1 <1>   0.0800 
 47 H        2.5690     2.3090     2.9340 H     1 <1>   0.0800 
 48 H        5.9230     3.2810     2.1050 H     1 <1>   0.4500 
 49 H        3.6960     3.3700     1.2800 H     1 <1>   0.0800 
 50 H        3.7980     1.7310     0.7230 H     1 <1>   0.0800 
 51 H        5.4320     3.8970    -0.1540 H     1 <1>   0.0800 
 52 H        5.8030     2.2550    -0.6290 H     1 <1>   0.0800 
 53 H       10.4310     3.4100    -0.9320 H     1 <1>   0.1500 
 54 H        8.9920     2.3590    -2.7460 H     1 <1>   0.0800 
 55 H        7.2660     2.5510    -2.6060 H     1 <1>   0.0800 
 56 H        8.8800     0.3600    -1.2360 H     1 <1>   0.0800 
 57 H        7.9520     0.1500    -2.6940 H     1 <1>   0.0800 
 58 H        7.1300     0.5020    -1.2070 H     1 <1>   0.0800 
@<TRIPOS>BOND
  1   1   2  2   
  2   2   3  1   
  3   2   4  am  
  4   3   5  1   
  5   4   6  1   
  6   4   7  1   
  7   5  28  1   
  8   5  29  1   
  9   5  30  1   
 10   6   8  1   
 11   6   9  1   
 12   6  31  1   
 13   7  10  1   
 14   7  32  1   
 15   7  33  1   
 16   8  11  2   
 17   8  12  am  
 18   9  13  1   
 19   9  34  1   
 20   9  35  1   
 21  10  13  1   
 22  10  36  1   
 23  10  37  1   
 24  12  14  1   
 25  12  15  1   
 26  13  38  1   
 27  13  39  1   
 28  14  16  1   
 29  14  40  1   
 30  14  41  1   
 31  15  17  1   
 32  15  42  1   
 33  15  43  1   
 34  16  18  1   
 35  16  44  1   
 36  16  45  1   
 37  17  19  1   
 38  17  46  1   
 39  17  47  1   
 40  18  19  1   
 41  18  20  1   
 42  18  48  1   
 43  19  49  1   
 44  19  50  1   
 45  20  21  1   
 46  20  51  1   
 47  20  52  1   
 48  21  22  2   
 49  21  23  1   
 50  22  24  1   
 51  23  25  1   
 52  23  26  1   
 53  24  25  2   
 54  25  53  1   
 55  26  27  1   
 56  26  54  1   
 57  26  55  1   
 58  27  56  1   
 59  27  57  1   
 60  27  58  1   
@<TRIPOS>SUBSTRUCTURE
  1 ****   1 GROUP 4 **** **** 0

# MOE 2024.06 (io_trps.svl 2023.06)
