@<TRIPOS>MOLECULE
Untitled Document
48 51 1 0 0 
SMALL
USER_CHARGES


@<TRIPOS>ATOM
  1 O       -0.7270     0.3120    -1.2630 O.3   1 <1>  -0.5600 
  2 C       -2.1120     0.3940    -1.0110 C.3   1 <1>   0.4560 
  3 C       -0.1510    -0.7940    -0.6130 C.3   1 <1>   0.2000 
  4 N       -2.4380     1.7180    -0.4480 N.pl3 1 <1>   0.0480 
  5 C       -2.4690    -0.7550    -0.0560 C.3   1 <1>   0.2000 
  6 C       -1.3060    -1.7230    -0.2410 C.3   1 <1>   0.2000 
  7 C        0.6350    -0.3070     0.6160 C.3   1 <1>   0.1200 
  8 C       -3.5830     2.3950    -0.6720 C.ar  1 <1>   0.1050 
  9 C       -1.7360     2.4920     0.4280 C.2   1 <1>   0.0360 
 10 O       -3.6780    -1.3660    -0.3810 O.3   1 <1>  -0.6800 
 11 O       -1.5600    -2.5970    -1.3060 O.3   1 <1>  -0.6800 
 12 O        1.4600     0.7410     0.2440 O.3   1 <1>  -0.6800 
 13 N       -4.6140     2.0780    -1.4620 N.ar  1 <1>  -0.5670 
 14 C       -3.5210     3.5330     0.0880 C.ar  1 <1>   0.2270 
 15 N       -2.3370     3.5760     0.7810 N.2   1 <1>  -0.5650 
 16 C       -5.5860     2.9620    -1.4400 C.ar  1 <1>   0.4700 
 17 C       -4.6290     4.3960     0.0170 C.ar  1 <1>   0.4100 
 18 N       -5.6620     4.1080    -0.7490 N.ar  1 <1>  -0.6200 
 19 N       -4.6560     5.5640     0.7400 N.pl3 1 <1>  -0.8690 
 20 C       -5.8150     6.4790     0.8640 C.3   1 <1>   0.2090 
 21 C       -5.7370     7.5580    -0.2140 C.3   1 <1>  -0.0170 
 22 C       -6.9170     8.5110    -0.0960 C.ar  1 <1>  -0.1430 
 23 C       -8.1280     8.1920    -0.6900 C.ar  1 <1>  -0.1500 
 24 C       -6.7960     9.6990     0.6080 C.ar  1 <1>  -0.1500 
 25 C       -9.2080     9.0510    -0.5810 C.ar  1 <1>  -0.1500 
 26 C       -7.8750    10.5590     0.7180 C.ar  1 <1>  -0.1500 
 27 C       -9.0810    10.2360     0.1230 C.ar  1 <1>  -0.1500 
 28 H       -2.6210     0.2680    -1.9510 H     1 <1>   0.0800 
 29 H        0.5310    -1.2800    -1.2910 H     1 <1>   0.0800 
 30 H       -2.5250    -0.3980     0.9570 H     1 <1>   0.0800 
 31 H       -1.1070    -2.3090     0.6410 H     1 <1>   0.0800 
 32 H        1.2510    -1.0930     1.0190 H     1 <1>   0.0800 
 33 H       -0.0260     0.0470     1.3870 H     1 <1>   0.0800 
 34 H       -0.7610     2.2040     0.7820 H     1 <1>   0.1500 
 35 H       -3.4790    -2.2140    -0.8400 H     1 <1>   0.4000 
 36 H       -1.4800    -2.1330    -2.1660 H     1 <1>   0.4000 
 37 H        1.0410     1.2390    -0.4920 H     1 <1>   0.4000 
 38 H       -6.4410     2.7460    -2.0570 H     1 <1>   0.1500 
 39 H       -3.8380     5.7530     1.3290 H     1 <1>   0.4000 
 40 H       -6.7320     5.9250     0.7550 H     1 <1>   0.0800 
 41 H       -5.8120     6.9320     1.8400 H     1 <1>   0.0800 
 42 H       -4.8150     8.1020    -0.1130 H     1 <1>   0.0800 
 43 H       -5.7480     7.0900    -1.1830 H     1 <1>   0.0800 
 44 H       -8.2330     7.2720    -1.2380 H     1 <1>   0.1500 
 45 H       -5.8620     9.9590     1.0740 H     1 <1>   0.1500 
 46 H      -10.1450     8.7980    -1.0450 H     1 <1>   0.1500 
 47 H       -7.7750    11.4800     1.2650 H     1 <1>   0.1500 
 48 H       -9.9200    10.9040     0.2070 H     1 <1>   0.1500 
@<TRIPOS>BOND
  1   1   2  1   
  2   1   3  1   
  3   2   4  1   
  4   2   5  1   
  5   2  28  1   
  6   3   6  1   
  7   3   7  1   
  8   3  29  1   
  9   4   8  1   
 10   4   9  1   
 11   5   6  1   
 12   5  10  1   
 13   5  30  1   
 14   6  11  1   
 15   6  31  1   
 16   7  12  1   
 17   7  32  1   
 18   7  33  1   
 19   8  13  ar  
 20   8  14  ar  
 21   9  15  2   
 22   9  34  1   
 23  10  35  1   
 24  11  36  1   
 25  12  37  1   
 26  13  16  ar  
 27  14  15  1   
 28  14  17  ar  
 29  16  18  ar  
 30  16  38  1   
 31  17  18  ar  
 32  17  19  1   
 33  19  20  1   
 34  19  39  1   
 35  20  21  1   
 36  20  40  1   
 37  20  41  1   
 38  21  22  1   
 39  21  42  1   
 40  21  43  1   
 41  22  23  ar  
 42  22  24  ar  
 43  23  25  ar  
 44  23  44  1   
 45  24  26  ar  
 46  24  45  1   
 47  25  27  ar  
 48  25  46  1   
 49  26  27  ar  
 50  26  47  1   
 51  27  48  1   
@<TRIPOS>SUBSTRUCTURE
  1 ****  14 GROUP 4 **** **** 0

# MOE 2024.06 (io_trps.svl 2023.06)
