@<TRIPOS>MOLECULE
NONAME
46 48 1 0 0 
SMALL
USER_CHARGES


@<TRIPOS>ATOM
  1 O       -1.0310    -0.3910     0.6950 O.2   1 <1>  -0.5700 
  2 C       -1.7800     0.3490     0.0990 C.2   1 <1>   0.5690 
  3 N       -2.9340    -0.1430    -0.4690 N.am  1 <1>  -0.6600 
  4 C       -1.4160     1.8420     0.0180 C.3   1 <1>  -0.0190 
  5 C       -3.1860    -1.6130    -0.5040 C.3   1 <1>   0.1400 
  6 C       -4.1060     0.6670    -0.8990 C.3   1 <1>   0.1400 
  7 C        0.1040     2.0750    -0.0640 C.3   1 <1>  -0.2400 
  8 C       -1.9870     2.6210     1.2160 C.3   1 <1>  -0.2400 
  9 C       -4.3260    -1.9690     0.4650 C.3   1 <1>   0.2890 
 10 C       -5.2940     0.3400     0.0180 C.3   1 <1>  -0.1600 
 11 N       -4.5080    -3.4580     0.4850 N.pl3 1 <1>  -0.8690 
 12 C       -5.5910    -1.1710     0.0940 C.3   1 <1>  -0.1600 
 13 C       -5.5070    -4.3500     0.3520 C.ar  1 <1>   0.4610 
 14 N       -6.7610    -3.9360     0.1460 N.ar  1 <1>  -0.1790 
 15 C       -5.2570    -5.7640     0.4330 C.ar  1 <1>   0.0000 
 16 C       -7.8320    -4.7900     0.0070 C.ar  1 <1>   0.2110 
 17 C       -6.3400    -6.6600     0.2930 C.ar  1 <1>   0.0000 
 18 C       -3.9790    -6.3160     0.6450 C.ar  1 <1>  -0.1500 
 19 C       -7.6390    -6.1270     0.0770 C.ar  1 <1>  -0.1500 
 20 C       -6.1170    -8.0400     0.3700 C.ar  1 <1>  -0.1500 
 21 C       -3.7820    -7.6730     0.7160 C.ar  1 <1>  -0.1500 
 22 C       -4.8580    -8.5430     0.5790 C.ar  1 <1>  -0.1500 
 23 H       -1.8310     2.2430    -0.8870 H     1 <1>   0.0800 
 24 H       -2.2960    -2.1530    -0.2310 H     1 <1>   0.0800 
 25 H       -3.4530    -1.8960    -1.5070 H     1 <1>   0.0800 
 26 H       -4.3450     0.4240    -1.9210 H     1 <1>   0.0800 
 27 H       -3.9000     1.7200    -0.8490 H     1 <1>   0.0800 
 28 H        0.5880     1.7260     0.8320 H     1 <1>   0.0800 
 29 H        0.3210     3.1200    -0.1890 H     1 <1>   0.0800 
 30 H        0.5140     1.5360    -0.9000 H     1 <1>   0.0800 
 31 H       -1.5620     2.2500     2.1320 H     1 <1>   0.0800 
 32 H       -3.0540     2.5100     1.2670 H     1 <1>   0.0800 
 33 H       -1.7560     3.6680     1.1280 H     1 <1>   0.0800 
 34 H       -4.0090    -1.6660     1.4500 H     1 <1>   0.0800 
 35 H       -6.1640     0.8650    -0.3370 H     1 <1>   0.0800 
 36 H       -5.0740     0.7140     1.0030 H     1 <1>   0.0800 
 37 H       -3.5900    -3.8760     0.6840 H     1 <1>   0.4000 
 38 H       -6.3480    -1.3150     0.8430 H     1 <1>   0.0800 
 39 H       -5.9460    -1.4850    -0.8720 H     1 <1>   0.0800 
 40 H       -6.8990    -2.9300     0.1010 H     1 <1>   0.4570 
 41 H       -8.8060    -4.3570    -0.1560 H     1 <1>   0.1500 
 42 H       -3.1220    -5.6770     0.7550 H     1 <1>   0.1500 
 43 H       -8.4580    -6.8190    -0.0280 H     1 <1>   0.1500 
 44 H       -6.9460    -8.7190     0.2640 H     1 <1>   0.1500 
 45 H       -2.7970    -8.0790     0.8790 H     1 <1>   0.1500 
 46 H       -4.6920    -9.6060     0.6370 H     1 <1>   0.1500 
@<TRIPOS>BOND
  1   1   2  2   
  2   2   3  am  
  3   2   4  1   
  4   3   5  1   
  5   3   6  1   
  6   4   7  1   
  7   4   8  1   
  8   4  23  1   
  9   5   9  1   
 10   5  24  1   
 11   5  25  1   
 12   6  10  1   
 13   6  26  1   
 14   6  27  1   
 15   7  28  1   
 16   7  29  1   
 17   7  30  1   
 18   8  31  1   
 19   8  32  1   
 20   8  33  1   
 21   9  11  1   
 22   9  12  1   
 23   9  34  1   
 24  10  12  1   
 25  10  35  1   
 26  10  36  1   
 27  11  13  1   
 28  11  37  1   
 29  12  38  1   
 30  12  39  1   
 31  13  14  ar  
 32  13  15  ar  
 33  14  16  ar  
 34  14  40  1   
 35  15  17  ar  
 36  15  18  ar  
 37  16  19  ar  
 38  16  41  1   
 39  17  19  ar  
 40  17  20  ar  
 41  18  21  ar  
 42  18  42  1   
 43  19  43  1   
 44  20  22  ar  
 45  20  44  1   
 46  21  22  ar  
 47  21  45  1   
 48  22  46  1   
@<TRIPOS>SUBSTRUCTURE
  1 ****  11 GROUP 4 **** **** 0

# MOE 2024.06 (io_trps.svl 2023.06)
