@<TRIPOS>MOLECULE
NONAME
57 60 1 0 0 
SMALL
USER_CHARGES


@<TRIPOS>ATOM
  1 O       -0.9820     0.0580    -0.4650 O.2   1 <1>  -0.5700 
  2 C       -1.7970     0.9430    -0.6530 C.2   1 <1>   0.5440 
  3 N       -3.0800     0.5590    -0.9810 N.am  1 <1>  -0.6600 
  4 C       -1.4290     2.3370    -0.4860 C.ar  1 <1>   0.0860 
  5 C       -3.3170    -0.8300    -1.4510 C.3   1 <1>   0.1400 
  6 C       -4.2470     1.1530    -0.2730 C.3   1 <1>   0.1400 
  7 C       -0.5470     2.7420     0.4910 C.ar  1 <1>  -0.1500 
  8 C       -1.9660     3.3350    -1.3230 C.ar  1 <1>  -0.1500 
  9 C       -3.5790    -1.7240    -0.2190 C.3   1 <1>   0.4230 
 10 C       -4.5480     0.2870     0.9580 C.3   1 <1>  -0.1600 
 11 C       -0.1930     4.0820     0.6910 C.ar  1 <1>   0.3100 
 12 C       -1.6400     4.6530    -1.1620 C.ar  1 <1>  -0.1500 
 13 N       -3.6160    -3.2130    -0.5300 N.4   1 <1>  -0.9590 
 14 C       -4.7890    -1.2160     0.6240 C.3   1 <1>   0.0000 
 15 N        0.6690     4.3700     1.6970 N.ar  1 <1>  -0.6200 
 16 C       -0.7490     5.0720    -0.1510 C.ar  1 <1>   0.0000 
 17 C       -4.2580    -4.0450     0.5390 C.3   1 <1>   0.3430 
 18 C       -4.1720    -3.5820    -1.8730 C.3   1 <1>   0.2630 
 19 C       -4.8600    -2.0190     1.9580 C.3   1 <1>  -0.1600 
 20 C       -6.1100    -1.3850    -0.1800 C.3   1 <1>   0.1200 
 21 C        0.9920     5.6100     1.8770 C.ar  1 <1>   0.1670 
 22 C       -0.3760     6.4140     0.0750 C.ar  1 <1>  -0.1430 
 23 C       -4.1310    -3.3760     1.9060 C.3   1 <1>  -0.1600 
 24 O       -7.1730    -0.7540     0.4440 O.3   1 <1>  -0.6800 
 25 C        0.4960     6.6630     1.0940 C.ar  1 <1>  -0.1500 
 26 C        1.9570     5.9110     3.0040 C.3   1 <1>  -0.0970 
 27 C       -0.9180     7.5510    -0.7790 C.3   1 <1>  -0.0970 
 28 H       -4.1470    -0.8300    -2.1320 H     1 <1>   0.0800 
 29 H       -2.4450    -1.1780    -1.9770 H     1 <1>   0.0800 
 30 H       -4.0300     2.1600     0.0410 H     1 <1>   0.0800 
 31 H       -5.0980     1.1890    -0.9340 H     1 <1>   0.0800 
 32 H       -0.0970     2.0160     1.1420 H     1 <1>   0.1500 
 33 H       -2.6420     3.0370    -2.1060 H     1 <1>   0.1500 
 34 H       -2.7170    -1.5740     0.4120 H     1 <1>   0.0800 
 35 H       -3.7080     0.3810     1.6260 H     1 <1>   0.0800 
 36 H       -5.3950     0.7040     1.4760 H     1 <1>   0.0800 
 37 H       -2.0680     5.3880    -1.8190 H     1 <1>   0.1500 
 38 H       -2.6200    -3.4830    -0.5370 H     1 <1>   0.4500 
 39 H       -5.3050    -4.1760     0.3200 H     1 <1>   0.0800 
 40 H       -3.8000    -5.0220     0.5670 H     1 <1>   0.0800 
 41 H       -5.2030    -3.2810    -1.9510 H     1 <1>   0.0800 
 42 H       -4.1150    -4.6490    -2.0200 H     1 <1>   0.0800 
 43 H       -3.6100    -3.1050    -2.6600 H     1 <1>   0.0800 
 44 H       -4.4240    -1.4530     2.7650 H     1 <1>   0.0800 
 45 H       -5.8860    -2.1860     2.2350 H     1 <1>   0.0800 
 46 H       -6.3740    -2.4210    -0.2950 H     1 <1>   0.0800 
 47 H       -6.0340    -0.9440    -1.1570 H     1 <1>   0.0800 
 48 H       -4.5420    -4.0250     2.6590 H     1 <1>   0.0800 
 49 H       -3.0870    -3.2450     2.1400 H     1 <1>   0.0800 
 50 H       -7.3800    -1.1470     1.3150 H     1 <1>   0.4000 
 51 H        0.8160     7.6640     1.3150 H     1 <1>   0.1500 
 52 H        2.3110     6.9240     2.9540 H     1 <1>   0.0800 
 53 H        2.8000     5.2470     2.9410 H     1 <1>   0.0800 
 54 H        1.4650     5.7560     3.9460 H     1 <1>   0.0800 
 55 H       -0.5200     8.4970    -0.4570 H     1 <1>   0.0800 
 56 H       -1.9900     7.5920    -0.7020 H     1 <1>   0.0800 
 57 H       -0.6430     7.4020    -1.8080 H     1 <1>   0.0800 
@<TRIPOS>BOND
  1   1   2  2   
  2   2   3  am  
  3   2   4  1   
  4   3   5  1   
  5   3   6  1   
  6   4   7  ar  
  7   4   8  ar  
  8   5   9  1   
  9   5  28  1   
 10   5  29  1   
 11   6  10  1   
 12   6  30  1   
 13   6  31  1   
 14   7  11  ar  
 15   7  32  1   
 16   8  12  ar  
 17   8  33  1   
 18   9  13  1   
 19   9  14  1   
 20   9  34  1   
 21  10  14  1   
 22  10  35  1   
 23  10  36  1   
 24  11  15  ar  
 25  11  16  ar  
 26  12  16  ar  
 27  12  37  1   
 28  13  17  1   
 29  13  18  1   
 30  13  38  1   
 31  14  19  1   
 32  14  20  1   
 33  15  21  ar  
 34  16  22  ar  
 35  17  23  1   
 36  17  39  1   
 37  17  40  1   
 38  18  41  1   
 39  18  42  1   
 40  18  43  1   
 41  19  23  1   
 42  19  44  1   
 43  19  45  1   
 44  20  24  1   
 45  20  46  1   
 46  20  47  1   
 47  21  25  ar  
 48  21  26  1   
 49  22  25  ar  
 50  22  27  1   
 51  23  48  1   
 52  23  49  1   
 53  24  50  1   
 54  25  51  1   
 55  26  52  1   
 56  26  53  1   
 57  26  54  1   
 58  27  55  1   
 59  27  56  1   
 60  27  57  1   
@<TRIPOS>SUBSTRUCTURE
  1 ****   2 GROUP 4 **** **** 0

# MOE 2024.06 (io_trps.svl 2023.06)
