@<TRIPOS>MOLECULE
NONAME
55 57 1 0 0 
SMALL
USER_CHARGES


@<TRIPOS>ATOM
  1 O       -1.3910     0.4960     1.6540 O.2   1 <1>  -0.5700 
  2 C       -0.9810     1.6280     1.6700 C.2   1 <1>   0.5690 
  3 N       -1.8340     2.6670     1.5200 N.am  1 <1>  -0.7300 
  4 C        0.5200     1.9010     1.8260 C.3   1 <1>   0.1810 
  5 C       -1.4110     4.0820     1.6170 C.3   1 <1>   0.3640 
  6 O        0.8200     3.2360     2.1850 O.3   1 <1>  -0.5600 
  7 C       -2.0860     4.9210     0.5300 C.ar  1 <1>  -0.1440 
  8 C        0.1210     4.2280     1.4570 C.3   1 <1>   0.2610 
  9 C       -2.3180     6.2660     0.7750 C.ar  1 <1>  -0.1500 
 10 C       -2.4280     4.3970    -0.7120 C.ar  1 <1>  -0.1500 
 11 C        0.5410     5.6470     1.8860 C.2   1 <1>   0.5690 
 12 C       -2.8410     7.0830    -0.2090 C.ar  1 <1>   0.0830 
 13 C       -2.9760     5.2050    -1.6950 C.ar  1 <1>  -0.1500 
 14 O        0.1800     6.0230     2.9790 O.2   1 <1>  -0.5700 
 15 N        1.2330     6.5140     1.0590 N.am  1 <1>  -0.6600 
 16 O       -2.9410     8.4030     0.0680 O.3   1 <1>  -0.3620 
 17 C       -3.1780     6.5590    -1.4580 C.ar  1 <1>   0.0830 
 18 C        1.6080     6.2740    -0.3680 C.3   1 <1>   0.1400 
 19 C        1.7810     7.7850     1.6160 C.3   1 <1>   0.1400 
 20 C       -4.2490     8.8880     0.2900 C.3   1 <1>   0.0400 
 21 O       -3.6560     7.4000    -2.4160 O.3   1 <1>  -0.3630 
 22 C        0.5970     6.8740    -1.3720 C.3   1 <1>   0.3430 
 23 C        0.9480     8.9840     1.1630 C.3   1 <1>  -0.1600 
 24 C       -4.5110     6.9090    -3.4290 C.3   1 <1>   0.0400 
 25 N       -0.0180     8.1900    -0.9780 N.4   1 <1>  -0.9590 
 26 C        0.8970     9.1820    -0.3520 C.3   1 <1>   0.3430 
 27 C       -0.7410     8.7980    -2.1360 C.3   1 <1>   0.2630 
 28 H       -2.8370     2.4710     1.4990 H     1 <1>   0.3700 
 29 H        1.0190     1.6800     0.9010 H     1 <1>   0.0800 
 30 H        0.9170     1.2620     2.5930 H     1 <1>   0.0800 
 31 H       -1.7050     4.4500     2.5860 H     1 <1>   0.0800 
 32 H        0.3570     4.0750     0.4240 H     1 <1>   0.0800 
 33 H       -2.0820     6.6990     1.7340 H     1 <1>   0.1500 
 34 H       -2.2690     3.3530    -0.9300 H     1 <1>   0.1500 
 35 H       -3.2290     4.7630    -2.6420 H     1 <1>   0.1500 
 36 H        2.5730     6.7130    -0.5540 H     1 <1>   0.0800 
 37 H        1.7250     5.2240    -0.5620 H     1 <1>   0.0800 
 38 H        1.7870     7.7480     2.6940 H     1 <1>   0.0800 
 39 H        2.8060     7.9040     1.3060 H     1 <1>   0.0800 
 40 H       -4.1850     9.9240     0.5690 H     1 <1>   0.0800 
 41 H       -4.7020     8.3210     1.0850 H     1 <1>   0.0800 
 42 H       -4.8240     8.7880    -0.6140 H     1 <1>   0.0800 
 43 H       -0.1970     6.1600    -1.5170 H     1 <1>   0.0800 
 44 H        1.0960     6.9840    -2.3200 H     1 <1>   0.0800 
 45 H        1.3960     9.8630     1.5930 H     1 <1>   0.0800 
 46 H       -0.0460     8.9140     1.5690 H     1 <1>   0.0800 
 47 H       -4.9420     7.7500    -3.9410 H     1 <1>   0.0800 
 48 H       -5.2900     6.3210    -2.9760 H     1 <1>   0.0800 
 49 H       -3.9380     6.3190    -4.1210 H     1 <1>   0.0800 
 50 H       -0.7430     7.9790    -0.2650 H     1 <1>   0.4500 
 51 H        1.8840     9.1120    -0.7790 H     1 <1>   0.0800 
 52 H        0.5210    10.1740    -0.5420 H     1 <1>   0.0800 
 53 H       -0.0440     9.1330    -2.8860 H     1 <1>   0.0800 
 54 H       -1.3310     9.6380    -1.8050 H     1 <1>   0.0800 
 55 H       -1.4070     8.0770    -2.5800 H     1 <1>   0.0800 
@<TRIPOS>BOND
  1   1   2  2   
  2   2   3  am  
  3   2   4  1   
  4   3   5  1   
  5   3  28  1   
  6   4   6  1   
  7   4  29  1   
  8   4  30  1   
  9   5   7  1   
 10   5   8  1   
 11   5  31  1   
 12   6   8  1   
 13   7   9  ar  
 14   7  10  ar  
 15   8  11  1   
 16   8  32  1   
 17   9  12  ar  
 18   9  33  1   
 19  10  13  ar  
 20  10  34  1   
 21  11  14  2   
 22  11  15  am  
 23  12  16  1   
 24  12  17  ar  
 25  13  17  ar  
 26  13  35  1   
 27  15  18  1   
 28  15  19  1   
 29  16  20  1   
 30  17  21  1   
 31  18  22  1   
 32  18  36  1   
 33  18  37  1   
 34  19  23  1   
 35  19  38  1   
 36  19  39  1   
 37  20  40  1   
 38  20  41  1   
 39  20  42  1   
 40  21  24  1   
 41  22  25  1   
 42  22  43  1   
 43  22  44  1   
 44  23  26  1   
 45  23  45  1   
 46  23  46  1   
 47  24  47  1   
 48  24  48  1   
 49  24  49  1   
 50  25  26  1   
 51  25  27  1   
 52  25  50  1   
 53  26  51  1   
 54  26  52  1   
 55  27  53  1   
 56  27  54  1   
 57  27  55  1   
@<TRIPOS>SUBSTRUCTURE
  1 ****   9 GROUP 4 **** **** 0

# MOE 2024.06 (io_trps.svl 2023.06)
