@<TRIPOS>MOLECULE
NONAME
64 68 1 0 0 
SMALL
USER_CHARGES


@<TRIPOS>ATOM
  1 O        0.0860     2.2800    -2.1320 O.2   1 <1>  -0.5700 
  2 C       -0.7480     2.6280    -1.3300 C.2   1 <1>   0.5690 
  3 N       -2.0860     2.4310    -1.5540 N.am  1 <1>  -0.6600 
  4 C       -0.2450     3.3150    -0.0530 C.3   1 <1>  -0.0190 
  5 C       -3.1790     3.0410    -0.7250 C.3   1 <1>   0.1400 
  6 C       -2.5230     1.5590    -2.6900 C.3   1 <1>   0.1400 
  7 C        0.0420     4.8040    -0.3190 C.3   1 <1>  -0.1600 
  8 C        1.0170     2.6270     0.5070 C.3   1 <1>  -0.1600 
  9 C       -4.4680     3.2740    -1.5320 C.3   1 <1>   0.1440 
 10 C       -3.8860     0.9140    -2.4010 C.3   1 <1>  -0.1600 
 11 C        0.6390     5.4970     0.9050 C.3   1 <1>   0.3430 
 12 C        1.5830     3.3690     1.7140 C.3   1 <1>   0.3430 
 13 C       -5.5050     3.9510    -0.6560 C.ar  1 <1>   0.1660 
 14 C       -5.0030     1.9310    -2.0820 C.3   1 <1>  -0.1600 
 15 C       -4.2810     4.3180    -2.6690 C.3   1 <1>  -0.1600 
 16 N        1.8740     4.7820     1.3320 N.4   1 <1>  -0.9590 
 17 N       -5.8020     3.5980     0.5720 N.ar  1 <1>  -0.6200 
 18 C       -6.0920     5.0040    -1.2860 C.ar  1 <1>  -0.1440 
 19 C       -5.5440     5.1980    -2.6770 C.3   1 <1>  -0.0170 
 20 C        2.5500     5.5410     2.4350 C.3   1 <1>   0.3430 
 21 C       -6.7410     4.3350     1.1800 C.ar  1 <1>   0.6200 
 22 C       -7.0450     5.7080    -0.5980 C.ar  1 <1>   0.1600 
 23 C        3.9770     5.0480     2.7180 C.3   1 <1>   0.1200 
 24 N       -7.3730     5.3830     0.6320 N.ar  1 <1>  -0.6200 
 25 C       -7.0950     3.9720     2.5460 C.ar  1 <1>   0.0000 
 26 O        4.5020     5.8410     3.7220 O.3   1 <1>  -0.6800 
 27 C       -7.5530     4.9240     3.4620 C.ar  1 <1>  -0.1500 
 28 C       -6.9910     2.6560     3.0060 C.ar  1 <1>  -0.1500 
 29 C       -7.8850     4.5850     4.7610 C.ar  1 <1>  -0.1500 
 30 C       -7.3210     2.3090     4.3040 C.ar  1 <1>  -0.1500 
 31 C       -7.7690     3.2740     5.1860 C.ar  1 <1>  -0.1500 
 32 H       -1.0020     3.2370     0.7060 H     1 <1>   0.0800 
 33 H       -2.8590     3.9830    -0.3180 H     1 <1>   0.0800 
 34 H       -3.4000     2.3800     0.0950 H     1 <1>   0.0800 
 35 H       -1.7920     0.7830    -2.8500 H     1 <1>   0.0800 
 36 H       -2.5740     2.1480    -3.5880 H     1 <1>   0.0800 
 37 H       -0.8700     5.3020    -0.5940 H     1 <1>   0.0800 
 38 H        0.7200     4.9010    -1.1500 H     1 <1>   0.0800 
 39 H        1.7780     2.5630    -0.2520 H     1 <1>   0.0800 
 40 H        0.7720     1.6190     0.7940 H     1 <1>   0.0800 
 41 H       -3.7630     0.2500    -1.5630 H     1 <1>   0.0800 
 42 H       -4.1800     0.3090    -3.2410 H     1 <1>   0.0800 
 43 H       -0.0810     5.4980     1.7090 H     1 <1>   0.0800 
 44 H        0.8700     6.5210     0.6570 H     1 <1>   0.0800 
 45 H        2.4830     2.8750     2.0420 H     1 <1>   0.0800 
 46 H        0.8690     3.3460     2.5220 H     1 <1>   0.0800 
 47 H       -5.5980     2.1110    -2.9600 H     1 <1>   0.0800 
 48 H       -5.6560     1.4840    -1.3510 H     1 <1>   0.0800 
 49 H       -4.1140     3.8640    -3.6290 H     1 <1>   0.0800 
 50 H       -3.4350     4.9430    -2.4430 H     1 <1>   0.0800 
 51 H        2.5010     4.7610     0.5150 H     1 <1>   0.4500 
 52 H       -6.2550     4.8370    -3.4000 H     1 <1>   0.0800 
 53 H       -5.3080     6.2290    -2.8760 H     1 <1>   0.0800 
 54 H        1.9700     5.4620     3.3400 H     1 <1>   0.0800 
 55 H        2.6110     6.5830     2.1660 H     1 <1>   0.0800 
 56 H       -7.5420     6.5470    -1.0560 H     1 <1>   0.1500 
 57 H        4.6030     5.1550     1.8480 H     1 <1>   0.0800 
 58 H        3.9840     4.0300     3.0650 H     1 <1>   0.0800 
 59 H        5.4260     5.5930     3.9400 H     1 <1>   0.4000 
 60 H       -7.6510     5.9490     3.1500 H     1 <1>   0.1500 
 61 H       -6.6480     1.8890     2.3340 H     1 <1>   0.1500 
 62 H       -8.2350     5.3410     5.4420 H     1 <1>   0.1500 
 63 H       -7.2300     1.2870     4.6270 H     1 <1>   0.1500 
 64 H       -8.0270     3.0080     6.1960 H     1 <1>   0.1500 
@<TRIPOS>BOND
  1   1   2  2   
  2   2   3  am  
  3   2   4  1   
  4   3   5  1   
  5   3   6  1   
  6   4   7  1   
  7   4   8  1   
  8   4  32  1   
  9   5   9  1   
 10   5  33  1   
 11   5  34  1   
 12   6  10  1   
 13   6  35  1   
 14   6  36  1   
 15   7  11  1   
 16   7  37  1   
 17   7  38  1   
 18   8  12  1   
 19   8  39  1   
 20   8  40  1   
 21   9  13  1   
 22   9  14  1   
 23   9  15  1   
 24  10  14  1   
 25  10  41  1   
 26  10  42  1   
 27  11  16  1   
 28  11  43  1   
 29  11  44  1   
 30  12  16  1   
 31  12  45  1   
 32  12  46  1   
 33  13  17  ar  
 34  13  18  ar  
 35  14  47  1   
 36  14  48  1   
 37  15  19  1   
 38  15  49  1   
 39  15  50  1   
 40  16  20  1   
 41  16  51  1   
 42  17  21  ar  
 43  18  19  1   
 44  18  22  ar  
 45  19  52  1   
 46  19  53  1   
 47  20  23  1   
 48  20  54  1   
 49  20  55  1   
 50  21  24  ar  
 51  21  25  1   
 52  22  24  ar  
 53  22  56  1   
 54  23  26  1   
 55  23  57  1   
 56  23  58  1   
 57  25  27  ar  
 58  25  28  ar  
 59  26  59  1   
 60  27  29  ar  
 61  27  60  1   
 62  28  30  ar  
 63  28  61  1   
 64  29  31  ar  
 65  29  62  1   
 66  30  31  ar  
 67  30  63  1   
 68  31  64  1   
@<TRIPOS>SUBSTRUCTURE
  1 ****   5 GROUP 4 **** **** 0

# MOE 2024.06 (io_trps.svl 2023.06)
