@<TRIPOS>MOLECULE
NONAME
48 50 1 0 0 
SMALL
USER_CHARGES


@<TRIPOS>ATOM
  1 O       -0.9800     0.6210     0.8010 O.2   1 <1>  -0.5700 
  2 C       -0.6000     1.7590     0.6740 C.2   1 <1>   0.5690 
  3 N       -0.7320     2.4520    -0.5050 N.am  1 <1>  -0.6600 
  4 C        0.0640     2.4080     1.8790 C.3   1 <1>  -0.0990 
  5 C       -0.3490     3.8870    -0.6660 C.3   1 <1>   0.1400 
  6 C       -1.3940     1.8460    -1.6950 C.3   1 <1>   0.0600 
  7 C        0.1250     3.9420     1.8070 C.3   1 <1>  -0.1600 
  8 C        0.6170     4.3740     0.4280 C.3   1 <1>   0.2890 
  9 N        0.7090     5.8510     0.4110 N.pl3 1 <1>  -0.8690 
 10 C        1.7030     6.6680     0.0310 C.ar  1 <1>   0.4100 
 11 N        1.4740     7.9400     0.2570 N.ar  1 <1>  -0.6200 
 12 C        2.8960     6.2160    -0.5630 C.ar  1 <1>  -0.1500 
 13 C        2.4170     8.8100    -0.0770 C.ar  1 <1>   0.7710 
 14 C        3.8440     7.1220    -0.9030 C.ar  1 <1>   0.2180 
 15 N        3.5720     8.4230    -0.6450 N.ar  1 <1>  -0.1790 
 16 N        2.2130    10.1290     0.1560 N.pl3 1 <1>  -0.8380 
 17 C        5.1740     6.7560    -1.5510 C.3   1 <1>  -0.0170 
 18 C        0.9380    10.6270     0.7480 C.3   1 <1>   0.2090 
 19 C        3.1460    11.2690    -0.0680 C.3   1 <1>   0.2090 
 20 C        6.3700     7.1090    -0.6570 C.3   1 <1>  -0.2400 
 21 C        1.0260    12.1450     0.6700 C.3   1 <1>  -0.1600 
 22 C        2.5200    12.4420     0.6730 C.3   1 <1>  -0.1600 
 23 H        1.0600     2.0100     1.9500 H     1 <1>   0.0800 
 24 H       -0.4670     2.1110     2.7650 H     1 <1>   0.0800 
 25 H       -1.2470     4.4790    -0.6340 H     1 <1>   0.0800 
 26 H        0.1160     4.0240    -1.6260 H     1 <1>   0.0800 
 27 H       -1.6630     0.8210    -1.5040 H     1 <1>   0.0800 
 28 H       -0.7260     1.8710    -2.5370 H     1 <1>   0.0800 
 29 H       -2.2890     2.3940    -1.9330 H     1 <1>   0.0800 
 30 H        0.7870     4.3110     2.5710 H     1 <1>   0.0800 
 31 H       -0.8600     4.3390     1.9790 H     1 <1>   0.0800 
 32 H        1.5860     3.9410     0.2540 H     1 <1>   0.0800 
 33 H       -0.1050     6.3200     0.8240 H     1 <1>   0.4000 
 34 H        3.0330     5.1670    -0.7380 H     1 <1>   0.1500 
 35 H        4.2210     9.1660    -0.8650 H     1 <1>   0.4570 
 36 H        5.2680     7.2600    -2.4980 H     1 <1>   0.0800 
 37 H        5.1950     5.6980    -1.7500 H     1 <1>   0.0800 
 38 H        0.8750    10.3090     1.7760 H     1 <1>   0.0800 
 39 H        0.0830    10.2580     0.2060 H     1 <1>   0.0800 
 40 H        3.1940    11.4930    -1.1210 H     1 <1>   0.0800 
 41 H        4.1310    11.0640     0.3170 H     1 <1>   0.0800 
 42 H        6.4410     8.1690    -0.4900 H     1 <1>   0.0800 
 43 H        7.2830     6.7840    -1.1260 H     1 <1>   0.0800 
 44 H        6.2900     6.6110     0.2950 H     1 <1>   0.0800 
 45 H        0.5110    12.6160     1.4880 H     1 <1>   0.0800 
 46 H        0.5860    12.4750    -0.2550 H     1 <1>   0.0800 
 47 H        2.7500    13.3830     0.2040 H     1 <1>   0.0800 
 48 H        2.8860    12.4580     1.6850 H     1 <1>   0.0800 
@<TRIPOS>BOND
  1   1   2  2   
  2   2   3  am  
  3   2   4  1   
  4   3   5  1   
  5   3   6  1   
  6   4   7  1   
  7   4  23  1   
  8   4  24  1   
  9   5   8  1   
 10   5  25  1   
 11   5  26  1   
 12   6  27  1   
 13   6  28  1   
 14   6  29  1   
 15   7   8  1   
 16   7  30  1   
 17   7  31  1   
 18   8   9  1   
 19   8  32  1   
 20   9  10  1   
 21   9  33  1   
 22  10  11  ar  
 23  10  12  ar  
 24  11  13  ar  
 25  12  14  ar  
 26  12  34  1   
 27  13  15  ar  
 28  13  16  1   
 29  14  15  ar  
 30  14  17  1   
 31  15  35  1   
 32  16  18  1   
 33  16  19  1   
 34  17  20  1   
 35  17  36  1   
 36  17  37  1   
 37  18  21  1   
 38  18  38  1   
 39  18  39  1   
 40  19  22  1   
 41  19  40  1   
 42  19  41  1   
 43  20  42  1   
 44  20  43  1   
 45  20  44  1   
 46  21  22  1   
 47  21  45  1   
 48  21  46  1   
 49  22  47  1   
 50  22  48  1   
@<TRIPOS>SUBSTRUCTURE
  1 ****  10 GROUP 4 **** **** 0

# MOE 2024.06 (io_trps.svl 2023.06)
