@<TRIPOS>MOLECULE
NONAME
51 53 1 0 0 
SMALL
USER_CHARGES


@<TRIPOS>ATOM
  1 F       -3.5300    -0.0980     2.1460 F     1 <1>  -0.1900 
  2 C       -3.4140     0.3550     0.9210 C.ar  1 <1>   0.1900 
  3 C       -3.4510     1.7280     0.7040 C.ar  1 <1>   0.0820 
  4 C       -3.2520    -0.5640    -0.1040 C.ar  1 <1>  -0.1440 
  5 O       -3.6450     2.5510     1.7700 O.3   1 <1>  -0.3630 
  6 C       -3.2920     2.1870    -0.6010 C.ar  1 <1>  -0.1500 
  7 C       -3.0960    -0.0800    -1.3960 C.ar  1 <1>  -0.1500 
  8 C       -3.2280    -2.0560     0.1880 C.3   1 <1>   0.4870 
  9 C       -3.6150     3.9550     1.6340 C.3   1 <1>   0.0400 
 10 C       -3.1150     1.2850    -1.6380 C.ar  1 <1>  -0.1500 
 11 N       -4.5960    -2.6380     0.1910 N.4   1 <1>  -0.9590 
 12 C       -5.3730    -2.3670    -1.0510 C.3   1 <1>   0.3430 
 13 C       -5.4100    -2.2390     1.3660 C.3   1 <1>   0.3430 
 14 C       -6.5470    -3.3550    -1.0950 C.3   1 <1>   0.2000 
 15 C       -6.6730    -3.1000     1.4380 C.3   1 <1>  -0.1600 
 16 O       -5.9670    -4.6210    -1.0650 O.3   1 <1>  -0.6800 
 17 C       -7.5050    -3.2050     0.1220 C.3   1 <1>  -0.1060 
 18 C       -8.4220    -4.4310     0.2440 C.2   1 <1>   0.9060 
 19 C       -8.4790    -2.0030    -0.0550 C.3   1 <1>  -0.0170 
 20 O       -9.1460    -4.5180     1.2380 O.co2 1 <1>  -0.9000 
 21 O       -8.3990    -5.3060    -0.6310 O.co2 1 <1>  -0.9000 
 22 C       -7.8580    -0.6480    -0.3700 C.ar  1 <1>  -0.1430 
 23 C       -7.7100    -0.2380    -1.6870 C.ar  1 <1>  -0.1500 
 24 C       -7.4540     0.1960     0.6520 C.ar  1 <1>  -0.1500 
 25 C       -7.1260     0.9820    -1.9780 C.ar  1 <1>  -0.1500 
 26 C       -6.8670     1.4150     0.3630 C.ar  1 <1>  -0.1500 
 27 C       -6.6990     1.8070    -0.9530 C.ar  1 <1>  -0.1500 
 28 H       -3.3040     3.2360    -0.8290 H     1 <1>   0.1500 
 29 H       -2.9540    -0.7540    -2.2250 H     1 <1>   0.1500 
 30 H       -2.7590    -2.2270     1.1430 H     1 <1>   0.0800 
 31 H       -2.6330    -2.5480    -0.5640 H     1 <1>   0.0800 
 32 H       -3.7610     4.3880     2.6080 H     1 <1>   0.0800 
 33 H       -4.4100     4.2620     0.9770 H     1 <1>   0.0800 
 34 H       -2.6560     4.2490     1.2450 H     1 <1>   0.0800 
 35 H       -2.9900     1.6520    -2.6440 H     1 <1>   0.1500 
 36 H       -4.5510    -3.6730     0.1990 H     1 <1>   0.4500 
 37 H       -5.7110    -1.3470    -1.0590 H     1 <1>   0.0800 
 38 H       -4.7590    -2.5290    -1.9210 H     1 <1>   0.0800 
 39 H       -4.8420    -2.3710     2.2730 H     1 <1>   0.0800 
 40 H       -5.6710    -1.1990     1.2860 H     1 <1>   0.0800 
 41 H       -7.0950    -3.2700    -2.0180 H     1 <1>   0.0800 
 42 H       -6.3690    -4.0930     1.7250 H     1 <1>   0.0800 
 43 H       -7.3030    -2.7430     2.2340 H     1 <1>   0.0800 
 44 H       -6.7500    -5.2540    -1.0040 H     1 <1>   0.4000 
 45 H       -9.1710    -2.2450    -0.8450 H     1 <1>   0.0800 
 46 H       -9.0820    -1.9080     0.8330 H     1 <1>   0.0800 
 47 H       -8.0520    -0.8660    -2.4920 H     1 <1>   0.1500 
 48 H       -7.5990    -0.0900     1.6800 H     1 <1>   0.1500 
 49 H       -7.0110     1.2950    -3.0020 H     1 <1>   0.1500 
 50 H       -6.5440     2.0610     1.1620 H     1 <1>   0.1500 
 51 H       -6.2460     2.7560    -1.1770 H     1 <1>   0.1500 
@<TRIPOS>BOND
  1   1   2  1   
  2   2   3  ar  
  3   2   4  ar  
  4   3   5  1   
  5   3   6  ar  
  6   4   7  ar  
  7   4   8  1   
  8   5   9  1   
  9   6  10  ar  
 10   6  28  1   
 11   7  10  ar  
 12   7  29  1   
 13   8  11  1   
 14   8  30  1   
 15   8  31  1   
 16   9  32  1   
 17   9  33  1   
 18   9  34  1   
 19  10  35  1   
 20  11  12  1   
 21  11  13  1   
 22  11  36  1   
 23  12  14  1   
 24  12  37  1   
 25  12  38  1   
 26  13  15  1   
 27  13  39  1   
 28  13  40  1   
 29  14  16  1   
 30  14  17  1   
 31  14  41  1   
 32  15  17  1   
 33  15  42  1   
 34  15  43  1   
 35  16  44  1   
 36  17  18  1   
 37  17  19  1   
 38  18  20  ar  
 39  18  21  ar  
 40  19  22  1   
 41  19  45  1   
 42  19  46  1   
 43  22  23  ar  
 44  22  24  ar  
 45  23  25  ar  
 46  23  47  1   
 47  24  26  ar  
 48  24  48  1   
 49  25  27  ar  
 50  25  49  1   
 51  26  27  ar  
 52  26  50  1   
 53  27  51  1   
@<TRIPOS>SUBSTRUCTURE
  1 ****  12 GROUP 4 **** **** 0

# MOE 2024.06 (io_trps.svl 2023.06)
