@<TRIPOS>MOLECULE
NONAME
43 45 1 0 0 
SMALL
USER_CHARGES


@<TRIPOS>ATOM
  1 O        0.5550    -0.1050    -1.4140 O.3   1 <1>  -0.0190 
  2 N        0.7520     1.1460    -1.1120 N.2   1 <1>  -0.4100 
  3 C        1.2530    -0.9060    -0.6520 C.2   1 <1>  -0.0400 
  4 C        1.5900     1.1500    -0.1370 C.2   1 <1>   0.1080 
  5 C        1.9550    -0.1500     0.2050 C.2   1 <1>  -0.1500 
  6 C        1.1720    -2.4090    -0.8490 C.3   1 <1>   0.2900 
  7 C        2.1050     2.4060     0.5410 C.3   1 <1>   0.0210 
  8 N        0.0460    -2.9950    -0.1040 N.3   1 <1>  -0.8100 
  9 C        3.5340     2.7340     0.0950 C.3   1 <1>  -0.2400 
 10 C       -1.2660    -2.4620    -0.5120 C.3   1 <1>   0.1100 
 11 C       -0.0360    -4.4600    -0.2580 C.3   1 <1>   0.1100 
 12 C       -2.2580    -3.5170    -0.0420 C.3   1 <1>   0.2000 
 13 C       -1.5260    -4.8090    -0.3980 C.3   1 <1>  -0.0800 
 14 O       -2.3530    -3.4020     1.3330 O.3   1 <1>  -0.6800 
 15 C       -1.9500    -6.0590     0.3930 C.3   1 <1>   0.0210 
 16 C       -1.1470    -7.2770    -0.0300 C.2   1 <1>   0.1080 
 17 N       -1.0700    -7.6870    -1.2590 N.2   1 <1>  -0.7070 
 18 C       -0.4100    -8.0770     0.8370 C.2   1 <1>  -0.1500 
 19 N       -0.2790    -8.7750    -1.2060 N.pl3 1 <1>   0.3000 
 20 C        0.1360    -9.0290     0.0530 C.2   1 <1>  -0.3320 
 21 C        1.0400   -10.1870     0.4350 C.3   1 <1>  -0.0600 
 22 H        2.6360    -0.4440     0.9810 H     1 <1>   0.1500 
 23 H        2.0860    -2.8510    -0.4910 H     1 <1>   0.0800 
 24 H        1.0810    -2.6290    -1.8990 H     1 <1>   0.0800 
 25 H        1.4540     3.2270     0.2960 H     1 <1>   0.0800 
 26 H        2.0770     2.2670     1.6070 H     1 <1>   0.0800 
 27 H        3.5600     2.8780    -0.9720 H     1 <1>   0.0800 
 28 H        4.2000     1.9310     0.3520 H     1 <1>   0.0800 
 29 H        3.8730     3.6350     0.5730 H     1 <1>   0.0800 
 30 H       -1.4610    -1.5000    -0.0670 H     1 <1>   0.0800 
 31 H       -1.3150    -2.3750    -1.5840 H     1 <1>   0.0800 
 32 H        0.4970    -4.8020    -1.1290 H     1 <1>   0.0800 
 33 H        0.3890    -4.9280     0.6140 H     1 <1>   0.0800 
 34 H       -3.2380    -3.4300    -0.4780 H     1 <1>   0.0800 
 35 H       -1.7070    -5.0050    -1.4410 H     1 <1>   0.0800 
 36 H       -1.4410    -3.2170     1.6480 H     1 <1>   0.4000 
 37 H       -2.9920    -6.2560     0.2180 H     1 <1>   0.0800 
 38 H       -1.8140    -5.9010     1.4470 H     1 <1>   0.0800 
 39 H       -0.3170    -7.9410     1.8990 H     1 <1>   0.1500 
 40 H       -0.0450    -9.3220    -2.0430 H     1 <1>   0.2700 
 41 H        1.2260   -10.1760     1.4950 H     1 <1>   0.0800 
 42 H        1.9820   -10.1100    -0.0780 H     1 <1>   0.0800 
 43 H        0.5750   -11.1220     0.1800 H     1 <1>   0.0800 
@<TRIPOS>BOND
  1   1   2  1   
  2   1   3  1   
  3   2   4  2   
  4   3   5  2   
  5   3   6  1   
  6   4   5  1   
  7   4   7  1   
  8   5  22  1   
  9   6   8  1   
 10   6  23  1   
 11   6  24  1   
 12   7   9  1   
 13   7  25  1   
 14   7  26  1   
 15   8  10  1   
 16   8  11  1   
 17   9  27  1   
 18   9  28  1   
 19   9  29  1   
 20  10  12  1   
 21  10  30  1   
 22  10  31  1   
 23  11  13  1   
 24  11  32  1   
 25  11  33  1   
 26  12  13  1   
 27  12  14  1   
 28  12  34  1   
 29  13  15  1   
 30  13  35  1   
 31  14  36  1   
 32  15  16  1   
 33  15  37  1   
 34  15  38  1   
 35  16  17  2   
 36  16  18  1   
 37  17  19  1   
 38  18  20  2   
 39  18  39  1   
 40  19  20  1   
 41  19  40  1   
 42  20  21  1   
 43  21  41  1   
 44  21  42  1   
 45  21  43  1   
@<TRIPOS>SUBSTRUCTURE
  1 ****   8 GROUP 4 **** **** 0

# MOE 2024.06 (io_trps.svl 2023.06)
