@<TRIPOS>MOLECULE
NONAME
52 56 1 0 0 
SMALL
USER_CHARGES


@<TRIPOS>ATOM
  1 O        0.1730    -0.4320     0.9520 O.2   1 <1>  -0.5700 
  2 C        1.0460    -0.7670     0.1740 C.2   1 <1>   0.5440 
  3 N        1.8990     0.1520    -0.3660 N.am  1 <1>  -0.4930 
  4 C        1.2140    -2.1550    -0.1780 C.ar  1 <1>   0.0860 
  5 C        2.2100     1.4610     0.0700 C.2   1 <1>   0.0630 
  6 C        0.1680    -2.9440    -0.6810 C.ar  1 <1>   0.0000 
  7 C        2.4180    -2.8310    -0.0570 C.ar  1 <1>  -0.1440 
  8 C        3.5270     1.9180     0.1890 C.2   1 <1>   0.3720 
  9 C        1.4420     2.5100     0.4370 C.2   1 <1>  -0.3320 
 10 C        0.4170    -4.2590    -1.0030 C.ar  1 <1>   0.3970 
 11 C       -1.1940    -2.8080    -1.0140 C.2   1 <1>   0.1080 
 12 C        2.5300    -4.1650    -0.4110 C.ar  1 <1>   0.1660 
 13 C        3.7410    -2.3010     0.4580 C.3   1 <1>  -0.0160 
 14 N        3.5930     3.1410     0.6110 N.2   1 <1>  -0.7070 
 15 N        4.6620     1.1390    -0.1200 N.pl3 1 <1>  -0.8210 
 16 N        2.3010     3.5050     0.7750 N.pl3 1 <1>   0.3140 
 17 C       -0.0740     2.6360     0.4840 C.3   1 <1>  -0.0600 
 18 O       -0.7040    -4.7820    -1.4660 O.3   1 <1>  -0.0190 
 19 N        1.5730    -4.9200    -0.8910 N.ar  1 <1>  -0.5670 
 20 N       -1.6770    -3.9000    -1.4730 N.2   1 <1>  -0.4100 
 21 C       -2.0170    -1.5440    -0.8640 C.3   1 <1>  -0.0590 
 22 C        3.9280    -4.6770    -0.1690 C.3   1 <1>  -0.0170 
 23 C        4.5860    -3.5670     0.6700 C.3   1 <1>  -0.1600 
 24 C        5.4230     1.7100    -1.2660 C.3   1 <1>   0.2090 
 25 C        5.5930     1.0440     1.0420 C.3   1 <1>   0.2090 
 26 C        1.9550     4.8450     1.2650 C.3   1 <1>   0.0160 
 27 C        6.8940     1.5920    -0.8960 C.3   1 <1>  -0.1600 
 28 C        6.8910     1.7170     0.6170 C.3   1 <1>  -0.1600 
 29 H        2.6860    -0.2370    -0.8860 H     1 <1>   0.3700 
 30 H        3.6240    -1.7470     1.3740 H     1 <1>   0.0800 
 31 H        4.1990    -1.6720    -0.2860 H     1 <1>   0.0800 
 32 H       -0.5320     1.8190    -0.0440 H     1 <1>   0.0800 
 33 H       -0.3920     3.5510     0.0200 H     1 <1>   0.0800 
 34 H       -0.4130     2.6150     1.5040 H     1 <1>   0.0800 
 35 H       -1.5030    -0.7100    -1.3040 H     1 <1>   0.0800 
 36 H       -2.1880    -1.3430     0.1780 H     1 <1>   0.0800 
 37 H       -2.9670    -1.6620    -1.3520 H     1 <1>   0.0800 
 38 H        4.4280    -4.7980    -1.1130 H     1 <1>   0.0800 
 39 H        3.9110    -5.6150     0.3570 H     1 <1>   0.0800 
 40 H        4.5410    -3.8450     1.7090 H     1 <1>   0.0800 
 41 H        5.6150    -3.4140     0.3940 H     1 <1>   0.0800 
 42 H        5.1670     2.7480    -1.4090 H     1 <1>   0.0800 
 43 H        5.2040     1.1680    -2.1700 H     1 <1>   0.0800 
 44 H        5.7700     0.0050     1.2540 H     1 <1>   0.0800 
 45 H        5.1870     1.5140     1.9230 H     1 <1>   0.0800 
 46 H        1.2850     4.7540     2.0980 H     1 <1>   0.0800 
 47 H        1.4870     5.3990     0.4730 H     1 <1>   0.0800 
 48 H        2.8520     5.3480     1.5760 H     1 <1>   0.0800 
 49 H        7.4860     2.3540    -1.3710 H     1 <1>   0.0800 
 50 H        7.2560     0.6230    -1.1900 H     1 <1>   0.0800 
 51 H        7.7500     1.2610     1.0750 H     1 <1>   0.0800 
 52 H        6.8470     2.7540     0.8990 H     1 <1>   0.0800 
@<TRIPOS>BOND
  1   1   2  2   
  2   2   3  am  
  3   2   4  1   
  4   3   5  1   
  5   3  29  1   
  6   4   6  ar  
  7   4   7  ar  
  8   5   8  1   
  9   5   9  2   
 10   6  10  ar  
 11   6  11  1   
 12   7  12  ar  
 13   7  13  1   
 14   8  14  2   
 15   8  15  1   
 16   9  16  1   
 17   9  17  1   
 18  10  18  1   
 19  10  19  ar  
 20  11  20  2   
 21  11  21  1   
 22  12  19  ar  
 23  12  22  1   
 24  13  23  1   
 25  13  30  1   
 26  13  31  1   
 27  14  16  1   
 28  15  24  1   
 29  15  25  1   
 30  16  26  1   
 31  17  32  1   
 32  17  33  1   
 33  17  34  1   
 34  18  20  1   
 35  21  35  1   
 36  21  36  1   
 37  21  37  1   
 38  22  23  1   
 39  22  38  1   
 40  22  39  1   
 41  23  40  1   
 42  23  41  1   
 43  24  27  1   
 44  24  42  1   
 45  24  43  1   
 46  25  28  1   
 47  25  44  1   
 48  25  45  1   
 49  26  46  1   
 50  26  47  1   
 51  26  48  1   
 52  27  28  1   
 53  27  49  1   
 54  27  50  1   
 55  28  51  1   
 56  28  52  1   
@<TRIPOS>SUBSTRUCTURE
  1 ****   3 GROUP 4 **** **** 0

# MOE 2024.06 (io_trps.svl 2023.06)
