@<TRIPOS>MOLECULE
NONAME
51 53 1 0 0 
SMALL
USER_CHARGES


@<TRIPOS>ATOM
  1 CL      -2.2680    -1.0330    -3.7050 Cl    1 <1>  -0.1770 
  2 C       -2.3770    -2.1140    -2.3400 C.ar  1 <1>   0.1770 
  3 C       -3.3840    -1.9300    -1.4120 C.ar  1 <1>  -0.1500 
  4 C       -1.4580    -3.1380    -2.2120 C.ar  1 <1>  -0.1500 
  5 C       -3.4870    -2.7890    -0.3260 C.ar  1 <1>  -0.1440 
  6 C       -1.5510    -3.9920    -1.1270 C.ar  1 <1>  -0.1500 
  7 C       -2.5580    -3.8150    -0.1910 C.ar  1 <1>  -0.1500 
  8 C       -4.6090    -2.5930     0.6920 C.3   1 <1>   0.4040 
  9 O       -4.0770    -1.9110     1.7840 O.3   1 <1>  -0.6800 
 10 C       -5.2640    -3.9270     1.1290 C.2   1 <1>   0.5690 
 11 O       -4.8980    -4.4220     2.1760 O.2   1 <1>  -0.5700 
 12 N       -6.2270    -4.5410     0.3600 N.am  1 <1>  -0.6600 
 13 C       -6.8570    -5.8310     0.7850 C.3   1 <1>   0.1400 
 14 C       -6.7190    -4.0320    -0.9510 C.3   1 <1>   0.1400 
 15 C       -8.2890    -5.6470     1.3170 C.3   1 <1>   0.1400 
 16 C       -7.8900    -3.0580    -0.7730 C.3   1 <1>  -0.1600 
 17 N       -9.1640    -4.8770     0.3730 N.am  1 <1>  -0.6600 
 18 C       -8.8720    -3.4160     0.3500 C.3   1 <1>   0.1400 
 19 C      -10.1580    -5.3860    -0.4310 C.2   1 <1>   0.5690 
 20 O      -10.7000    -4.6850    -1.2550 O.2   1 <1>  -0.5700 
 21 C      -10.6120    -6.8500    -0.3190 C.3   1 <1>  -0.0190 
 22 C       -9.6960    -7.7980    -1.1130 C.3   1 <1>  -0.1600 
 23 C      -12.0640    -7.0710    -0.7860 C.3   1 <1>  -0.1600 
 24 C      -10.2070    -9.2410    -1.0420 C.3   1 <1>   0.1200 
 25 C      -12.4380    -8.5550    -0.7320 C.3   1 <1>   0.1200 
 26 O      -11.5260    -9.2910    -1.4880 O.3   1 <1>  -0.5600 
 27 H       -4.0730    -1.1150    -1.5450 H     1 <1>   0.1500 
 28 H       -0.6840    -3.2590    -2.9470 H     1 <1>   0.1500 
 29 H       -0.8400    -4.7920    -1.0080 H     1 <1>   0.1500 
 30 H       -2.6100    -4.4880     0.6500 H     1 <1>   0.1500 
 31 H       -5.3650    -1.9530     0.2780 H     1 <1>   0.0800 
 32 H       -3.7700    -2.5880     2.4230 H     1 <1>   0.4000 
 33 H       -6.2630    -6.2950     1.5530 H     1 <1>   0.0800 
 34 H       -6.8690    -6.5080    -0.0500 H     1 <1>   0.0800 
 35 H       -7.0550    -4.8660    -1.5460 H     1 <1>   0.0800 
 36 H       -5.9220    -3.5590    -1.4980 H     1 <1>   0.0800 
 37 H       -8.2410    -5.1250     2.2580 H     1 <1>   0.0800 
 38 H       -8.7020    -6.6150     1.5210 H     1 <1>   0.0800 
 39 H       -8.4360    -3.0140    -1.6990 H     1 <1>   0.0800 
 40 H       -7.5140    -2.0680    -0.5940 H     1 <1>   0.0800 
 41 H       -9.7880    -2.8650     0.2150 H     1 <1>   0.0800 
 42 H       -8.4550    -3.1200     1.2980 H     1 <1>   0.0800 
 43 H      -10.5850    -7.1290     0.7170 H     1 <1>   0.0800 
 44 H       -8.6940    -7.7610    -0.7300 H     1 <1>   0.0800 
 45 H       -9.6650    -7.4910    -2.1440 H     1 <1>   0.0800 
 46 H      -12.1840    -6.7280    -1.8000 H     1 <1>   0.0800 
 47 H      -12.7370    -6.5040    -0.1680 H     1 <1>   0.0800 
 48 H      -10.1710    -9.6240    -0.0360 H     1 <1>   0.0800 
 49 H       -9.6230    -9.8810    -1.6820 H     1 <1>   0.0800 
 50 H      -13.4150    -8.7120    -1.1540 H     1 <1>   0.0800 
 51 H      -12.4280    -8.9280     0.2780 H     1 <1>   0.0800 
@<TRIPOS>BOND
  1   1   2  1   
  2   2   3  ar  
  3   2   4  ar  
  4   3   5  ar  
  5   3  27  1   
  6   4   6  ar  
  7   4  28  1   
  8   5   7  ar  
  9   5   8  1   
 10   6   7  ar  
 11   6  29  1   
 12   7  30  1   
 13   8   9  1   
 14   8  10  1   
 15   8  31  1   
 16   9  32  1   
 17  10  11  2   
 18  10  12  am  
 19  12  13  1   
 20  12  14  1   
 21  13  15  1   
 22  13  33  1   
 23  13  34  1   
 24  14  16  1   
 25  14  35  1   
 26  14  36  1   
 27  15  17  1   
 28  15  37  1   
 29  15  38  1   
 30  16  18  1   
 31  16  39  1   
 32  16  40  1   
 33  17  18  1   
 34  17  19  am  
 35  18  41  1   
 36  18  42  1   
 37  19  20  2   
 38  19  21  1   
 39  21  22  1   
 40  21  23  1   
 41  21  43  1   
 42  22  24  1   
 43  22  44  1   
 44  22  45  1   
 45  23  25  1   
 46  23  46  1   
 47  23  47  1   
 48  24  26  1   
 49  24  48  1   
 50  24  49  1   
 51  25  26  1   
 52  25  50  1   
 53  25  51  1   
@<TRIPOS>SUBSTRUCTURE
  1 ****  14 GROUP 4 **** **** 0

# MOE 2024.06 (io_trps.svl 2023.06)
