@<TRIPOS>MOLECULE
NONAME
54 56 1 0 0 
SMALL
USER_CHARGES


@<TRIPOS>ATOM
  1 S        0.1100    -0.2660     1.9600 S.o2  1 <1>   1.4470 
  2 O       -0.4290    -1.4290     2.6380 O.2   1 <1>  -0.6500 
  3 O        0.3420     0.9160     2.7640 O.2   1 <1>  -0.6500 
  4 N       -1.0310     0.1510     0.7760 N.am  1 <1>  -0.8490 
  5 C        1.5680    -0.7980     1.0140 C.ar  1 <1>  -0.0090 
  6 C       -2.3730     0.3220     1.3400 C.3   1 <1>   0.1960 
  7 C       -0.6410     1.3400     0.0000 C.3   1 <1>   0.1960 
  8 C        2.5250     0.0970     0.5430 C.ar  1 <1>   0.0830 
  9 C        1.7420    -2.1450     0.7190 C.ar  1 <1>  -0.1500 
 10 C       -3.4400     0.2730     0.2210 C.3   1 <1>   0.0000 
 11 C       -1.8120     1.9610    -0.7860 C.3   1 <1>  -0.1600 
 12 O        2.3540     1.4160     0.8030 O.3   1 <1>  -0.3630 
 13 C        3.6200    -0.3630    -0.1840 C.ar  1 <1>  -0.1500 
 14 C        2.8290    -2.6120    -0.0030 C.ar  1 <1>  -0.1430 
 15 C       -4.7580     0.8880     0.7290 C.3   1 <1>   0.2000 
 16 C       -2.9180     0.9410    -1.0880 C.3   1 <1>  -0.1600 
 17 C       -3.8850    -1.1670    -0.0880 C.3   1 <1>  -0.1600 
 18 C        3.4290     2.3290     0.7720 C.3   1 <1>   0.0400 
 19 C        3.7800    -1.7090    -0.4580 C.ar  1 <1>  -0.1430 
 20 C        2.9480    -4.1040    -0.2780 C.3   1 <1>  -0.0970 
 21 O       -4.7500     2.2810     0.6310 O.3   1 <1>  -0.5600 
 22 C       -5.8670     0.2690    -0.1300 C.3   1 <1>  -0.1600 
 23 C       -5.2840    -1.0330    -0.6980 C.3   1 <1>  -0.1600 
 24 C        4.9930    -2.1690    -1.2560 C.3   1 <1>  -0.0970 
 25 C       -5.7510     2.9270     1.3530 C.3   1 <1>   0.0400 
 26 H       -2.5820    -0.4480     2.0630 H     1 <1>   0.0800 
 27 H       -2.4190     1.2690     1.8540 H     1 <1>   0.0800 
 28 H       -0.2320     2.0970     0.6500 H     1 <1>   0.0800 
 29 H        0.1290     1.0510    -0.6950 H     1 <1>   0.0800 
 30 H        1.0020    -2.8450     1.0690 H     1 <1>   0.1500 
 31 H       -2.2290     2.7660    -0.2070 H     1 <1>   0.0800 
 32 H       -1.4420     2.3880    -1.7010 H     1 <1>   0.0800 
 33 H        4.3550     0.3270    -0.5500 H     1 <1>   0.1500 
 34 H       -4.9000     0.6100     1.7610 H     1 <1>   0.0800 
 35 H       -2.4930     0.1940    -1.7350 H     1 <1>   0.0800 
 36 H       -3.7190     1.4150    -1.6260 H     1 <1>   0.0800 
 37 H       -3.2010    -1.6860    -0.7370 H     1 <1>   0.0800 
 38 H       -3.9630    -1.7280     0.8280 H     1 <1>   0.0800 
 39 H        3.0880     3.2570     1.1940 H     1 <1>   0.0800 
 40 H        3.7300     2.4810    -0.2490 H     1 <1>   0.0800 
 41 H        4.2380     1.9360     1.3610 H     1 <1>   0.0800 
 42 H        2.1250    -4.6450     0.1540 H     1 <1>   0.0800 
 43 H        3.8590    -4.4860     0.1450 H     1 <1>   0.0800 
 44 H        2.9490    -4.2850    -1.3380 H     1 <1>   0.0800 
 45 H       -6.7360     0.0670     0.4700 H     1 <1>   0.0800 
 46 H       -6.1280     0.9300    -0.9380 H     1 <1>   0.0800 
 47 H       -5.8960    -1.8850    -0.4580 H     1 <1>   0.0800 
 48 H       -5.2040    -0.9520    -1.7690 H     1 <1>   0.0800 
 49 H        5.6190    -1.3380    -1.5250 H     1 <1>   0.0800 
 50 H        4.6750    -2.6570    -2.1600 H     1 <1>   0.0800 
 51 H        5.5780    -2.8570    -0.6730 H     1 <1>   0.0800 
 52 H       -5.6310     3.9860     1.2110 H     1 <1>   0.0800 
 53 H       -5.6470     2.6880     2.3970 H     1 <1>   0.0800 
 54 H       -6.7140     2.6200     0.9850 H     1 <1>   0.0800 
@<TRIPOS>BOND
  1   1   2  2   
  2   1   3  2   
  3   1   4  am  
  4   1   5  1   
  5   4   6  1   
  6   4   7  1   
  7   5   8  ar  
  8   5   9  ar  
  9   6  10  1   
 10   6  26  1   
 11   6  27  1   
 12   7  11  1   
 13   7  28  1   
 14   7  29  1   
 15   8  12  1   
 16   8  13  ar  
 17   9  14  ar  
 18   9  30  1   
 19  10  15  1   
 20  10  16  1   
 21  10  17  1   
 22  11  16  1   
 23  11  31  1   
 24  11  32  1   
 25  12  18  1   
 26  13  19  ar  
 27  13  33  1   
 28  14  19  ar  
 29  14  20  1   
 30  15  21  1   
 31  15  22  1   
 32  15  34  1   
 33  16  35  1   
 34  16  36  1   
 35  17  23  1   
 36  17  37  1   
 37  17  38  1   
 38  18  39  1   
 39  18  40  1   
 40  18  41  1   
 41  19  24  1   
 42  20  42  1   
 43  20  43  1   
 44  20  44  1   
 45  21  25  1   
 46  22  23  1   
 47  22  45  1   
 48  22  46  1   
 49  23  47  1   
 50  23  48  1   
 51  24  49  1   
 52  24  50  1   
 53  24  51  1   
 54  25  52  1   
 55  25  53  1   
 56  25  54  1   
@<TRIPOS>SUBSTRUCTURE
  1 ****   4 GROUP 4 **** **** 0

# MOE 2024.06 (io_trps.svl 2023.06)
