@<TRIPOS>MOLECULE
NONAME
49 52 1 0 0 
SMALL
USER_CHARGES


@<TRIPOS>ATOM
  1 O       -0.8010    -0.8140    -1.9130 O.2   1 <1>  -0.5700 
  2 C       -1.6210    -1.0850    -1.0550 C.2   1 <1>   0.7800 
  3 O       -1.5270    -2.2410    -0.3940 O.3   1 <1>  -0.4300 
  4 N       -2.6720    -0.2770    -0.7460 N.am  1 <1>  -0.6600 
  5 C       -0.3870    -3.0590    -0.5550 C.3   1 <1>   0.1200 
  6 C       -2.5680     1.2220    -0.8040 C.3   1 <1>   0.1140 
  7 C       -3.7920    -0.6690     0.1210 C.3   1 <1>   0.1400 
  8 C       -0.3790    -4.1510     0.5170 C.3   1 <1>   0.2070 
  9 C       -1.3140     1.8560    -0.1500 C.2   1 <1>   0.9060 
 10 C       -3.8560     1.7170    -0.1190 C.3   1 <1>  -0.1600 
 11 C       -4.7800     0.4990     0.0150 C.3   1 <1>   0.0000 
 12 C        0.8840    -5.0010     0.4240 C.ar  1 <1>  -0.1440 
 13 C       -1.4510    -5.2140     0.2920 C.ar  1 <1>  -0.1430 
 14 O       -0.8550     1.3830     0.9030 O.co2 1 <1>  -0.9000 
 15 O       -0.8440     2.8870    -0.6530 O.co2 1 <1>  -0.9000 
 16 C       -5.6780     0.6030     1.2550 C.3   1 <1>  -0.2400 
 17 C       -5.6530     0.3550    -1.2440 C.3   1 <1>  -0.2400 
 18 C        0.5590    -6.3230     0.1780 C.ar  1 <1>   0.0000 
 19 C        2.2010    -4.6000     0.5560 C.ar  1 <1>  -0.1500 
 20 C       -0.8670    -6.4530     0.0970 C.ar  1 <1>   0.0000 
 21 C       -2.8260    -5.0630     0.2710 C.ar  1 <1>  -0.1500 
 22 C        1.5690    -7.2680     0.0540 C.ar  1 <1>  -0.1500 
 23 C        3.2060    -5.5460     0.4330 C.ar  1 <1>  -0.1500 
 24 C       -1.6680    -7.5650    -0.1270 C.ar  1 <1>  -0.1500 
 25 C       -3.6230    -6.1740     0.0470 C.ar  1 <1>  -0.1500 
 26 C        2.8910    -6.8740     0.1820 C.ar  1 <1>  -0.1500 
 27 C       -3.0450    -7.4200    -0.1510 C.ar  1 <1>  -0.1500 
 28 H       -0.4090    -3.4860    -1.5420 H     1 <1>   0.0800 
 29 H        0.4860    -2.4360    -0.4520 H     1 <1>   0.0800 
 30 H       -2.5730     1.5160    -1.8370 H     1 <1>   0.0800 
 31 H       -4.2230    -1.5990    -0.2020 H     1 <1>   0.0800 
 32 H       -3.4240    -0.7650     1.1280 H     1 <1>   0.0800 
 33 H       -0.4580    -3.7200     1.4990 H     1 <1>   0.0800 
 34 H       -3.5930     2.0860     0.8580 H     1 <1>   0.0800 
 35 H       -4.2990     2.5280    -0.6680 H     1 <1>   0.0800 
 36 H       -6.3160     1.4660     1.1810 H     1 <1>   0.0800 
 37 H       -5.0800     0.6980     2.1440 H     1 <1>   0.0800 
 38 H       -6.2930    -0.2740     1.3490 H     1 <1>   0.0800 
 39 H       -6.3020     1.2060    -1.3500 H     1 <1>   0.0800 
 40 H       -6.2570    -0.5320    -1.1830 H     1 <1>   0.0800 
 41 H       -5.0380     0.2860    -2.1240 H     1 <1>   0.0800 
 42 H        2.4430    -3.5690     0.7510 H     1 <1>   0.1500 
 43 H       -3.2670    -4.0930     0.4230 H     1 <1>   0.1500 
 44 H        1.3200    -8.2950    -0.1380 H     1 <1>   0.1500 
 45 H        4.2350    -5.2480     0.5320 H     1 <1>   0.1500 
 46 H       -1.2160    -8.5280    -0.2790 H     1 <1>   0.1500 
 47 H       -4.6940    -6.0690     0.0260 H     1 <1>   0.1500 
 48 H        3.6780    -7.6020     0.0880 H     1 <1>   0.1500 
 49 H       -3.6710    -8.2780    -0.3250 H     1 <1>   0.1500 
@<TRIPOS>BOND
  1   1   2  2   
  2   2   3  1   
  3   2   4  am  
  4   3   5  1   
  5   4   6  1   
  6   4   7  1   
  7   5   8  1   
  8   5  28  1   
  9   5  29  1   
 10   6   9  1   
 11   6  10  1   
 12   6  30  1   
 13   7  11  1   
 14   7  31  1   
 15   7  32  1   
 16   8  12  1   
 17   8  13  1   
 18   8  33  1   
 19   9  14  ar  
 20   9  15  ar  
 21  10  11  1   
 22  10  34  1   
 23  10  35  1   
 24  11  16  1   
 25  11  17  1   
 26  12  18  ar  
 27  12  19  ar  
 28  13  20  ar  
 29  13  21  ar  
 30  16  36  1   
 31  16  37  1   
 32  16  38  1   
 33  17  39  1   
 34  17  40  1   
 35  17  41  1   
 36  18  20  1   
 37  18  22  ar  
 38  19  23  ar  
 39  19  42  1   
 40  20  24  ar  
 41  21  25  ar  
 42  21  43  1   
 43  22  26  ar  
 44  22  44  1   
 45  23  26  ar  
 46  23  45  1   
 47  24  27  ar  
 48  24  46  1   
 49  25  27  ar  
 50  25  47  1   
 51  26  48  1   
 52  27  49  1   
@<TRIPOS>SUBSTRUCTURE
  1 ****   3 GROUP 4 **** **** 0

# MOE 2024.06 (io_trps.svl 2023.06)
