@<TRIPOS>MOLECULE
NONAME
49 53 1 0 0 
SMALL
USER_CHARGES


@<TRIPOS>ATOM
  1 O       -2.1120     0.7060    -1.3410 O.2   1 <1>  -0.5700 
  2 C       -1.7710     0.7220    -0.1680 C.2   1 <1>   0.7160 
  3 N       -1.7190    -0.4650     0.5040 N.am  1 <1>  -0.7300 
  4 C       -1.4420     1.9490     0.5390 C.2   1 <1>   0.2030 
  5 C       -2.1340    -1.7780    -0.0300 C.3   1 <1>   0.2200 
  6 N       -1.1270     2.0370     1.8280 N.2   1 <1>  -0.7070 
  7 C       -1.4110     3.2270    -0.0320 C.2   1 <1>  -0.1810 
  8 C       -3.6160    -1.9760     0.2390 C.3   1 <1>  -0.0800 
  9 C       -1.4950    -2.9110     0.7750 C.3   1 <1>   0.1200 
 10 N       -0.9010     3.3470     2.0570 N.pl3 1 <1>   0.3000 
 11 C       -1.0720     4.0660     0.9350 C.2   1 <1>  -0.3320 
 12 C       -1.6280     3.9220    -1.3460 C.3   1 <1>   0.0210 
 13 C       -3.5950    -2.5520     1.6530 C.3   1 <1>   0.1200 
 14 C       -4.2460    -2.9450    -0.7800 C.3   1 <1>  -0.0160 
 15 O       -2.4170    -3.2930     1.7560 O.3   1 <1>  -0.5600 
 16 C       -0.9840     5.5020     0.5050 C.3   1 <1>   0.0200 
 17 C       -1.4070     5.4140    -0.9840 C.3   1 <1>  -0.1600 
 18 C       -5.7530    -3.0660    -0.5750 C.ar  1 <1>  -0.1430 
 19 C       -6.6550    -2.0560    -0.9840 C.ar  1 <1>   0.0000 
 20 C       -6.2750    -4.1750     0.0230 C.ar  1 <1>  -0.1500 
 21 C       -8.0330    -2.2650    -0.7310 C.ar  1 <1>   0.3100 
 22 C       -6.2760    -0.8550    -1.6300 C.ar  1 <1>  -0.1500 
 23 C       -7.6560    -4.2850     0.2230 C.ar  1 <1>   0.1600 
 24 N       -8.5150    -3.3810    -0.1270 N.ar  1 <1>  -0.6200 
 25 C       -8.9540    -1.2800    -1.1220 C.ar  1 <1>  -0.1500 
 26 C       -7.2000     0.0850    -1.9980 C.ar  1 <1>  -0.1500 
 27 C       -8.5560    -0.1260    -1.7410 C.ar  1 <1>  -0.1500 
 28 H       -1.5180    -0.4000     1.5060 H     1 <1>   0.3700 
 29 H       -1.8840    -1.8380    -1.0760 H     1 <1>   0.0800 
 30 H       -4.1460    -1.0410     0.2180 H     1 <1>   0.0800 
 31 H       -0.5750    -2.6120     1.2450 H     1 <1>   0.0800 
 32 H       -1.3220    -3.7670     0.1470 H     1 <1>   0.0800 
 33 H       -0.6330     3.7150     2.9780 H     1 <1>   0.2700 
 34 H       -0.9070     3.5810    -2.0690 H     1 <1>   0.0800 
 35 H       -2.6240     3.7440    -1.7100 H     1 <1>   0.0800 
 36 H       -4.4370    -3.1870     1.8690 H     1 <1>   0.0800 
 37 H       -3.5470    -1.7610     2.3820 H     1 <1>   0.0800 
 38 H       -3.7900    -3.9150    -0.6860 H     1 <1>   0.0800 
 39 H       -4.0540    -2.6040    -1.7820 H     1 <1>   0.0800 
 40 H       -1.6610     6.1200     1.0680 H     1 <1>   0.0800 
 41 H        0.0240     5.8670     0.6020 H     1 <1>   0.0800 
 42 H       -2.3240     5.9580    -1.1300 H     1 <1>   0.0800 
 43 H       -0.6490     5.8420    -1.6140 H     1 <1>   0.0800 
 44 H       -5.6490    -4.9830     0.3560 H     1 <1>   0.1500 
 45 H       -5.2390    -0.6690    -1.8400 H     1 <1>   0.1500 
 46 H       -8.0260    -5.1760     0.6990 H     1 <1>   0.1500 
 47 H       -9.9920    -1.4650    -0.9150 H     1 <1>   0.1500 
 48 H       -6.8940     0.9950    -2.4860 H     1 <1>   0.1500 
 49 H       -9.2730     0.6210    -2.0350 H     1 <1>   0.1500 
@<TRIPOS>BOND
  1   1   2  2   
  2   2   3  am  
  3   2   4  1   
  4   3   5  1   
  5   3  28  1   
  6   4   6  2   
  7   4   7  1   
  8   5   8  1   
  9   5   9  1   
 10   5  29  1   
 11   6  10  1   
 12   7  11  2   
 13   7  12  1   
 14   8  13  1   
 15   8  14  1   
 16   8  30  1   
 17   9  15  1   
 18   9  31  1   
 19   9  32  1   
 20  10  11  1   
 21  10  33  1   
 22  11  16  1   
 23  12  17  1   
 24  12  34  1   
 25  12  35  1   
 26  13  15  1   
 27  13  36  1   
 28  13  37  1   
 29  14  18  1   
 30  14  38  1   
 31  14  39  1   
 32  16  17  1   
 33  16  40  1   
 34  16  41  1   
 35  17  42  1   
 36  17  43  1   
 37  18  19  ar  
 38  18  20  ar  
 39  19  21  ar  
 40  19  22  ar  
 41  20  23  ar  
 42  20  44  1   
 43  21  24  ar  
 44  21  25  ar  
 45  22  26  ar  
 46  22  45  1   
 47  23  24  ar  
 48  23  46  1   
 49  25  27  ar  
 50  25  47  1   
 51  26  27  ar  
 52  26  48  1   
 53  27  49  1   
@<TRIPOS>SUBSTRUCTURE
  1 ****   8 GROUP 4 **** **** 0

# MOE 2024.06 (io_trps.svl 2023.06)
