@<TRIPOS>MOLECULE
NONAME
54 57 1 0 0 
SMALL
USER_CHARGES


@<TRIPOS>ATOM
  1 O        1.7500    -1.4760    -1.9430 O.3   1 <1>  -0.2800 
  2 C        0.7820    -1.3460    -1.0550 C.2   1 <1>   0.4250 
  3 C        2.2800    -2.6490    -1.7530 C.2   1 <1>  -0.0100 
  4 N        0.6520    -2.3990    -0.3020 N.2   1 <1>  -0.5650 
  5 C       -0.0260    -0.1470    -1.0140 C.ar  1 <1>   0.0530 
  6 C        1.6170    -3.2340    -0.7460 C.2   1 <1>   0.0460 
  7 C       -0.1270     0.7050    -2.1150 C.ar  1 <1>  -0.1500 
  8 C       -0.7530     0.1900     0.1290 C.ar  1 <1>  -0.1500 
  9 C        1.8040    -4.6190    -0.1330 C.3   1 <1>   0.5240 
 10 C       -0.9270     1.8320    -2.0810 C.ar  1 <1>  -0.1500 
 11 C       -1.5540     1.3160     0.1690 C.ar  1 <1>  -0.1500 
 12 N        0.4640    -5.1570     0.2600 N.4   1 <1>  -0.9590 
 13 C       -1.6450     2.1380    -0.9390 C.ar  1 <1>  -0.1500 
 14 C       -0.5260    -5.2360    -0.8650 C.3   1 <1>   0.3430 
 15 C        0.5110    -6.3650     1.1340 C.3   1 <1>   0.3430 
 16 C       -1.9880    -5.5000    -0.3850 C.3   1 <1>   0.4230 
 17 C       -0.8910    -6.9820     1.3290 C.3   1 <1>  -0.1600 
 18 N       -3.0330    -4.4460    -0.7230 N.4   1 <1>  -0.9590 
 19 C       -2.0890    -6.0190     1.0820 C.3   1 <1>   0.0000 
 20 C       -4.3600    -4.7070    -0.0590 C.3   1 <1>   0.3430 
 21 C       -2.6070    -3.0240    -0.4760 C.3   1 <1>   0.2630 
 22 C       -3.4220    -6.8100     1.1510 C.3   1 <1>  -0.1600 
 23 C       -2.1420    -4.9520     2.2240 C.3   1 <1>   0.1200 
 24 C       -4.5480    -6.1970     0.2770 C.3   1 <1>  -0.1600 
 25 O       -1.1440    -3.9930     2.1280 O.3   1 <1>  -0.6800 
 26 H        3.1030    -2.9620    -2.3740 H     1 <1>   0.1500 
 27 H        0.4280     0.4860    -3.0110 H     1 <1>   0.1500 
 28 H       -0.6790    -0.4310     1.0040 H     1 <1>   0.1500 
 29 H        2.4260    -4.5260     0.7420 H     1 <1>   0.0800 
 30 H        2.2910    -5.2750    -0.8350 H     1 <1>   0.0800 
 31 H       -0.9910     2.4760    -2.9420 H     1 <1>   0.1500 
 32 H       -2.1030     1.5630     1.0620 H     1 <1>   0.1500 
 33 H        0.0850    -4.4000     0.8750 H     1 <1>   0.4500 
 34 H       -2.2660     3.0180    -0.9120 H     1 <1>   0.1500 
 35 H       -0.5060    -4.3260    -1.4400 H     1 <1>   0.0800 
 36 H       -0.2340    -6.0420    -1.5170 H     1 <1>   0.0800 
 37 H        1.1700    -7.1090     0.7130 H     1 <1>   0.0800 
 38 H        0.9060    -6.0820     2.0980 H     1 <1>   0.0800 
 39 H       -2.2740    -6.3550    -0.9750 H     1 <1>   0.0800 
 40 H       -0.9630    -7.8210     0.6580 H     1 <1>   0.0800 
 41 H       -0.9460    -7.3940     2.3230 H     1 <1>   0.0800 
 42 H       -3.2170    -4.5220    -1.7350 H     1 <1>   0.4500 
 43 H       -4.4280    -4.1380     0.8530 H     1 <1>   0.0800 
 44 H       -5.1620    -4.3770    -0.7020 H     1 <1>   0.0800 
 45 H       -2.4230    -2.8550     0.5710 H     1 <1>   0.0800 
 46 H       -3.3770    -2.3410    -0.7970 H     1 <1>   0.0800 
 47 H       -1.7070    -2.7920    -1.0210 H     1 <1>   0.0800 
 48 H       -3.2770    -7.8260     0.8210 H     1 <1>   0.0800 
 49 H       -3.7590    -6.8780     2.1730 H     1 <1>   0.0800 
 50 H       -2.0340    -5.4370     3.1810 H     1 <1>   0.0800 
 51 H       -3.0820    -4.4310     2.2370 H     1 <1>   0.0800 
 52 H       -5.4910    -6.3220     0.7820 H     1 <1>   0.0800 
 53 H       -4.6250    -6.7440    -0.6470 H     1 <1>   0.0800 
 54 H       -1.1560    -3.4110     2.9250 H     1 <1>   0.4000 
@<TRIPOS>BOND
  1   1   2  1   
  2   1   3  1   
  3   2   4  2   
  4   2   5  1   
  5   3   6  2   
  6   3  26  1   
  7   4   6  1   
  8   5   7  ar  
  9   5   8  ar  
 10   6   9  1   
 11   7  10  ar  
 12   7  27  1   
 13   8  11  ar  
 14   8  28  1   
 15   9  12  1   
 16   9  29  1   
 17   9  30  1   
 18  10  13  ar  
 19  10  31  1   
 20  11  13  ar  
 21  11  32  1   
 22  12  14  1   
 23  12  15  1   
 24  12  33  1   
 25  13  34  1   
 26  14  16  1   
 27  14  35  1   
 28  14  36  1   
 29  15  17  1   
 30  15  37  1   
 31  15  38  1   
 32  16  18  1   
 33  16  19  1   
 34  16  39  1   
 35  17  19  1   
 36  17  40  1   
 37  17  41  1   
 38  18  20  1   
 39  18  21  1   
 40  18  42  1   
 41  19  22  1   
 42  19  23  1   
 43  20  24  1   
 44  20  43  1   
 45  20  44  1   
 46  21  45  1   
 47  21  46  1   
 48  21  47  1   
 49  22  24  1   
 50  22  48  1   
 51  22  49  1   
 52  23  25  1   
 53  23  50  1   
 54  23  51  1   
 55  24  52  1   
 56  24  53  1   
 57  25  54  1   
@<TRIPOS>SUBSTRUCTURE
  1 ****   4 GROUP 4 **** **** 0

# MOE 2024.06 (io_trps.svl 2023.06)
