@<TRIPOS>MOLECULE
Untitled Document
27 27 1 0 0 
SMALL
USER_CHARGES


@<TRIPOS>ATOM
  1 S       -0.3100     0.5020     2.0270 S.3   1 <1>  -0.1330 
  2 N       -0.6240     1.4580     0.5690 N.am  1 <1>  -0.3680 
  3 C        1.3310     1.1350     2.1670 C.2   1 <1>   0.7710 
  4 C        0.4860     2.2110     0.2940 C.2   1 <1>   0.6900 
  5 C       -2.0170     1.5620     0.0980 C.3   1 <1>   0.1400 
  6 O        2.0740     0.7960     3.0580 O.2   1 <1>  -0.5700 
  7 N        1.5610     2.0140     1.1440 N.am  1 <1>  -0.4200 
  8 O        0.5210     3.0150    -0.6190 O.2   1 <1>  -0.5700 
  9 C       -2.4040     0.2930    -0.6600 C.3   1 <1>  -0.2400 
 10 C        2.8510     2.7190     0.9830 C.3   1 <1>   0.1400 
 11 C        3.7670     1.9250     0.0470 C.3   1 <1>  -0.1600 
 12 C        5.1170     2.6290    -0.1360 C.3   1 <1>  -0.1600 
 13 C        6.0300     1.8330    -1.0710 C.3   1 <1>  -0.2400 
 14 H       -2.1040     2.4160    -0.5520 H     1 <1>   0.0800 
 15 H       -2.6680     1.7070     0.9440 H     1 <1>   0.0800 
 16 H       -1.7530     0.1530    -1.5050 H     1 <1>   0.0800 
 17 H       -3.4140     0.3790    -1.0180 H     1 <1>   0.0800 
 18 H       -2.3430    -0.5650    -0.0140 H     1 <1>   0.0800 
 19 H        3.3200     2.8320     1.9460 H     1 <1>   0.0800 
 20 H        2.6740     3.7020     0.5770 H     1 <1>   0.0800 
 21 H        3.2890     1.8210    -0.9130 H     1 <1>   0.0800 
 22 H        3.9330     0.9440     0.4590 H     1 <1>   0.0800 
 23 H        5.6020     2.7410     0.8200 H     1 <1>   0.0800 
 24 H        4.9610     3.6120    -0.5490 H     1 <1>   0.0800 
 25 H        6.2200     0.8530    -0.6690 H     1 <1>   0.0800 
 26 H        6.9710     2.3410    -1.1880 H     1 <1>   0.0800 
 27 H        5.5760     1.7270    -2.0410 H     1 <1>   0.0800 
@<TRIPOS>BOND
  1   1   2  1   
  2   1   3  1   
  3   2   4  am  
  4   2   5  1   
  5   3   6  2   
  6   3   7  am  
  7   4   7  am  
  8   4   8  2   
  9   5   9  1   
 10   5  14  1   
 11   5  15  1   
 12   7  10  1   
 13   9  16  1   
 14   9  17  1   
 15   9  18  1   
 16  10  11  1   
 17  10  19  1   
 18  10  20  1   
 19  11  12  1   
 20  11  21  1   
 21  11  22  1   
 22  12  13  1   
 23  12  23  1   
 24  12  24  1   
 25  13  25  1   
 26  13  26  1   
 27  13  27  1   
@<TRIPOS>SUBSTRUCTURE
  1 ****   7 GROUP 4 **** **** 0

# MOE 2024.06 (io_trps.svl 2023.06)
