@<TRIPOS>MOLECULE
NONAME
51 53 1 0 0 
SMALL
USER_CHARGES


@<TRIPOS>ATOM
  1 S        0.4330     0.8650    -1.1300 S.o2  1 <1>   1.3330 
  2 O        0.4010    -0.4640    -1.6980 O.2   1 <1>  -0.6500 
  3 O       -0.2510     1.9470    -1.8020 O.2   1 <1>  -0.6500 
  4 N       -0.2020     0.7730     0.4440 N.am  1 <1>  -0.8490 
  5 C        2.1500     1.3190    -0.8770 C.3   1 <1>  -0.0550 
  6 C       -1.3640    -0.1170     0.5170 C.3   1 <1>   0.1160 
  7 C       -0.5450     2.0830     1.0090 C.3   1 <1>   0.1160 
  8 C        3.0080     0.2190    -0.2140 C.3   1 <1>  -0.0800 
  9 C        4.4970     0.5240    -0.1490 C.3   1 <1>   0.2200 
 10 C        2.6620    -0.0840     1.2480 C.3   1 <1>   0.1200 
 11 N        4.7280     1.9330     0.2410 N.am  1 <1>  -0.7300 
 12 C        4.9230    -0.3870     0.9940 C.3   1 <1>   0.1200 
 13 O        3.8670    -0.3500     1.9050 O.3   1 <1>  -0.5600 
 14 C        5.1110     2.9570    -0.5740 C.2   1 <1>   0.7160 
 15 O        5.2610     2.7230    -1.7620 O.2   1 <1>  -0.5700 
 16 C        5.3040     4.2850    -0.0130 C.2   1 <1>   0.2030 
 17 N        5.0870     4.6210     1.2480 N.2   1 <1>  -0.7070 
 18 C        5.7450     5.3950    -0.7360 C.2   1 <1>  -0.1500 
 19 N        5.3950     5.9240     1.3140 N.pl3 1 <1>   0.3000 
 20 C        5.7960     6.4370     0.1290 C.2   1 <1>  -0.2050 
 21 C        6.1880     7.8080    -0.0760 C.ar  1 <1>   0.0530 
 22 C        7.2340     8.1240    -0.9360 C.ar  1 <1>  -0.1500 
 23 C        5.5430     8.8590     0.5730 C.ar  1 <1>  -0.1500 
 24 C        7.6300     9.4340    -1.1360 C.ar  1 <1>  -0.1500 
 25 C        5.9360    10.1700     0.3780 C.ar  1 <1>  -0.1500 
 26 C        6.9850    10.4670    -0.4760 C.ar  1 <1>  -0.1440 
 27 C        7.4170    11.9060    -0.6940 C.3   1 <1>  -0.0970 
 28 H        2.5810     1.5410    -1.8350 H     1 <1>   0.0800 
 29 H        2.1950     2.2170    -0.2940 H     1 <1>   0.0800 
 30 H       -1.7340    -0.1660     1.5270 H     1 <1>   0.0800 
 31 H       -1.0860    -1.1130     0.2130 H     1 <1>   0.0800 
 32 H       -2.1470     0.2370    -0.1330 H     1 <1>   0.0800 
 33 H       -0.8590     1.9720     2.0330 H     1 <1>   0.0800 
 34 H       -1.3420     2.5400     0.4460 H     1 <1>   0.0800 
 35 H        0.3110     2.7350     0.9870 H     1 <1>   0.0800 
 36 H        2.8830    -0.6930    -0.7720 H     1 <1>   0.0800 
 37 H        5.0110     0.2930    -1.0680 H     1 <1>   0.0800 
 38 H        2.0140    -0.9390     1.3390 H     1 <1>   0.0800 
 39 H        2.2120     0.7640     1.7350 H     1 <1>   0.0800 
 40 H        4.6060     2.1540     1.2350 H     1 <1>   0.3700 
 41 H        5.8290    -0.0610     1.4730 H     1 <1>   0.0800 
 42 H        5.0290    -1.4020     0.6540 H     1 <1>   0.0800 
 43 H        5.9870     5.3890    -1.7850 H     1 <1>   0.1500 
 44 H        5.3440     6.4630     2.1880 H     1 <1>   0.2700 
 45 H        7.7460     7.3320    -1.4520 H     1 <1>   0.1500 
 46 H        4.7180     8.6550     1.2300 H     1 <1>   0.1500 
 47 H        8.4430     9.6470    -1.8070 H     1 <1>   0.1500 
 48 H        5.4200    10.9630     0.8900 H     1 <1>   0.1500 
 49 H        8.4690    11.9530    -0.9120 H     1 <1>   0.0800 
 50 H        7.2270    12.4930     0.1860 H     1 <1>   0.0800 
 51 H        6.8720    12.3280    -1.5190 H     1 <1>   0.0800 
@<TRIPOS>BOND
  1   1   2  2   
  2   1   3  2   
  3   1   4  am  
  4   1   5  1   
  5   4   6  1   
  6   4   7  1   
  7   5   8  1   
  8   5  28  1   
  9   5  29  1   
 10   6  30  1   
 11   6  31  1   
 12   6  32  1   
 13   7  33  1   
 14   7  34  1   
 15   7  35  1   
 16   8   9  1   
 17   8  10  1   
 18   8  36  1   
 19   9  11  1   
 20   9  12  1   
 21   9  37  1   
 22  10  13  1   
 23  10  38  1   
 24  10  39  1   
 25  11  14  am  
 26  11  40  1   
 27  12  13  1   
 28  12  41  1   
 29  12  42  1   
 30  14  15  2   
 31  14  16  1   
 32  16  17  2   
 33  16  18  1   
 34  17  19  1   
 35  18  20  2   
 36  18  43  1   
 37  19  20  1   
 38  19  44  1   
 39  20  21  1   
 40  21  22  ar  
 41  21  23  ar  
 42  22  24  ar  
 43  22  45  1   
 44  23  25  ar  
 45  23  46  1   
 46  24  26  ar  
 47  24  47  1   
 48  25  26  ar  
 49  25  48  1   
 50  26  27  1   
 51  27  49  1   
 52  27  50  1   
 53  27  51  1   
@<TRIPOS>SUBSTRUCTURE
  1 ****  16 GROUP 4 **** **** 0

# MOE 2024.06 (io_trps.svl 2023.06)
