@<TRIPOS>MOLECULE
NONAME
55 58 1 0 0 
SMALL
USER_CHARGES


@<TRIPOS>ATOM
  1 O       -0.7430     0.3520    -0.1610 O.2   1 <1>  -0.5700 
  2 C       -1.7430     1.0090    -0.3350 C.2   1 <1>   0.5690 
  3 N       -2.9270     0.3980    -0.6710 N.am  1 <1>  -0.6600 
  4 C       -1.6700     2.5170    -0.1540 C.3   1 <1>  -0.0990 
  5 C       -2.9730    -1.0640    -0.9480 C.3   1 <1>   0.1400 
  6 C       -4.2680     1.0450    -0.6100 C.3   1 <1>   0.1400 
  7 C       -0.2350     3.0530    -0.0220 C.3   1 <1>   0.0200 
  8 C       -3.7810    -1.7730     0.1610 C.3   1 <1>   0.4230 
  9 C       -5.0830     0.3600     0.4960 C.3   1 <1>  -0.1600 
 10 C       -0.1870     4.5670     0.1330 C.2   1 <1>   0.0060 
 11 N       -3.7430    -3.2940     0.0760 N.4   1 <1>  -0.9590 
 12 C       -5.2150    -1.1810     0.3140 C.3   1 <1>   0.0000 
 13 N       -1.2150     5.3440     0.1700 N.2   1 <1>  -0.5650 
 14 N        0.9960     5.2240     0.2490 N.pl3 1 <1>   0.0330 
 15 C       -4.8240    -3.9790     0.8590 C.3   1 <1>   0.3430 
 16 C       -3.6770    -3.8650    -1.3100 C.3   1 <1>   0.2630 
 17 C       -5.8810    -1.7790     1.5890 C.3   1 <1>  -0.1600 
 18 C       -6.0670    -1.5050    -0.9470 C.3   1 <1>   0.1200 
 19 C       -0.6930     6.5940     0.3180 C.ar  1 <1>   0.2270 
 20 C        0.6860     6.5390     0.3690 C.ar  1 <1>  -0.1520 
 21 C       -5.2710    -3.1210     2.0410 C.3   1 <1>  -0.1600 
 22 O       -7.2780    -0.8330    -0.9350 O.3   1 <1>  -0.6800 
 23 C       -1.3430     7.8230     0.4150 C.ar  1 <1>  -0.1500 
 24 C        1.4550     7.6960     0.5180 C.ar  1 <1>  -0.1500 
 25 C       -0.5950     8.9710     0.5620 C.ar  1 <1>  -0.1500 
 26 C        0.8040     8.9060     0.6130 C.ar  1 <1>  -0.1500 
 27 H       -2.1320     2.9890    -1.0020 H     1 <1>   0.0800 
 28 H       -2.2220     2.7860     0.7270 H     1 <1>   0.0800 
 29 H       -3.4200    -1.2110    -1.9140 H     1 <1>   0.0800 
 30 H       -1.9770    -1.4690    -0.9780 H     1 <1>   0.0800 
 31 H       -4.1880     2.0960    -0.3940 H     1 <1>   0.0800 
 32 H       -4.7620     0.9470    -1.5620 H     1 <1>   0.0800 
 33 H        0.3270     2.7740    -0.8960 H     1 <1>   0.0800 
 34 H        0.2340     2.6030     0.8360 H     1 <1>   0.0800 
 35 H       -3.2740    -1.5130     1.0750 H     1 <1>   0.0800 
 36 H       -4.5970     0.5790     1.4310 H     1 <1>   0.0800 
 37 H       -6.0550     0.8210     0.5420 H     1 <1>   0.0800 
 38 H       -2.8570    -3.5490     0.5380 H     1 <1>   0.4500 
 39 H        1.9340     4.8190     0.2470 H     1 <1>   0.2700 
 40 H       -5.6770    -4.1570     0.2240 H     1 <1>   0.0800 
 41 H       -4.4700    -4.9340     1.2140 H     1 <1>   0.0800 
 42 H       -4.5580    -3.6000    -1.8720 H     1 <1>   0.0800 
 43 H       -3.6090    -4.9400    -1.2680 H     1 <1>   0.0800 
 44 H       -2.8100    -3.4940    -1.8320 H     1 <1>   0.0800 
 45 H       -5.7950    -1.0950     2.4170 H     1 <1>   0.0800 
 46 H       -6.9360    -1.9130     1.4260 H     1 <1>   0.0800 
 47 H       -6.2850    -2.5550    -1.0200 H     1 <1>   0.0800 
 48 H       -5.5650    -1.2000    -1.8480 H     1 <1>   0.0800 
 49 H       -6.0030    -3.6630     2.6150 H     1 <1>   0.0800 
 50 H       -4.4290    -2.9470     2.6890 H     1 <1>   0.0800 
 51 H       -7.8500    -1.1090    -0.1910 H     1 <1>   0.4000 
 52 H       -2.4160     7.8420     0.3730 H     1 <1>   0.1500 
 53 H        2.5280     7.6360     0.5560 H     1 <1>   0.1500 
 54 H       -1.0800     9.9290     0.6390 H     1 <1>   0.1500 
 55 H        1.3650     9.8170     0.7290 H     1 <1>   0.1500 
@<TRIPOS>BOND
  1   1   2  2   
  2   2   3  am  
  3   2   4  1   
  4   3   5  1   
  5   3   6  1   
  6   4   7  1   
  7   4  27  1   
  8   4  28  1   
  9   5   8  1   
 10   5  29  1   
 11   5  30  1   
 12   6   9  1   
 13   6  31  1   
 14   6  32  1   
 15   7  10  1   
 16   7  33  1   
 17   7  34  1   
 18   8  11  1   
 19   8  12  1   
 20   8  35  1   
 21   9  12  1   
 22   9  36  1   
 23   9  37  1   
 24  10  13  2   
 25  10  14  1   
 26  11  15  1   
 27  11  16  1   
 28  11  38  1   
 29  12  17  1   
 30  12  18  1   
 31  13  19  1   
 32  14  20  1   
 33  14  39  1   
 34  15  21  1   
 35  15  40  1   
 36  15  41  1   
 37  16  42  1   
 38  16  43  1   
 39  16  44  1   
 40  17  21  1   
 41  17  45  1   
 42  17  46  1   
 43  18  22  1   
 44  18  47  1   
 45  18  48  1   
 46  19  20  ar  
 47  19  23  ar  
 48  20  24  ar  
 49  21  49  1   
 50  21  50  1   
 51  22  51  1   
 52  23  25  ar  
 53  23  52  1   
 54  24  26  ar  
 55  24  53  1   
 56  25  26  ar  
 57  25  54  1   
 58  26  55  1   
@<TRIPOS>SUBSTRUCTURE
  1 ****   4 GROUP 4 **** **** 0

# MOE 2024.06 (io_trps.svl 2023.06)
