@<TRIPOS>MOLECULE
NONAME
58 61 1 0 0 
SMALL
USER_CHARGES


@<TRIPOS>ATOM
  1 O       -1.0710     0.1490    -1.7440 O.2   1 <1>  -0.5700 
  2 C       -1.2740     0.4880    -0.5930 C.2   1 <1>   0.7150 
  3 N       -1.6160    -0.4610     0.3220 N.am  1 <1>  -0.7300 
  4 C       -1.1550     1.8720    -0.2000 C.2   1 <1>   0.0550 
  5 C       -1.7210    -1.9170     0.0770 C.3   1 <1>   0.2200 
  6 O       -1.3420     2.2560     1.0570 O.3   1 <1>  -0.2800 
  7 C       -0.8570     2.9720    -0.9390 C.2   1 <1>  -0.1500 
  8 C       -3.1730    -2.3740     0.0790 C.3   1 <1>  -0.0800 
  9 C       -1.1950    -2.6570     1.3000 C.3   1 <1>   0.1200 
 10 C       -1.1720     3.5550     1.1540 C.2   1 <1>  -0.0400 
 11 C       -0.8560     4.0630    -0.0640 C.2   1 <1>  -0.1810 
 12 C       -3.4690    -2.5870     1.5680 C.3   1 <1>   0.1200 
 13 C       -4.1730    -1.4480    -0.6390 C.3   1 <1>  -0.0160 
 14 O       -2.2350    -2.6040     2.2270 O.3   1 <1>  -0.5600 
 15 C       -1.3610     4.1390     2.5490 C.3   1 <1>   0.0200 
 16 C       -0.5410     5.4780    -0.4950 C.3   1 <1>   0.5240 
 17 C       -5.5640    -2.0630    -0.6560 C.ar  1 <1>  -0.1440 
 18 C       -1.2380     5.6630     2.6420 C.3   1 <1>  -0.2400 
 19 N        0.9220     5.6780    -0.3490 N.4   1 <1>  -0.9590 
 20 C       -6.5370    -1.7050     0.2550 C.ar  1 <1>  -0.1500 
 21 C       -5.9230    -3.0160    -1.5870 C.ar  1 <1>  -0.1500 
 22 C        1.3580     7.0840    -0.4940 C.3   1 <1>   0.3430 
 23 C        1.7350     4.8870    -1.3040 C.3   1 <1>   0.3430 
 24 C       -7.7840    -2.3040     0.1960 C.ar  1 <1>   0.1600 
 25 C       -7.2000    -3.5530    -1.5600 C.ar  1 <1>   0.1600 
 26 C        2.8540     6.9850    -0.7590 C.3   1 <1>  -0.1600 
 27 C        3.0960     5.5690    -1.2930 C.3   1 <1>  -0.1600 
 28 N       -8.1380    -3.2220    -0.6880 N.ar  1 <1>  -0.6200 
 29 H       -1.7930    -0.1720     1.2870 H     1 <1>   0.3700 
 30 H       -1.1980    -2.1930    -0.8230 H     1 <1>   0.0800 
 31 H       -0.6640     2.9850    -1.9980 H     1 <1>   0.1500 
 32 H       -3.2120    -3.3390    -0.3950 H     1 <1>   0.0800 
 33 H       -0.3120    -2.2050     1.7160 H     1 <1>   0.0800 
 34 H       -1.0070    -3.6910     1.0710 H     1 <1>   0.0800 
 35 H       -3.9730    -3.5220     1.7450 H     1 <1>   0.0800 
 36 H       -4.0460    -1.7790     1.9820 H     1 <1>   0.0800 
 37 H       -3.8440    -1.2830    -1.6500 H     1 <1>   0.0800 
 38 H       -4.2150    -0.4900    -0.1530 H     1 <1>   0.0800 
 39 H       -2.3370     3.8510     2.9020 H     1 <1>   0.0800 
 40 H       -0.6400     3.6850     3.2080 H     1 <1>   0.0800 
 41 H       -1.0740     6.1740     0.1290 H     1 <1>   0.0800 
 42 H       -0.8460     5.6320    -1.5170 H     1 <1>   0.0800 
 43 H       -1.9860     6.1380     2.0340 H     1 <1>   0.0800 
 44 H       -0.2580     5.9880     2.3480 H     1 <1>   0.0800 
 45 H       -1.3970     5.9690     3.6620 H     1 <1>   0.0800 
 46 H        1.1730     5.3490     0.5920 H     1 <1>   0.4500 
 47 H       -6.3390    -0.9660     1.0100 H     1 <1>   0.1500 
 48 H       -5.2240    -3.3450    -2.3340 H     1 <1>   0.1500 
 49 H        0.8720     7.5340    -1.3450 H     1 <1>   0.0800 
 50 H        1.1470     7.6650     0.3910 H     1 <1>   0.0800 
 51 H        1.8020     3.8510    -1.0080 H     1 <1>   0.0800 
 52 H        1.3070     4.9500    -2.2920 H     1 <1>   0.0800 
 53 H       -8.5300    -2.0120     0.9160 H     1 <1>   0.1500 
 54 H       -7.4620    -4.2960    -2.2940 H     1 <1>   0.1500 
 55 H        3.1620     7.7380    -1.4660 H     1 <1>   0.0800 
 56 H        3.3980     7.1380     0.1570 H     1 <1>   0.0800 
 57 H        3.7680     5.0330    -0.6460 H     1 <1>   0.0800 
 58 H        3.5160     5.5810    -2.2840 H     1 <1>   0.0800 
@<TRIPOS>BOND
  1   1   2  2   
  2   2   3  am  
  3   2   4  1   
  4   3   5  1   
  5   3  29  1   
  6   4   6  1   
  7   4   7  2   
  8   5   8  1   
  9   5   9  1   
 10   5  30  1   
 11   6  10  1   
 12   7  11  1   
 13   7  31  1   
 14   8  12  1   
 15   8  13  1   
 16   8  32  1   
 17   9  14  1   
 18   9  33  1   
 19   9  34  1   
 20  10  11  2   
 21  10  15  1   
 22  11  16  1   
 23  12  14  1   
 24  12  35  1   
 25  12  36  1   
 26  13  17  1   
 27  13  37  1   
 28  13  38  1   
 29  15  18  1   
 30  15  39  1   
 31  15  40  1   
 32  16  19  1   
 33  16  41  1   
 34  16  42  1   
 35  17  20  ar  
 36  17  21  ar  
 37  18  43  1   
 38  18  44  1   
 39  18  45  1   
 40  19  22  1   
 41  19  23  1   
 42  19  46  1   
 43  20  24  ar  
 44  20  47  1   
 45  21  25  ar  
 46  21  48  1   
 47  22  26  1   
 48  22  49  1   
 49  22  50  1   
 50  23  27  1   
 51  23  51  1   
 52  23  52  1   
 53  24  28  ar  
 54  24  53  1   
 55  25  28  ar  
 56  25  54  1   
 57  26  27  1   
 58  26  55  1   
 59  26  56  1   
 60  27  57  1   
 61  27  58  1   
@<TRIPOS>SUBSTRUCTURE
  1 ****   2 GROUP 4 **** **** 0

# MOE 2024.06 (io_trps.svl 2023.06)
