@<TRIPOS>MOLECULE
NONAME
56 57 1 0 0 
SMALL
USER_CHARGES


@<TRIPOS>ATOM
  1 F       -0.8440     1.2000    -0.2390 F     1 <1>  -0.3400 
  2 C       -2.1300     1.0080     0.0030 C.3   1 <1>   1.0200 
  3 F       -2.3130     1.1810     1.3020 F     1 <1>  -0.3400 
  4 F       -2.7910     1.9800    -0.6060 F     1 <1>  -0.3400 
  5 C       -2.6050    -0.3780    -0.4590 C.3   1 <1>  -0.1600 
  6 C       -4.1050    -0.6460    -0.1920 C.3   1 <1>  -0.1600 
  7 C       -4.5220    -2.0400    -0.6720 C.3   1 <1>   0.3430 
  8 N       -5.9540    -2.2900    -0.3380 N.4   1 <1>  -0.9590 
  9 C       -6.2510    -3.7670    -0.3810 C.3   1 <1>   0.3430 
 10 C       -6.8670    -1.5370    -1.2540 C.3   1 <1>   0.3430 
 11 C       -7.5950    -4.1900     0.2710 C.3   1 <1>   0.1400 
 12 C       -8.0660    -0.9790    -0.4910 C.3   1 <1>  -0.1600 
 13 N       -8.7650    -3.3490    -0.1540 N.am  1 <1>  -0.6600 
 14 C       -8.7700    -1.9760     0.4340 C.3   1 <1>   0.1400 
 15 C       -9.8200    -3.7340    -0.9560 C.2   1 <1>   0.5690 
 16 O      -10.5430    -2.9030    -1.4490 O.2   1 <1>  -0.5700 
 17 C      -10.1650    -5.2090    -1.2620 C.3   1 <1>   0.4040 
 18 N      -11.4170    -5.7400    -0.5730 N.4   1 <1>  -0.9590 
 19 C      -11.6020    -7.2070    -0.7630 C.3   1 <1>   0.4230 
 20 C      -12.6230    -4.9780    -1.0540 C.3   1 <1>   0.2630 
 21 C      -12.7610    -7.7460     0.0900 C.3   1 <1>  -0.1600 
 22 C      -10.3650    -7.9930    -0.3120 C.3   1 <1>  -0.1600 
 23 C      -12.2010    -8.8810     0.9520 C.3   1 <1>  -0.1600 
 24 C      -10.9050    -9.2950     0.2690 C.3   1 <1>  -0.1600 
 25 H       -2.0060    -1.1120     0.0500 H     1 <1>   0.0800 
 26 H       -2.4010    -0.4560    -1.5120 H     1 <1>   0.0800 
 27 H       -4.6840     0.1070    -0.6980 H     1 <1>   0.0800 
 28 H       -4.2890    -0.5650     0.8660 H     1 <1>   0.0800 
 29 H       -3.9020    -2.7720    -0.1790 H     1 <1>   0.0800 
 30 H       -4.3650    -2.1300    -1.7360 H     1 <1>   0.0800 
 31 H       -6.1150    -1.9450     0.6170 H     1 <1>   0.4500 
 32 H       -5.4600    -4.3010     0.1230 H     1 <1>   0.0800 
 33 H       -6.2480    -4.0960    -1.4070 H     1 <1>   0.0800 
 34 H       -7.2170    -2.1900    -2.0380 H     1 <1>   0.0800 
 35 H       -6.3440    -0.7180    -1.7220 H     1 <1>   0.0800 
 36 H       -7.4930    -4.1310     1.3420 H     1 <1>   0.0800 
 37 H       -7.7700    -5.2250     0.0380 H     1 <1>   0.0800 
 38 H       -8.7820    -0.6310    -1.2150 H     1 <1>   0.0800 
 39 H       -7.7670    -0.1170     0.0780 H     1 <1>   0.0800 
 40 H       -9.7840    -1.6480     0.5990 H     1 <1>   0.0800 
 41 H       -8.2850    -1.9910     1.3960 H     1 <1>   0.0800 
 42 H       -9.3240    -5.8170    -0.9910 H     1 <1>   0.0800 
 43 H      -10.2940    -5.2940    -2.3280 H     1 <1>   0.0800 
 44 H      -11.3300    -5.5780     0.4390 H     1 <1>   0.4500 
 45 H      -11.8020    -7.4280    -1.8000 H     1 <1>   0.0800 
 46 H      -12.7380    -5.0880    -2.1200 H     1 <1>   0.0800 
 47 H      -12.5230    -3.9270    -0.8310 H     1 <1>   0.0800 
 48 H      -13.5190    -5.3370    -0.5740 H     1 <1>   0.0800 
 49 H      -13.5140    -8.1460    -0.5670 H     1 <1>   0.0800 
 50 H      -13.2130    -7.0030     0.7230 H     1 <1>   0.0800 
 51 H       -9.8450    -7.4720     0.4730 H     1 <1>   0.0800 
 52 H       -9.6970    -8.1920    -1.1310 H     1 <1>   0.0800 
 53 H      -12.8900    -9.7060     1.0360 H     1 <1>   0.0800 
 54 H      -11.9820    -8.5140     1.9410 H     1 <1>   0.0800 
 55 H      -10.2150    -9.7550     0.9570 H     1 <1>   0.0800 
 56 H      -11.1220    -9.9920    -0.5250 H     1 <1>   0.0800 
@<TRIPOS>BOND
  1   1   2  1   
  2   2   3  1   
  3   2   4  1   
  4   2   5  1   
  5   5   6  1   
  6   5  25  1   
  7   5  26  1   
  8   6   7  1   
  9   6  27  1   
 10   6  28  1   
 11   7   8  1   
 12   7  29  1   
 13   7  30  1   
 14   8   9  1   
 15   8  10  1   
 16   8  31  1   
 17   9  11  1   
 18   9  32  1   
 19   9  33  1   
 20  10  12  1   
 21  10  34  1   
 22  10  35  1   
 23  11  13  1   
 24  11  36  1   
 25  11  37  1   
 26  12  14  1   
 27  12  38  1   
 28  12  39  1   
 29  13  14  1   
 30  13  15  am  
 31  14  40  1   
 32  14  41  1   
 33  15  16  2   
 34  15  17  1   
 35  17  18  1   
 36  17  42  1   
 37  17  43  1   
 38  18  19  1   
 39  18  20  1   
 40  18  44  1   
 41  19  21  1   
 42  19  22  1   
 43  19  45  1   
 44  20  46  1   
 45  20  47  1   
 46  20  48  1   
 47  21  23  1   
 48  21  49  1   
 49  21  50  1   
 50  22  24  1   
 51  22  51  1   
 52  22  52  1   
 53  23  24  1   
 54  23  53  1   
 55  23  54  1   
 56  24  55  1   
 57  24  56  1   
@<TRIPOS>SUBSTRUCTURE
  1 ****  11 GROUP 4 **** **** 0

# MOE 2024.06 (io_trps.svl 2023.06)
