@<TRIPOS>MOLECULE
NONAME
42 45 1 0 0 
SMALL
USER_CHARGES


@<TRIPOS>ATOM
  1 S        0.8360     0.8210    -1.2140 S.3   1 <1>  -0.0800 
  2 C       -0.5730     1.3840    -0.3290 C.2   1 <1>  -0.1400 
  3 C        0.2720    -0.8420    -1.1160 C.2   1 <1>  -0.1100 
  4 C       -1.3790     0.3600    -0.0200 C.2   1 <1>  -0.1810 
  5 C       -0.8000     2.8520     0.0150 C.3   1 <1>   0.4600 
  6 C       -0.9020    -0.9150    -0.4600 C.2   1 <1>  -0.1500 
  7 C       -2.6650     0.6230     0.7310 C.3   1 <1>   0.0210 
  8 O       -1.9230     2.9420     0.8720 O.3   1 <1>  -0.5600 
  9 C       -1.0540     3.7000    -1.2390 C.3   1 <1>  -0.1600 
 10 C        0.3840     3.4200     0.8050 C.3   1 <1>  -0.1600 
 11 C       -3.0300     2.1140     0.5990 C.3   1 <1>   0.1200 
 12 C       -1.2610     5.1740    -0.8870 C.3   1 <1>   0.1400 
 13 C        0.1790     4.8990     1.1380 C.3   1 <1>   0.1400 
 14 N       -0.0850     5.6630    -0.1140 N.am  1 <1>  -0.6600 
 15 C        0.6400     6.7630    -0.5190 C.2   1 <1>   0.5440 
 16 O        0.2070     7.4810    -1.3980 O.2   1 <1>  -0.5700 
 17 C        1.9190     7.0840     0.0740 C.ar  1 <1>   0.0860 
 18 C        3.0690     6.3520    -0.2430 C.ar  1 <1>   0.0730 
 19 C        2.0210     8.1380     0.9790 C.ar  1 <1>  -0.1500 
 20 C        3.0210     5.2670    -1.1800 C.1   1 <1>   0.4840 
 21 C        4.2760     6.6850     0.3630 C.ar  1 <1>  -0.1500 
 22 C        3.2260     8.4590     1.5740 C.ar  1 <1>  -0.1500 
 23 N        3.0080     4.3840    -1.9010 N.1   1 <1>  -0.5570 
 24 C        4.3580     7.7280     1.2670 C.ar  1 <1>  -0.1500 
 25 H        0.8890    -1.5980    -1.5680 H     1 <1>   0.1500 
 26 H       -1.4560    -1.8170    -0.2650 H     1 <1>   0.1500 
 27 H       -2.5390     0.3680     1.7680 H     1 <1>   0.0800 
 28 H       -3.4600     0.0240     0.3260 H     1 <1>   0.0800 
 29 H       -1.9030     3.3240    -1.7760 H     1 <1>   0.0800 
 30 H       -0.2060     3.6230    -1.8940 H     1 <1>   0.0800 
 31 H        1.2840     3.3130     0.2290 H     1 <1>   0.0800 
 32 H        0.5080     2.8530     1.7090 H     1 <1>   0.0800 
 33 H       -3.8090     2.3680     1.2960 H     1 <1>   0.0800 
 34 H       -3.3770     2.3270    -0.3970 H     1 <1>   0.0800 
 35 H       -2.1500     5.2940    -0.2910 H     1 <1>   0.0800 
 36 H       -1.3870     5.7430    -1.7930 H     1 <1>   0.0800 
 37 H        1.0440     5.2790     1.6510 H     1 <1>   0.0800 
 38 H       -0.6680     5.0070     1.7950 H     1 <1>   0.0800 
 39 H        1.1390     8.7110     1.2110 H     1 <1>   0.1500 
 40 H        5.1640     6.1230     0.1250 H     1 <1>   0.1500 
 41 H        3.2840     9.2780     2.2720 H     1 <1>   0.1500 
 42 H        5.3010     7.9750     1.7270 H     1 <1>   0.1500 
@<TRIPOS>BOND
  1   1   2  1   
  2   1   3  1   
  3   2   4  2   
  4   2   5  1   
  5   3   6  2   
  6   3  25  1   
  7   4   6  1   
  8   4   7  1   
  9   5   8  1   
 10   5   9  1   
 11   5  10  1   
 12   6  26  1   
 13   7  11  1   
 14   7  27  1   
 15   7  28  1   
 16   8  11  1   
 17   9  12  1   
 18   9  29  1   
 19   9  30  1   
 20  10  13  1   
 21  10  31  1   
 22  10  32  1   
 23  11  33  1   
 24  11  34  1   
 25  12  14  1   
 26  12  35  1   
 27  12  36  1   
 28  13  14  1   
 29  13  37  1   
 30  13  38  1   
 31  14  15  am  
 32  15  16  2   
 33  15  17  1   
 34  17  18  ar  
 35  17  19  ar  
 36  18  20  1   
 37  18  21  ar  
 38  19  22  ar  
 39  19  39  1   
 40  20  23  3   
 41  21  24  ar  
 42  21  40  1   
 43  22  24  ar  
 44  22  41  1   
 45  24  42  1   
@<TRIPOS>SUBSTRUCTURE
  1 ****  10 GROUP 4 **** **** 0

# MOE 2024.06 (io_trps.svl 2023.06)
