@<TRIPOS>MOLECULE
NONAME
41 43 1 0 0 
SMALL
USER_CHARGES


@<TRIPOS>ATOM
  1 N       -7.6610     1.4070    -0.0630 N.4   1 <1>  -0.8970 
  2 C       -7.6000     0.0400    -0.6270 C.3   1 <1>   0.7100 
  3 C       -8.7820     2.2400    -0.5970 C.3   1 <1>   0.4720 
  4 C       -6.6690     2.3540    -0.6570 C.3   1 <1>   0.4720 
  5 C       -8.8890    -0.7090    -0.2960 C.ar  1 <1>  -0.1440 
  6 C       -6.3230    -0.6140    -0.1150 C.ar  1 <1>  -0.1430 
  7 C       -7.7880     3.4280    -0.6630 C.3   1 <1>   0.0000 
  8 C       -9.5170    -0.6360     0.9450 C.ar  1 <1>  -0.1500 
  9 C       -9.4700    -1.4810    -1.2940 C.ar  1 <1>  -0.1500 
 10 C       -6.2090    -1.1230     1.1750 C.ar  1 <1>  -0.1500 
 11 C       -5.2250    -0.6860    -0.9640 C.ar  1 <1>  -0.1500 
 12 C       -7.7590     4.3470     0.5710 C.3   1 <1>   0.3430 
 13 C      -10.7020    -1.3110     1.1740 C.ar  1 <1>  -0.1500 
 14 C      -10.6570    -2.1540    -1.0640 C.ar  1 <1>  -0.1500 
 15 C       -5.0160    -1.6740     1.6080 C.ar  1 <1>  -0.1500 
 16 C       -4.0340    -1.2380    -0.5290 C.ar  1 <1>  -0.1500 
 17 N       -8.7780     5.4420     0.4960 N.4   1 <1>  -0.8530 
 18 C      -11.2740    -2.0670     0.1690 C.ar  1 <1>  -0.1500 
 19 C       -3.9280    -1.7290     0.7590 C.ar  1 <1>  -0.1500 
 20 H       -7.6000     1.3330     0.9540 H     1 <1>   0.4500 
 21 H       -7.5300     0.1060    -1.7000 H     1 <1>   0.0800 
 22 H       -9.5760     2.3600     0.1180 H     1 <1>   0.0000 
 23 H       -9.0950     1.8980    -1.5670 H     1 <1>   0.0000 
 24 H       -6.3780     2.0440    -1.6450 H     1 <1>   0.0000 
 25 H       -5.8530     2.5610     0.0100 H     1 <1>   0.0000 
 26 H       -7.8150     3.9710    -1.5910 H     1 <1>   0.0000 
 27 H       -9.1050    -0.0670     1.7580 H     1 <1>   0.1500 
 28 H       -9.0120    -1.5770    -2.2650 H     1 <1>   0.1500 
 29 H       -7.0340    -1.1150     1.8640 H     1 <1>   0.1500 
 30 H       -5.2730    -0.3230    -1.9770 H     1 <1>   0.1500 
 31 H       -6.7790     4.7950     0.6410 H     1 <1>   0.0800 
 32 H       -7.9140     3.7660     1.4680 H     1 <1>   0.0800 
 33 H      -11.1860    -1.2580     2.1360 H     1 <1>   0.1500 
 34 H      -11.1020    -2.7510    -1.8430 H     1 <1>   0.1500 
 35 H       -4.9330    -2.0690     2.6070 H     1 <1>   0.1500 
 36 H       -3.1850    -1.2920    -1.1900 H     1 <1>   0.1500 
 37 H       -8.6530     6.0330    -0.3390 H     1 <1>   0.4500 
 38 H       -8.6870     6.0790     1.3030 H     1 <1>   0.4500 
 39 H       -9.7520     5.1130     0.5010 H     1 <1>   0.4500 
 40 H      -12.1970    -2.5940     0.3470 H     1 <1>   0.1500 
 41 H       -3.0000    -2.1600     1.0980 H     1 <1>   0.1500 
@<TRIPOS>BOND
  1   1   2  1   
  2   1   3  1   
  3   1   4  1   
  4   1  20  1   
  5   2   5  1   
  6   2   6  1   
  7   2  21  1   
  8   3   7  1   
  9   3  22  1   
 10   3  23  1   
 11   4   7  1   
 12   4  24  1   
 13   4  25  1   
 14   5   8  ar  
 15   5   9  ar  
 16   6  10  ar  
 17   6  11  ar  
 18   7  12  1   
 19   7  26  1   
 20   8  13  ar  
 21   8  27  1   
 22   9  14  ar  
 23   9  28  1   
 24  10  15  ar  
 25  10  29  1   
 26  11  16  ar  
 27  11  30  1   
 28  12  17  1   
 29  12  31  1   
 30  12  32  1   
 31  13  18  ar  
 32  13  33  1   
 33  14  18  ar  
 34  14  34  1   
 35  15  19  ar  
 36  15  35  1   
 37  16  19  ar  
 38  16  36  1   
 39  17  37  1   
 40  17  38  1   
 41  17  39  1   
 42  18  40  1   
 43  19  41  1   
@<TRIPOS>SUBSTRUCTURE
  1 ****   2 GROUP 4 **** **** 0

# MOE 2024.06 (io_trps.svl 2023.06)
