@<TRIPOS>MOLECULE
NONAME
43 45 1 0 0 
SMALL
USER_CHARGES


@<TRIPOS>ATOM
  1 F       -0.6630    -1.0110    -0.3570 F     1 <1>  -0.1900 
  2 C        0.5050    -1.3910     0.0990 C.ar  1 <1>   0.1900 
  3 C        1.0230    -0.7830     1.2320 C.ar  1 <1>   0.1900 
  4 C        1.2020    -2.3990    -0.5540 C.ar  1 <1>  -0.1440 
  5 F        0.3520     0.1620     1.8390 F     1 <1>  -0.1900 
  6 C        2.2490    -1.1610     1.7450 C.ar  1 <1>  -0.1500 
  7 C        2.4350    -2.7780    -0.0330 C.ar  1 <1>  -0.1500 
  8 C        0.6660    -3.0980    -1.8030 C.3   1 <1>   0.0450 
  9 C        2.9540    -2.1680     1.1020 C.ar  1 <1>  -0.1500 
 10 C        0.4650    -4.5890    -1.5820 C.2   1 <1>   0.5690 
 11 O        1.2530    -5.3460    -2.1010 O.2   1 <1>  -0.5700 
 12 N       -0.5750    -5.0520    -0.8240 N.am  1 <1>  -0.6600 
 13 C       -1.5870    -4.2340    -0.1080 C.3   1 <1>   0.1400 
 14 C       -0.7680    -6.4940    -0.5330 C.3   1 <1>   0.1400 
 15 C       -2.5640    -5.2510     0.4820 C.3   1 <1>   0.2000 
 16 C       -1.7580    -6.5380     0.6300 C.3   1 <1>  -0.0800 
 17 O       -3.0490    -4.8410     1.7130 O.3   1 <1>  -0.6800 
 18 C       -2.6300    -7.8030     0.6510 C.3   1 <1>   0.0210 
 19 C       -1.7720    -9.0530     0.6780 C.2   1 <1>   0.1080 
 20 N       -0.9190    -9.3000     1.6230 N.2   1 <1>  -0.7070 
 21 C       -1.7870   -10.0510    -0.2910 C.2   1 <1>  -0.1500 
 22 N       -0.3610   -10.4760     1.2790 N.pl3 1 <1>   0.3000 
 23 C       -0.8700   -10.9500     0.1220 C.2   1 <1>  -0.3320 
 24 C       -0.4400   -12.2530    -0.5280 C.3   1 <1>  -0.0600 
 25 H        2.6390    -0.6810     2.6250 H     1 <1>   0.1500 
 26 H        3.0000    -3.5610    -0.5140 H     1 <1>   0.1500 
 27 H        1.3730    -2.9650    -2.6010 H     1 <1>   0.0800 
 28 H       -0.2620    -2.6700    -2.1320 H     1 <1>   0.0800 
 29 H        3.9110    -2.4810     1.4850 H     1 <1>   0.1500 
 30 H       -1.1030    -3.6780     0.6760 H     1 <1>   0.0800 
 31 H       -2.0920    -3.5680    -0.7860 H     1 <1>   0.0800 
 32 H       -1.1720    -6.9750    -1.4070 H     1 <1>   0.0800 
 33 H        0.1660    -6.9640    -0.2700 H     1 <1>   0.0800 
 34 H       -3.3980    -5.3820    -0.1860 H     1 <1>   0.0800 
 35 H       -1.1780    -6.4980     1.5360 H     1 <1>   0.0800 
 36 H       -2.3340    -4.8490     2.3780 H     1 <1>   0.4000 
 37 H       -3.2670    -7.8280    -0.2140 H     1 <1>   0.0800 
 38 H       -3.2530    -7.7940     1.5270 H     1 <1>   0.0800 
 39 H       -2.4050   -10.0750    -1.1700 H     1 <1>   0.1500 
 40 H        0.3630   -10.9250     1.8520 H     1 <1>   0.2700 
 41 H       -0.9900   -12.4100    -1.4390 H     1 <1>   0.0800 
 42 H       -0.6300   -13.0790     0.1340 H     1 <1>   0.0800 
 43 H        0.6090   -12.2230    -0.7620 H     1 <1>   0.0800 
@<TRIPOS>BOND
  1   1   2  1   
  2   2   3  ar  
  3   2   4  ar  
  4   3   5  1   
  5   3   6  ar  
  6   4   7  ar  
  7   4   8  1   
  8   6   9  ar  
  9   6  25  1   
 10   7   9  ar  
 11   7  26  1   
 12   8  10  1   
 13   8  27  1   
 14   8  28  1   
 15   9  29  1   
 16  10  11  2   
 17  10  12  am  
 18  12  13  1   
 19  12  14  1   
 20  13  15  1   
 21  13  30  1   
 22  13  31  1   
 23  14  16  1   
 24  14  32  1   
 25  14  33  1   
 26  15  16  1   
 27  15  17  1   
 28  15  34  1   
 29  16  18  1   
 30  16  35  1   
 31  17  36  1   
 32  18  19  1   
 33  18  37  1   
 34  18  38  1   
 35  19  20  2   
 36  19  21  1   
 37  20  22  1   
 38  21  23  2   
 39  21  39  1   
 40  22  23  1   
 41  22  40  1   
 42  23  24  1   
 43  24  41  1   
 44  24  42  1   
 45  24  43  1   
@<TRIPOS>SUBSTRUCTURE
  1 ****  12 GROUP 4 **** **** 0

# MOE 2024.06 (io_trps.svl 2023.06)
