@<TRIPOS>MOLECULE
NONAME
47 48 1 0 0 
SMALL
USER_CHARGES


@<TRIPOS>ATOM
  1 F       -1.2840    -1.0960    -1.7350 F     1 <1>  -0.1900 
  2 C       -2.0440    -1.4600    -0.7330 C.ar  1 <1>   0.1900 
  3 C       -2.6140    -0.5100     0.0970 C.ar  1 <1>   0.1900 
  4 C       -2.2660    -2.8090    -0.5250 C.ar  1 <1>  -0.1500 
  5 F       -2.4020     0.7650    -0.1080 F     1 <1>  -0.1900 
  6 C       -3.4190    -0.8910     1.1540 C.ar  1 <1>  -0.1500 
  7 C       -3.0780    -3.2020     0.5330 C.ar  1 <1>  -0.1440 
  8 C       -3.6460    -2.2430     1.3670 C.ar  1 <1>  -0.1500 
  9 C       -3.3500    -4.6780     0.7760 C.3   1 <1>  -0.0160 
 10 C       -4.5780    -5.1210    -0.0310 C.3   1 <1>  -0.0990 
 11 C       -4.9080    -6.5920     0.1680 C.2   1 <1>   0.5690 
 12 O       -4.8370    -7.0450     1.2830 O.2   1 <1>  -0.5700 
 13 N       -5.3370    -7.3650    -0.8760 N.am  1 <1>  -0.6600 
 14 C       -5.1120    -8.8390    -0.8240 C.3   1 <1>   0.3200 
 15 C       -6.1250    -6.8260    -2.0340 C.3   1 <1>   0.1400 
 16 C       -6.4440    -9.5150    -0.5820 C.2   1 <1>  -0.3320 
 17 C       -7.4220    -6.1120    -1.5830 C.3   1 <1>   0.3430 
 18 N       -7.1420   -10.2150    -1.4990 N.pl3 1 <1>   0.0330 
 19 C       -7.1640    -9.5510     0.5600 C.2   1 <1>   0.0770 
 20 N       -8.1540    -6.9010    -0.5420 N.4   1 <1>  -0.9590 
 21 C       -8.2730   -10.5860    -0.8640 C.2   1 <1>   0.0360 
 22 N       -8.3360   -10.1790     0.3630 N.2   1 <1>  -0.5650 
 23 C       -9.5130    -7.3440    -0.9700 C.3   1 <1>   0.2630 
 24 C       -8.2180    -6.2150     0.7840 C.3   1 <1>   0.2630 
 25 H       -1.8080    -3.5270    -1.1810 H     1 <1>   0.1500 
 26 H       -3.8540    -0.1440     1.7950 H     1 <1>   0.1500 
 27 H       -4.2690    -2.5460     2.1920 H     1 <1>   0.1500 
 28 H       -3.5160    -4.8470     1.8270 H     1 <1>   0.0800 
 29 H       -2.4920    -5.2610     0.4870 H     1 <1>   0.0800 
 30 H       -4.3810    -4.9260    -1.0680 H     1 <1>   0.0800 
 31 H       -5.4230    -4.5330     0.2730 H     1 <1>   0.0800 
 32 H       -4.4340    -9.0860    -0.0220 H     1 <1>   0.0800 
 33 H       -4.6670    -9.1770    -1.7450 H     1 <1>   0.0800 
 34 H       -6.3900    -7.6330    -2.6950 H     1 <1>   0.0800 
 35 H       -5.5160    -6.1440    -2.6020 H     1 <1>   0.0800 
 36 H       -8.0550    -5.9530    -2.4410 H     1 <1>   0.0800 
 37 H       -7.1670    -5.1430    -1.1870 H     1 <1>   0.0800 
 38 H       -6.8730   -10.4650    -2.4580 H     1 <1>   0.2700 
 39 H       -6.8980    -9.1360     1.5220 H     1 <1>   0.1500 
 40 H       -7.5930    -7.7660    -0.3850 H     1 <1>   0.4500 
 41 H       -9.0380   -11.1720    -1.3470 H     1 <1>   0.1500 
 42 H      -10.1650    -6.4960    -1.1010 H     1 <1>   0.0800 
 43 H       -9.9370    -7.9990    -0.2240 H     1 <1>   0.0800 
 44 H       -9.4540    -7.8880    -1.8990 H     1 <1>   0.0800 
 45 H       -8.7670    -5.2910     0.7050 H     1 <1>   0.0800 
 46 H       -7.2250    -6.0040     1.1460 H     1 <1>   0.0800 
 47 H       -8.7090    -6.8500     1.5040 H     1 <1>   0.0800 
@<TRIPOS>BOND
  1   1   2  1   
  2   2   3  ar  
  3   2   4  ar  
  4   3   5  1   
  5   3   6  ar  
  6   4   7  ar  
  7   4  25  1   
  8   6   8  ar  
  9   6  26  1   
 10   7   8  ar  
 11   7   9  1   
 12   8  27  1   
 13   9  10  1   
 14   9  28  1   
 15   9  29  1   
 16  10  11  1   
 17  10  30  1   
 18  10  31  1   
 19  11  12  2   
 20  11  13  am  
 21  13  14  1   
 22  13  15  1   
 23  14  16  1   
 24  14  32  1   
 25  14  33  1   
 26  15  17  1   
 27  15  34  1   
 28  15  35  1   
 29  16  18  1   
 30  16  19  2   
 31  17  20  1   
 32  17  36  1   
 33  17  37  1   
 34  18  21  1   
 35  18  38  1   
 36  19  22  1   
 37  19  39  1   
 38  20  23  1   
 39  20  24  1   
 40  20  40  1   
 41  21  22  2   
 42  21  41  1   
 43  23  42  1   
 44  23  43  1   
 45  23  44  1   
 46  24  45  1   
 47  24  46  1   
 48  24  47  1   
@<TRIPOS>SUBSTRUCTURE
  1 ****  10 GROUP 4 **** **** 0

# MOE 2024.06 (io_trps.svl 2023.06)
