@<TRIPOS>MOLECULE
NONAME
52 55 1 0 0 
SMALL
USER_CHARGES


@<TRIPOS>ATOM
  1 F        0.9160    -0.2150    -0.9030 F     1 <1>  -0.1900 
  2 C        1.6970     0.7320    -0.4230 C.ar  1 <1>   0.1900 
  3 C        2.9450     0.4430     0.1260 C.ar  1 <1>   0.4100 
  4 C        1.2640     2.0280    -0.4560 C.ar  1 <1>   0.1600 
  5 N        3.6820     1.4240     0.6150 N.ar  1 <1>  -0.6200 
  6 N        3.4810    -0.8380     0.1980 N.pl3 1 <1>  -0.8380 
  7 N        2.0010     3.0120     0.0210 N.ar  1 <1>  -0.6200 
  8 C        3.1680     2.6390     0.5370 C.ar  1 <1>   0.7200 
  9 C        3.6710    -1.6370    -1.0490 C.3   1 <1>   0.2090 
 10 C        4.5110    -1.1580     1.2330 C.3   1 <1>   0.2090 
 11 N        3.9610     3.5980     1.0550 N.pl3 1 <1>  -0.8690 
 12 C        3.8280    -3.1320    -0.7200 C.3   1 <1>   0.1200 
 13 C        4.6330    -2.6790     1.4360 C.3   1 <1>   0.1200 
 14 C        4.1420     4.8890     0.3780 C.3   1 <1>   0.4330 
 15 O        4.8520    -3.3360     0.2160 O.3   1 <1>  -0.5600 
 16 C        5.5970     5.0460    -0.0320 C.ar  1 <1>  -0.1430 
 17 C        3.7230     5.9850     1.3480 C.3   1 <1>  -0.1600 
 18 C        6.2420     6.2640     0.1660 C.ar  1 <1>   0.0830 
 19 C        6.3000     4.0020    -0.6200 C.ar  1 <1>  -0.1500 
 20 C        4.2100     7.3610     0.8760 C.3   1 <1>   0.2800 
 21 O        5.6120     7.3340     0.7130 O.3   1 <1>  -0.3630 
 22 C        7.5690     6.4190    -0.1960 C.ar  1 <1>  -0.1500 
 23 C        7.6260     4.1650    -0.9850 C.ar  1 <1>  -0.1500 
 24 C        3.5890     7.7950    -0.4590 C.3   1 <1>  -0.2400 
 25 C        3.9210     8.4160     1.9450 C.3   1 <1>  -0.2400 
 26 C        8.2690     5.3720    -0.7710 C.ar  1 <1>  -0.1430 
 27 C        9.7230     5.5430    -1.1710 C.3   1 <1>  -0.0970 
 28 H        0.3030     2.2630    -0.8760 H     1 <1>   0.1500 
 29 H        4.5550    -1.2950    -1.5580 H     1 <1>   0.0800 
 30 H        2.8350    -1.5070    -1.7120 H     1 <1>   0.0800 
 31 H        4.2410    -0.6940     2.1660 H     1 <1>   0.0800 
 32 H        5.4630    -0.7610     0.9260 H     1 <1>   0.0800 
 33 H        4.8520     3.2110     1.3580 H     1 <1>   0.4000 
 34 H        4.0820    -3.6830    -1.6070 H     1 <1>   0.0800 
 35 H        2.9110    -3.5250    -0.3170 H     1 <1>   0.0800 
 36 H        3.7330    -3.0690     1.8790 H     1 <1>   0.0800 
 37 H        5.4620    -2.9010     2.0830 H     1 <1>   0.0800 
 38 H        3.5320     4.9390    -0.5080 H     1 <1>   0.0800 
 39 H        4.1480     5.7840     2.3150 H     1 <1>   0.0800 
 40 H        2.6530     5.9820     1.4420 H     1 <1>   0.0800 
 41 H        5.8200     3.0550    -0.8000 H     1 <1>   0.1500 
 42 H        8.0420     7.3690    -0.0250 H     1 <1>   0.1500 
 43 H        8.1550     3.3440    -1.4370 H     1 <1>   0.1500 
 44 H        3.8630     7.1270    -1.2540 H     1 <1>   0.0800 
 45 H        3.9250     8.7840    -0.7160 H     1 <1>   0.0800 
 46 H        2.5170     7.8120    -0.3800 H     1 <1>   0.0800 
 47 H        4.3940     8.1460     2.8720 H     1 <1>   0.0800 
 48 H        2.8620     8.4970     2.1130 H     1 <1>   0.0800 
 49 H        4.2910     9.3760     1.6320 H     1 <1>   0.0800 
 50 H       10.1710     6.3570    -0.6300 H     1 <1>   0.0800 
 51 H        9.7880     5.7490    -2.2240 H     1 <1>   0.0800 
 52 H       10.2760     4.6470    -0.9560 H     1 <1>   0.0800 
@<TRIPOS>BOND
  1   1   2  1   
  2   2   3  ar  
  3   2   4  ar  
  4   3   5  ar  
  5   3   6  1   
  6   4   7  ar  
  7   4  28  1   
  8   5   8  ar  
  9   6   9  1   
 10   6  10  1   
 11   7   8  ar  
 12   8  11  1   
 13   9  12  1   
 14   9  29  1   
 15   9  30  1   
 16  10  13  1   
 17  10  31  1   
 18  10  32  1   
 19  11  14  1   
 20  11  33  1   
 21  12  15  1   
 22  12  34  1   
 23  12  35  1   
 24  13  15  1   
 25  13  36  1   
 26  13  37  1   
 27  14  16  1   
 28  14  17  1   
 29  14  38  1   
 30  16  18  ar  
 31  16  19  ar  
 32  17  20  1   
 33  17  39  1   
 34  17  40  1   
 35  18  21  1   
 36  18  22  ar  
 37  19  23  ar  
 38  19  41  1   
 39  20  21  1   
 40  20  24  1   
 41  20  25  1   
 42  22  26  ar  
 43  22  42  1   
 44  23  26  ar  
 45  23  43  1   
 46  24  44  1   
 47  24  45  1   
 48  24  46  1   
 49  25  47  1   
 50  25  48  1   
 51  25  49  1   
 52  26  27  1   
 53  27  50  1   
 54  27  51  1   
 55  27  52  1   
@<TRIPOS>SUBSTRUCTURE
  1 ****  11 GROUP 4 **** **** 0

# MOE 2024.06 (io_trps.svl 2023.06)
