@<TRIPOS>MOLECULE
NONAME
43 45 1 0 0 
SMALL
USER_CHARGES


@<TRIPOS>ATOM
  1 S        0.6050     0.2370    -2.2940 S.3   1 <1>  -0.0800 
  2 C        0.1810    -1.0480    -1.1870 C.2   1 <1>   0.1980 
  3 C        1.2440     1.1390    -0.9510 C.2   1 <1>  -0.1100 
  4 N        0.4830    -0.8200     0.0310 N.2   1 <1>  -0.5650 
  5 C       -0.4870    -2.2850    -1.7720 C.3   1 <1>   0.5230 
  6 C        1.0870     0.4190     0.1710 C.2   1 <1>   0.0460 
  7 N       -0.9930    -3.1610    -0.6680 N.4   1 <1>  -0.9590 
  8 C        1.5070     0.8320     1.5650 C.3   1 <1>  -0.0590 
  9 C       -1.1650    -4.5780    -1.0890 C.3   1 <1>   0.3430 
 10 C       -2.2150    -2.5830    -0.0350 C.3   1 <1>   0.3430 
 11 C       -1.5460    -5.4340     0.1120 C.3   1 <1>  -0.1600 
 12 C       -2.6100    -3.4180     1.1770 C.3   1 <1>  -0.1600 
 13 C       -2.8060    -4.8800     0.7870 C.3   1 <1>   0.2000 
 14 O       -3.0750    -5.5730     1.9630 O.3   1 <1>  -0.5600 
 15 C       -3.4850    -6.9170     1.8490 C.3   1 <1>   0.2630 
 16 C       -4.6860    -7.0900     0.9190 C.ar  1 <1>   0.1670 
 17 N       -4.4320    -7.4330    -0.3400 N.ar  1 <1>  -0.6200 
 18 C       -5.9620    -6.8820     1.4230 C.ar  1 <1>  -0.1500 
 19 C       -5.4960    -7.5940    -1.1140 C.ar  1 <1>   0.1600 
 20 C       -7.0560    -7.0420     0.6010 C.ar  1 <1>  -0.1500 
 21 C       -6.8050    -7.4120    -0.7020 C.ar  1 <1>  -0.1500 
 22 H        1.6680     2.1080    -1.1460 H     1 <1>   0.1500 
 23 H        0.2440    -2.8160    -2.3580 H     1 <1>   0.0800 
 24 H       -1.2970    -1.9900    -2.4170 H     1 <1>   0.0800 
 25 H       -0.2570    -3.1070     0.0570 H     1 <1>   0.4500 
 26 H        1.9630     1.8050     1.5480 H     1 <1>   0.0800 
 27 H        2.2140     0.1240     1.9570 H     1 <1>   0.0800 
 28 H        0.6490     0.8620     2.2110 H     1 <1>   0.0800 
 29 H       -0.2480    -4.9530    -1.5160 H     1 <1>   0.0800 
 30 H       -1.9410    -4.6480    -1.8350 H     1 <1>   0.0800 
 31 H       -3.0270    -2.5710    -0.7440 H     1 <1>   0.0800 
 32 H       -2.0220    -1.5680     0.2810 H     1 <1>   0.0800 
 33 H       -0.7310    -5.4620     0.8130 H     1 <1>   0.0800 
 34 H       -1.7290    -6.4330    -0.2410 H     1 <1>   0.0800 
 35 H       -3.5290    -3.0340     1.5820 H     1 <1>   0.0800 
 36 H       -1.8490    -3.3350     1.9330 H     1 <1>   0.0800 
 37 H       -3.6570    -4.9520     0.1290 H     1 <1>   0.0800 
 38 H       -3.7440    -7.2530     2.8370 H     1 <1>   0.0800 
 39 H       -2.6570    -7.5090     1.5060 H     1 <1>   0.0800 
 40 H       -6.0970    -6.5950     2.4510 H     1 <1>   0.1500 
 41 H       -5.3170    -7.8880    -2.1340 H     1 <1>   0.1500 
 42 H       -8.0590    -6.8890     0.9610 H     1 <1>   0.1500 
 43 H       -7.6150    -7.5610    -1.3930 H     1 <1>   0.1500 
@<TRIPOS>BOND
  1   1   2  1   
  2   1   3  1   
  3   2   4  2   
  4   2   5  1   
  5   3   6  2   
  6   3  22  1   
  7   4   6  1   
  8   5   7  1   
  9   5  23  1   
 10   5  24  1   
 11   6   8  1   
 12   7   9  1   
 13   7  10  1   
 14   7  25  1   
 15   8  26  1   
 16   8  27  1   
 17   8  28  1   
 18   9  11  1   
 19   9  29  1   
 20   9  30  1   
 21  10  12  1   
 22  10  31  1   
 23  10  32  1   
 24  11  13  1   
 25  11  33  1   
 26  11  34  1   
 27  12  13  1   
 28  12  35  1   
 29  12  36  1   
 30  13  14  1   
 31  13  37  1   
 32  14  15  1   
 33  15  16  1   
 34  15  38  1   
 35  15  39  1   
 36  16  17  ar  
 37  16  18  ar  
 38  17  19  ar  
 39  18  20  ar  
 40  18  40  1   
 41  19  21  ar  
 42  19  41  1   
 43  20  21  ar  
 44  20  42  1   
 45  21  43  1   
@<TRIPOS>SUBSTRUCTURE
  1 ****  12 GROUP 4 **** **** 0

# MOE 2024.06 (io_trps.svl 2023.06)
