@<TRIPOS>MOLECULE
NONAME
25 26 1 0 0 
SMALL
USER_CHARGES


@<TRIPOS>ATOM
  1 O       -2.0500     3.1260     0.5490 O.2   1 <1>  -0.5700 
  2 C       -3.0760     2.4820     0.5560 C.2   1 <1>   0.5690 
  3 N       -4.2980     3.0940     0.4920 N.am  1 <1>  -0.6600 
  4 C       -2.9950     0.9290     0.6010 C.3   1 <1>   0.2510 
  5 C       -5.5650     2.3410     0.4960 C.3   1 <1>   0.2200 
  6 C       -4.5070     4.5140     0.1580 C.3   1 <1>   0.1400 
  7 N       -4.2950     0.2150     0.7230 N.3   1 <1>  -0.9000 
  8 C       -2.2890     0.3690    -0.6370 C.3   1 <1>  -0.2400 
  9 C       -5.3770     0.8960    -0.0110 C.3   1 <1>   0.1100 
 10 C       -6.4890     3.2020    -0.3590 C.3   1 <1>  -0.1600 
 11 C       -6.0090     4.6330    -0.1010 C.3   1 <1>  -0.1600 
 12 H       -2.4020     0.6750     1.4620 H     1 <1>   0.0800 
 13 H       -5.9360     2.3140     1.5070 H     1 <1>   0.0800 
 14 H       -4.1900     5.1430     0.9730 H     1 <1>   0.0800 
 15 H       -3.9420     4.7560    -0.7260 H     1 <1>   0.0800 
 16 H       -4.1710    -0.7360     0.3590 H     1 <1>   0.3600 
 17 H       -2.8290     0.6240    -1.5300 H     1 <1>   0.0800 
 18 H       -2.1860    -0.6980    -0.5640 H     1 <1>   0.0800 
 19 H       -1.3050     0.7970    -0.7090 H     1 <1>   0.0800 
 20 H       -5.1520     0.9100    -1.0640 H     1 <1>   0.0800 
 21 H       -6.2950     0.3520     0.1270 H     1 <1>   0.0800 
 22 H       -6.3530     2.9590    -1.3990 H     1 <1>   0.0800 
 23 H       -7.5220     3.0620    -0.0960 H     1 <1>   0.0800 
 24 H       -6.4830     5.0230     0.7830 H     1 <1>   0.0800 
 25 H       -6.2190     5.2900    -0.9260 H     1 <1>   0.0800 
@<TRIPOS>BOND
  1   1   2  2   
  2   2   3  am  
  3   2   4  1   
  4   3   5  1   
  5   3   6  1   
  6   4   7  1   
  7   4   8  1   
  8   4  12  1   
  9   5   9  1   
 10   5  10  1   
 11   5  13  1   
 12   6  11  1   
 13   6  14  1   
 14   6  15  1   
 15   7   9  1   
 16   7  16  1   
 17   8  17  1   
 18   8  18  1   
 19   8  19  1   
 20   9  20  1   
 21   9  21  1   
 22  10  11  1   
 23  10  22  1   
 24  10  23  1   
 25  11  24  1   
 26  11  25  1   
@<TRIPOS>SUBSTRUCTURE
  1 ****   3 GROUP 4 **** **** 0

# MOE 2024.06 (io_trps.svl 2023.06)
