@<TRIPOS>MOLECULE
NONAME
42 43 1 0 0 
SMALL
USER_CHARGES


@<TRIPOS>ATOM
  1 S       -1.4340    -0.5430    -0.5500 S.3   1 <1>  -0.4600 
  2 C       -0.7500    -1.9030     0.4680 C.3   1 <1>   0.1310 
  3 C       -0.5450     0.9170     0.0510 C.3   1 <1>  -0.0100 
  4 C       -1.3300    -3.2610     0.0820 C.2   1 <1>   0.5690 
  5 O       -0.5860    -4.0240    -0.4920 O.2   1 <1>  -0.5700 
  6 N       -2.6180    -3.6120     0.4110 N.am  1 <1>  -0.6600 
  7 C       -3.1940    -4.9410     0.0320 C.3   1 <1>   0.1400 
  8 C       -3.6040    -2.7240     1.0940 C.3   1 <1>   0.1400 
  9 C       -4.4090    -4.7330    -0.8840 C.3   1 <1>   0.2000 
 10 C       -4.8300    -2.5200     0.1940 C.3   1 <1>  -0.1600 
 11 O       -4.9300    -5.9670    -1.2410 O.3   1 <1>  -0.6800 
 12 C       -5.5050    -3.8610    -0.2180 C.3   1 <1>  -0.1060 
 13 C       -6.0760    -4.6160     1.0000 C.2   1 <1>   0.9060 
 14 C       -6.6410    -3.6030    -1.2450 C.3   1 <1>  -0.0170 
 15 O       -6.4250    -5.7980     0.8530 O.co2 1 <1>  -0.9000 
 16 O       -6.1700    -4.0650     2.1030 O.co2 1 <1>  -0.9000 
 17 C       -7.5780    -2.4470    -0.9000 C.ar  1 <1>  -0.1440 
 18 C       -8.4670    -2.5520     0.1590 C.ar  1 <1>  -0.1500 
 19 C       -7.5500    -1.2760    -1.6440 C.ar  1 <1>  -0.1500 
 20 C       -9.3150    -1.5040     0.4700 C.ar  1 <1>  -0.1500 
 21 C       -8.3990    -0.2270    -1.3360 C.ar  1 <1>  -0.1500 
 22 C       -9.2830    -0.3400    -0.2780 C.ar  1 <1>  -0.1500 
 23 H        0.3120    -1.9050     0.3110 H     1 <1>   0.0800 
 24 H       -0.9610    -1.6800     1.4970 H     1 <1>   0.0800 
 25 H       -0.8960     1.7650    -0.5090 H     1 <1>   0.0800 
 26 H        0.5060     0.7590    -0.1140 H     1 <1>   0.0800 
 27 H       -0.7620     1.0320     1.0970 H     1 <1>   0.0800 
 28 H       -2.4630    -5.5360    -0.4850 H     1 <1>   0.0800 
 29 H       -3.4940    -5.4620     0.9250 H     1 <1>   0.0800 
 30 H       -3.9000    -3.1800     2.0240 H     1 <1>   0.0800 
 31 H       -3.1790    -1.7660     1.3250 H     1 <1>   0.0800 
 32 H       -4.0640    -4.2680    -1.7910 H     1 <1>   0.0800 
 33 H       -5.5370    -1.9120     0.7320 H     1 <1>   0.0800 
 34 H       -4.5300    -1.9710    -0.6800 H     1 <1>   0.0800 
 35 H       -5.5620    -6.2160    -0.4970 H     1 <1>   0.4000 
 36 H       -6.2010    -3.4070    -2.2060 H     1 <1>   0.0800 
 37 H       -7.2290    -4.4980    -1.3550 H     1 <1>   0.0800 
 38 H       -8.4940    -3.4520     0.7530 H     1 <1>   0.1500 
 39 H       -6.8630    -1.1780    -2.4660 H     1 <1>   0.1500 
 40 H       -9.9930    -1.6010     1.2990 H     1 <1>   0.1500 
 41 H       -8.3700     0.6760    -1.9190 H     1 <1>   0.1500 
 42 H       -9.9410     0.4740    -0.0330 H     1 <1>   0.1500 
@<TRIPOS>BOND
  1   1   2  1   
  2   1   3  1   
  3   2   4  1   
  4   2  23  1   
  5   2  24  1   
  6   3  25  1   
  7   3  26  1   
  8   3  27  1   
  9   4   5  2   
 10   4   6  am  
 11   6   7  1   
 12   6   8  1   
 13   7   9  1   
 14   7  28  1   
 15   7  29  1   
 16   8  10  1   
 17   8  30  1   
 18   8  31  1   
 19   9  11  1   
 20   9  12  1   
 21   9  32  1   
 22  10  12  1   
 23  10  33  1   
 24  10  34  1   
 25  11  35  1   
 26  12  13  1   
 27  12  14  1   
 28  13  15  ar  
 29  13  16  ar  
 30  14  17  1   
 31  14  36  1   
 32  14  37  1   
 33  17  18  ar  
 34  17  19  ar  
 35  18  20  ar  
 36  18  38  1   
 37  19  21  ar  
 38  19  39  1   
 39  20  22  ar  
 40  20  40  1   
 41  21  22  ar  
 42  21  41  1   
 43  22  42  1   
@<TRIPOS>SUBSTRUCTURE
  1 ****  10 GROUP 4 **** **** 0

# MOE 2024.06 (io_trps.svl 2023.06)
