@<TRIPOS>MOLECULE
NONAME
34 35 1 0 0 
SMALL
USER_CHARGES


@<TRIPOS>ATOM
  1 O        0.6670    -0.1710     1.1690 O.co2 1 <1>  -0.9000 
  2 C        1.4890    -0.3420     0.2660 C.2   1 <1>   0.9060 
  3 O        1.2790    -1.0950    -0.6950 O.co2 1 <1>  -0.9000 
  4 C        2.8180     0.3830     0.3400 C.3   1 <1>  -0.1860 
  5 C        3.9860    -0.6070     0.2100 C.3   1 <1>   0.2000 
  6 C        2.9270     1.5470    -0.6820 C.3   1 <1>  -0.1600 
  7 O        3.8900    -1.2200    -1.0320 O.3   1 <1>  -0.6800 
  8 C        5.3550     0.1050     0.3530 C.3   1 <1>   0.2090 
  9 C        4.3670     1.8330    -1.1380 C.3   1 <1>   0.2090 
 10 N        5.3100     1.5600    -0.0260 N.pl3 1 <1>  -0.8380 
 11 C        6.4590     2.3330     0.0690 C.ar  1 <1>   0.4100 
 12 N        7.5830     1.7490    -0.3290 N.ar  1 <1>  -0.6200 
 13 C        6.4270     3.6660     0.5470 C.ar  1 <1>   0.1670 
 14 C        8.6350     2.5390    -0.2520 C.ar  1 <1>   0.1670 
 15 N        7.4830     4.4570     0.6160 N.ar  1 <1>  -0.6200 
 16 C        5.1280     4.2850     1.0350 C.3   1 <1>  -0.0970 
 17 C        8.5840     3.8510     0.2020 C.ar  1 <1>   0.1600 
 18 C        9.9460     1.9280    -0.7000 C.3   1 <1>  -0.0970 
 19 H        2.8820     0.8090     1.3240 H     1 <1>   0.0800 
 20 H        3.8970    -1.3850     0.9490 H     1 <1>   0.0800 
 21 H        2.5010     2.4330    -0.2480 H     1 <1>   0.0800 
 22 H        2.3470     1.3090    -1.5560 H     1 <1>   0.0800 
 23 H        2.9080    -1.3690    -1.1770 H     1 <1>   0.4000 
 24 H        6.0890    -0.4110    -0.2400 H     1 <1>   0.0800 
 25 H        5.6600     0.0490     1.3820 H     1 <1>   0.0800 
 26 H        4.4600     2.8500    -1.4760 H     1 <1>   0.0800 
 27 H        4.6170     1.1840    -1.9610 H     1 <1>   0.0800 
 28 H        4.4770     3.5360     1.4460 H     1 <1>   0.0800 
 29 H        4.6320     4.7720     0.2160 H     1 <1>   0.0800 
 30 H        5.3300     5.0110     1.8010 H     1 <1>   0.0800 
 31 H        9.4890     4.4300     0.2280 H     1 <1>   0.1500 
 32 H       10.7530     2.6310    -0.6160 H     1 <1>   0.0800 
 33 H        9.8620     1.6140    -1.7250 H     1 <1>   0.0800 
 34 H       10.1660     1.0690    -0.0940 H     1 <1>   0.0800 
@<TRIPOS>BOND
  1   1   2  ar  
  2   2   3  ar  
  3   2   4  1   
  4   4   5  1   
  5   4   6  1   
  6   4  19  1   
  7   5   7  1   
  8   5   8  1   
  9   5  20  1   
 10   6   9  1   
 11   6  21  1   
 12   6  22  1   
 13   7  23  1   
 14   8  10  1   
 15   8  24  1   
 16   8  25  1   
 17   9  10  1   
 18   9  26  1   
 19   9  27  1   
 20  10  11  1   
 21  11  12  ar  
 22  11  13  ar  
 23  12  14  ar  
 24  13  15  ar  
 25  13  16  1   
 26  14  17  ar  
 27  14  18  1   
 28  15  17  ar  
 29  16  28  1   
 30  16  29  1   
 31  16  30  1   
 32  17  31  1   
 33  18  32  1   
 34  18  33  1   
 35  18  34  1   
@<TRIPOS>SUBSTRUCTURE
  1 ****  10 GROUP 4 **** **** 0

# MOE 2024.06 (io_trps.svl 2023.06)
