@<TRIPOS>MOLECULE
Untitled Document
46 48 1 0 0 
SMALL
USER_CHARGES


@<TRIPOS>ATOM
  1 F       -1.3640     0.8520    -1.9250 F     1 <1>  -0.1900 
  2 C       -1.1050     2.0280    -1.4250 C.ar  1 <1>   0.1900 
  3 C        0.2000     2.3520    -1.1140 C.ar  1 <1>  -0.1500 
  4 C       -2.1460     2.9130    -1.2210 C.ar  1 <1>  -0.1500 
  5 C        0.4650     3.6030    -0.5860 C.ar  1 <1>  -0.1500 
  6 C       -1.8640     4.1600    -0.6920 C.ar  1 <1>  -0.1500 
  7 C       -0.5540     4.5370    -0.3690 C.ar  1 <1>   0.0860 
  8 C       -0.2510     5.8490     0.1770 C.2   1 <1>   0.5440 
  9 O        0.7060     6.0240     0.9040 O.2   1 <1>  -0.5700 
 10 N       -1.0190     6.9300    -0.1330 N.am  1 <1>  -0.7300 
 11 C       -0.9670     8.2580     0.5300 C.3   1 <1>   0.3640 
 12 C       -2.3020     8.9540     0.3030 C.ar  1 <1>  -0.1430 
 13 C        0.2070     9.0960    -0.0150 C.3   1 <1>   0.2000 
 14 C       -2.3370    10.2990    -0.0500 C.ar  1 <1>   0.0830 
 15 C       -3.4990     8.2680     0.4450 C.ar  1 <1>  -0.1500 
 16 O        1.4190     8.6060     0.4860 O.3   1 <1>  -0.6800 
 17 C        0.0350    10.6010     0.3140 C.3   1 <1>   0.2800 
 18 O       -1.2180    11.0430    -0.1760 O.3   1 <1>  -0.3630 
 19 C       -3.5520    10.9190    -0.2830 C.ar  1 <1>  -0.1500 
 20 C       -4.7410     8.8650     0.2120 C.ar  1 <1>   0.0860 
 21 C        1.0880    11.4480    -0.4090 C.3   1 <1>  -0.2400 
 22 C        0.0690    10.9160     1.8200 C.3   1 <1>  -0.2400 
 23 C       -4.7340    10.2140    -0.1570 C.ar  1 <1>  -0.1500 
 24 C       -5.9530     8.0830     0.3450 C.2   1 <1>   0.4230 
 25 O       -5.9470     6.8830     0.4510 O.2   1 <1>  -0.5700 
 26 C       -7.3090     8.7610     0.3540 C.3   1 <1>  -0.1790 
 27 H        0.9870     1.6370    -1.2810 H     1 <1>   0.1500 
 28 H       -3.1530     2.6240    -1.4690 H     1 <1>   0.1500 
 29 H        1.4780     3.8700    -0.3340 H     1 <1>   0.1500 
 30 H       -2.6770     4.8440    -0.5200 H     1 <1>   0.1500 
 31 H       -1.7490     6.8500    -0.8410 H     1 <1>   0.3700 
 32 H       -0.8340     8.1220     1.5910 H     1 <1>   0.0800 
 33 H        0.2400     8.9880    -1.0840 H     1 <1>   0.0800 
 34 H       -3.4870     7.2340     0.7470 H     1 <1>   0.1500 
 35 H        1.3460     7.6220     0.6110 H     1 <1>   0.4000 
 36 H       -3.5600    11.9570    -0.5630 H     1 <1>   0.1500 
 37 H        2.0720    11.1870    -0.0620 H     1 <1>   0.0800 
 38 H        0.9270    12.4940    -0.2200 H     1 <1>   0.0800 
 39 H        1.0470    11.2700    -1.4680 H     1 <1>   0.0800 
 40 H        1.0170    10.6240     2.2330 H     1 <1>   0.0800 
 41 H       -0.7050    10.3900     2.3480 H     1 <1>   0.0800 
 42 H       -0.0580    11.9710     1.9810 H     1 <1>   0.0800 
 43 H       -5.6570    10.7280    -0.3530 H     1 <1>   0.1500 
 44 H       -7.3150     9.5700     1.0600 H     1 <1>   0.0800 
 45 H       -8.0680     8.0540     0.6400 H     1 <1>   0.0800 
 46 H       -7.5390     9.1320    -0.6270 H     1 <1>   0.0800 
@<TRIPOS>BOND
  1   1   2  1   
  2   2   3  ar  
  3   2   4  ar  
  4   3   5  ar  
  5   3  27  1   
  6   4   6  ar  
  7   4  28  1   
  8   5   7  ar  
  9   5  29  1   
 10   6   7  ar  
 11   6  30  1   
 12   7   8  1   
 13   8   9  2   
 14   8  10  am  
 15  10  11  1   
 16  10  31  1   
 17  11  12  1   
 18  11  13  1   
 19  11  32  1   
 20  12  14  ar  
 21  12  15  ar  
 22  13  16  1   
 23  13  17  1   
 24  13  33  1   
 25  14  18  1   
 26  14  19  ar  
 27  15  20  ar  
 28  15  34  1   
 29  16  35  1   
 30  17  18  1   
 31  17  21  1   
 32  17  22  1   
 33  19  23  ar  
 34  19  36  1   
 35  20  23  ar  
 36  20  24  1   
 37  21  37  1   
 38  21  38  1   
 39  21  39  1   
 40  22  40  1   
 41  22  41  1   
 42  22  42  1   
 43  23  43  1   
 44  24  25  2   
 45  24  26  1   
 46  26  44  1   
 47  26  45  1   
 48  26  46  1   
@<TRIPOS>SUBSTRUCTURE
  1 ****  10 GROUP 4 **** **** 0

# MOE 2024.06 (io_trps.svl 2023.06)
