@<TRIPOS>MOLECULE
NONAME
42 45 1 0 0 
SMALL
USER_CHARGES


@<TRIPOS>ATOM
  1 CL      -0.2180    -0.9400    -2.2630 Cl    1 <1>  -0.1770 
  2 C       -1.8400    -0.6700    -1.6800 C.ar  1 <1>   0.1770 
  3 C       -2.7110    -1.7340    -1.5760 C.ar  1 <1>  -0.1500 
  4 C       -2.2330     0.6050    -1.3290 C.ar  1 <1>  -0.1500 
  5 C       -3.9970    -1.5130    -1.1140 C.ar  1 <1>  -0.1500 
  6 C       -3.5220     0.8170    -0.8680 C.ar  1 <1>  -0.1500 
  7 C       -4.4290    -0.2370    -0.7530 C.ar  1 <1>  -0.1430 
  8 C       -5.8780    -0.0410    -0.2480 C.3   1 <1>   0.1430 
  9 C       -6.8730    -0.4600    -1.3550 C.3   1 <1>  -0.1600 
 10 C       -6.1280    -0.9170     1.0020 C.3   1 <1>  -0.1600 
 11 C       -6.1990     1.4250     0.1350 C.3   1 <1>  -0.1600 
 12 C       -8.3440    -0.3330    -0.8930 C.3   1 <1>   0.0000 
 13 C       -7.5840    -0.7870     1.4860 C.3   1 <1>  -0.0800 
 14 C       -7.6510     1.5760     0.6210 C.3   1 <1>  -0.0800 
 15 C       -8.5380    -1.2250     0.3600 C.3   1 <1>  -0.1600 
 16 C       -8.6070     1.1430    -0.5030 C.3   1 <1>  -0.1600 
 17 C       -9.2520    -0.7810    -2.0570 C.3   1 <1>   0.3430 
 18 C       -7.8660     0.6800     1.8520 C.3   1 <1>  -0.1600 
 19 N      -10.6940    -0.6910    -1.7070 N.4   1 <1>  -0.8530 
 20 H       -2.3840    -2.7200    -1.8530 H     1 <1>   0.1500 
 21 H       -1.5370     1.4190    -1.4170 H     1 <1>   0.1500 
 22 H       -4.6560    -2.3580    -1.0390 H     1 <1>   0.1500 
 23 H       -3.7850     1.8240    -0.6030 H     1 <1>   0.1500 
 24 H       -6.6800    -1.4770    -1.6430 H     1 <1>   0.0800 
 25 H       -6.6990     0.1560    -2.2200 H     1 <1>   0.0800 
 26 H       -5.4560    -0.6170     1.7870 H     1 <1>   0.0800 
 27 H       -5.9250    -1.9500     0.7890 H     1 <1>   0.0800 
 28 H       -6.0460     2.0690    -0.7140 H     1 <1>   0.0800 
 29 H       -5.5340     1.7480     0.9180 H     1 <1>   0.0800 
 30 H       -7.7300    -1.4090     2.3540 H     1 <1>   0.0800 
 31 H       -7.8370     2.6040     0.8850 H     1 <1>   0.0800 
 32 H       -8.3430    -2.2560     0.1180 H     1 <1>   0.0800 
 33 H       -9.5450    -1.1580     0.7310 H     1 <1>   0.0800 
 34 H       -9.6160     1.2790    -0.1550 H     1 <1>   0.0800 
 35 H       -8.4610     1.7860    -1.3540 H     1 <1>   0.0800 
 36 H       -9.0060    -1.7980    -2.3190 H     1 <1>   0.0800 
 37 H       -9.0480    -0.1610    -2.9160 H     1 <1>   0.0800 
 38 H       -7.2060     0.9890     2.6450 H     1 <1>   0.0800 
 39 H       -8.8730     0.7840     2.2140 H     1 <1>   0.0800 
 40 H      -10.9000    -1.2820    -0.8950 H     1 <1>   0.4500 
 41 H      -11.2890    -0.9910    -2.4880 H     1 <1>   0.4500 
 42 H      -10.9390     0.2750    -1.4640 H     1 <1>   0.4500 
@<TRIPOS>BOND
  1   1   2  1   
  2   2   3  ar  
  3   2   4  ar  
  4   3   5  ar  
  5   3  20  1   
  6   4   6  ar  
  7   4  21  1   
  8   5   7  ar  
  9   5  22  1   
 10   6   7  ar  
 11   6  23  1   
 12   7   8  1   
 13   8   9  1   
 14   8  10  1   
 15   8  11  1   
 16   9  12  1   
 17   9  24  1   
 18   9  25  1   
 19  10  13  1   
 20  10  26  1   
 21  10  27  1   
 22  11  14  1   
 23  11  28  1   
 24  11  29  1   
 25  12  15  1   
 26  12  16  1   
 27  12  17  1   
 28  13  15  1   
 29  13  18  1   
 30  13  30  1   
 31  14  16  1   
 32  14  18  1   
 33  14  31  1   
 34  15  32  1   
 35  15  33  1   
 36  16  34  1   
 37  16  35  1   
 38  17  19  1   
 39  17  36  1   
 40  17  37  1   
 41  18  38  1   
 42  18  39  1   
 43  19  40  1   
 44  19  41  1   
 45  19  42  1   
@<TRIPOS>SUBSTRUCTURE
  1 ****   8 GROUP 4 **** **** 0

# MOE 2024.06 (io_trps.svl 2023.06)
