@<TRIPOS>MOLECULE
NONAME
39 41 1 0 0 
SMALL
USER_CHARGES


@<TRIPOS>ATOM
  1 S       -0.4720     1.0370     0.8630 S.3   1 <1>  -0.0800 
  2 C       -0.9540     2.3280    -0.2290 C.2   1 <1>  -0.1400 
  3 C       -1.8840     0.0890     0.4350 C.2   1 <1>  -0.1100 
  4 C       -2.1080     2.0160    -0.8470 C.2   1 <1>  -0.1500 
  5 C       -0.0550     3.5470    -0.3120 C.3   1 <1>   0.0200 
  6 C       -2.6370     0.7400    -0.4700 C.2   1 <1>  -0.1500 
  7 C        1.2990     3.1800    -0.9260 C.3   1 <1>   0.2090 
  8 N        2.1550     4.3850    -1.0580 N.pl3 1 <1>  -0.8690 
  9 C        2.6770     5.0100     0.0440 C.ar  1 <1>   0.4100 
 10 N        2.4710     6.3090     0.0460 N.ar  1 <1>  -0.6200 
 11 C        3.3550     4.3360     1.0710 C.ar  1 <1>   0.1600 
 12 C        2.9600     6.9330     1.1330 C.ar  1 <1>   0.3960 
 13 N        3.8400     4.9120     2.1520 N.ar  1 <1>  -0.6200 
 14 C        2.8210     8.3800     1.3100 C.2   1 <1>   0.5440 
 15 C        3.6140     6.2200     2.1450 C.ar  1 <1>   0.1600 
 16 O        2.7150     8.8250     2.4420 O.2   1 <1>  -0.5700 
 17 N        2.8320     9.2970     0.2720 N.am  1 <1>  -0.6600 
 18 C        2.7890    10.7590     0.4950 C.3   1 <1>   0.1400 
 19 C        3.0790     8.9910    -1.1560 C.3   1 <1>   0.1400 
 20 C        3.3910    11.3600    -0.7680 C.3   1 <1>  -0.1600 
 21 C        3.0760    10.3440    -1.8620 C.3   1 <1>  -0.1600 
 22 H       -2.0020    -0.8670     0.9130 H     1 <1>   0.1500 
 23 H       -2.6240     2.6320    -1.5620 H     1 <1>   0.1500 
 24 H        0.0850     3.9460     0.6760 H     1 <1>   0.0800 
 25 H       -0.5320     4.2940    -0.9210 H     1 <1>   0.0800 
 26 H       -3.5560     0.3770    -0.8960 H     1 <1>   0.1500 
 27 H        1.1460     2.7490    -1.9010 H     1 <1>   0.0800 
 28 H        1.7930     2.4440    -0.3140 H     1 <1>   0.0800 
 29 H        1.7670     5.0770    -1.7070 H     1 <1>   0.4000 
 30 H        3.4930     3.2770     0.9710 H     1 <1>   0.1500 
 31 H        3.9720     6.7720     2.9970 H     1 <1>   0.1500 
 32 H        3.3490    11.0380     1.3730 H     1 <1>   0.0800 
 33 H        1.7630    11.0640     0.6110 H     1 <1>   0.0800 
 34 H        2.3070     8.3530    -1.5520 H     1 <1>   0.0800 
 35 H        4.0370     8.5110    -1.2580 H     1 <1>   0.0800 
 36 H        4.4560    11.4430    -0.6410 H     1 <1>   0.0800 
 37 H        2.9850    12.3330    -0.9800 H     1 <1>   0.0800 
 38 H        2.0920    10.5280    -2.2560 H     1 <1>   0.0800 
 39 H        3.7870    10.3750    -2.6680 H     1 <1>   0.0800 
@<TRIPOS>BOND
  1   1   2  1   
  2   1   3  1   
  3   2   4  2   
  4   2   5  1   
  5   3   6  2   
  6   3  22  1   
  7   4   6  1   
  8   4  23  1   
  9   5   7  1   
 10   5  24  1   
 11   5  25  1   
 12   6  26  1   
 13   7   8  1   
 14   7  27  1   
 15   7  28  1   
 16   8   9  1   
 17   8  29  1   
 18   9  10  ar  
 19   9  11  ar  
 20  10  12  ar  
 21  11  13  ar  
 22  11  30  1   
 23  12  14  1   
 24  12  15  ar  
 25  13  15  ar  
 26  14  16  2   
 27  14  17  am  
 28  15  31  1   
 29  17  18  1   
 30  17  19  1   
 31  18  20  1   
 32  18  32  1   
 33  18  33  1   
 34  19  21  1   
 35  19  34  1   
 36  19  35  1   
 37  20  21  1   
 38  20  36  1   
 39  20  37  1   
 40  21  38  1   
 41  21  39  1   
@<TRIPOS>SUBSTRUCTURE
  1 ****  10 GROUP 4 **** **** 0

# MOE 2024.06 (io_trps.svl 2023.06)
