@<TRIPOS>MOLECULE
NONAME
50 52 1 0 0 
SMALL
USER_CHARGES


@<TRIPOS>ATOM
  1 O       -2.0550     0.2490    -2.3480 O.2   1 <1>  -0.5700 
  2 C       -2.1900     0.5670    -1.1930 C.2   1 <1>   0.5690 
  3 N       -2.3510    -0.3520    -0.2120 N.am  1 <1>  -0.7300 
  4 C       -2.1910     2.0350    -0.8160 C.3   1 <1>  -0.0990 
  5 C       -2.3050    -1.8190    -0.4100 C.3   1 <1>   0.2200 
  6 C       -0.8770     2.4560    -0.1340 C.3   1 <1>  -0.1600 
  7 C       -3.6910    -2.4360    -0.2890 C.3   1 <1>  -0.0800 
  8 C       -1.6130    -2.4550     0.7870 C.3   1 <1>   0.1200 
  9 C       -0.8880     3.9080     0.3760 C.3   1 <1>  -0.0800 
 10 C       -3.8600    -2.6020     1.2250 C.3   1 <1>   0.1200 
 11 C       -4.8270    -1.6770    -1.0050 C.3   1 <1>  -0.0160 
 12 O       -2.5840    -2.4940     1.7890 O.3   1 <1>  -0.5600 
 13 C       -1.0090     4.9230    -0.7690 C.3   1 <1>  -0.2400 
 14 C        0.3950     4.1870     1.1670 C.3   1 <1>  -0.2400 
 15 C       -6.1400    -2.4530    -0.9260 C.ar  1 <1>  -0.1440 
 16 C       -7.1420    -2.2120     0.0460 C.ar  1 <1>   0.0000 
 17 C       -6.3720    -3.4450    -1.8340 C.ar  1 <1>  -0.1500 
 18 C       -8.2940    -3.0380     0.0180 C.ar  1 <1>   0.3100 
 19 C       -7.0800    -1.2070     1.0400 C.ar  1 <1>  -0.1500 
 20 C       -7.5520    -4.1940    -1.7810 C.ar  1 <1>   0.1600 
 21 N       -8.4830    -4.0200    -0.8990 N.ar  1 <1>  -0.6200 
 22 C       -9.2990    -2.8410     0.9790 C.ar  1 <1>  -0.1500 
 23 C       -8.0780    -1.0390     1.9610 C.ar  1 <1>  -0.1500 
 24 C       -9.2020    -1.8670     1.9350 C.ar  1 <1>  -0.1500 
 25 H       -2.4610    -0.0660     0.7630 H     1 <1>   0.3700 
 26 H       -2.3390     2.6060    -1.7150 H     1 <1>   0.0800 
 27 H       -3.0230     2.2220    -0.1630 H     1 <1>   0.0800 
 28 H       -1.8200    -2.0640    -1.3410 H     1 <1>   0.0800 
 29 H       -0.0640     2.3210    -0.8270 H     1 <1>   0.0800 
 30 H       -0.6990     1.8000     0.7010 H     1 <1>   0.0800 
 31 H       -3.6420    -3.4250    -0.7100 H     1 <1>   0.0800 
 32 H       -0.7610    -1.8930     1.1250 H     1 <1>   0.0800 
 33 H       -1.3230    -3.4680     0.5680 H     1 <1>   0.0800 
 34 H       -1.7250     4.0400     1.0410 H     1 <1>   0.0800 
 35 H       -4.2780    -3.5620     1.4790 H     1 <1>   0.0800 
 36 H       -4.4620    -1.8210     1.6510 H     1 <1>   0.0800 
 37 H       -4.5550    -1.5600    -2.0400 H     1 <1>   0.0800 
 38 H       -4.9410    -0.6850    -0.6130 H     1 <1>   0.0800 
 39 H       -0.2200     4.7800    -1.4870 H     1 <1>   0.0800 
 40 H       -0.9430     5.9260    -0.3860 H     1 <1>   0.0800 
 41 H       -1.9540     4.8270    -1.2720 H     1 <1>   0.0800 
 42 H        1.2610     4.0710     0.5390 H     1 <1>   0.0800 
 43 H        0.4800     3.5080     1.9970 H     1 <1>   0.0800 
 44 H        0.3860     5.1900     1.5550 H     1 <1>   0.0800 
 45 H       -5.6610    -3.6770    -2.6060 H     1 <1>   0.1500 
 46 H       -6.2340    -0.5500     1.0820 H     1 <1>   0.1500 
 47 H       -7.6920    -4.9660    -2.5180 H     1 <1>   0.1500 
 48 H      -10.1550    -3.4880     0.9360 H     1 <1>   0.1500 
 49 H       -8.0140    -0.2720     2.7130 H     1 <1>   0.1500 
 50 H       -9.9810    -1.7280     2.6650 H     1 <1>   0.1500 
@<TRIPOS>BOND
  1   1   2  2   
  2   2   3  am  
  3   2   4  1   
  4   3   5  1   
  5   3  25  1   
  6   4   6  1   
  7   4  26  1   
  8   4  27  1   
  9   5   7  1   
 10   5   8  1   
 11   5  28  1   
 12   6   9  1   
 13   6  29  1   
 14   6  30  1   
 15   7  10  1   
 16   7  11  1   
 17   7  31  1   
 18   8  12  1   
 19   8  32  1   
 20   8  33  1   
 21   9  13  1   
 22   9  14  1   
 23   9  34  1   
 24  10  12  1   
 25  10  35  1   
 26  10  36  1   
 27  11  15  1   
 28  11  37  1   
 29  11  38  1   
 30  13  39  1   
 31  13  40  1   
 32  13  41  1   
 33  14  42  1   
 34  14  43  1   
 35  14  44  1   
 36  15  16  ar  
 37  15  17  ar  
 38  16  18  ar  
 39  16  19  ar  
 40  17  20  ar  
 41  17  45  1   
 42  18  21  ar  
 43  18  22  ar  
 44  19  23  ar  
 45  19  46  1   
 46  20  21  ar  
 47  20  47  1   
 48  22  24  ar  
 49  22  48  1   
 50  23  24  ar  
 51  23  49  1   
 52  24  50  1   
@<TRIPOS>SUBSTRUCTURE
  1 ****  11 GROUP 4 **** **** 0

# MOE 2024.06 (io_trps.svl 2023.06)
