@<TRIPOS>MOLECULE
NONAME
22 22 1 0 0 
SMALL
USER_CHARGES


@<TRIPOS>ATOM
  1 BR      -0.1230    -0.1880    -0.5590 Br    1 <1>  -0.1110 
  2 C       -0.1330     1.7370    -0.4520 C.ar  1 <1>   0.1110 
  3 C       -1.2130     2.3950     0.1180 C.ar  1 <1>  -0.1440 
  4 C        0.9610     2.4110    -0.9570 C.ar  1 <1>  -0.1500 
  5 C       -1.1710     3.7800     0.1710 C.ar  1 <1>  -0.1500 
  6 C       -2.4110     1.6370     0.6690 C.3   1 <1>  -0.0960 
  7 C        0.9830     3.7930    -0.8940 C.ar  1 <1>  -0.1500 
  8 C       -0.0820     4.4860    -0.3300 C.ar  1 <1>  -0.1440 
  9 C       -0.0410     6.0080    -0.2660 C.3   1 <1>   0.3440 
 10 O       -0.2950     6.3890     1.0310 O.3   1 <1>  -0.6800 
 11 C       -1.0890     6.6630    -1.1580 C.3   1 <1>  -0.2400 
 12 H        1.7780     1.8630    -1.3910 H     1 <1>   0.1500 
 13 H       -1.9930     4.3220     0.6060 H     1 <1>   0.1500 
 14 H       -3.1440     2.3140     1.0680 H     1 <1>   0.0800 
 15 H       -2.0970     0.9730     1.4540 H     1 <1>   0.0800 
 16 H       -2.8710     1.0590    -0.1130 H     1 <1>   0.0800 
 17 H        1.8320     4.3250    -1.2870 H     1 <1>   0.1500 
 18 H        0.9410     6.3690    -0.5230 H     1 <1>   0.0800 
 19 H        0.1310     5.7440     1.6260 H     1 <1>   0.4000 
 20 H       -2.0770     6.3530    -0.8700 H     1 <1>   0.0800 
 21 H       -0.9240     6.3740    -2.1800 H     1 <1>   0.0800 
 22 H       -1.0150     7.7330    -1.0870 H     1 <1>   0.0800 
@<TRIPOS>BOND
  1   1   2  1   
  2   2   3  ar  
  3   2   4  ar  
  4   3   5  ar  
  5   3   6  1   
  6   4   7  ar  
  7   4  12  1   
  8   5   8  ar  
  9   5  13  1   
 10   6  14  1   
 11   6  15  1   
 12   6  16  1   
 13   7   8  ar  
 14   7  17  1   
 15   8   9  1   
 16   9  10  1   
 17   9  11  1   
 18   9  18  1   
 19  10  19  1   
 20  11  20  1   
 21  11  21  1   
 22  11  22  1   
@<TRIPOS>SUBSTRUCTURE
  1 ****   5 GROUP 4 **** **** 0

# MOE 2024.06 (io_trps.svl 2023.06)
