@<TRIPOS>MOLECULE
NONAME
52 55 1 0 0 
SMALL
USER_CHARGES


@<TRIPOS>ATOM
  1 O        0.8100    -2.3550    -3.0600 O.3   1 <1>  -0.5600 
  2 C       -0.0630    -3.4340    -3.1510 C.3   1 <1>   0.2580 
  3 C        0.5580    -1.5150    -1.9800 C.3   1 <1>   0.1200 
  4 C       -0.1080    -4.1800    -1.8190 C.2   1 <1>  -0.2880 
  5 C        0.9230    -2.2550    -0.6870 C.3   1 <1>  -0.0220 
  6 C        0.3530    -3.6880    -0.6570 C.2   1 <1>  -0.2760 
  7 C        0.3720    -4.3680     0.7480 C.3   1 <1>   0.1380 
  8 C        0.0280    -5.8900     0.8460 C.3   1 <1>   0.4230 
  9 C       -0.7190    -3.6790     1.6210 C.3   1 <1>   0.1200 
 10 C        1.7980    -4.1810     1.3570 C.3   1 <1>  -0.1600 
 11 N        1.1360    -6.8030     0.4330 N.4   1 <1>  -0.9590 
 12 C       -1.3620    -6.2860     0.3470 C.3   1 <1>  -0.1600 
 13 O       -1.8740    -4.4700     1.7860 O.3   1 <1>  -0.5600 
 14 C        2.2910    -5.3840     2.1860 C.3   1 <1>  -0.1600 
 15 C        2.3110    -6.6870     1.3620 C.3   1 <1>   0.3430 
 16 C        1.5440    -6.6630    -0.9880 C.3   1 <1>   0.4860 
 17 C       -2.3300    -5.1310     0.6440 C.3   1 <1>   0.1200 
 18 C        2.4710    -7.8030    -1.3510 C.ar  1 <1>  -0.1440 
 19 C        2.0610    -9.1240    -1.1680 C.ar  1 <1>   0.4100 
 20 C        3.7310    -7.5570    -1.8520 C.ar  1 <1>  -0.1500 
 21 N        2.8060   -10.1760    -1.4130 N.ar  1 <1>  -0.6200 
 22 N        0.8320    -9.4550    -0.6910 N.pl3 1 <1>  -0.9000 
 23 C        4.5170    -8.6590    -2.1290 C.ar  1 <1>  -0.1500 
 24 C        4.0140    -9.9260    -1.8930 C.ar  1 <1>   0.1600 
 25 H       -1.0380    -3.0670    -3.4260 H     1 <1>   0.0800 
 26 H        0.3040    -4.0730    -3.9340 H     1 <1>   0.0800 
 27 H        1.1620    -0.6320    -2.0960 H     1 <1>   0.0800 
 28 H       -0.4820    -1.2360    -1.9910 H     1 <1>   0.0800 
 29 H       -0.5700    -5.1310    -1.9630 H     1 <1>   0.1500 
 30 H        1.9950    -2.2720    -0.6230 H     1 <1>   0.0800 
 31 H        0.5600    -1.6690     0.1370 H     1 <1>   0.0800 
 32 H       -0.0690    -6.0420     1.9090 H     1 <1>   0.0800 
 33 H       -1.0340    -2.7430     1.1940 H     1 <1>   0.0800 
 34 H       -0.3450    -3.4820     2.6110 H     1 <1>   0.0800 
 35 H        2.5120    -4.0680     0.5600 H     1 <1>   0.0800 
 36 H        1.8430    -3.2830     1.9490 H     1 <1>   0.0800 
 37 H        0.7980    -7.7830     0.4780 H     1 <1>   0.4500 
 38 H       -1.6900    -7.1450     0.9040 H     1 <1>   0.0800 
 39 H       -1.3960    -6.5470    -0.6900 H     1 <1>   0.0800 
 40 H        1.6670    -5.5150     3.0540 H     1 <1>   0.0800 
 41 H        3.2870    -5.1910     2.5480 H     1 <1>   0.0800 
 42 H        2.3220    -7.5280     2.0380 H     1 <1>   0.0800 
 43 H        3.2250    -6.7260     0.7900 H     1 <1>   0.0800 
 44 H        0.6780    -6.7150    -1.6230 H     1 <1>   0.0800 
 45 H        2.0310    -5.7140    -1.1460 H     1 <1>   0.0800 
 46 H       -3.3220    -5.5010     0.8420 H     1 <1>   0.0800 
 47 H       -2.3780    -4.4220    -0.1670 H     1 <1>   0.0800 
 48 H        4.1060    -6.5620    -2.0270 H     1 <1>   0.1500 
 49 H        0.9180   -10.3730    -0.2350 H     1 <1>   0.4000 
 50 H        0.1760    -9.6260    -1.4590 H     1 <1>   0.4000 
 51 H        5.5100    -8.5390    -2.5250 H     1 <1>   0.1500 
 52 H        4.6370   -10.7780    -2.1100 H     1 <1>   0.1500 
@<TRIPOS>BOND
  1   1   2  1   
  2   1   3  1   
  3   2   4  1   
  4   2  25  1   
  5   2  26  1   
  6   3   5  1   
  7   3  27  1   
  8   3  28  1   
  9   4   6  2   
 10   4  29  1   
 11   5   6  1   
 12   5  30  1   
 13   5  31  1   
 14   6   7  1   
 15   7   8  1   
 16   7   9  1   
 17   7  10  1   
 18   8  11  1   
 19   8  12  1   
 20   8  32  1   
 21   9  13  1   
 22   9  33  1   
 23   9  34  1   
 24  10  14  1   
 25  10  35  1   
 26  10  36  1   
 27  11  15  1   
 28  11  16  1   
 29  11  37  1   
 30  12  17  1   
 31  12  38  1   
 32  12  39  1   
 33  13  17  1   
 34  14  15  1   
 35  14  40  1   
 36  14  41  1   
 37  15  42  1   
 38  15  43  1   
 39  16  18  1   
 40  16  44  1   
 41  16  45  1   
 42  17  46  1   
 43  17  47  1   
 44  18  19  ar  
 45  18  20  ar  
 46  19  21  ar  
 47  19  22  1   
 48  20  23  ar  
 49  20  48  1   
 50  21  24  ar  
 51  22  49  1   
 52  22  50  1   
 53  23  24  ar  
 54  23  51  1   
 55  24  52  1   
@<TRIPOS>SUBSTRUCTURE
  1 ****  16 GROUP 4 **** **** 0

# MOE 2024.06 (io_trps.svl 2023.06)
