@<TRIPOS>MOLECULE
NONAME
45 48 1 0 0 
SMALL
USER_CHARGES


@<TRIPOS>ATOM
  1 O       -0.7430    -0.0530     0.0770 O.2   1 <1>  -0.5700 
  2 C       -1.6710     0.6470    -0.2810 C.2   1 <1>   0.5440 
  3 N       -2.8290     0.0480    -0.7270 N.am  1 <1>  -0.6600 
  4 C       -1.5340     2.0880    -0.2130 C.ar  1 <1>   0.0860 
  5 C       -4.1800     0.6840    -0.6430 C.3   1 <1>   0.1400 
  6 C       -2.8940    -1.4150    -1.0330 C.3   1 <1>   0.1400 
  7 C       -1.0210     2.7260     0.9060 C.ar  1 <1>  -0.1500 
  8 C       -1.8940     2.9320    -1.2540 C.ar  1 <1>  -0.1500 
  9 C       -5.0950    -0.0920     0.3250 C.3   1 <1>   0.1900 
 10 C       -3.8460    -2.1380    -0.0660 C.3   1 <1>   0.1100 
 11 C       -0.9200     4.1030     0.9400 C.ar  1 <1>   0.1600 
 12 C       -1.7530     4.3010    -1.1230 C.ar  1 <1>   0.1600 
 13 N       -5.1910    -1.5200    -0.0680 N.3   1 <1>  -0.8100 
 14 C       -6.4950     0.5510     0.3760 C.3   1 <1>   0.1200 
 15 N       -1.2820     4.9060    -0.0460 N.ar  1 <1>  -0.6200 
 16 C       -6.1240    -2.2300     0.8410 C.3   1 <1>   0.3330 
 17 O       -7.3230    -0.1500     1.2580 O.3   1 <1>  -0.5600 
 18 C       -6.3480    -3.6710     0.3830 C.ar  1 <1>  -0.1430 
 19 C       -7.4820    -1.5000     0.9110 C.3   1 <1>   0.1200 
 20 C       -6.2710    -4.7120     1.2970 C.ar  1 <1>  -0.1500 
 21 C       -6.6340    -3.9600    -0.9450 C.ar  1 <1>  -0.1500 
 22 C       -6.4790    -6.0190     0.8920 C.ar  1 <1>  -0.1500 
 23 C       -6.8430    -5.2670    -1.3520 C.ar  1 <1>  -0.1500 
 24 C       -6.7650    -6.2970    -0.4320 C.ar  1 <1>  -0.1500 
 25 H       -4.0990     1.7000    -0.3000 H     1 <1>   0.0800 
 26 H       -4.6260     0.6930    -1.6220 H     1 <1>   0.0800 
 27 H       -3.2500    -1.5490    -2.0390 H     1 <1>   0.0800 
 28 H       -1.9170    -1.8610    -0.9690 H     1 <1>   0.0800 
 29 H       -0.6990     2.1390     1.7480 H     1 <1>   0.1500 
 30 H       -2.2790     2.5160    -2.1670 H     1 <1>   0.1500 
 31 H       -4.6660    -0.0210     1.3110 H     1 <1>   0.0800 
 32 H       -3.4260    -2.1120     0.9250 H     1 <1>   0.0800 
 33 H       -3.9170    -3.1680    -0.3700 H     1 <1>   0.0800 
 34 H       -0.5200     4.5710     1.8240 H     1 <1>   0.1500 
 35 H       -2.0400     4.9330    -1.9460 H     1 <1>   0.1500 
 36 H       -6.9500     0.5490    -0.5990 H     1 <1>   0.0800 
 37 H       -6.4300     1.5650     0.7300 H     1 <1>   0.0800 
 38 H       -5.7040    -2.2400     1.8320 H     1 <1>   0.0800 
 39 H       -8.1070    -1.9600     1.6550 H     1 <1>   0.0800 
 40 H       -7.9840    -1.5540    -0.0390 H     1 <1>   0.0800 
 41 H       -6.0500    -4.5110     2.3310 H     1 <1>   0.1500 
 42 H       -6.6890    -3.1610    -1.6640 H     1 <1>   0.1500 
 43 H       -6.4180    -6.8200     1.6080 H     1 <1>   0.1500 
 44 H       -7.0630    -5.4790    -2.3830 H     1 <1>   0.1500 
 45 H       -6.9270    -7.3130    -0.7470 H     1 <1>   0.1500 
@<TRIPOS>BOND
  1   1   2  2   
  2   2   3  am  
  3   2   4  1   
  4   3   5  1   
  5   3   6  1   
  6   4   7  ar  
  7   4   8  ar  
  8   5   9  1   
  9   5  25  1   
 10   5  26  1   
 11   6  10  1   
 12   6  27  1   
 13   6  28  1   
 14   7  11  ar  
 15   7  29  1   
 16   8  12  ar  
 17   8  30  1   
 18   9  13  1   
 19   9  14  1   
 20   9  31  1   
 21  10  13  1   
 22  10  32  1   
 23  10  33  1   
 24  11  15  ar  
 25  11  34  1   
 26  12  15  ar  
 27  12  35  1   
 28  13  16  1   
 29  14  17  1   
 30  14  36  1   
 31  14  37  1   
 32  16  18  1   
 33  16  19  1   
 34  16  38  1   
 35  17  19  1   
 36  18  20  ar  
 37  18  21  ar  
 38  19  39  1   
 39  19  40  1   
 40  20  22  ar  
 41  20  41  1   
 42  21  23  ar  
 43  21  42  1   
 44  22  24  ar  
 45  22  43  1   
 46  23  24  ar  
 47  23  44  1   
 48  24  45  1   
@<TRIPOS>SUBSTRUCTURE
  1 ****   9 GROUP 4 **** **** 0

# MOE 2024.06 (io_trps.svl 2023.06)
