@<TRIPOS>MOLECULE
NONAME
52 54 1 0 0 
SMALL
USER_CHARGES


@<TRIPOS>ATOM
  1 O       -0.3410     0.2880    -1.6960 O.2   1 <1>  -0.5700 
  2 C       -1.3020     0.9320    -1.3440 C.2   1 <1>   0.5690 
  3 N       -2.4910     0.3240    -1.0300 N.am  1 <1>  -0.6600 
  4 C       -1.1580     2.4500    -1.2960 C.3   1 <1>   0.1810 
  5 C       -3.6940     0.9950    -0.4790 C.3   1 <1>   0.1400 
  6 C       -2.6690    -1.1480    -1.0350 C.3   1 <1>   0.1400 
  7 O       -1.4010     2.9570     0.0070 O.3   1 <1>  -0.3620 
  8 C       -4.6830    -0.1350    -0.1910 C.3   1 <1>   0.2000 
  9 C       -3.8410    -1.4050    -0.0860 C.3   1 <1>  -0.0800 
 10 C       -1.0730     4.2540     0.1950 C.ar  1 <1>   0.0820 
 11 O       -5.3690     0.0800     0.9940 O.3   1 <1>  -0.6800 
 12 C       -4.6440    -2.6770    -0.4070 C.3   1 <1>  -0.0170 
 13 C        0.2420     4.6060     0.5080 C.ar  1 <1>  -0.1440 
 14 C       -2.0670     5.2200     0.0710 C.ar  1 <1>  -0.1440 
 15 C       -3.7870    -3.9270    -0.2950 C.ar  1 <1>   0.1670 
 16 C        0.5640     5.9520     0.6500 C.ar  1 <1>  -0.1440 
 17 C        1.3120     3.5290     0.6970 C.3   1 <1>  -0.0970 
 18 C       -1.7300     6.5520     0.2260 C.ar  1 <1>  -0.1500 
 19 C       -3.5110     4.8400    -0.2240 C.3   1 <1>  -0.0970 
 20 N       -3.0670    -4.2420    -1.3600 N.ar  1 <1>  -0.6200 
 21 C       -3.7920    -4.6590     0.8830 C.ar  1 <1>  -0.1500 
 22 C       -0.4250     6.9130     0.5080 C.ar  1 <1>  -0.1500 
 23 C        1.9810     6.4140     0.9630 C.3   1 <1>  -0.0970 
 24 C       -2.3190    -5.3280    -1.2470 C.ar  1 <1>   0.1600 
 25 C       -3.0090    -5.7890     0.9870 C.ar  1 <1>  -0.1500 
 26 C       -2.2540    -6.1240    -0.1160 C.ar  1 <1>  -0.1500 
 27 H       -1.8570     2.9050    -1.9720 H     1 <1>   0.0800 
 28 H       -0.1600     2.7200    -1.5870 H     1 <1>   0.0800 
 29 H       -3.4310     1.5080     0.4300 H     1 <1>   0.0800 
 30 H       -4.1000     1.6860    -1.1960 H     1 <1>   0.0800 
 31 H       -2.9040    -1.4700    -2.0350 H     1 <1>   0.0800 
 32 H       -1.7750    -1.6510    -0.7050 H     1 <1>   0.0800 
 33 H       -5.3990    -0.2050    -0.9920 H     1 <1>   0.0800 
 34 H       -3.4300    -1.4840     0.9050 H     1 <1>   0.0800 
 35 H       -4.7400     0.1510     1.7380 H     1 <1>   0.4000 
 36 H       -5.0450    -2.6190    -1.4030 H     1 <1>   0.0800 
 37 H       -5.4750    -2.7510     0.2720 H     1 <1>   0.0800 
 38 H        1.9380     3.7610     1.5380 H     1 <1>   0.0800 
 39 H        1.9210     3.4610    -0.1860 H     1 <1>   0.0800 
 40 H        0.8750     2.5650     0.8860 H     1 <1>   0.0800 
 41 H       -2.4780     7.3180     0.1300 H     1 <1>   0.1500 
 42 H       -4.1630     5.6860    -0.1060 H     1 <1>   0.0800 
 43 H       -3.8320     4.0700     0.4540 H     1 <1>   0.0800 
 44 H       -3.5970     4.4780    -1.2320 H     1 <1>   0.0800 
 45 H       -4.4000    -4.3500     1.7140 H     1 <1>   0.1500 
 46 H       -0.1870     7.9560     0.6200 H     1 <1>   0.1500 
 47 H        2.0710     7.4800     0.8630 H     1 <1>   0.0800 
 48 H        2.6800     5.9560     0.2870 H     1 <1>   0.0800 
 49 H        2.2390     6.1450     1.9720 H     1 <1>   0.0800 
 50 H       -1.7250    -5.5990    -2.1030 H     1 <1>   0.1500 
 51 H       -2.9880    -6.3810     1.8860 H     1 <1>   0.1500 
 52 H       -1.6210    -6.9920    -0.1030 H     1 <1>   0.1500 
@<TRIPOS>BOND
  1   1   2  2   
  2   2   3  am  
  3   2   4  1   
  4   3   5  1   
  5   3   6  1   
  6   4   7  1   
  7   4  27  1   
  8   4  28  1   
  9   5   8  1   
 10   5  29  1   
 11   5  30  1   
 12   6   9  1   
 13   6  31  1   
 14   6  32  1   
 15   7  10  1   
 16   8   9  1   
 17   8  11  1   
 18   8  33  1   
 19   9  12  1   
 20   9  34  1   
 21  10  13  ar  
 22  10  14  ar  
 23  11  35  1   
 24  12  15  1   
 25  12  36  1   
 26  12  37  1   
 27  13  16  ar  
 28  13  17  1   
 29  14  18  ar  
 30  14  19  1   
 31  15  20  ar  
 32  15  21  ar  
 33  16  22  ar  
 34  16  23  1   
 35  17  38  1   
 36  17  39  1   
 37  17  40  1   
 38  18  22  ar  
 39  18  41  1   
 40  19  42  1   
 41  19  43  1   
 42  19  44  1   
 43  20  24  ar  
 44  21  25  ar  
 45  21  45  1   
 46  22  46  1   
 47  23  47  1   
 48  23  48  1   
 49  23  49  1   
 50  24  26  ar  
 51  24  50  1   
 52  25  26  ar  
 53  25  51  1   
 54  26  52  1   
@<TRIPOS>SUBSTRUCTURE
  1 ****   3 GROUP 4 **** **** 0

# MOE 2024.06 (io_trps.svl 2023.06)
