@<TRIPOS>MOLECULE
NONAME
43 45 1 0 0 
SMALL
USER_CHARGES


@<TRIPOS>ATOM
  1 S        0.5960     2.1860    -1.6880 S.3   1 <1>  -0.0800 
  2 C        0.0540     2.2770    -0.0280 C.2   1 <1>   0.2280 
  3 C        2.1970     2.6110    -1.1570 C.2   1 <1>  -0.1100 
  4 N        0.9630     2.5860     0.8100 N.2   1 <1>  -0.5650 
  5 C        2.1870     2.7800     0.1760 C.2   1 <1>   0.0460 
  6 C        3.3950     3.1550     1.0300 C.3   1 <1>   0.3900 
  7 N        3.5800     4.6430     1.1270 N.pl3 1 <1>  -0.8380 
  8 C        4.7000     5.3040     0.7370 C.ar  1 <1>   0.4100 
  9 C        2.3430     5.3750     1.5480 C.3   1 <1>   0.1290 
 10 N        4.5530     6.5270     0.2660 N.ar  1 <1>  -0.6200 
 11 C        5.9750     4.7150     0.8400 C.ar  1 <1>  -0.1500 
 12 C        5.6230     7.1930    -0.1400 C.ar  1 <1>   0.7710 
 13 C        7.0620     5.4100     0.4290 C.ar  1 <1>   0.2180 
 14 N        6.8510     6.6520    -0.0630 N.ar  1 <1>  -0.1790 
 15 N        5.4870     8.4520    -0.6410 N.pl3 1 <1>  -0.8380 
 16 C        8.4830     4.8760     0.5000 C.3   1 <1>  -0.0970 
 17 C        6.5560     9.3200    -1.2270 C.3   1 <1>   0.2090 
 18 C        4.1650     9.1660    -0.6230 C.3   1 <1>   0.2090 
 19 C        6.7340    10.5600    -0.3470 C.3   1 <1>  -0.1600 
 20 C        4.2830    10.4130     0.2580 C.3   1 <1>  -0.1600 
 21 C        5.4170    11.3380    -0.2080 C.3   1 <1>  -0.1600 
 22 H       -0.9850     2.0680     0.1600 H     1 <1>   0.1500 
 23 H        2.9680     2.6910    -1.9000 H     1 <1>   0.1500 
 24 H        4.2620     2.7050     0.5850 H     1 <1>   0.0800 
 25 H        3.2730     2.7430     2.0170 H     1 <1>   0.0800 
 26 H        1.8460     4.8390     2.3390 H     1 <1>   0.0800 
 27 H        1.6700     5.4650     0.7120 H     1 <1>   0.0800 
 28 H        2.5860     6.3600     1.9070 H     1 <1>   0.0800 
 29 H        6.0640     3.7320     1.2600 H     1 <1>   0.1500 
 30 H        7.6060     7.2480    -0.3720 H     1 <1>   0.4570 
 31 H        8.4920     3.8830     0.9140 H     1 <1>   0.0800 
 32 H        9.0900     5.5050     1.1270 H     1 <1>   0.0800 
 33 H        8.9180     4.8330    -0.4830 H     1 <1>   0.0800 
 34 H        6.2560     9.6260    -2.2170 H     1 <1>   0.0800 
 35 H        7.4940     8.8040    -1.3210 H     1 <1>   0.0800 
 36 H        3.3690     8.5450    -0.2490 H     1 <1>   0.0800 
 37 H        3.9030     9.4530    -1.6280 H     1 <1>   0.0800 
 38 H        7.4800    11.2030    -0.7800 H     1 <1>   0.0800 
 39 H        7.0820    10.2620     0.6270 H     1 <1>   0.0800 
 40 H        4.4560    10.1050     1.2740 H     1 <1>   0.0800 
 41 H        3.3510    10.9500     0.2360 H     1 <1>   0.0800 
 42 H        5.1550    11.7680    -1.1600 H     1 <1>   0.0800 
 43 H        5.5410    12.1460     0.4940 H     1 <1>   0.0800 
@<TRIPOS>BOND
  1   1   2  1   
  2   1   3  1   
  3   2   4  2   
  4   2  22  1   
  5   3   5  2   
  6   3  23  1   
  7   4   5  1   
  8   5   6  1   
  9   6   7  1   
 10   6  24  1   
 11   6  25  1   
 12   7   8  1   
 13   7   9  1   
 14   8  10  ar  
 15   8  11  ar  
 16   9  26  1   
 17   9  27  1   
 18   9  28  1   
 19  10  12  ar  
 20  11  13  ar  
 21  11  29  1   
 22  12  14  ar  
 23  12  15  1   
 24  13  14  ar  
 25  13  16  1   
 26  14  30  1   
 27  15  17  1   
 28  15  18  1   
 29  16  31  1   
 30  16  32  1   
 31  16  33  1   
 32  17  19  1   
 33  17  34  1   
 34  17  35  1   
 35  18  20  1   
 36  18  36  1   
 37  18  37  1   
 38  19  21  1   
 39  19  38  1   
 40  19  39  1   
 41  20  21  1   
 42  20  40  1   
 43  20  41  1   
 44  21  42  1   
 45  21  43  1   
@<TRIPOS>SUBSTRUCTURE
  1 ****  10 GROUP 4 **** **** 0

# MOE 2024.06 (io_trps.svl 2023.06)
