@<TRIPOS>MOLECULE
NONAME
53 56 1 0 0 
SMALL
USER_CHARGES


@<TRIPOS>ATOM
  1 O       -1.1370     0.5940    -2.4250 O.2   1 <1>  -0.5700 
  2 C       -1.8430     1.0850    -1.5680 C.2   1 <1>   0.6160 
  3 N       -2.8570     0.3360    -1.0020 N.am  1 <1>  -0.6600 
  4 C       -1.6090     2.4540    -1.1780 C.2   1 <1>  -0.0140 
  5 C       -3.1410    -1.0680    -1.4550 C.3   1 <1>   0.1400 
  6 C       -3.8960     0.9270    -0.1130 C.3   1 <1>   0.1400 
  7 C       -0.9360     2.7480     0.0670 C.ar  1 <1>   0.0280 
  8 C       -2.0250     3.4890    -1.9610 C.2   1 <1>  -0.1360 
  9 C       -3.3550    -2.0350    -0.2640 C.3   1 <1>   0.0000 
 10 C       -4.1210     0.0240     1.0980 C.3   1 <1>  -0.1600 
 11 C       -0.7920     4.0920     0.4560 C.ar  1 <1>   0.1170 
 12 C       -0.4120     1.7630     0.9120 C.ar  1 <1>  -0.1500 
 13 C       -1.8590     4.8430    -1.5760 C.2   1 <1>   0.6160 
 14 C       -4.4460    -1.4000     0.6390 C.3   1 <1>   0.2000 
 15 C       -3.9260    -3.3760    -0.7890 C.3   1 <1>   0.1200 
 16 C       -2.0250    -2.2590     0.5220 C.3   1 <1>  -0.0170 
 17 N       -1.2660     5.0940    -0.3810 N.am  1 <1>  -0.5470 
 18 C       -0.1730     4.4110     1.6620 C.ar  1 <1>  -0.1500 
 19 C        0.2020     2.0900     2.1020 C.ar  1 <1>  -0.1500 
 20 O       -2.2360     5.7810    -2.2510 O.2   1 <1>  -0.5700 
 21 O       -4.6840    -2.1700     1.7650 O.3   1 <1>  -0.6800 
 22 O       -3.2070    -3.8500    -1.8770 O.3   1 <1>  -0.6800 
 23 C       -0.9600    -3.0760    -0.2010 C.ar  1 <1>  -0.1440 
 24 C        0.3180     3.4190     2.4830 C.ar  1 <1>  -0.1500 
 25 C       -0.0770    -2.4700    -1.0820 C.ar  1 <1>  -0.1500 
 26 C       -0.8610    -4.4430     0.0200 C.ar  1 <1>  -0.1500 
 27 C        0.8770    -3.2200    -1.7460 C.ar  1 <1>  -0.1500 
 28 C        0.0940    -5.1940    -0.6430 C.ar  1 <1>  -0.1500 
 29 C        0.9630    -4.5830    -1.5280 C.ar  1 <1>  -0.1500 
 30 H       -4.0300    -1.0520    -2.0630 H     1 <1>   0.0800 
 31 H       -2.3460    -1.4310    -2.0820 H     1 <1>   0.0800 
 32 H       -3.6130     1.9070     0.2270 H     1 <1>   0.0800 
 33 H       -4.8140     1.0230    -0.6700 H     1 <1>   0.0800 
 34 H       -2.5050     3.3240    -2.9070 H     1 <1>   0.1500 
 35 H       -4.9480     0.4120     1.6660 H     1 <1>   0.0800 
 36 H       -3.2450     0.0440     1.7190 H     1 <1>   0.0800 
 37 H       -0.4770     0.7270     0.6310 H     1 <1>   0.1500 
 38 H       -5.3730    -1.3710     0.0890 H     1 <1>   0.0800 
 39 H       -4.9440    -3.2530    -1.1190 H     1 <1>   0.0800 
 40 H       -3.9100    -4.1280    -0.0190 H     1 <1>   0.0800 
 41 H       -1.5950    -1.3110     0.7850 H     1 <1>   0.0800 
 42 H       -2.2360    -2.7640     1.4470 H     1 <1>   0.0800 
 43 H       -1.1560     6.0800    -0.1470 H     1 <1>   0.3700 
 44 H       -0.0760     5.4420     1.9520 H     1 <1>   0.1500 
 45 H        0.5980     1.3180     2.7400 H     1 <1>   0.1500 
 46 H       -3.9550    -2.0760     2.4060 H     1 <1>   0.4000 
 47 H       -2.2540    -3.9370    -1.6380 H     1 <1>   0.4000 
 48 H        0.7970     3.6690     3.4140 H     1 <1>   0.1500 
 49 H       -0.1260    -1.4110    -1.2620 H     1 <1>   0.1500 
 50 H       -1.5290    -4.9330     0.7070 H     1 <1>   0.1500 
 51 H        1.5510    -2.7380    -2.4330 H     1 <1>   0.1500 
 52 H        0.1610    -6.2540    -0.4700 H     1 <1>   0.1500 
 53 H        1.7050    -5.1650    -2.0470 H     1 <1>   0.1500 
@<TRIPOS>BOND
  1   1   2  2   
  2   2   3  am  
  3   2   4  1   
  4   3   5  1   
  5   3   6  1   
  6   4   7  1   
  7   4   8  2   
  8   5   9  1   
  9   5  30  1   
 10   5  31  1   
 11   6  10  1   
 12   6  32  1   
 13   6  33  1   
 14   7  11  ar  
 15   7  12  ar  
 16   8  13  1   
 17   8  34  1   
 18   9  14  1   
 19   9  15  1   
 20   9  16  1   
 21  10  14  1   
 22  10  35  1   
 23  10  36  1   
 24  11  17  1   
 25  11  18  ar  
 26  12  19  ar  
 27  12  37  1   
 28  13  17  am  
 29  13  20  2   
 30  14  21  1   
 31  14  38  1   
 32  15  22  1   
 33  15  39  1   
 34  15  40  1   
 35  16  23  1   
 36  16  41  1   
 37  16  42  1   
 38  17  43  1   
 39  18  24  ar  
 40  18  44  1   
 41  19  24  ar  
 42  19  45  1   
 43  21  46  1   
 44  22  47  1   
 45  23  25  ar  
 46  23  26  ar  
 47  24  48  1   
 48  25  27  ar  
 49  25  49  1   
 50  26  28  ar  
 51  26  50  1   
 52  27  29  ar  
 53  27  51  1   
 54  28  29  ar  
 55  28  52  1   
 56  29  53  1   
@<TRIPOS>SUBSTRUCTURE
  1 ****   3 GROUP 4 **** **** 0

# MOE 2024.06 (io_trps.svl 2023.06)
