@<TRIPOS>MOLECULE
NONAME
33 35 1 0 0 
SMALL
USER_CHARGES


@<TRIPOS>ATOM
  1 CL      -0.2680    -1.7020    -2.4860 Cl    1 <1>  -0.1770 
  2 C        1.1780    -1.9380    -1.5180 C.ar  1 <1>   0.1770 
  3 C        1.1810    -2.7280    -0.3710 C.ar  1 <1>   0.4100 
  4 C        2.3470    -1.3340    -1.8910 C.ar  1 <1>   0.1600 
  5 N        2.2930    -2.8740     0.3310 N.ar  1 <1>  -0.6200 
  6 N        0.0560    -3.3740     0.1070 N.pl3 1 <1>  -0.8380 
  7 N        3.4620    -1.4780    -1.1950 N.ar  1 <1>  -0.6200 
  8 C        3.3620    -2.2420    -0.1200 C.ar  1 <1>   0.4770 
  9 C        0.1930    -4.7580     0.6210 C.3   1 <1>   0.3890 
 10 C       -1.0150    -2.5500     0.7140 C.3   1 <1>   0.2090 
 11 C        4.6280    -2.4170     0.6850 C.3   1 <1>  -0.0960 
 12 C       -0.8080    -5.6360    -0.0960 C.2   1 <1>  -0.3320 
 13 C       -2.3940    -2.9340     0.1680 C.3   1 <1>  -0.1600 
 14 N       -2.1360    -5.4160    -0.0870 N.pl3 1 <1>   0.3140 
 15 C       -0.6000    -6.7360    -0.8490 C.2   1 <1>  -0.1500 
 16 C       -2.8680    -4.3310     0.5980 C.3   1 <1>   0.0960 
 17 N       -2.7900    -6.3520    -0.7960 N.2   1 <1>  -0.7070 
 18 C       -1.8640    -7.1500    -1.2680 C.2   1 <1>   0.3080 
 19 C       -2.0940    -8.3030    -2.1010 C.1   1 <1>   0.5380 
 20 N       -2.2320    -9.2280    -2.7590 N.1   1 <1>  -0.5570 
 21 H        2.3740    -0.7210    -2.7750 H     1 <1>   0.1500 
 22 H        0.0240    -4.7780     1.6840 H     1 <1>   0.0800 
 23 H        1.1850    -5.1340     0.4330 H     1 <1>   0.0800 
 24 H       -0.8320    -1.5120     0.4920 H     1 <1>   0.0800 
 25 H       -0.9930    -2.6600     1.7850 H     1 <1>   0.0800 
 26 H        4.3910    -2.6610     1.7040 H     1 <1>   0.0800 
 27 H        5.2020    -1.5090     0.6690 H     1 <1>   0.0800 
 28 H        5.2120    -3.2100     0.2580 H     1 <1>   0.0800 
 29 H       -2.4000    -2.8590    -0.9060 H     1 <1>   0.0800 
 30 H       -3.1010    -2.2170     0.5400 H     1 <1>   0.0800 
 31 H        0.3300    -7.2160    -1.0980 H     1 <1>   0.1500 
 32 H       -3.9100    -4.4390     0.3570 H     1 <1>   0.0800 
 33 H       -2.7550    -4.4580     1.6590 H     1 <1>   0.0800 
@<TRIPOS>BOND
  1   1   2  1   
  2   2   3  ar  
  3   2   4  ar  
  4   3   5  ar  
  5   3   6  1   
  6   4   7  ar  
  7   4  21  1   
  8   5   8  ar  
  9   6   9  1   
 10   6  10  1   
 11   7   8  ar  
 12   8  11  1   
 13   9  12  1   
 14   9  22  1   
 15   9  23  1   
 16  10  13  1   
 17  10  24  1   
 18  10  25  1   
 19  11  26  1   
 20  11  27  1   
 21  11  28  1   
 22  12  14  1   
 23  12  15  2   
 24  13  16  1   
 25  13  29  1   
 26  13  30  1   
 27  14  16  1   
 28  14  17  1   
 29  15  18  1   
 30  15  31  1   
 31  16  32  1   
 32  16  33  1   
 33  17  18  2   
 34  18  19  1   
 35  19  20  3   
@<TRIPOS>SUBSTRUCTURE
  1 ****   6 GROUP 4 **** **** 0

# MOE 2024.06 (io_trps.svl 2023.06)
