@<TRIPOS>MOLECULE
NONAME
47 51 1 0 0 
SMALL
USER_CHARGES


@<TRIPOS>ATOM
  1 S        0.0530    -0.0500    -0.6830 S.3   1 <1>  -0.0800 
  2 C        1.3880     0.6600     0.2270 C.ar  1 <1>   0.0400 
  3 C        0.1160    -1.5650     0.2420 C.2   1 <1>  -0.0450 
  4 C        1.8430    -0.2430     1.1730 C.ar  1 <1>   0.0000 
  5 C        1.9310     1.9200     0.0550 C.ar  1 <1>  -0.1500 
  6 C       -0.7880    -2.6420    -0.0770 C.2   1 <1>   0.7150 
  7 C        1.1190    -1.4780     1.1500 C.2   1 <1>  -0.1500 
  8 C        2.9020     0.1460     1.9900 C.ar  1 <1>  -0.1500 
  9 C        2.9820     2.2890     0.8770 C.ar  1 <1>  -0.1500 
 10 O       -0.3380    -3.7730    -0.1260 O.2   1 <1>  -0.5700 
 11 N       -2.1430    -2.4630    -0.2890 N.am  1 <1>  -0.6600 
 12 C        3.4630     1.4030     1.8380 C.ar  1 <1>  -0.1500 
 13 C       -2.9250    -1.3760     0.3870 C.3   1 <1>   0.1400 
 14 C       -2.9840    -3.6050    -0.7500 C.3   1 <1>   0.1400 
 15 C       -4.0680    -0.8390    -0.5020 C.3   1 <1>   0.1440 
 16 C       -4.1100    -3.1150    -1.6670 C.3   1 <1>  -0.1600 
 17 C       -4.9330     0.1410     0.2710 C.ar  1 <1>   0.1670 
 18 C       -4.9450    -2.0060    -1.0060 C.3   1 <1>  -0.1600 
 19 C       -3.5580     0.0400    -1.6760 C.3   1 <1>  -0.1600 
 20 N       -5.4000    -0.0480     1.4870 N.ar  1 <1>  -0.6200 
 21 C       -5.1880     1.2670    -0.4520 C.ar  1 <1>  -0.1430 
 22 C       -4.5380     1.2190    -1.8110 C.3   1 <1>  -0.0170 
 23 C       -6.1380     0.9510     1.9500 C.ar  1 <1>   0.4770 
 24 C       -5.9640     2.2400     0.1280 C.ar  1 <1>   0.1600 
 25 N       -6.4490     2.0890     1.3430 N.ar  1 <1>  -0.6200 
 26 C       -6.6880     0.7710     3.3440 C.3   1 <1>  -0.0970 
 27 H        1.5430     2.5850    -0.6950 H     1 <1>   0.1500 
 28 H        1.3870    -2.2730     1.8240 H     1 <1>   0.1500 
 29 H        3.2760    -0.5350     2.7330 H     1 <1>   0.1500 
 30 H        3.4320     3.2610     0.7730 H     1 <1>   0.1500 
 31 H        4.2810     1.7030     2.4700 H     1 <1>   0.1500 
 32 H       -2.2870    -0.5640     0.6860 H     1 <1>   0.0800 
 33 H       -3.3550    -1.7860     1.2850 H     1 <1>   0.0800 
 34 H       -3.4020    -4.0990     0.1110 H     1 <1>   0.0800 
 35 H       -2.3820    -4.3210    -1.2860 H     1 <1>   0.0800 
 36 H       -4.7490    -3.9460    -1.9070 H     1 <1>   0.0800 
 37 H       -3.6780    -2.7680    -2.5880 H     1 <1>   0.0800 
 38 H       -5.6840    -1.6410    -1.6970 H     1 <1>   0.0800 
 39 H       -5.4700    -2.4270    -0.1650 H     1 <1>   0.0800 
 40 H       -3.4560    -0.5000    -2.5980 H     1 <1>   0.0800 
 41 H       -2.5990     0.4470    -1.4210 H     1 <1>   0.0800 
 42 H       -5.2810     1.0120    -2.5610 H     1 <1>   0.0800 
 43 H       -4.0240     2.1360    -2.0430 H     1 <1>   0.0800 
 44 H       -6.1920     3.1470    -0.4040 H     1 <1>   0.1500 
 45 H       -6.9620    -0.2560     3.5000 H     1 <1>   0.0800 
 46 H       -7.5550     1.3890     3.4850 H     1 <1>   0.0800 
 47 H       -5.9370     1.0480     4.0590 H     1 <1>   0.0800 
@<TRIPOS>BOND
  1   1   2  1   
  2   1   3  1   
  3   2   4  ar  
  4   2   5  ar  
  5   3   6  1   
  6   3   7  2   
  7   4   7  1   
  8   4   8  ar  
  9   5   9  ar  
 10   5  27  1   
 11   6  10  2   
 12   6  11  am  
 13   7  28  1   
 14   8  12  ar  
 15   8  29  1   
 16   9  12  ar  
 17   9  30  1   
 18  11  13  1   
 19  11  14  1   
 20  12  31  1   
 21  13  15  1   
 22  13  32  1   
 23  13  33  1   
 24  14  16  1   
 25  14  34  1   
 26  14  35  1   
 27  15  17  1   
 28  15  18  1   
 29  15  19  1   
 30  16  18  1   
 31  16  36  1   
 32  16  37  1   
 33  17  20  ar  
 34  17  21  ar  
 35  18  38  1   
 36  18  39  1   
 37  19  22  1   
 38  19  40  1   
 39  19  41  1   
 40  20  23  ar  
 41  21  22  1   
 42  21  24  ar  
 43  22  42  1   
 44  22  43  1   
 45  23  25  ar  
 46  23  26  1   
 47  24  25  ar  
 48  24  44  1   
 49  26  45  1   
 50  26  46  1   
 51  26  47  1   
@<TRIPOS>SUBSTRUCTURE
  1 ****  13 GROUP 4 **** **** 0

# MOE 2024.06 (io_trps.svl 2023.06)
