@<TRIPOS>MOLECULE
NONAME
42 44 1 0 0 
SMALL
USER_CHARGES


@<TRIPOS>ATOM
  1 S       -1.3030     0.2710     0.7110 S.3   1 <1>  -0.0800 
  2 C       -2.3290    -0.9920     0.0440 C.2   1 <1>  -0.1400 
  3 C       -1.2070     1.0770    -0.8430 C.2   1 <1>  -0.1100 
  4 C       -2.5640    -0.7630    -1.2620 C.2   1 <1>  -0.1500 
  5 C       -2.8030    -2.0950     0.9750 C.3   1 <1>   0.0200 
  6 C       -1.9200     0.4100    -1.7680 C.2   1 <1>  -0.1500 
  7 C       -1.6550    -2.7840     1.7370 C.3   1 <1>  -0.1600 
  8 C       -0.2980    -2.9590     1.0140 C.3   1 <1>   0.4230 
  9 N       -0.2730    -4.1150     0.0600 N.4   1 <1>  -0.9590 
 10 C        0.7810    -3.1670     2.0930 C.3   1 <1>  -0.1600 
 11 C        1.0640    -4.4340    -0.5120 C.3   1 <1>   0.3430 
 12 C       -1.2790    -4.0410    -1.0490 C.3   1 <1>   0.5230 
 13 C        2.1700    -3.4610     1.5220 C.3   1 <1>  -0.1600 
 14 C        2.0880    -4.6700     0.5920 C.3   1 <1>  -0.1600 
 15 C       -2.4170    -4.9980    -0.7390 C.2   1 <1>   0.2980 
 16 O       -3.4750    -5.0550    -1.5070 O.3   1 <1>  -0.2800 
 17 N       -2.4410    -5.7770     0.2760 N.2   1 <1>  -0.5650 
 18 C       -4.2520    -5.9370    -0.9410 C.2   1 <1>  -0.0100 
 19 C       -3.6560    -6.4100     0.1740 C.2   1 <1>  -0.0060 
 20 C       -4.2190    -7.3940     1.0970 C.2   1 <1>   1.0330 
 21 O       -5.3300    -7.8960     0.8500 O.co2 1 <1>  -0.9000 
 22 O       -3.6190    -7.7300     2.1350 O.co2 1 <1>  -0.9000 
 23 H       -0.6230     1.9800    -0.9000 H     1 <1>   0.1500 
 24 H       -3.1820    -1.3650    -1.9080 H     1 <1>   0.1500 
 25 H       -3.3730    -2.8140     0.4170 H     1 <1>   0.0800 
 26 H       -3.4840    -1.6670     1.6910 H     1 <1>   0.0800 
 27 H       -2.0290     0.7030    -2.7990 H     1 <1>   0.1500 
 28 H       -1.9940    -3.7290     2.1260 H     1 <1>   0.0800 
 29 H       -1.4770    -2.1600     2.5960 H     1 <1>   0.0800 
 30 H       -0.0610    -2.0540     0.4770 H     1 <1>   0.0800 
 31 H       -0.6010    -4.9380     0.6060 H     1 <1>   0.4500 
 32 H        0.4850    -3.9760     2.7390 H     1 <1>   0.0800 
 33 H        0.8440    -2.2810     2.7010 H     1 <1>   0.0800 
 34 H        1.3960    -3.6150    -1.1300 H     1 <1>   0.0800 
 35 H        0.9980    -5.3180    -1.1260 H     1 <1>   0.0800 
 36 H       -0.8350    -4.3400    -1.9830 H     1 <1>   0.0800 
 37 H       -1.6560    -3.0430    -1.1560 H     1 <1>   0.0800 
 38 H        2.8590    -3.6640     2.3260 H     1 <1>   0.0800 
 39 H        2.5340    -2.6030     0.9820 H     1 <1>   0.0800 
 40 H        3.0530    -4.8470     0.1480 H     1 <1>   0.0800 
 41 H        1.8200    -5.5530     1.1480 H     1 <1>   0.0800 
 42 H       -5.2100    -6.1890    -1.3630 H     1 <1>   0.1500 
@<TRIPOS>BOND
  1   1   2  1   
  2   1   3  1   
  3   2   4  2   
  4   2   5  1   
  5   3   6  2   
  6   3  23  1   
  7   4   6  1   
  8   4  24  1   
  9   5   7  1   
 10   5  25  1   
 11   5  26  1   
 12   6  27  1   
 13   7   8  1   
 14   7  28  1   
 15   7  29  1   
 16   8   9  1   
 17   8  10  1   
 18   8  30  1   
 19   9  11  1   
 20   9  12  1   
 21   9  31  1   
 22  10  13  1   
 23  10  32  1   
 24  10  33  1   
 25  11  14  1   
 26  11  34  1   
 27  11  35  1   
 28  12  15  1   
 29  12  36  1   
 30  12  37  1   
 31  13  14  1   
 32  13  38  1   
 33  13  39  1   
 34  14  40  1   
 35  14  41  1   
 36  15  16  1   
 37  15  17  2   
 38  16  18  1   
 39  17  19  1   
 40  18  19  2   
 41  18  42  1   
 42  19  20  1   
 43  20  21  ar  
 44  20  22  ar  
@<TRIPOS>SUBSTRUCTURE
  1 ****  12 GROUP 4 **** **** 0

# MOE 2024.06 (io_trps.svl 2023.06)
