@<TRIPOS>MOLECULE
NONAME
55 58 1 0 0 
SMALL
USER_CHARGES


@<TRIPOS>ATOM
  1 O       -2.6670     2.6920    -1.8720 O.2   1 <1>  -0.5700 
  2 C       -2.6410     2.1470    -0.7820 C.2   1 <1>   0.5440 
  3 N       -3.4770     1.0730    -0.5810 N.am  1 <1>  -0.6600 
  4 C       -1.7970     2.6790     0.2640 C.ar  1 <1>   0.0860 
  5 C       -4.5370     0.6800    -1.5480 C.3   1 <1>   0.1400 
  6 C       -3.1670    -0.0760     0.2930 C.3   1 <1>   0.1400 
  7 C       -0.5240     2.1700     0.6100 C.ar  1 <1>   0.1000 
  8 C       -2.2830     3.7840     0.9650 C.ar  1 <1>  -0.1500 
  9 C       -4.8630    -0.7900    -1.2390 C.3   1 <1>   0.2000 
 10 C       -3.5970    -1.2840    -0.5410 C.3   1 <1>  -0.0800 
 11 N        0.0680     1.0520     0.0090 N.pl3 1 <1>  -0.8380 
 12 C        0.1960     2.8160     1.6150 C.ar  1 <1>  -0.1500 
 13 C       -1.5590     4.3930     1.9690 C.ar  1 <1>  -0.1500 
 14 O       -5.9300    -0.8840    -0.3360 O.3   1 <1>  -0.5600 
 15 C       -3.7530    -2.5720     0.2830 C.3   1 <1>   0.0200 
 16 C       -0.0240     0.7780    -1.4600 C.3   1 <1>   0.2090 
 17 C        0.6330    -0.0720     0.8210 C.3   1 <1>   0.2090 
 18 C       -0.3070     3.9060     2.2930 C.ar  1 <1>  -0.1500 
 19 C       -7.1980    -0.8030    -0.9060 C.3   1 <1>   0.0400 
 20 C       -2.4090    -3.2000     0.6180 C.2   1 <1>  -0.0400 
 21 C        1.2430     0.0750    -1.9830 C.3   1 <1>   0.1200 
 22 C        1.8720    -0.6730     0.1390 C.3   1 <1>   0.1200 
 23 O       -2.3180    -4.0080     1.6410 O.3   1 <1>  -0.0190 
 24 C       -1.1940    -3.1270     0.0480 C.2   1 <1>  -0.1500 
 25 O        1.5840    -1.0300    -1.1850 O.3   1 <1>  -0.5600 
 26 N       -1.1110    -4.4780     1.7850 N.2   1 <1>  -0.4100 
 27 C       -0.4150    -3.9680     0.8350 C.2   1 <1>   0.1080 
 28 C        1.0500    -4.2650     0.6070 C.3   1 <1>  -0.0590 
 29 H       -5.3970     1.3170    -1.4430 H     1 <1>   0.0800 
 30 H       -4.1480     0.7660    -2.5480 H     1 <1>   0.0800 
 31 H       -2.1290    -0.1220     0.5500 H     1 <1>   0.0800 
 32 H       -3.7580    -0.0020     1.1900 H     1 <1>   0.0800 
 33 H       -3.2530     4.1700     0.7040 H     1 <1>   0.1500 
 34 H       -5.0910    -1.3620    -2.1220 H     1 <1>   0.0800 
 35 H       -2.8600    -1.4420    -1.3060 H     1 <1>   0.0800 
 36 H        1.1780     2.4600     1.8620 H     1 <1>   0.1500 
 37 H       -1.9610     5.2440     2.4920 H     1 <1>   0.1500 
 38 H       -4.3310    -3.2900    -0.2690 H     1 <1>   0.0800 
 39 H       -4.2860    -2.3560     1.1930 H     1 <1>   0.0800 
 40 H       -0.8760     0.1520    -1.6540 H     1 <1>   0.0800 
 41 H       -0.1610     1.7030    -1.9930 H     1 <1>   0.0800 
 42 H        0.8950     0.2670     1.8070 H     1 <1>   0.0800 
 43 H       -0.1090    -0.8410     0.9340 H     1 <1>   0.0800 
 44 H        0.2710     4.3800     3.0670 H     1 <1>   0.1500 
 45 H       -7.9230    -0.8870    -0.1160 H     1 <1>   0.0800 
 46 H       -7.3280    -1.6140    -1.6020 H     1 <1>   0.0800 
 47 H       -7.3140     0.1450    -1.4010 H     1 <1>   0.0800 
 48 H        2.0700     0.7630    -1.9900 H     1 <1>   0.0800 
 49 H        1.0810    -0.2780    -2.9850 H     1 <1>   0.0800 
 50 H        2.1890    -1.5570     0.6610 H     1 <1>   0.0800 
 51 H        2.6800     0.0370     0.1400 H     1 <1>   0.0800 
 52 H       -0.8520    -2.5770    -0.8100 H     1 <1>   0.1500 
 53 H        1.3980    -3.7760    -0.2850 H     1 <1>   0.0800 
 54 H        1.1900    -5.3250     0.5020 H     1 <1>   0.0800 
 55 H        1.6240    -3.9210     1.4480 H     1 <1>   0.0800 
@<TRIPOS>BOND
  1   1   2  2   
  2   2   3  am  
  3   2   4  1   
  4   3   5  1   
  5   3   6  1   
  6   4   7  ar  
  7   4   8  ar  
  8   5   9  1   
  9   5  29  1   
 10   5  30  1   
 11   6  10  1   
 12   6  31  1   
 13   6  32  1   
 14   7  11  1   
 15   7  12  ar  
 16   8  13  ar  
 17   8  33  1   
 18   9  10  1   
 19   9  14  1   
 20   9  34  1   
 21  10  15  1   
 22  10  35  1   
 23  11  16  1   
 24  11  17  1   
 25  12  18  ar  
 26  12  36  1   
 27  13  18  ar  
 28  13  37  1   
 29  14  19  1   
 30  15  20  1   
 31  15  38  1   
 32  15  39  1   
 33  16  21  1   
 34  16  40  1   
 35  16  41  1   
 36  17  22  1   
 37  17  42  1   
 38  17  43  1   
 39  18  44  1   
 40  19  45  1   
 41  19  46  1   
 42  19  47  1   
 43  20  23  1   
 44  20  24  2   
 45  21  25  1   
 46  21  48  1   
 47  21  49  1   
 48  22  25  1   
 49  22  50  1   
 50  22  51  1   
 51  23  26  1   
 52  24  27  1   
 53  24  52  1   
 54  26  27  2   
 55  27  28  1   
 56  28  53  1   
 57  28  54  1   
 58  28  55  1   
@<TRIPOS>SUBSTRUCTURE
  1 ****   6 GROUP 4 **** **** 0

# MOE 2024.06 (io_trps.svl 2023.06)
