@<TRIPOS>MOLECULE
NONAME
48 50 1 0 0 
SMALL
USER_CHARGES


@<TRIPOS>ATOM
  1 S        0.6630     0.6320     1.8510 S.o2  1 <1>   1.4470 
  2 O        1.4100     1.8400     2.0970 O.2   1 <1>  -0.6500 
  3 O       -0.1800     0.0610     2.8710 O.2   1 <1>  -0.6500 
  4 N       -0.4360     1.1050     0.7100 N.am  1 <1>  -0.9780 
  5 C        1.6650    -0.6210     1.0040 C.ar  1 <1>  -0.0090 
  6 C        1.4820    -1.9750     1.2400 C.ar  1 <1>  -0.1500 
  7 C        2.6320    -0.2540     0.0770 C.ar  1 <1>  -0.1500 
  8 C        2.2210    -2.9640     0.5910 C.ar  1 <1>   0.0860 
  9 C        3.3910    -1.2030    -0.5790 C.ar  1 <1>  -0.1500 
 10 C        3.1990    -2.5580    -0.3260 C.ar  1 <1>   0.0830 
 11 C        1.9580    -4.3550     0.9010 C.2   1 <1>   0.5440 
 12 O        3.9400    -3.5120    -0.9370 O.3   1 <1>  -0.3630 
 13 O        2.0200    -4.7310     2.0570 O.2   1 <1>  -0.5700 
 14 N        1.5680    -5.2640    -0.0540 N.am  1 <1>  -0.6600 
 15 C        5.0800    -3.2150    -1.7150 C.3   1 <1>   0.0400 
 16 C        1.1830    -4.9510    -1.4520 C.3   1 <1>   0.1400 
 17 C        1.3040    -6.6920     0.2450 C.3   1 <1>   0.1400 
 18 C        0.1990    -6.0600    -1.8190 C.3   1 <1>   0.2000 
 19 C        0.7280    -7.2770    -1.0510 C.3   1 <1>  -0.0800 
 20 O       -1.0480    -5.7060    -1.3250 O.3   1 <1>  -0.6800 
 21 C       -0.2930    -8.4070    -0.8240 C.3   1 <1>  -0.0170 
 22 C        0.3590    -9.6020    -0.1450 C.ar  1 <1>  -0.1430 
 23 C        1.0260   -10.5720    -0.8650 C.ar  1 <1>  -0.1500 
 24 C        0.3210    -9.7780     1.2230 C.ar  1 <1>  -0.1500 
 25 C        1.6070   -11.6400    -0.2020 C.ar  1 <1>   0.1600 
 26 C        0.9360   -10.8830     1.7890 C.ar  1 <1>   0.1600 
 27 N        1.5790   -11.8190     1.1090 N.ar  1 <1>  -0.6200 
 28 H       -0.4310     2.1190     0.7920 H     1 <1>   0.4200 
 29 H       -1.3230     0.7960     1.1020 H     1 <1>   0.4200 
 30 H        0.7420    -2.2880     1.9600 H     1 <1>   0.1500 
 31 H        2.7910     0.7930    -0.1290 H     1 <1>   0.1500 
 32 H        4.1280    -0.8670    -1.2840 H     1 <1>   0.1500 
 33 H        5.5330    -4.1440    -2.0100 H     1 <1>   0.0800 
 34 H        5.7710    -2.6460    -1.1190 H     1 <1>   0.0800 
 35 H        4.7760    -2.6640    -2.5870 H     1 <1>   0.0800 
 36 H        0.7400    -3.9740    -1.5440 H     1 <1>   0.0800 
 37 H        2.0570    -5.0130    -2.0760 H     1 <1>   0.0800 
 38 H        2.2120    -7.1920     0.5350 H     1 <1>   0.0800 
 39 H        0.5920    -6.7550     1.0500 H     1 <1>   0.0800 
 40 H        0.1170    -6.2210    -2.8810 H     1 <1>   0.0800 
 41 H        1.5550    -7.6780    -1.6110 H     1 <1>   0.0800 
 42 H       -0.9400    -5.4300    -0.3920 H     1 <1>   0.4000 
 43 H       -0.7010    -8.7140    -1.7710 H     1 <1>   0.0800 
 44 H       -1.1120    -8.0570    -0.2210 H     1 <1>   0.0800 
 45 H        1.0990   -10.5090    -1.9350 H     1 <1>   0.1500 
 46 H       -0.1800    -9.0690     1.8570 H     1 <1>   0.1500 
 47 H        2.1230   -12.3870    -0.7800 H     1 <1>   0.1500 
 48 H        0.8970   -11.0020     2.8580 H     1 <1>   0.1500 
@<TRIPOS>BOND
  1   1   2  2   
  2   1   3  2   
  3   1   4  am  
  4   1   5  1   
  5   4  28  1   
  6   4  29  1   
  7   5   6  ar  
  8   5   7  ar  
  9   6   8  ar  
 10   6  30  1   
 11   7   9  ar  
 12   7  31  1   
 13   8  10  ar  
 14   8  11  1   
 15   9  10  ar  
 16   9  32  1   
 17  10  12  1   
 18  11  13  2   
 19  11  14  am  
 20  12  15  1   
 21  14  16  1   
 22  14  17  1   
 23  15  33  1   
 24  15  34  1   
 25  15  35  1   
 26  16  18  1   
 27  16  36  1   
 28  16  37  1   
 29  17  19  1   
 30  17  38  1   
 31  17  39  1   
 32  18  19  1   
 33  18  20  1   
 34  18  40  1   
 35  19  21  1   
 36  19  41  1   
 37  20  42  1   
 38  21  22  1   
 39  21  43  1   
 40  21  44  1   
 41  22  23  ar  
 42  22  24  ar  
 43  23  25  ar  
 44  23  45  1   
 45  24  26  ar  
 46  24  46  1   
 47  25  27  ar  
 48  25  47  1   
 49  26  27  ar  
 50  26  48  1   
@<TRIPOS>SUBSTRUCTURE
  1 ****  14 GROUP 4 **** **** 0

# MOE 2024.06 (io_trps.svl 2023.06)
