@<TRIPOS>MOLECULE
NONAME
49 52 1 0 0 
SMALL
USER_CHARGES


@<TRIPOS>ATOM
  1 S       -3.7080    -0.9270    -3.3200 S.3   1 <1>  -0.4600 
  2 C       -3.5250     0.1090    -1.8330 C.3   1 <1>   0.2510 
  3 C       -3.8730    -2.5490    -2.5140 C.3   1 <1>   0.2510 
  4 C       -3.6210    -0.8900    -0.7040 C.2   1 <1>   0.1080 
  5 C       -3.7960    -2.2150    -1.0440 C.2   1 <1>  -0.1810 
  6 N       -3.5650    -0.6950     0.5740 N.2   1 <1>  -0.7070 
  7 C       -3.8460    -2.8880     0.1290 C.2   1 <1>  -0.0880 
  8 N       -3.7000    -1.9380     1.1050 N.pl3 1 <1>   0.3140 
  9 N       -4.0350    -4.2840     0.2780 N.am  1 <1>  -0.4940 
 10 C       -3.7660    -2.0980     2.5630 C.3   1 <1>   0.0160 
 11 C       -3.5720    -5.1780     1.2150 C.2   1 <1>   0.5440 
 12 O       -2.8520    -4.8060     2.1200 O.2   1 <1>  -0.5700 
 13 C       -3.9120    -6.5820     1.0760 C.ar  1 <1>   0.0860 
 14 C       -5.2280    -7.0540     0.9640 C.ar  1 <1>  -0.1430 
 15 C       -2.8700    -7.5070     1.0300 C.ar  1 <1>  -0.1500 
 16 C       -5.4680    -8.4110     0.7250 C.ar  1 <1>   0.1170 
 17 C       -6.4050    -6.0880     1.1360 C.3   1 <1>  -0.0970 
 18 C       -3.1060    -8.8530     0.8380 C.ar  1 <1>  -0.1500 
 19 N       -6.7480    -8.9430     0.5270 N.am  1 <1>  -0.5470 
 20 C       -4.4010    -9.2980     0.6790 C.ar  1 <1>  -0.1500 
 21 C       -7.6620    -8.6530    -0.4480 C.2   1 <1>   0.5690 
 22 O       -7.5070    -7.7630    -1.2520 O.2   1 <1>  -0.5700 
 23 C       -8.9280    -9.5190    -0.5110 C.3   1 <1>   0.2610 
 24 O       -8.9500   -10.4950     0.4990 O.3   1 <1>  -0.5600 
 25 C       -9.0650   -10.3270    -1.7980 C.3   1 <1>  -0.1600 
 26 C       -9.8360   -11.5120     0.1540 C.3   1 <1>   0.1200 
 27 C       -9.8800   -11.5390    -1.3730 C.3   1 <1>  -0.1600 
 28 H       -4.3270     0.8220    -1.8110 H     1 <1>   0.0800 
 29 H       -2.5640     0.5890    -1.8650 H     1 <1>   0.0800 
 30 H       -3.0560    -3.1680    -2.8360 H     1 <1>   0.0800 
 31 H       -4.8240    -2.9660    -2.7930 H     1 <1>   0.0800 
 32 H       -4.5310    -4.7330    -0.4930 H     1 <1>   0.3700 
 33 H       -4.0720    -1.1700     3.0070 H     1 <1>   0.0800 
 34 H       -2.7930    -2.3680     2.9280 H     1 <1>   0.0800 
 35 H       -4.4730    -2.8660     2.8080 H     1 <1>   0.0800 
 36 H       -1.8580    -7.1560     1.1460 H     1 <1>   0.1500 
 37 H       -6.1620    -5.2910     1.8160 H     1 <1>   0.0800 
 38 H       -7.2620    -6.5930     1.5440 H     1 <1>   0.0800 
 39 H       -6.6800    -5.6660     0.1870 H     1 <1>   0.0800 
 40 H       -2.2850    -9.5490     0.8070 H     1 <1>   0.1500 
 41 H       -7.0070    -9.7670     1.0780 H     1 <1>   0.3700 
 42 H       -4.5860   -10.3440     0.5100 H     1 <1>   0.1500 
 43 H       -9.7910    -8.8930    -0.3740 H     1 <1>   0.0800 
 44 H       -8.0890   -10.6320    -2.1360 H     1 <1>   0.0800 
 45 H       -9.5410    -9.7530    -2.5730 H     1 <1>   0.0800 
 46 H      -10.8010   -11.2710     0.5680 H     1 <1>   0.0800 
 47 H       -9.4790   -12.4390     0.5690 H     1 <1>   0.0800 
 48 H       -9.4540   -12.4510    -1.7540 H     1 <1>   0.0800 
 49 H      -10.8990   -11.4630    -1.7100 H     1 <1>   0.0800 
@<TRIPOS>BOND
  1   1   2  1   
  2   1   3  1   
  3   2   4  1   
  4   2  28  1   
  5   2  29  1   
  6   3   5  1   
  7   3  30  1   
  8   3  31  1   
  9   4   5  1   
 10   4   6  2   
 11   5   7  2   
 12   6   8  1   
 13   7   8  1   
 14   7   9  1   
 15   8  10  1   
 16   9  11  am  
 17   9  32  1   
 18  10  33  1   
 19  10  34  1   
 20  10  35  1   
 21  11  12  2   
 22  11  13  1   
 23  13  14  ar  
 24  13  15  ar  
 25  14  16  ar  
 26  14  17  1   
 27  15  18  ar  
 28  15  36  1   
 29  16  19  1   
 30  16  20  ar  
 31  17  37  1   
 32  17  38  1   
 33  17  39  1   
 34  18  20  ar  
 35  18  40  1   
 36  19  21  am  
 37  19  41  1   
 38  20  42  1   
 39  21  22  2   
 40  21  23  1   
 41  23  24  1   
 42  23  25  1   
 43  23  43  1   
 44  24  26  1   
 45  25  27  1   
 46  25  44  1   
 47  25  45  1   
 48  26  27  1   
 49  26  46  1   
 50  26  47  1   
 51  27  48  1   
 52  27  49  1   
@<TRIPOS>SUBSTRUCTURE
  1 ****  14 GROUP 4 **** **** 0

# MOE 2024.06 (io_trps.svl 2023.06)
