@<TRIPOS>MOLECULE
NONAME
49 51 1 0 0 
SMALL
USER_CHARGES


@<TRIPOS>ATOM
  1 O       -0.3380     0.1190    -0.2340 O.2   1 <1>  -0.5700 
  2 C       -1.3430     0.7700    -0.4670 C.2   1 <1>   0.5440 
  3 N       -2.5190     0.0990    -0.7330 N.am  1 <1>  -0.6600 
  4 C       -1.2900     2.2160    -0.4500 C.ar  1 <1>   0.0860 
  5 C       -3.8660     0.6780    -0.4370 C.3   1 <1>   0.1400 
  6 C       -2.5620    -1.3800    -0.9450 C.3   1 <1>   0.1400 
  7 C       -0.7850     2.9150     0.6600 C.ar  1 <1>   0.1000 
  8 C       -1.7540     2.9500    -1.5430 C.ar  1 <1>  -0.1500 
  9 C       -4.5780    -0.1260     0.6730 C.3   1 <1>   0.2950 
 10 C       -3.3460    -2.0740     0.1900 C.3   1 <1>   0.2000 
 11 N       -0.2830     2.2470     1.7630 N.pl3 1 <1>  -0.9000 
 12 C       -0.7820     4.3060     0.6600 C.ar  1 <1>  -0.1500 
 13 C       -1.7380     4.3300    -1.5270 C.ar  1 <1>   0.0830 
 14 O       -4.6070    -1.4820     0.3300 O.3   1 <1>  -0.5600 
 15 C       -6.0320     0.2970     0.9450 C.3   1 <1>  -0.1950 
 16 C       -3.5860    -3.5670    -0.0670 C.3   1 <1>  -0.1600 
 17 C       -1.2570     5.0150    -0.4250 C.ar  1 <1>  -0.1500 
 18 O       -2.1890     5.0310    -2.5820 O.3   1 <1>  -0.5330 
 19 C       -7.0240     0.6240    -0.1290 C.3   1 <1>  -0.2000 
 20 C       -6.5300     1.7040     0.7940 C.3   1 <1>  -0.2000 
 21 C       -2.2860    -4.3890    -0.0970 C.3   1 <1>  -0.1600 
 22 C       -2.5850    -5.8850    -0.2540 C.3   1 <1>  -0.1600 
 23 C       -1.2910    -6.7030    -0.2850 C.3   1 <1>  -0.2400 
 24 H       -3.7760     1.6990    -0.1160 H     1 <1>   0.0800 
 25 H       -4.4580     0.6580    -1.3330 H     1 <1>   0.0800 
 26 H       -3.0410    -1.5870    -1.8850 H     1 <1>   0.0800 
 27 H       -1.5650    -1.7810    -0.9920 H     1 <1>   0.0800 
 28 H       -2.1270     2.4210    -2.4000 H     1 <1>   0.1500 
 29 H       -4.0180    -0.0250     1.5880 H     1 <1>   0.0800 
 30 H       -2.8140    -1.9550     1.1190 H     1 <1>   0.0800 
 31 H       -0.0100     1.2680     1.5720 H     1 <1>   0.4000 
 32 H        0.4290     2.7280     2.3200 H     1 <1>   0.4000 
 33 H       -0.4070     4.8320     1.5190 H     1 <1>   0.1500 
 34 H       -6.4160    -0.2440     1.7930 H     1 <1>   0.1000 
 35 H       -4.2140    -3.9440     0.7210 H     1 <1>   0.0800 
 36 H       -4.1090    -3.6870    -0.9990 H     1 <1>   0.0800 
 37 H       -1.2560     6.0900    -0.4280 H     1 <1>   0.1500 
 38 H       -2.4550     4.4660    -3.3290 H     1 <1>   0.4500 
 39 H       -6.7100     0.6260    -1.1580 H     1 <1>   0.1000 
 40 H       -8.0300     0.2590    -0.0150 H     1 <1>   0.1000 
 41 H       -7.2040     2.0910     1.5380 H     1 <1>   0.1000 
 42 H       -5.9010     2.4730     0.3800 H     1 <1>   0.1000 
 43 H       -1.6660    -4.0690    -0.9160 H     1 <1>   0.0800 
 44 H       -1.7410    -4.2300     0.8190 H     1 <1>   0.0800 
 45 H       -3.1960    -6.2210     0.5660 H     1 <1>   0.0800 
 46 H       -3.1320    -6.0510    -1.1670 H     1 <1>   0.0800 
 47 H       -0.7380    -6.5670     0.6270 H     1 <1>   0.0800 
 48 H       -0.6740    -6.4010    -1.1130 H     1 <1>   0.0800 
 49 H       -1.5200    -7.7490    -0.3930 H     1 <1>   0.0800 
@<TRIPOS>BOND
  1   1   2  2   
  2   2   3  am  
  3   2   4  1   
  4   3   5  1   
  5   3   6  1   
  6   4   7  ar  
  7   4   8  ar  
  8   5   9  1   
  9   5  24  1   
 10   5  25  1   
 11   6  10  1   
 12   6  26  1   
 13   6  27  1   
 14   7  11  1   
 15   7  12  ar  
 16   8  13  ar  
 17   8  28  1   
 18   9  14  1   
 19   9  15  1   
 20   9  29  1   
 21  10  14  1   
 22  10  16  1   
 23  10  30  1   
 24  11  31  1   
 25  11  32  1   
 26  12  17  ar  
 27  12  33  1   
 28  13  17  ar  
 29  13  18  1   
 30  15  19  1   
 31  15  20  1   
 32  15  34  1   
 33  16  21  1   
 34  16  35  1   
 35  16  36  1   
 36  17  37  1   
 37  18  38  1   
 38  19  20  1   
 39  19  39  1   
 40  19  40  1   
 41  20  41  1   
 42  20  42  1   
 43  21  22  1   
 44  21  43  1   
 45  21  44  1   
 46  22  23  1   
 47  22  45  1   
 48  22  46  1   
 49  23  47  1   
 50  23  48  1   
 51  23  49  1   
@<TRIPOS>SUBSTRUCTURE
  1 ****   3 GROUP 4 **** **** 0

# MOE 2024.06 (io_trps.svl 2023.06)
