@<TRIPOS>MOLECULE
NONAME
57 60 1 0 0 
SMALL
USER_CHARGES


@<TRIPOS>ATOM
  1 O       -1.7300     0.3960     0.4460 O.3   1 <1>  -0.2800 
  2 C       -2.3960    -0.2780     1.3660 C.2   1 <1>  -0.0400 
  3 C       -1.0220     1.3230     1.0580 C.2   1 <1>  -0.0400 
  4 C       -2.1290     0.2100     2.5960 C.2   1 <1>  -0.1500 
  5 C       -3.3100    -1.3950     0.9050 C.3   1 <1>   0.5230 
  6 C       -1.2270     1.2610     2.3930 C.2   1 <1>  -0.1500 
  7 C       -0.1520     2.2380     0.2110 C.3   1 <1>   0.0200 
  8 N       -4.1670    -0.8370    -0.1710 N.4   1 <1>  -0.9590 
  9 C        0.5940     3.2860     1.0470 C.3   1 <1>  -0.1600 
 10 C       -5.1370     0.1690     0.3800 C.3   1 <1>   0.3430 
 11 C       -4.8450    -1.8800    -0.9850 C.3   1 <1>   0.3430 
 12 C        1.4580     4.1970     0.1680 C.3   1 <1>  -0.2400 
 13 C       -5.8980     0.8930    -0.7420 C.3   1 <1>   0.1430 
 14 C       -5.5790    -1.2170    -2.1550 C.3   1 <1>  -0.1600 
 15 C       -6.9390     1.7780    -0.1030 C.ar  1 <1>   0.1670 
 16 C       -6.5660    -0.1310    -1.6850 C.3   1 <1>  -0.1600 
 17 C       -5.0110     1.9120    -1.5100 C.3   1 <1>  -0.1600 
 18 N       -7.7620     1.3860     0.8340 N.ar  1 <1>  -0.6200 
 19 C       -6.9070     3.0430    -0.6010 C.ar  1 <1>  -0.1430 
 20 C       -5.8460     3.2000    -1.6610 C.3   1 <1>  -0.0170 
 21 C       -8.5970     2.3310     1.2770 C.ar  1 <1>   0.7200 
 22 C       -7.8010     3.9460    -0.0840 C.ar  1 <1>   0.1600 
 23 N       -8.6460     3.5990     0.8570 N.ar  1 <1>  -0.6200 
 24 N       -9.4830     1.9620     2.2670 N.pl3 1 <1>  -0.8380 
 25 C      -10.2190     2.9760     3.0730 C.3   1 <1>   0.1290 
 26 C       -9.9320     0.5550     2.4540 C.3   1 <1>   0.1290 
 27 H       -2.5010    -0.0990     3.5580 H     1 <1>   0.1500 
 28 H       -3.9070    -1.7600     1.7250 H     1 <1>   0.0800 
 29 H       -2.7070    -2.2000     0.5200 H     1 <1>   0.0800 
 30 H       -0.8020     1.8720     3.1710 H     1 <1>   0.1500 
 31 H       -0.7760     2.7350    -0.5110 H     1 <1>   0.0800 
 32 H        0.5600     1.6350    -0.3250 H     1 <1>   0.0800 
 33 H       -3.5060    -0.3170    -0.7680 H     1 <1>   0.4500 
 34 H        1.2240     2.7880     1.7650 H     1 <1>   0.0800 
 35 H       -0.1180     3.8880     1.5870 H     1 <1>   0.0800 
 36 H       -4.6190     0.9030     0.9770 H     1 <1>   0.0800 
 37 H       -5.8540    -0.3260     1.0140 H     1 <1>   0.0800 
 38 H       -5.5550    -2.4160    -0.3740 H     1 <1>   0.0800 
 39 H       -4.1230    -2.5850    -1.3660 H     1 <1>   0.0800 
 40 H        2.1950     3.6210    -0.3630 H     1 <1>   0.0800 
 41 H        1.9680     4.9200     0.7800 H     1 <1>   0.0800 
 42 H        0.8490     4.7250    -0.5450 H     1 <1>   0.0800 
 43 H       -6.1220    -1.9720    -2.6970 H     1 <1>   0.0800 
 44 H       -4.8590    -0.7980    -2.8350 H     1 <1>   0.0800 
 45 H       -6.9950     0.3740    -2.5340 H     1 <1>   0.0800 
 46 H       -7.3770    -0.6070    -1.1580 H     1 <1>   0.0800 
 47 H       -4.6860     1.5500    -2.4690 H     1 <1>   0.0800 
 48 H       -4.1400     2.1500    -0.9230 H     1 <1>   0.0800 
 49 H       -6.3100     3.2440    -2.6320 H     1 <1>   0.0800 
 50 H       -5.2510     4.0830    -1.5010 H     1 <1>   0.0800 
 51 H       -7.8230     4.9620    -0.4410 H     1 <1>   0.1500 
 52 H       -9.6210     3.8620     3.1990 H     1 <1>   0.0800 
 53 H      -10.4490     2.5810     4.0460 H     1 <1>   0.0800 
 54 H      -11.1330     3.2420     2.5700 H     1 <1>   0.0800 
 55 H       -9.6930    -0.0420     1.5920 H     1 <1>   0.0800 
 56 H      -10.9990     0.5260     2.5970 H     1 <1>   0.0800 
 57 H       -9.4480     0.1350     3.3180 H     1 <1>   0.0800 
@<TRIPOS>BOND
  1   1   2  1   
  2   1   3  1   
  3   2   4  2   
  4   2   5  1   
  5   3   6  2   
  6   3   7  1   
  7   4   6  1   
  8   4  27  1   
  9   5   8  1   
 10   5  28  1   
 11   5  29  1   
 12   6  30  1   
 13   7   9  1   
 14   7  31  1   
 15   7  32  1   
 16   8  10  1   
 17   8  11  1   
 18   8  33  1   
 19   9  12  1   
 20   9  34  1   
 21   9  35  1   
 22  10  13  1   
 23  10  36  1   
 24  10  37  1   
 25  11  14  1   
 26  11  38  1   
 27  11  39  1   
 28  12  40  1   
 29  12  41  1   
 30  12  42  1   
 31  13  15  1   
 32  13  16  1   
 33  13  17  1   
 34  14  16  1   
 35  14  43  1   
 36  14  44  1   
 37  15  18  ar  
 38  15  19  ar  
 39  16  45  1   
 40  16  46  1   
 41  17  20  1   
 42  17  47  1   
 43  17  48  1   
 44  18  21  ar  
 45  19  20  1   
 46  19  22  ar  
 47  20  49  1   
 48  20  50  1   
 49  21  23  ar  
 50  21  24  1   
 51  22  23  ar  
 52  22  51  1   
 53  24  25  1   
 54  24  26  1   
 55  25  52  1   
 56  25  53  1   
 57  25  54  1   
 58  26  55  1   
 59  26  56  1   
 60  26  57  1   
@<TRIPOS>SUBSTRUCTURE
  1 ****  10 GROUP 4 **** **** 0

# MOE 2024.06 (io_trps.svl 2023.06)
