@<TRIPOS>MOLECULE
NONAME
21 22 1 0 0 
SMALL
USER_CHARGES


@<TRIPOS>ATOM
  1 F       -1.0360     1.3270     2.3120 F     1 <1>  -0.1900 
  2 C       -0.7790     2.0290     1.2400 C.ar  1 <1>   0.1900 
  3 C       -1.6720     2.0340     0.1760 C.ar  1 <1>  -0.0320 
  4 C        0.4020     2.7480     1.2210 C.ar  1 <1>  -0.1500 
  5 C       -1.3530     2.8130    -0.9270 C.ar  1 <1>  -0.1500 
  6 C       -2.9830     1.2500     0.1660 C.3   1 <1>  -0.1150 
  7 C        0.7080     3.5080     0.1050 C.ar  1 <1>  -0.1500 
  8 C       -0.1720     3.5410    -0.9650 C.ar  1 <1>  -0.1500 
  9 C       -4.1730     2.0890     0.5800 C.2   1 <1>   0.9470 
 10 C       -3.0660    -0.2120     0.4620 C.3   1 <1>   0.4630 
 11 C       -3.1550     0.2520    -0.9500 C.3   1 <1>  -0.2000 
 12 O       -4.3720     2.3240     1.7760 O.co2 1 <1>  -0.9000 
 13 O       -4.9070     2.5360    -0.3110 O.co2 1 <1>  -0.9000 
 14 F       -4.1300    -0.7830     1.0100 F     1 <1>  -0.2320 
 15 F       -2.0040    -0.9260     0.8150 F     1 <1>  -0.2320 
 16 H        1.0620     2.7110     2.0680 H     1 <1>   0.1500 
 17 H       -2.0410     2.8570    -1.7540 H     1 <1>   0.1500 
 18 H        1.6210     4.0760     0.0710 H     1 <1>   0.1500 
 19 H        0.0550     4.1380    -1.8310 H     1 <1>   0.1500 
 20 H       -2.3230     0.0750    -1.6040 H     1 <1>   0.1000 
 21 H       -4.1050     0.2540    -1.4530 H     1 <1>   0.1000 
@<TRIPOS>BOND
  1   1   2  1   
  2   2   3  ar  
  3   2   4  ar  
  4   3   5  ar  
  5   3   6  1   
  6   4   7  ar  
  7   4  16  1   
  8   5   8  ar  
  9   5  17  1   
 10   6   9  1   
 11   6  10  1   
 12   6  11  1   
 13   7   8  ar  
 14   7  18  1   
 15   8  19  1   
 16   9  12  ar  
 17   9  13  ar  
 18  10  11  1   
 19  10  14  1   
 20  10  15  1   
 21  11  20  1   
 22  11  21  1   
@<TRIPOS>SUBSTRUCTURE
  1 ****   3 GROUP 4 **** **** 0

# MOE 2024.06 (io_trps.svl 2023.06)
