@<TRIPOS>MOLECULE
NONAME
46 48 1 0 0 
SMALL
USER_CHARGES


@<TRIPOS>ATOM
  1 F        2.3270     0.6140    -3.2980 F     1 <1>  -0.1900 
  2 C        3.0360     1.1590    -2.3310 C.ar  1 <1>   0.1900 
  3 C        3.2940     0.4790    -1.1430 C.ar  1 <1>   0.4100 
  4 C        3.5320     2.4220    -2.4980 C.ar  1 <1>   0.1600 
  5 N        4.0100     1.0620    -0.1990 N.ar  1 <1>  -0.6200 
  6 N        2.8220    -0.8010    -0.8790 N.pl3 1 <1>  -0.8380 
  7 N        4.2460     3.0120    -1.5590 N.ar  1 <1>  -0.6200 
  8 C        4.4420     2.2830    -0.4630 C.ar  1 <1>   0.7200 
  9 C        1.3480    -1.0370    -0.8380 C.3   1 <1>   0.2090 
 10 C        3.5650    -1.7070     0.0510 C.3   1 <1>   0.2090 
 11 N        5.1730     2.8280     0.5360 N.pl3 1 <1>  -0.8690 
 12 C        0.8380    -1.0610     0.6160 C.3   1 <1>   0.1200 
 13 C        2.9330    -1.6900     1.4550 C.3   1 <1>   0.1200 
 14 C        5.2350     4.2880     0.7910 C.3   1 <1>   0.2090 
 15 O        1.5620    -1.9760     1.3920 O.3   1 <1>  -0.5600 
 16 C        6.4550     4.8910     0.0900 C.3   1 <1>   0.1400 
 17 N        6.4080     6.3850     0.1570 N.am  1 <1>  -0.4690 
 18 C        6.8600     6.9950     1.3230 C.2   1 <1>   0.8410 
 19 C        5.9150     7.1550    -0.8760 C.2   1 <1>  -0.0290 
 20 O        7.2410     6.3190     2.2650 O.2   1 <1>  -0.5700 
 21 N        6.8700     8.3570     1.4550 N.2   1 <1>  -0.6610 
 22 C        5.9260     8.4990    -0.7150 C.2   1 <1>  -0.1360 
 23 C        5.3740     6.5090    -2.1440 C.3   1 <1>  -0.1020 
 24 C        6.4260     9.0580     0.4800 C.2   1 <1>   0.3750 
 25 C        6.4320    10.5640     0.6140 C.3   1 <1>  -0.1790 
 26 H        3.3420     2.9550    -3.4130 H     1 <1>   0.1500 
 27 H        1.1260    -1.9780    -1.3090 H     1 <1>   0.0800 
 28 H        0.8310    -0.2650    -1.3800 H     1 <1>   0.0800 
 29 H        4.5980    -1.4120     0.1150 H     1 <1>   0.0800 
 30 H        3.5360    -2.7110    -0.3360 H     1 <1>   0.0800 
 31 H        5.1520     2.2410     1.3700 H     1 <1>   0.4000 
 32 H       -0.1960    -1.3550     0.6410 H     1 <1>   0.0800 
 33 H        0.9320    -0.0850     1.0600 H     1 <1>   0.0800 
 34 H        3.0650    -0.7240     1.9100 H     1 <1>   0.0800 
 35 H        3.3960    -2.4340     2.0790 H     1 <1>   0.0800 
 36 H        5.3050     4.4630     1.8510 H     1 <1>   0.0800 
 37 H        4.3380     4.7560     0.4220 H     1 <1>   0.0800 
 38 H        6.4810     4.5600    -0.9310 H     1 <1>   0.0800 
 39 H        7.3500     4.5350     0.5680 H     1 <1>   0.0800 
 40 H        5.5620     9.1660    -1.4740 H     1 <1>   0.1500 
 41 H        4.5810     5.8230    -1.9040 H     1 <1>   0.0800 
 42 H        6.1560     5.9770    -2.6550 H     1 <1>   0.0800 
 43 H        4.9820     7.2520    -2.8130 H     1 <1>   0.0800 
 44 H        7.0330    10.9980    -0.1640 H     1 <1>   0.0800 
 45 H        6.8430    10.8520     1.5660 H     1 <1>   0.0800 
 46 H        5.4290    10.9420     0.5440 H     1 <1>   0.0800 
@<TRIPOS>BOND
  1   1   2  1   
  2   2   3  ar  
  3   2   4  ar  
  4   3   5  ar  
  5   3   6  1   
  6   4   7  ar  
  7   4  26  1   
  8   5   8  ar  
  9   6   9  1   
 10   6  10  1   
 11   7   8  ar  
 12   8  11  1   
 13   9  12  1   
 14   9  27  1   
 15   9  28  1   
 16  10  13  1   
 17  10  29  1   
 18  10  30  1   
 19  11  14  1   
 20  11  31  1   
 21  12  15  1   
 22  12  32  1   
 23  12  33  1   
 24  13  15  1   
 25  13  34  1   
 26  13  35  1   
 27  14  16  1   
 28  14  36  1   
 29  14  37  1   
 30  16  17  1   
 31  16  38  1   
 32  16  39  1   
 33  17  18  am  
 34  17  19  1   
 35  18  20  2   
 36  18  21  1   
 37  19  22  2   
 38  19  23  1   
 39  21  24  2   
 40  22  24  1   
 41  22  40  1   
 42  23  41  1   
 43  23  42  1   
 44  23  43  1   
 45  24  25  1   
 46  25  44  1   
 47  25  45  1   
 48  25  46  1   
@<TRIPOS>SUBSTRUCTURE
  1 ****   8 GROUP 4 **** **** 0

# MOE 2024.06 (io_trps.svl 2023.06)
