@<TRIPOS>MOLECULE
NONAME
40 41 1 0 0 
SMALL
USER_CHARGES


@<TRIPOS>ATOM
  1 O       -0.1300    -0.6140     0.7750 O.2   1 <1>  -0.5700 
  2 C        0.4610    -1.3060    -0.0290 C.2   1 <1>   0.7800 
  3 O        1.7430    -1.0810    -0.3220 O.3   1 <1>  -0.4300 
  4 N       -0.1510    -2.3620    -0.6550 N.am  1 <1>  -0.6600 
  5 C        2.5800    -0.0750     0.2070 C.3   1 <1>   0.2800 
  6 C       -1.5940    -2.6660    -0.4110 C.3   1 <1>   0.1400 
  7 C        0.5330    -3.2310    -1.6520 C.3   1 <1>   0.1400 
  8 C        2.7450    -0.2620     1.7200 C.3   1 <1>  -0.2400 
  9 C        3.9330    -0.2840    -0.4760 C.3   1 <1>  -0.2400 
 10 C        2.0390     1.3120    -0.1570 C.3   1 <1>  -0.2400 
 11 C       -1.8960    -4.1590    -0.6130 C.3   1 <1>  -0.1600 
 12 C        0.5040    -4.6990    -1.2010 C.3   1 <1>  -0.1600 
 13 C       -0.6900    -5.0520    -0.2980 C.3   1 <1>   0.4600 
 14 O       -0.3090    -4.7740     1.0070 O.3   1 <1>  -0.6800 
 15 C       -1.0510    -6.5380    -0.4030 C.2   1 <1>   0.0060 
 16 N       -1.5120    -7.1280    -1.4650 N.2   1 <1>  -0.5650 
 17 N       -0.9090    -7.3720     0.6480 N.pl3 1 <1>   0.0330 
 18 C       -1.6750    -8.4090    -1.0800 C.2   1 <1>   0.0770 
 19 C       -1.3120    -8.5780     0.2100 C.2   1 <1>  -0.3020 
 20 H       -2.2030    -2.0730    -1.0720 H     1 <1>   0.0800 
 21 H       -1.8440    -2.3930     0.6010 H     1 <1>   0.0800 
 22 H        1.5510    -2.9220    -1.8160 H     1 <1>   0.0800 
 23 H        0.0110    -3.1370    -2.5890 H     1 <1>   0.0800 
 24 H        3.0560    -1.2670     1.9410 H     1 <1>   0.0800 
 25 H        1.8270    -0.0530     2.2390 H     1 <1>   0.0800 
 26 H        3.4890     0.4160     2.0940 H     1 <1>   0.0800 
 27 H        4.3160    -1.2630    -0.2520 H     1 <1>   0.0800 
 28 H        4.6430     0.4450    -0.1300 H     1 <1>   0.0800 
 29 H        3.8330    -0.1800    -1.5410 H     1 <1>   0.0800 
 30 H        1.1220     1.5200     0.3630 H     1 <1>   0.0800 
 31 H        1.8690     1.3820    -1.2160 H     1 <1>   0.0800 
 32 H        2.7490     2.0680     0.1250 H     1 <1>   0.0800 
 33 H       -2.1820    -4.3240    -1.6360 H     1 <1>   0.0800 
 34 H       -2.7350    -4.4500    -0.0070 H     1 <1>   0.0800 
 35 H        1.4240    -4.9560    -0.7060 H     1 <1>   0.0800 
 36 H        0.4580    -5.3010    -2.0910 H     1 <1>   0.0800 
 37 H       -0.0620    -3.8260     1.0240 H     1 <1>   0.4000 
 38 H       -0.5650    -7.0850     1.5710 H     1 <1>   0.2700 
 39 H       -2.0520    -9.1540    -1.7620 H     1 <1>   0.1500 
 40 H       -1.3180    -9.4620     0.8210 H     1 <1>   0.1500 
@<TRIPOS>BOND
  1   1   2  2   
  2   2   3  1   
  3   2   4  am  
  4   3   5  1   
  5   4   6  1   
  6   4   7  1   
  7   5   8  1   
  8   5   9  1   
  9   5  10  1   
 10   6  11  1   
 11   6  20  1   
 12   6  21  1   
 13   7  12  1   
 14   7  22  1   
 15   7  23  1   
 16   8  24  1   
 17   8  25  1   
 18   8  26  1   
 19   9  27  1   
 20   9  28  1   
 21   9  29  1   
 22  10  30  1   
 23  10  31  1   
 24  10  32  1   
 25  11  13  1   
 26  11  33  1   
 27  11  34  1   
 28  12  13  1   
 29  12  35  1   
 30  12  36  1   
 31  13  14  1   
 32  13  15  1   
 33  14  37  1   
 34  15  16  2   
 35  15  17  1   
 36  16  18  1   
 37  17  19  1   
 38  17  38  1   
 39  18  19  2   
 40  18  39  1   
 41  19  40  1   
@<TRIPOS>SUBSTRUCTURE
  1 ****   4 GROUP 4 **** **** 0

# MOE 2024.06 (io_trps.svl 2023.06)
