@<TRIPOS>MOLECULE
NONAME
46 48 1 0 0 
SMALL
USER_CHARGES


@<TRIPOS>ATOM
  1 O       -0.0680     1.3410     1.0140 O.2   1 <1>  -0.5700 
  2 C       -0.0460     2.3390     0.3300 C.2   1 <1>   0.5690 
  3 N       -1.1660     3.1270     0.1940 N.am  1 <1>  -0.6600 
  4 C        1.2440     2.7140    -0.3990 C.3   1 <1>   0.0440 
  5 C       -2.4490     2.7620     0.8680 C.3   1 <1>   0.1400 
  6 C       -1.2790     4.3530    -0.6450 C.3   1 <1>   0.1400 
  7 C        2.4290     1.7740    -0.1850 C.ar  1 <1>  -0.1440 
  8 C       -3.5660     2.4980    -0.1730 C.3   1 <1>   0.0000 
  9 C       -2.3620     4.1470    -1.7110 C.3   1 <1>  -0.1600 
 10 C        3.5050     2.1600     0.6010 C.ar  1 <1>  -0.1500 
 11 C        2.4450     0.5260    -0.7880 C.ar  1 <1>  -0.1500 
 12 C       -4.9090     2.1330     0.4930 C.3   1 <1>   0.2000 
 13 C       -3.7080     3.7340    -1.0890 C.3   1 <1>  -0.1600 
 14 C       -3.2620     1.2180    -0.9720 C.3   1 <1>  -0.1600 
 15 C        4.5900     1.3170     0.7810 C.ar  1 <1>  -0.1440 
 16 C        3.5260    -0.3200    -0.6140 C.ar  1 <1>  -0.1500 
 17 O       -5.1360     2.8240     1.6710 O.3   1 <1>  -0.6800 
 18 C       -4.8770     0.6270     0.7660 C.3   1 <1>  -0.1600 
 19 C       -3.7290     0.0640    -0.0820 C.3   1 <1>  -0.1600 
 20 C        4.5970     0.0760     0.1670 C.ar  1 <1>  -0.1500 
 21 C        5.7590     1.7530     1.6450 C.3   1 <1>  -0.0970 
 22 H        1.0330     2.7470    -1.4510 H     1 <1>   0.0800 
 23 H        1.5250     3.7020    -0.0890 H     1 <1>   0.0800 
 24 H       -2.3180     1.8980     1.4950 H     1 <1>   0.0800 
 25 H       -2.7330     3.5820     1.5040 H     1 <1>   0.0800 
 26 H       -1.5500     5.1810    -0.0130 H     1 <1>   0.0800 
 27 H       -0.3480     4.5940    -1.1230 H     1 <1>   0.0800 
 28 H       -2.4900     5.0600    -2.2640 H     1 <1>   0.0800 
 29 H       -2.0310     3.3920    -2.4040 H     1 <1>   0.0800 
 30 H        3.5000     3.1230     1.0800 H     1 <1>   0.1500 
 31 H        1.6130     0.2070    -1.3900 H     1 <1>   0.1500 
 32 H       -5.7200     2.3570    -0.1800 H     1 <1>   0.0800 
 33 H       -4.4210     3.5390    -1.8700 H     1 <1>   0.0800 
 34 H       -4.0860     4.5550    -0.5030 H     1 <1>   0.0800 
 35 H       -3.8400     1.2090    -1.8800 H     1 <1>   0.0800 
 36 H       -2.2220     1.1170    -1.2300 H     1 <1>   0.0800 
 37 H        3.5310    -1.2870    -1.0840 H     1 <1>   0.1500 
 38 H       -4.5570     2.4770     2.3750 H     1 <1>   0.4000 
 39 H       -4.7020     0.4090     1.8050 H     1 <1>   0.0800 
 40 H       -5.8120     0.1880     0.4640 H     1 <1>   0.0800 
 41 H       -2.9190    -0.2390     0.5610 H     1 <1>   0.0800 
 42 H       -4.0400    -0.7830    -0.6680 H     1 <1>   0.0800 
 43 H        5.4330    -0.5890     0.2960 H     1 <1>   0.1500 
 44 H        6.2740     0.8970     2.0430 H     1 <1>   0.0800 
 45 H        5.4130     2.3520     2.4680 H     1 <1>   0.0800 
 46 H        6.4490     2.3320     1.0570 H     1 <1>   0.0800 
@<TRIPOS>BOND
  1   1   2  2   
  2   2   3  am  
  3   2   4  1   
  4   3   5  1   
  5   3   6  1   
  6   4   7  1   
  7   4  22  1   
  8   4  23  1   
  9   5   8  1   
 10   5  24  1   
 11   5  25  1   
 12   6   9  1   
 13   6  26  1   
 14   6  27  1   
 15   7  10  ar  
 16   7  11  ar  
 17   8  12  1   
 18   8  13  1   
 19   8  14  1   
 20   9  13  1   
 21   9  28  1   
 22   9  29  1   
 23  10  15  ar  
 24  10  30  1   
 25  11  16  ar  
 26  11  31  1   
 27  12  17  1   
 28  12  18  1   
 29  12  32  1   
 30  13  33  1   
 31  13  34  1   
 32  14  19  1   
 33  14  35  1   
 34  14  36  1   
 35  15  20  ar  
 36  15  21  1   
 37  16  20  ar  
 38  16  37  1   
 39  17  38  1   
 40  18  19  1   
 41  18  39  1   
 42  18  40  1   
 43  19  41  1   
 44  19  42  1   
 45  20  43  1   
 46  21  44  1   
 47  21  45  1   
 48  21  46  1   
@<TRIPOS>SUBSTRUCTURE
  1 ****   2 GROUP 4 **** **** 0

# MOE 2024.06 (io_trps.svl 2023.06)
