@<TRIPOS>MOLECULE
NONAME
47 49 1 0 0 
SMALL
USER_CHARGES


@<TRIPOS>ATOM
  1 F       -0.2190     0.3350    -0.0350 F     1 <1>  -0.3400 
  2 C       -1.3360    -0.1400     0.5020 C.3   1 <1>   1.1640 
  3 F       -1.3400     0.2440     1.7690 F     1 <1>  -0.3400 
  4 F       -2.3390     0.4890    -0.0930 F     1 <1>  -0.3400 
  5 C       -1.4530    -1.6710     0.3620 C.ar  1 <1>  -0.1440 
  6 C       -0.4840    -2.4460    -0.2420 C.ar  1 <1>  -0.1500 
  7 C       -2.5790    -2.3210     0.8810 C.ar  1 <1>  -0.1500 
  8 C       -0.6170    -3.8380    -0.3540 C.ar  1 <1>   0.3610 
  9 C       -2.7320    -3.6770     0.7580 C.ar  1 <1>  -0.1500 
 10 N        0.4180    -4.5980    -0.8490 N.ar  1 <1>  -0.1790 
 11 C       -1.7940    -4.4810     0.0820 C.ar  1 <1>   0.0000 
 12 C        0.3480    -5.9370    -0.9360 C.ar  1 <1>   0.2180 
 13 C       -1.9380    -5.8940    -0.1260 C.ar  1 <1>   0.1000 
 14 C       -0.8090    -6.5820    -0.5800 C.ar  1 <1>  -0.1500 
 15 C        1.5640    -6.6930    -1.4470 C.3   1 <1>  -0.0970 
 16 N       -3.1060    -6.5680     0.0610 N.pl3 1 <1>  -0.8380 
 17 C       -4.4690    -6.0300    -0.3030 C.3   1 <1>   0.2090 
 18 C       -3.1960    -7.9700     0.6250 C.3   1 <1>   0.2090 
 19 C       -5.2540    -6.9890    -1.2300 C.3   1 <1>   0.3430 
 20 C       -3.9480    -8.9230    -0.3250 C.3   1 <1>   0.3430 
 21 N       -5.3000    -8.3740    -0.6780 N.4   1 <1>  -0.9590 
 22 C       -6.1150    -9.3710    -1.4210 C.3   1 <1>   0.3430 
 23 C       -7.1800    -9.9270    -0.4890 C.3   1 <1>  -0.2660 
 24 C       -6.5120   -10.2440     0.8060 C.2   1 <1>   0.9060 
 25 O       -5.8290   -11.2600     0.8740 O.co2 1 <1>  -0.9000 
 26 O       -6.4130    -9.3060     1.6050 O.co2 1 <1>  -0.9000 
 27 H        0.4050    -1.9790    -0.6320 H     1 <1>   0.1500 
 28 H       -3.3340    -1.7420     1.3940 H     1 <1>   0.1500 
 29 H       -3.5920    -4.1390     1.2100 H     1 <1>   0.1500 
 30 H        1.2740    -4.1130    -1.1290 H     1 <1>   0.4570 
 31 H       -0.8600    -7.6490    -0.6860 H     1 <1>   0.1500 
 32 H        2.4120    -6.5210    -0.8070 H     1 <1>   0.0800 
 33 H        1.8110    -6.3800    -2.4470 H     1 <1>   0.0800 
 34 H        1.3740    -7.7520    -1.4680 H     1 <1>   0.0800 
 35 H       -4.3720    -5.0840    -0.8060 H     1 <1>   0.0800 
 36 H       -5.0410    -5.8750     0.5970 H     1 <1>   0.0800 
 37 H       -3.7310    -7.9400     1.5600 H     1 <1>   0.0800 
 38 H       -2.2210    -8.3670     0.8380 H     1 <1>   0.0800 
 39 H       -4.7780    -7.0040    -2.1960 H     1 <1>   0.0800 
 40 H       -6.2570    -6.6180    -1.3550 H     1 <1>   0.0800 
 41 H       -4.0640    -9.8780     0.1650 H     1 <1>   0.0800 
 42 H       -3.3650    -9.0720    -1.2170 H     1 <1>   0.0800 
 43 H       -5.7660    -8.3370     0.2660 H     1 <1>   0.4500 
 44 H       -5.4840   -10.1820    -1.7480 H     1 <1>   0.0800 
 45 H       -6.5770    -8.9230    -2.2840 H     1 <1>   0.0800 
 46 H       -7.6060   -10.8240    -0.8950 H     1 <1>   0.0800 
 47 H       -7.9610    -9.2100    -0.3230 H     1 <1>   0.0800 
@<TRIPOS>BOND
  1   1   2  1   
  2   2   3  1   
  3   2   4  1   
  4   2   5  1   
  5   5   6  ar  
  6   5   7  ar  
  7   6   8  ar  
  8   6  27  1   
  9   7   9  ar  
 10   7  28  1   
 11   8  10  ar  
 12   8  11  ar  
 13   9  11  ar  
 14   9  29  1   
 15  10  12  ar  
 16  10  30  1   
 17  11  13  ar  
 18  12  14  ar  
 19  12  15  1   
 20  13  14  ar  
 21  13  16  1   
 22  14  31  1   
 23  15  32  1   
 24  15  33  1   
 25  15  34  1   
 26  16  17  1   
 27  16  18  1   
 28  17  19  1   
 29  17  35  1   
 30  17  36  1   
 31  18  20  1   
 32  18  37  1   
 33  18  38  1   
 34  19  21  1   
 35  19  39  1   
 36  19  40  1   
 37  20  21  1   
 38  20  41  1   
 39  20  42  1   
 40  21  22  1   
 41  21  43  1   
 42  22  23  1   
 43  22  44  1   
 44  22  45  1   
 45  23  24  1   
 46  23  46  1   
 47  23  47  1   
 48  24  25  ar  
 49  24  26  ar  
@<TRIPOS>SUBSTRUCTURE
  1 ****  13 GROUP 4 **** **** 0

# MOE 2024.06 (io_trps.svl 2023.06)
