@<TRIPOS>MOLECULE
NONAME
74 78 1 0 0 
SMALL
USER_CHARGES


@<TRIPOS>ATOM
  1 O       -1.2240    -1.5210     1.8880 O.2   1 <1>  -0.5700 
  2 C       -1.4910    -1.2760     0.7350 C.2   1 <1>   0.5690 
  3 N       -0.7530    -1.8030    -0.2780 N.am  1 <1>  -0.7300 
  4 C       -2.6810    -0.3810     0.3940 C.3   1 <1>  -0.0190 
  5 C        0.4400    -2.6490    -0.0590 C.3   1 <1>   0.1400 
  6 C       -2.6540     0.9490     1.1680 C.3   1 <1>  -0.1600 
  7 C       -4.0180    -1.0910     0.6610 C.3   1 <1>  -0.1600 
  8 C        0.0100    -4.0990     0.2160 C.3   1 <1>  -0.0800 
  9 C       -3.9130     1.7720     0.8780 C.3   1 <1>   0.1200 
 10 C       -5.1970    -0.1460     0.4020 C.3   1 <1>   0.1200 
 11 C       -0.5070    -4.7820    -1.0570 C.3   1 <1>   0.2000 
 12 C        1.1500    -5.0650     0.6130 C.3   1 <1>  -0.0800 
 13 O       -5.0450     1.0090     1.1670 O.3   1 <1>  -0.5600 
 14 O        0.6790    -5.2630    -1.5690 O.3   1 <1>  -0.5600 
 15 C       -1.2460    -6.0910    -0.7370 C.3   1 <1>  -0.1600 
 16 C        1.0920    -6.0750    -0.5290 C.3   1 <1>   0.2800 
 17 C        2.6120    -4.5770     0.6080 C.3   1 <1>   0.3430 
 18 C       -0.0870    -7.0360    -0.3980 C.3   1 <1>  -0.1600 
 19 C        2.5260    -6.5400    -0.7430 C.3   1 <1>   0.3430 
 20 N        3.3150    -5.2970    -0.5020 N.4   1 <1>  -0.9590 
 21 C        4.7700    -5.5510    -0.2820 C.3   1 <1>   0.3430 
 22 C        5.5720    -4.2500    -0.2370 C.3   1 <1>  -0.0220 
 23 C        7.0490    -4.5970    -0.0380 C.2   1 <1>  -0.2760 
 24 C        7.5220    -5.0010     1.1570 C.2   1 <1>  -0.2760 
 25 C        7.9390    -4.4790    -1.3010 C.3   1 <1>   0.1380 
 26 C        8.9670    -5.4370     1.3810 C.3   1 <1>  -0.0220 
 27 C        6.7400    -5.0990     2.4660 C.3   1 <1>  -0.1020 
 28 C        9.4320    -4.6660    -0.9460 C.3   1 <1>  -0.1600 
 29 C        7.5220    -5.5480    -2.3230 C.3   1 <1>  -0.2400 
 30 C        7.8300    -3.0910    -1.9600 C.3   1 <1>  -0.2400 
 31 C        9.6690    -5.7820     0.0700 C.3   1 <1>  -0.1600 
 32 H       -0.9940    -1.5850    -1.2470 H     1 <1>   0.3700 
 33 H       -2.6330    -0.1470    -0.6540 H     1 <1>   0.0800 
 34 H        1.0800    -2.5950    -0.9230 H     1 <1>   0.0800 
 35 H        0.9740    -2.2620     0.7930 H     1 <1>   0.0800 
 36 H       -1.7810     1.5140     0.8970 H     1 <1>   0.0800 
 37 H       -2.6050     0.7570     2.2270 H     1 <1>   0.0800 
 38 H       -4.0580    -1.4200     1.6850 H     1 <1>   0.0800 
 39 H       -4.1060    -1.9590     0.0320 H     1 <1>   0.0800 
 40 H       -0.7510    -4.0940     0.9790 H     1 <1>   0.0800 
 41 H       -3.9570     2.0750    -0.1540 H     1 <1>   0.0800 
 42 H       -3.9420     2.6480     1.5030 H     1 <1>   0.0800 
 43 H       -6.1230    -0.6110     0.6940 H     1 <1>   0.0800 
 44 H       -5.2570     0.1340    -0.6360 H     1 <1>   0.0800 
 45 H       -1.0130    -4.1400    -1.7580 H     1 <1>   0.0800 
 46 H        0.9400    -5.5330     1.5590 H     1 <1>   0.0800 
 47 H       -1.9390    -5.9690     0.0770 H     1 <1>   0.0800 
 48 H       -1.7810    -6.4340    -1.6070 H     1 <1>   0.0800 
 49 H        3.0670    -4.8310     1.5520 H     1 <1>   0.0800 
 50 H        2.6820    -3.5110     0.4720 H     1 <1>   0.0800 
 51 H       -0.0130    -7.8280    -1.1240 H     1 <1>   0.0800 
 52 H       -0.1700    -7.4560     0.5900 H     1 <1>   0.0800 
 53 H        2.6640    -6.9290    -1.7380 H     1 <1>   0.0800 
 54 H        2.7760    -7.2920    -0.0140 H     1 <1>   0.0800 
 55 H        3.1830    -4.7340    -1.3570 H     1 <1>   0.4500 
 56 H        4.9170    -6.0880     0.6400 H     1 <1>   0.0800 
 57 H        5.1560    -6.1610    -1.0820 H     1 <1>   0.0800 
 58 H        5.4020    -3.7040    -1.1420 H     1 <1>   0.0800 
 59 H        5.2450    -3.6290     0.5750 H     1 <1>   0.0800 
 60 H        9.4980    -4.6430     1.8790 H     1 <1>   0.0800 
 61 H        9.0030    -6.3050     2.0160 H     1 <1>   0.0800 
 62 H        7.2180    -4.4920     3.2150 H     1 <1>   0.0800 
 63 H        6.7330    -6.1170     2.8150 H     1 <1>   0.0800 
 64 H        5.7250    -4.7690     2.3840 H     1 <1>   0.0800 
 65 H       10.0060    -4.8600    -1.8350 H     1 <1>   0.0800 
 66 H        9.8110    -3.7530    -0.5180 H     1 <1>   0.0800 
 67 H        8.1870    -5.5380    -3.1690 H     1 <1>   0.0800 
 68 H        6.5280    -5.3690    -2.6870 H     1 <1>   0.0800 
 69 H        7.5560    -6.5260    -1.8790 H     1 <1>   0.0800 
 70 H        8.6020    -2.9680    -2.6990 H     1 <1>   0.0800 
 71 H        7.9510    -2.3210    -1.2180 H     1 <1>   0.0800 
 72 H        6.8930    -2.9450    -2.4600 H     1 <1>   0.0800 
 73 H        9.2900    -6.7150    -0.3100 H     1 <1>   0.0800 
 74 H       10.7240    -5.9000     0.2470 H     1 <1>   0.0800 
@<TRIPOS>BOND
  1   1   2  2   
  2   2   3  am  
  3   2   4  1   
  4   3   5  1   
  5   3  32  1   
  6   4   6  1   
  7   4   7  1   
  8   4  33  1   
  9   5   8  1   
 10   5  34  1   
 11   5  35  1   
 12   6   9  1   
 13   6  36  1   
 14   6  37  1   
 15   7  10  1   
 16   7  38  1   
 17   7  39  1   
 18   8  11  1   
 19   8  12  1   
 20   8  40  1   
 21   9  13  1   
 22   9  41  1   
 23   9  42  1   
 24  10  13  1   
 25  10  43  1   
 26  10  44  1   
 27  11  14  1   
 28  11  15  1   
 29  11  45  1   
 30  12  16  1   
 31  12  17  1   
 32  12  46  1   
 33  14  16  1   
 34  15  18  1   
 35  15  47  1   
 36  15  48  1   
 37  16  18  1   
 38  16  19  1   
 39  17  20  1   
 40  17  49  1   
 41  17  50  1   
 42  18  51  1   
 43  18  52  1   
 44  19  20  1   
 45  19  53  1   
 46  19  54  1   
 47  20  21  1   
 48  20  55  1   
 49  21  22  1   
 50  21  56  1   
 51  21  57  1   
 52  22  23  1   
 53  22  58  1   
 54  22  59  1   
 55  23  24  2   
 56  23  25  1   
 57  24  26  1   
 58  24  27  1   
 59  25  28  1   
 60  25  29  1   
 61  25  30  1   
 62  26  31  1   
 63  26  60  1   
 64  26  61  1   
 65  27  62  1   
 66  27  63  1   
 67  27  64  1   
 68  28  31  1   
 69  28  65  1   
 70  28  66  1   
 71  29  67  1   
 72  29  68  1   
 73  29  69  1   
 74  30  70  1   
 75  30  71  1   
 76  30  72  1   
 77  31  73  1   
 78  31  74  1   
@<TRIPOS>SUBSTRUCTURE
  1 ****  17 GROUP 4 **** **** 0

# MOE 2024.06 (io_trps.svl 2023.06)
