@<TRIPOS>MOLECULE
NONAME
59 61 1 0 0 
SMALL
USER_CHARGES


@<TRIPOS>ATOM
  1 O        1.6860    -3.6230    -0.2200 O.3   1 <1>  -0.3630 
  2 C        0.7030    -4.2250     0.4910 C.ar  1 <1>   0.0820 
  3 C        2.0000    -2.2830     0.0970 C.3   1 <1>   0.2000 
  4 C       -0.6360    -3.8270     0.4260 C.ar  1 <1>   0.0820 
  5 C        1.0600    -5.2900     1.2980 C.ar  1 <1>  -0.1500 
  6 C        2.7200    -1.6860    -1.1100 C.3   1 <1>  -0.2400 
  7 C        2.8890    -2.2690     1.3410 C.3   1 <1>  -0.2400 
  8 O       -1.0690    -2.8100    -0.3570 O.3   1 <1>  -0.3630 
  9 C       -1.5850    -4.4850     1.1880 C.ar  1 <1>  -0.1500 
 10 C        0.1020    -5.9590     2.0400 C.ar  1 <1>  -0.1500 
 11 C       -0.9690    -2.9750    -1.7530 C.3   1 <1>   0.1200 
 12 C       -1.2270    -5.5630     1.9850 C.ar  1 <1>  -0.1430 
 13 C       -1.4470    -1.6870    -2.4150 C.3   1 <1>  -0.2400 
 14 C       -2.2820    -6.3390     2.7450 C.3   1 <1>   0.4860 
 15 N       -2.8610    -7.2640     1.7540 N.4   1 <1>  -0.9590 
 16 C       -4.1020    -6.8210     1.0630 C.3   1 <1>   0.3430 
 17 C       -3.0190    -8.6900     2.0970 C.3   1 <1>   0.3430 
 18 C       -4.7430    -8.1040     0.5150 C.3   1 <1>   0.2000 
 19 C       -3.8180    -9.2610     0.9230 C.3   1 <1>  -0.0800 
 20 O       -5.9860    -8.2900     1.1100 O.3   1 <1>  -0.6800 
 21 C       -2.9150    -9.7380    -0.2450 C.3   1 <1>   0.0210 
 22 C       -1.7180    -8.8510    -0.5710 C.2   1 <1>   0.1080 
 23 N       -1.8000    -7.5830    -0.8440 N.2   1 <1>  -0.7070 
 24 C       -0.4040    -9.3050    -0.6040 C.2   1 <1>  -0.1500 
 25 N       -0.5230    -7.1960    -1.0790 N.pl3 1 <1>   0.3000 
 26 C        0.3340    -8.2240    -0.9290 C.2   1 <1>  -0.3320 
 27 C        1.8350    -8.1070    -1.1270 C.3   1 <1>  -0.0600 
 28 H        1.0890    -1.7390     0.2820 H     1 <1>   0.0800 
 29 H        2.0930    -5.5880     1.3440 H     1 <1>   0.1500 
 30 H        3.6180    -2.2370    -1.3210 H     1 <1>   0.0800 
 31 H        2.9830    -0.6630    -0.9100 H     1 <1>   0.0800 
 32 H        2.0760    -1.7070    -1.9690 H     1 <1>   0.0800 
 33 H        3.7800    -2.8460     1.1730 H     1 <1>   0.0800 
 34 H        2.3560    -2.6680     2.1850 H     1 <1>   0.0800 
 35 H        3.1730    -1.2590     1.5740 H     1 <1>   0.0800 
 36 H       -2.6030    -4.1440     1.1320 H     1 <1>   0.1500 
 37 H        0.4080    -6.7920     2.6520 H     1 <1>   0.1500 
 38 H        0.0540    -3.1760    -2.0160 H     1 <1>   0.0800 
 39 H       -1.5880    -3.8070    -2.0410 H     1 <1>   0.0800 
 40 H       -0.8260    -0.8630    -2.1090 H     1 <1>   0.0800 
 41 H       -2.4680    -1.4870    -2.1440 H     1 <1>   0.0800 
 42 H       -1.3870    -1.7830    -3.4830 H     1 <1>   0.0800 
 43 H       -3.0330    -5.6790     3.1460 H     1 <1>   0.0800 
 44 H       -1.8200    -6.8860     3.5510 H     1 <1>   0.0800 
 45 H       -2.1680    -7.2690     0.9690 H     1 <1>   0.4500 
 46 H       -4.7780    -6.3340     1.7460 H     1 <1>   0.0800 
 47 H       -3.8530    -6.1550     0.2530 H     1 <1>   0.0800 
 48 H       -2.0650    -9.1810     2.2050 H     1 <1>   0.0800 
 49 H       -3.5840    -8.7870     3.0100 H     1 <1>   0.0800 
 50 H       -4.8960    -8.0410    -0.5500 H     1 <1>   0.0800 
 51 H       -4.3970   -10.1100     1.2440 H     1 <1>   0.0800 
 52 H       -5.9320    -8.5120     2.0600 H     1 <1>   0.4000 
 53 H       -3.5070    -9.8510    -1.1370 H     1 <1>   0.0800 
 54 H       -2.5390   -10.7160    -0.0020 H     1 <1>   0.0800 
 55 H       -0.0670   -10.3100    -0.4180 H     1 <1>   0.1500 
 56 H       -0.2610    -6.2310    -1.3270 H     1 <1>   0.2700 
 57 H        2.3090    -9.0560    -0.9480 H     1 <1>   0.0800 
 58 H        2.2500    -7.3840    -0.4480 H     1 <1>   0.0800 
 59 H        2.0540    -7.8020    -2.1350 H     1 <1>   0.0800 
@<TRIPOS>BOND
  1   1   2  1   
  2   1   3  1   
  3   2   4  ar  
  4   2   5  ar  
  5   3   6  1   
  6   3   7  1   
  7   3  28  1   
  8   4   8  1   
  9   4   9  ar  
 10   5  10  ar  
 11   5  29  1   
 12   6  30  1   
 13   6  31  1   
 14   6  32  1   
 15   7  33  1   
 16   7  34  1   
 17   7  35  1   
 18   8  11  1   
 19   9  12  ar  
 20   9  36  1   
 21  10  12  ar  
 22  10  37  1   
 23  11  13  1   
 24  11  38  1   
 25  11  39  1   
 26  12  14  1   
 27  13  40  1   
 28  13  41  1   
 29  13  42  1   
 30  14  15  1   
 31  14  43  1   
 32  14  44  1   
 33  15  16  1   
 34  15  17  1   
 35  15  45  1   
 36  16  18  1   
 37  16  46  1   
 38  16  47  1   
 39  17  19  1   
 40  17  48  1   
 41  17  49  1   
 42  18  19  1   
 43  18  20  1   
 44  18  50  1   
 45  19  21  1   
 46  19  51  1   
 47  20  52  1   
 48  21  22  1   
 49  21  53  1   
 50  21  54  1   
 51  22  23  2   
 52  22  24  1   
 53  23  25  1   
 54  24  26  2   
 55  24  55  1   
 56  25  26  1   
 57  25  56  1   
 58  26  27  1   
 59  27  57  1   
 60  27  58  1   
 61  27  59  1   
@<TRIPOS>SUBSTRUCTURE
  1 ****  12 GROUP 4 **** **** 0

# MOE 2024.06 (io_trps.svl 2023.06)
