@<TRIPOS>MOLECULE
NONAME
54 56 1 0 0 
SMALL
USER_CHARGES


@<TRIPOS>ATOM
  1 O        1.2360    -0.7620    -1.8940 O.2   1 <1>  -0.5700 
  2 C        1.5770    -1.3280    -0.8750 C.2   1 <1>   0.5440 
  3 N        2.4060    -0.6760    -0.0050 N.am  1 <1>  -0.7300 
  4 C        1.0940    -2.6660    -0.5850 C.ar  1 <1>   0.0860 
  5 C        2.9720     0.6690    -0.2250 C.3   1 <1>   0.1400 
  6 C       -0.0790    -3.1540    -1.1300 C.ar  1 <1>  -0.1500 
  7 C        1.7580    -3.5590     0.2480 C.ar  1 <1>  -0.1500 
  8 C        4.3890     0.6980     0.3360 C.3   1 <1>  -0.2400 
  9 C       -0.5320    -4.4310    -0.8390 C.ar  1 <1>   0.4100 
 10 C        1.2320    -4.8130     0.4850 C.ar  1 <1>   0.1600 
 11 N        0.1020    -5.2720    -0.0290 N.ar  1 <1>  -0.6200 
 12 N       -1.7090    -4.8680    -1.4030 N.pl3 1 <1>  -0.8690 
 13 C       -2.1170    -6.3010    -1.3950 C.3   1 <1>   0.2090 
 14 C       -2.5760    -6.7290     0.0240 C.3   1 <1>   0.5660 
 15 N       -2.2170    -8.1320     0.4130 N.4   1 <1>  -0.9590 
 16 C       -4.0580    -6.4980     0.2750 C.ar  1 <1>  -0.1430 
 17 C       -0.7510    -8.2110     0.6880 C.3   1 <1>   0.3430 
 18 C       -2.6760    -9.1880    -0.5360 C.3   1 <1>   0.3430 
 19 C       -4.4110    -5.7830     1.4110 C.ar  1 <1>   0.1600 
 20 C       -5.0670    -6.9530    -0.5590 C.ar  1 <1>  -0.1500 
 21 C       -0.4060    -9.5780     1.2790 C.3   1 <1>  -0.1600 
 22 C       -2.3610   -10.5700     0.0380 C.3   1 <1>  -0.1600 
 23 N       -5.6490    -5.5170     1.7830 N.ar  1 <1>  -0.6200 
 24 C       -6.3640    -6.6730    -0.1850 C.ar  1 <1>  -0.1500 
 25 C       -0.8720   -10.7240     0.3710 C.3   1 <1>  -0.1600 
 26 C       -6.5980    -5.9640     0.9800 C.ar  1 <1>   0.1600 
 27 H        2.5860    -1.0730     0.9160 H     1 <1>   0.3700 
 28 H        2.3580     1.4010     0.2720 H     1 <1>   0.0800 
 29 H        2.9880     0.8950    -1.2790 H     1 <1>   0.0800 
 30 H       -0.6490    -2.5280    -1.7910 H     1 <1>   0.1500 
 31 H        2.6900    -3.2790     0.7030 H     1 <1>   0.1500 
 32 H        4.3820     0.5030     1.3930 H     1 <1>   0.0800 
 33 H        4.8200     1.6690     0.1710 H     1 <1>   0.0800 
 34 H        5.0000    -0.0330    -0.1640 H     1 <1>   0.0800 
 35 H        1.7780    -5.4750     1.1370 H     1 <1>   0.1500 
 36 H       -2.0390    -4.3190    -2.2060 H     1 <1>   0.4000 
 37 H       -1.2700    -6.8880    -1.7030 H     1 <1>   0.0800 
 38 H       -2.9070    -6.4450    -2.1090 H     1 <1>   0.0800 
 39 H       -2.0490    -6.0770     0.7010 H     1 <1>   0.0800 
 40 H       -2.7010    -8.3060     1.3030 H     1 <1>   0.4500 
 41 H       -0.4610    -7.4360     1.3790 H     1 <1>   0.0800 
 42 H       -0.1970    -8.0630    -0.2260 H     1 <1>   0.0800 
 43 H       -2.1770    -9.0730    -1.4850 H     1 <1>   0.0800 
 44 H       -3.7390    -9.1100    -0.6940 H     1 <1>   0.0800 
 45 H       -3.6380    -5.4030     2.0590 H     1 <1>   0.1500 
 46 H       -4.8820    -7.4970    -1.4680 H     1 <1>   0.1500 
 47 H       -0.8580    -9.6720     2.2510 H     1 <1>   0.0800 
 48 H        0.6600    -9.6440     1.4140 H     1 <1>   0.0800 
 49 H       -2.6430   -11.3210    -0.6800 H     1 <1>   0.0800 
 50 H       -2.9540   -10.7330     0.9210 H     1 <1>   0.0800 
 51 H       -7.1940    -6.9960    -0.7880 H     1 <1>   0.1500 
 52 H       -0.7020   -11.6690     0.8600 H     1 <1>   0.0800 
 53 H       -0.2950   -10.7180    -0.5390 H     1 <1>   0.0800 
 54 H       -7.6160    -5.7520     1.2640 H     1 <1>   0.1500 
@<TRIPOS>BOND
  1   1   2  2   
  2   2   3  am  
  3   2   4  1   
  4   3   5  1   
  5   3  27  1   
  6   4   6  ar  
  7   4   7  ar  
  8   5   8  1   
  9   5  28  1   
 10   5  29  1   
 11   6   9  ar  
 12   6  30  1   
 13   7  10  ar  
 14   7  31  1   
 15   8  32  1   
 16   8  33  1   
 17   8  34  1   
 18   9  11  ar  
 19   9  12  1   
 20  10  11  ar  
 21  10  35  1   
 22  12  13  1   
 23  12  36  1   
 24  13  14  1   
 25  13  37  1   
 26  13  38  1   
 27  14  15  1   
 28  14  16  1   
 29  14  39  1   
 30  15  17  1   
 31  15  18  1   
 32  15  40  1   
 33  16  19  ar  
 34  16  20  ar  
 35  17  21  1   
 36  17  41  1   
 37  17  42  1   
 38  18  22  1   
 39  18  43  1   
 40  18  44  1   
 41  19  23  ar  
 42  19  45  1   
 43  20  24  ar  
 44  20  46  1   
 45  21  25  1   
 46  21  47  1   
 47  21  48  1   
 48  22  25  1   
 49  22  49  1   
 50  22  50  1   
 51  23  26  ar  
 52  24  26  ar  
 53  24  51  1   
 54  25  52  1   
 55  25  53  1   
 56  26  54  1   
@<TRIPOS>SUBSTRUCTURE
  1 ****  11 GROUP 4 **** **** 0

# MOE 2024.06 (io_trps.svl 2023.06)
