@<TRIPOS>MOLECULE
NONAME
62 65 1 0 0 
SMALL
USER_CHARGES


@<TRIPOS>ATOM
  1 O        0.0680    -0.3150     0.0380 O.2   1 <1>  -0.5700 
  2 C       -1.1050    -0.0120    -0.0240 C.2   1 <1>   0.6160 
  3 N       -2.0460    -0.9090     0.4050 N.am  1 <1>  -0.6600 
  4 C       -1.4910     1.2530    -0.5880 C.2   1 <1>   0.0290 
  5 C       -1.8280    -2.2440     0.9550 C.3   1 <1>   0.2200 
  6 C       -3.4830    -0.9670     0.1960 C.3   1 <1>   0.2200 
  7 C       -2.2060     2.2320     0.0550 C.2   1 <1>  -0.1690 
  8 C       -1.0920     1.4710    -1.9420 C.2   1 <1>   0.3760 
  9 C       -2.3930    -3.1150    -0.1980 C.3   1 <1>   0.0610 
 10 C       -2.7860    -2.1470     2.1600 C.3   1 <1>  -0.1600 
 11 C       -3.5990    -2.2370    -0.6610 C.3   1 <1>  -0.1600 
 12 C       -3.9490    -1.2960     1.6180 C.3   1 <1>  -0.1600 
 13 N       -2.5520     3.3520    -0.6780 N.pl3 1 <1>   0.6010 
 14 C       -2.6360     2.1910     1.5210 C.3   1 <1>  -0.1020 
 15 N       -1.4030     2.5130    -2.6390 N.2   1 <1>  -0.5760 
 16 C       -2.7930    -4.5300     0.2510 C.2   1 <1>   0.5690 
 17 C       -1.3760    -3.2410    -1.3630 C.3   1 <1>  -0.0220 
 18 N       -3.2970     4.4150    -0.2990 N.2   1 <1>  -0.7070 
 19 C       -2.1590     3.4640    -1.9930 C.2   1 <1>  -0.0260 
 20 O       -2.3010    -5.0250     1.2370 O.2   1 <1>  -0.5700 
 21 N       -3.7070    -5.2230    -0.4860 N.am  1 <1>  -0.7300 
 22 C       -0.0650    -3.8960    -0.9500 C.2   1 <1>  -0.2880 
 23 C       -3.3490     5.1730    -1.3580 C.2   1 <1>   0.1390 
 24 C       -2.6650     4.6400    -2.4380 C.2   1 <1>  -0.1500 
 25 C       -4.1030    -6.6310    -0.2250 C.3   1 <1>   0.1400 
 26 C        0.3390    -5.1550    -1.1530 C.2   1 <1>  -0.2760 
 27 C       -4.9790    -6.7260     1.0240 C.3   1 <1>   0.1200 
 28 C        1.6950    -5.6370    -0.6640 C.3   1 <1>  -0.1020 
 29 C       -0.4460    -6.2600    -1.8470 C.3   1 <1>  -0.1020 
 30 O       -5.5160    -8.0100     1.0880 O.3   1 <1>  -0.5600 
 31 C       -6.2560    -8.2500     2.2410 C.3   1 <1>   0.0400 
 32 H       -0.8060    -2.4510     1.2270 H     1 <1>   0.0800 
 33 H       -3.9200    -0.0810    -0.2340 H     1 <1>   0.0800 
 34 H       -0.4960     0.7040    -2.4070 H     1 <1>   0.0600 
 35 H       -3.1160    -3.1000     2.5290 H     1 <1>   0.0800 
 36 H       -2.2880    -1.6330     2.9630 H     1 <1>   0.0800 
 37 H       -4.5510    -2.7100    -0.4980 H     1 <1>   0.0800 
 38 H       -3.5280    -1.9760    -1.7020 H     1 <1>   0.0800 
 39 H       -4.0610    -0.3950     2.1950 H     1 <1>   0.0800 
 40 H       -4.8820    -1.8300     1.6230 H     1 <1>   0.0800 
 41 H       -2.2960     3.0790     2.0250 H     1 <1>   0.0800 
 42 H       -2.2260     1.3420     2.0360 H     1 <1>   0.0800 
 43 H       -3.7090     2.1560     1.5890 H     1 <1>   0.0800 
 44 H       -1.8260    -3.7950    -2.1640 H     1 <1>   0.0800 
 45 H       -1.1400    -2.2710    -1.7640 H     1 <1>   0.0800 
 46 H       -4.0820    -4.8140    -1.3420 H     1 <1>   0.3700 
 47 H        0.5650    -3.1910    -0.4310 H     1 <1>   0.1500 
 48 H       -3.8750     6.1140    -1.3780 H     1 <1>   0.1500 
 49 H       -2.5600     5.0670    -3.4180 H     1 <1>   0.1500 
 50 H       -4.6460    -7.0090    -1.0730 H     1 <1>   0.0800 
 51 H       -3.2180    -7.2280    -0.0800 H     1 <1>   0.0800 
 52 H       -5.7900    -6.0220     0.9700 H     1 <1>   0.0800 
 53 H       -4.3850    -6.5500     1.9050 H     1 <1>   0.0800 
 54 H        1.5690    -6.4390     0.0410 H     1 <1>   0.0800 
 55 H        2.2290    -4.8410    -0.1770 H     1 <1>   0.0800 
 56 H        2.2860    -5.9870    -1.4910 H     1 <1>   0.0800 
 57 H        0.0990    -6.6180    -2.7020 H     1 <1>   0.0800 
 58 H       -1.4100    -5.9290    -2.1760 H     1 <1>   0.0800 
 59 H       -0.5950    -7.0790    -1.1660 H     1 <1>   0.0800 
 60 H       -6.6330    -9.2570     2.1930 H     1 <1>   0.0800 
 61 H       -7.0770    -7.5560     2.2880 H     1 <1>   0.0800 
 62 H       -5.6180    -8.1420     3.1010 H     1 <1>   0.0800 
@<TRIPOS>BOND
  1   1   2  2   
  2   2   3  am  
  3   2   4  1   
  4   3   5  1   
  5   3   6  1   
  6   4   7  2   
  7   4   8  1   
  8   5   9  1   
  9   5  10  1   
 10   5  32  1   
 11   6  11  1   
 12   6  12  1   
 13   6  33  1   
 14   7  13  1   
 15   7  14  1   
 16   8  15  2   
 17   8  34  1   
 18   9  11  1   
 19   9  16  1   
 20   9  17  1   
 21  10  12  1   
 22  10  35  1   
 23  10  36  1   
 24  11  37  1   
 25  11  38  1   
 26  12  39  1   
 27  12  40  1   
 28  13  18  1   
 29  13  19  1   
 30  14  41  1   
 31  14  42  1   
 32  14  43  1   
 33  15  19  1   
 34  16  20  2   
 35  16  21  am  
 36  17  22  1   
 37  17  44  1   
 38  17  45  1   
 39  18  23  2   
 40  19  24  2   
 41  21  25  1   
 42  21  46  1   
 43  22  26  2   
 44  22  47  1   
 45  23  24  1   
 46  23  48  1   
 47  24  49  1   
 48  25  27  1   
 49  25  50  1   
 50  25  51  1   
 51  26  28  1   
 52  26  29  1   
 53  27  30  1   
 54  27  52  1   
 55  27  53  1   
 56  28  54  1   
 57  28  55  1   
 58  28  56  1   
 59  29  57  1   
 60  29  58  1   
 61  29  59  1   
 62  30  31  1   
 63  31  60  1   
 64  31  61  1   
 65  31  62  1   
@<TRIPOS>SUBSTRUCTURE
  1 ****   3 GROUP 4 **** **** 0

# MOE 2024.06 (io_trps.svl 2023.06)
