@<TRIPOS>MOLECULE
NONAME
47 48 1 0 0 
SMALL
USER_CHARGES


@<TRIPOS>ATOM
  1 O        0.2960     0.4530     0.4940 O.2   1 <1>  -0.5700 
  2 C       -0.5460     1.3340     0.5470 C.2   1 <1>   0.7150 
  3 N       -1.8800     0.9630     0.6320 N.am  1 <1>  -0.6600 
  4 C       -0.1420     2.7270     0.5360 C.2   1 <1>   0.0550 
  5 C       -2.2770    -0.4430     0.9280 C.3   1 <1>   0.0600 
  6 C       -3.0040     1.8520     0.2320 C.3   1 <1>   0.0600 
  7 O        0.8970     3.1330    -0.1890 O.3   1 <1>  -0.2800 
  8 C       -0.6520     3.8120     1.1850 C.2   1 <1>  -0.1500 
  9 C        1.0650     4.4260    -0.0250 C.2   1 <1>  -0.0400 
 10 C        0.1270     4.9100     0.8190 C.2   1 <1>  -0.1500 
 11 C        2.2080     5.1010    -0.7630 C.3   1 <1>   0.3200 
 12 N        2.4970     6.4200    -0.1570 N.am  1 <1>  -0.7300 
 13 C        2.7150     7.5580    -0.8610 C.2   1 <1>   0.5690 
 14 O        2.6960     7.5660    -2.0670 O.2   1 <1>  -0.5700 
 15 C        2.9980     8.8450    -0.0840 C.3   1 <1>  -0.0190 
 16 C        2.6480    10.1200    -0.8790 C.3   1 <1>  -0.1600 
 17 C        4.4690     8.8890     0.3950 C.3   1 <1>  -0.1600 
 18 C        2.7960    11.4000    -0.0290 C.3   1 <1>   0.2000 
 19 C        4.9640    10.3050     0.7550 C.3   1 <1>  -0.1600 
 20 O        3.2290    12.4450    -0.8640 O.3   1 <1>  -0.5600 
 21 C        3.8060    11.2310     1.1370 C.3   1 <1>   0.2000 
 22 C        2.2440    13.0050    -1.6780 C.3   1 <1>   0.0400 
 23 O        4.3330    12.4630     1.4650 O.3   1 <1>  -0.6800 
 24 H       -3.1230    -0.4540     1.5920 H     1 <1>   0.0800 
 25 H       -1.4670    -0.9740     1.3980 H     1 <1>   0.0800 
 26 H       -2.5340    -0.9460     0.0120 H     1 <1>   0.0800 
 27 H       -3.6990     1.3080    -0.3840 H     1 <1>   0.0800 
 28 H       -2.6440     2.6940    -0.3340 H     1 <1>   0.0800 
 29 H       -3.5160     2.2070     1.1090 H     1 <1>   0.0800 
 30 H       -1.4880     3.8380     1.8610 H     1 <1>   0.1500 
 31 H       -0.0180     5.9210     1.1550 H     1 <1>   0.1500 
 32 H        1.9520     5.2080    -1.8030 H     1 <1>   0.0800 
 33 H        3.0870     4.4850    -0.6910 H     1 <1>   0.0800 
 34 H        2.5600     6.4140     0.8600 H     1 <1>   0.3700 
 35 H        2.3620     8.8290     0.7830 H     1 <1>   0.0800 
 36 H        1.6380    10.0500    -1.2430 H     1 <1>   0.0800 
 37 H        3.3060    10.1770    -1.7300 H     1 <1>   0.0800 
 38 H        4.5730     8.2460     1.2510 H     1 <1>   0.0800 
 39 H        5.1090     8.4980    -0.3790 H     1 <1>   0.0800 
 40 H        1.8460    11.6730     0.3990 H     1 <1>   0.0800 
 41 H        5.4650    10.7250    -0.1000 H     1 <1>   0.0800 
 42 H        5.6710    10.2470     1.5650 H     1 <1>   0.0800 
 43 H        3.3110    10.8430     2.0100 H     1 <1>   0.0800 
 44 H        2.6920    13.8040    -2.2410 H     1 <1>   0.0800 
 45 H        1.4530    13.3960    -1.0620 H     1 <1>   0.0800 
 46 H        1.8670    12.2580    -2.3540 H     1 <1>   0.0800 
 47 H        4.3490    12.9770     0.6250 H     1 <1>   0.4000 
@<TRIPOS>BOND
  1   1   2  2   
  2   2   3  am  
  3   2   4  1   
  4   3   5  1   
  5   3   6  1   
  6   4   7  1   
  7   4   8  2   
  8   5  24  1   
  9   5  25  1   
 10   5  26  1   
 11   6  27  1   
 12   6  28  1   
 13   6  29  1   
 14   7   9  1   
 15   8  10  1   
 16   8  30  1   
 17   9  10  2   
 18   9  11  1   
 19  10  31  1   
 20  11  12  1   
 21  11  32  1   
 22  11  33  1   
 23  12  13  am  
 24  12  34  1   
 25  13  14  2   
 26  13  15  1   
 27  15  16  1   
 28  15  17  1   
 29  15  35  1   
 30  16  18  1   
 31  16  36  1   
 32  16  37  1   
 33  17  19  1   
 34  17  38  1   
 35  17  39  1   
 36  18  20  1   
 37  18  21  1   
 38  18  40  1   
 39  19  21  1   
 40  19  41  1   
 41  19  42  1   
 42  20  22  1   
 43  21  23  1   
 44  21  43  1   
 45  22  44  1   
 46  22  45  1   
 47  22  46  1   
 48  23  47  1   
@<TRIPOS>SUBSTRUCTURE
  1 ****  12 GROUP 4 **** **** 0

# MOE 2024.06 (io_trps.svl 2023.06)
