@<TRIPOS>MOLECULE
NONAME
54 56 1 0 0 
SMALL
USER_CHARGES


@<TRIPOS>ATOM
  1 O       -3.1680     3.4140     0.4700 O.2   1 <1>  -0.5700 
  2 C       -2.7170     2.5500    -0.2550 C.2   1 <1>   0.5440 
  3 N       -3.4500     1.4040    -0.4710 N.am  1 <1>  -0.6600 
  4 C       -1.4020     2.7420    -0.8250 C.ar  1 <1>   0.0860 
  5 C       -4.7430     1.1420     0.2360 C.3   1 <1>   0.1400 
  6 C       -3.0460     0.2810    -1.3720 C.3   1 <1>   0.1400 
  7 C       -0.2760     2.0510    -0.3520 C.ar  1 <1>  -0.0230 
  8 C       -1.2330     3.6470    -1.8720 C.ar  1 <1>  -0.1500 
  9 C       -4.7450    -0.2660     0.8710 C.3   1 <1>   0.2000 
 10 C       -3.1490    -1.0780    -0.6420 C.3   1 <1>   0.2000 
 11 N       -0.3860     1.1070     0.7020 N.pl3 1 <1>   0.3260 
 12 C        0.9680     2.2810    -0.9350 C.ar  1 <1>  -0.1500 
 13 C        0.0040     3.8640    -2.4460 C.ar  1 <1>  -0.1500 
 14 O       -4.4300    -1.2220    -0.1080 O.3   1 <1>  -0.5600 
 15 C       -6.0890    -0.6380     1.5400 C.3   1 <1>  -0.0800 
 16 C       -2.9050    -2.2780    -1.5630 C.3   1 <1>  -0.1600 
 17 C        0.1070    -0.1390     0.7380 C.2   1 <1>   0.0360 
 18 C       -1.0440     1.1620     1.8710 C.2   1 <1>   0.0360 
 19 C        1.1080     3.1780    -1.9750 C.ar  1 <1>  -0.1500 
 20 C       -5.9620    -1.9630     2.3080 C.3   1 <1>  -0.2400 
 21 C       -7.2660    -0.7310     0.5530 C.3   1 <1>  -0.2400 
 22 C       -1.4520    -2.3580    -2.0580 C.3   1 <1>  -0.1600 
 23 N       -0.2260    -0.7760     1.8050 N.2   1 <1>  -0.3380 
 24 N       -0.9680     0.0600     2.5330 N.2   1 <1>  -0.3380 
 25 C       -1.2320    -3.6080    -2.9180 C.3   1 <1>  -0.1600 
 26 C        0.2160    -3.6910    -3.4080 C.3   1 <1>  -0.2400 
 27 H       -4.9100     1.8720     1.0080 H     1 <1>   0.0800 
 28 H       -5.5450     1.2230    -0.4740 H     1 <1>   0.0800 
 29 H       -3.7010     0.2670    -2.2250 H     1 <1>   0.0800 
 30 H       -2.0440     0.4230    -1.7310 H     1 <1>   0.0800 
 31 H       -2.0920     4.1890    -2.2320 H     1 <1>   0.1500 
 32 H       -3.9750    -0.2990     1.6240 H     1 <1>   0.0800 
 33 H       -2.4490    -1.1160     0.1750 H     1 <1>   0.0800 
 34 H        1.8410     1.7620    -0.5740 H     1 <1>   0.1500 
 35 H        0.1100     4.5680    -3.2540 H     1 <1>   0.1500 
 36 H       -6.3180     0.1300     2.2590 H     1 <1>   0.0800 
 37 H       -3.1310    -3.1730    -1.0100 H     1 <1>   0.0800 
 38 H       -3.5760    -2.2240    -2.4030 H     1 <1>   0.0800 
 39 H        0.7080    -0.5440    -0.0540 H     1 <1>   0.1500 
 40 H       -1.5770     2.0390     2.1940 H     1 <1>   0.1500 
 41 H        2.0750     3.3490    -2.4190 H     1 <1>   0.1500 
 42 H       -5.7510    -2.7710     1.6300 H     1 <1>   0.0800 
 43 H       -6.8750    -2.1840     2.8330 H     1 <1>   0.0800 
 44 H       -5.1630    -1.9040     3.0260 H     1 <1>   0.0800 
 45 H       -7.0590    -1.4640    -0.2080 H     1 <1>   0.0800 
 46 H       -7.4490     0.2150     0.0770 H     1 <1>   0.0800 
 47 H       -8.1630    -1.0210     1.0690 H     1 <1>   0.0800 
 48 H       -1.2090    -1.4880    -2.6410 H     1 <1>   0.0800 
 49 H       -0.7900    -2.3950    -1.2090 H     1 <1>   0.0800 
 50 H       -1.4620    -4.4880    -2.3420 H     1 <1>   0.0800 
 51 H       -1.8940    -3.5850    -3.7670 H     1 <1>   0.0800 
 52 H        0.8930    -3.7410    -2.5740 H     1 <1>   0.0800 
 53 H        0.4620    -2.8320    -4.0070 H     1 <1>   0.0800 
 54 H        0.3490    -4.5740    -4.0080 H     1 <1>   0.0800 
@<TRIPOS>BOND
  1   1   2  2   
  2   2   3  am  
  3   2   4  1   
  4   3   5  1   
  5   3   6  1   
  6   4   7  ar  
  7   4   8  ar  
  8   5   9  1   
  9   5  27  1   
 10   5  28  1   
 11   6  10  1   
 12   6  29  1   
 13   6  30  1   
 14   7  11  1   
 15   7  12  ar  
 16   8  13  ar  
 17   8  31  1   
 18   9  14  1   
 19   9  15  1   
 20   9  32  1   
 21  10  14  1   
 22  10  16  1   
 23  10  33  1   
 24  11  17  1   
 25  11  18  1   
 26  12  19  ar  
 27  12  34  1   
 28  13  19  ar  
 29  13  35  1   
 30  15  20  1   
 31  15  21  1   
 32  15  36  1   
 33  16  22  1   
 34  16  37  1   
 35  16  38  1   
 36  17  23  2   
 37  17  39  1   
 38  18  24  2   
 39  18  40  1   
 40  19  41  1   
 41  20  42  1   
 42  20  43  1   
 43  20  44  1   
 44  21  45  1   
 45  21  46  1   
 46  21  47  1   
 47  22  25  1   
 48  22  48  1   
 49  22  49  1   
 50  23  24  1   
 51  25  26  1   
 52  25  50  1   
 53  25  51  1   
 54  26  52  1   
 55  26  53  1   
 56  26  54  1   
@<TRIPOS>SUBSTRUCTURE
  1 ****   6 GROUP 4 **** **** 0

# MOE 2024.06 (io_trps.svl 2023.06)
