@<TRIPOS>MOLECULE
NONAME
40 42 1 0 0 
SMALL
USER_CHARGES


@<TRIPOS>ATOM
  1 O       -0.1540     1.6810     1.1050 O.co2 1 <1>  -0.9000 
  2 C        0.9330     1.5810     1.6910 C.2   1 <1>   0.9470 
  3 O        1.0610     1.9630     2.8630 O.co2 1 <1>  -0.9000 
  4 C        2.1900     1.2070     0.9000 C.3   1 <1>  -0.2420 
  5 C        2.8840    -0.1070     0.6250 C.3   1 <1>  -0.2420 
  6 C        3.2650     2.2550     1.1050 C.3   1 <1>   0.2350 
  7 C        2.0200     0.5240    -0.4350 C.3   1 <1>  -0.2000 
  8 C        2.5660    -1.5220     1.1100 C.2   1 <1>   0.9470 
  9 C        4.3840     0.1420     0.6340 C.3   1 <1>   0.2350 
 10 N        4.5320     1.6230     0.6390 N.am  1 <1>  -0.6600 
 11 O        2.0030    -2.3160     0.3430 O.co2 1 <1>  -0.9000 
 12 O        3.0180    -1.8970     2.2000 O.co2 1 <1>  -0.9000 
 13 C        5.6380     2.2730     0.1860 C.2   1 <1>   0.5690 
 14 O        6.6050     1.6820    -0.2410 O.2   1 <1>  -0.5700 
 15 C        5.6570     3.7940     0.2230 C.3   1 <1>  -0.0990 
 16 C        7.0230     4.4080    -0.1240 C.3   1 <1>  -0.0160 
 17 C        7.1000     5.9400    -0.0820 C.ar  1 <1>  -0.1430 
 18 C        8.3030     6.5730    -0.3920 C.ar  1 <1>  -0.1430 
 19 C        6.0000     6.7230     0.2560 C.ar  1 <1>  -0.1500 
 20 C        8.3850     7.9570    -0.3580 C.ar  1 <1>  -0.1500 
 21 C        9.5500     5.7850    -0.7720 C.3   1 <1>  -0.0970 
 22 C        6.0910     8.1030     0.2870 C.ar  1 <1>  -0.1500 
 23 C        7.2860     8.7230    -0.0200 C.ar  1 <1>  -0.1500 
 24 H        3.3540     2.4930     2.1520 H     1 <1>   0.0800 
 25 H        3.0280     3.1410     0.5460 H     1 <1>   0.0800 
 26 H        2.4770     0.9450    -1.3110 H     1 <1>   0.1000 
 27 H        1.0720     0.0580    -0.6470 H     1 <1>   0.1000 
 28 H        4.8520    -0.2950    -0.2300 H     1 <1>   0.0800 
 29 H        4.8240    -0.2630     1.5300 H     1 <1>   0.0800 
 30 H        4.9230     4.1480    -0.4760 H     1 <1>   0.0800 
 31 H        5.3770     4.1020     1.2140 H     1 <1>   0.0800 
 32 H        7.2940     4.0790    -1.1120 H     1 <1>   0.0800 
 33 H        7.7500     4.0090     0.5630 H     1 <1>   0.0800 
 34 H        5.0520     6.2840     0.5020 H     1 <1>   0.1500 
 35 H        9.3110     8.4510    -0.5950 H     1 <1>   0.1500 
 36 H       10.3770     6.4410    -0.9730 H     1 <1>   0.0800 
 37 H        9.3640     5.2000    -1.6550 H     1 <1>   0.0800 
 38 H        9.8320     5.1280     0.0310 H     1 <1>   0.0800 
 39 H        5.2310     8.6930     0.5510 H     1 <1>   0.1500 
 40 H        7.3610     9.7950     0.0030 H     1 <1>   0.1500 
@<TRIPOS>BOND
  1   1   2  ar  
  2   2   3  ar  
  3   2   4  1   
  4   4   5  1   
  5   4   6  1   
  6   4   7  1   
  7   5   7  1   
  8   5   8  1   
  9   5   9  1   
 10   6  10  1   
 11   6  24  1   
 12   6  25  1   
 13   7  26  1   
 14   7  27  1   
 15   8  11  ar  
 16   8  12  ar  
 17   9  10  1   
 18   9  28  1   
 19   9  29  1   
 20  10  13  am  
 21  13  14  2   
 22  13  15  1   
 23  15  16  1   
 24  15  30  1   
 25  15  31  1   
 26  16  17  1   
 27  16  32  1   
 28  16  33  1   
 29  17  18  ar  
 30  17  19  ar  
 31  18  20  ar  
 32  18  21  1   
 33  19  22  ar  
 34  19  34  1   
 35  20  23  ar  
 36  20  35  1   
 37  21  36  1   
 38  21  37  1   
 39  21  38  1   
 40  22  23  ar  
 41  22  39  1   
 42  23  40  1   
@<TRIPOS>SUBSTRUCTURE
  1 ****  13 GROUP 4 **** **** 0

# MOE 2024.06 (io_trps.svl 2023.06)
