@<TRIPOS>MOLECULE
NONAME
50 53 1 0 0 
SMALL
USER_CHARGES


@<TRIPOS>ATOM
  1 S       -2.7610    -3.9800    -0.6830 S.3   1 <1>  -0.0800 
  2 C       -2.5210    -2.4620     0.1750 C.2   1 <1>  -0.1400 
  3 C       -1.5850    -4.7920     0.3350 C.2   1 <1>  -0.1100 
  4 C       -1.6060    -2.6130     1.1500 C.2   1 <1>  -0.1500 
  5 C       -3.3330    -1.2640    -0.2810 C.3   1 <1>   0.0200 
  6 C       -1.0750    -3.9390     1.2420 C.2   1 <1>  -0.1500 
  7 C       -4.8020    -1.4610     0.1110 C.3   1 <1>  -0.1600 
  8 C       -5.7710    -0.5710    -0.6900 C.3   1 <1>  -0.0990 
  9 C       -7.1800    -1.1350    -0.6250 C.2   1 <1>   0.5690 
 10 O       -7.9150    -0.7100     0.2300 O.2   1 <1>  -0.5700 
 11 N       -7.5740    -2.1650    -1.4460 N.am  1 <1>  -0.6600 
 12 C       -8.9100    -2.8120    -1.2460 C.3   1 <1>   0.1400 
 13 C       -6.6600    -3.0120    -2.2810 C.3   1 <1>   0.1400 
 14 C       -8.7590    -4.1640    -0.5000 C.3   1 <1>   0.4230 
 15 C       -6.5940    -4.4620    -1.7390 C.3   1 <1>   0.3430 
 16 N       -7.3090    -4.6100    -0.4150 N.4   1 <1>  -0.9590 
 17 C       -9.6420    -5.2540    -1.1490 C.3   1 <1>   0.1200 
 18 C       -7.2050    -5.9670     0.2110 C.3   1 <1>   0.5180 
 19 O       -9.4660    -6.4850    -0.5070 O.3   1 <1>  -0.5600 
 20 C       -5.7250    -6.3980     0.2550 C.3   1 <1>  -0.1950 
 21 C       -8.1500    -6.9710    -0.4910 C.3   1 <1>   0.1200 
 22 C       -5.0130    -7.1340    -0.8440 C.3   1 <1>  -0.2000 
 23 C       -5.2960    -7.8200     0.4620 C.3   1 <1>  -0.2000 
 24 H       -1.3930    -5.8330     0.1450 H     1 <1>   0.1500 
 25 H       -1.2720    -1.8410     1.8220 H     1 <1>   0.1500 
 26 H       -2.9520    -0.3660     0.1720 H     1 <1>   0.0800 
 27 H       -3.2290    -1.1710    -1.3480 H     1 <1>   0.0800 
 28 H       -0.3330    -4.1840     1.9830 H     1 <1>   0.1500 
 29 H       -5.0630    -2.4890    -0.0440 H     1 <1>   0.0800 
 30 H       -4.9200    -1.2650     1.1630 H     1 <1>   0.0800 
 31 H       -5.4740    -0.4880    -1.7190 H     1 <1>   0.0800 
 32 H       -5.7710     0.4230    -0.2770 H     1 <1>   0.0800 
 33 H       -9.5710    -2.1700    -0.6890 H     1 <1>   0.0800 
 34 H       -9.3660    -2.9630    -2.2090 H     1 <1>   0.0800 
 35 H       -7.0200    -3.0280    -3.2960 H     1 <1>   0.0800 
 36 H       -5.6650    -2.6070    -2.3120 H     1 <1>   0.0800 
 37 H       -9.1300    -4.0160     0.5010 H     1 <1>   0.0800 
 38 H       -5.5580    -4.7370    -1.6320 H     1 <1>   0.0800 
 39 H       -7.0310    -5.1280    -2.4640 H     1 <1>   0.0800 
 40 H       -6.8610    -3.9400     0.2220 H     1 <1>   0.4500 
 41 H       -9.4100    -5.3780    -2.1930 H     1 <1>   0.0800 
 42 H      -10.6820    -4.9900    -1.0600 H     1 <1>   0.0800 
 43 H       -7.5430    -5.8950     1.2330 H     1 <1>   0.0800 
 44 H       -5.1450    -5.6830     0.8160 H     1 <1>   0.1000 
 45 H       -8.1620    -7.9030     0.0450 H     1 <1>   0.0800 
 46 H       -7.8420    -7.1640    -1.5030 H     1 <1>   0.0800 
 47 H       -5.5320    -7.5040    -1.7110 H     1 <1>   0.1000 
 48 H       -3.9870    -6.8870    -1.0650 H     1 <1>   0.1000 
 49 H       -4.4670    -8.0200     1.1220 H     1 <1>   0.1000 
 50 H       -6.0060    -8.6290     0.4600 H     1 <1>   0.1000 
@<TRIPOS>BOND
  1   1   2  1   
  2   1   3  1   
  3   2   4  2   
  4   2   5  1   
  5   3   6  2   
  6   3  24  1   
  7   4   6  1   
  8   4  25  1   
  9   5   7  1   
 10   5  26  1   
 11   5  27  1   
 12   6  28  1   
 13   7   8  1   
 14   7  29  1   
 15   7  30  1   
 16   8   9  1   
 17   8  31  1   
 18   8  32  1   
 19   9  10  2   
 20   9  11  am  
 21  11  12  1   
 22  11  13  1   
 23  12  14  1   
 24  12  33  1   
 25  12  34  1   
 26  13  15  1   
 27  13  35  1   
 28  13  36  1   
 29  14  16  1   
 30  14  17  1   
 31  14  37  1   
 32  15  16  1   
 33  15  38  1   
 34  15  39  1   
 35  16  18  1   
 36  16  40  1   
 37  17  19  1   
 38  17  41  1   
 39  17  42  1   
 40  18  20  1   
 41  18  21  1   
 42  18  43  1   
 43  19  21  1   
 44  20  22  1   
 45  20  23  1   
 46  20  44  1   
 47  21  45  1   
 48  21  46  1   
 49  22  23  1   
 50  22  47  1   
 51  22  48  1   
 52  23  49  1   
 53  23  50  1   
@<TRIPOS>SUBSTRUCTURE
  1 ****  16 GROUP 4 **** **** 0

# MOE 2024.06 (io_trps.svl 2023.06)
