@<TRIPOS>MOLECULE
NONAME
40 42 1 0 0 
SMALL
USER_CHARGES


@<TRIPOS>ATOM
  1 CL      -1.2460    -0.2670    -1.5430 Cl    1 <1>  -0.1400 
  2 C       -2.3150     0.6410    -0.4940 C.2   1 <1>   0.1540 
  3 C       -1.8040     1.8060     0.1600 C.2   1 <1>   0.6160 
  4 C       -3.5990     0.2310    -0.3190 C.2   1 <1>  -0.1500 
  5 O       -0.6690     2.2450     0.0480 O.2   1 <1>  -0.5700 
  6 N       -2.6710     2.4820     0.9770 N.am  1 <1>  -0.5390 
  7 C       -4.4820     0.9660     0.5320 C.2   1 <1>   0.0140 
  8 C       -3.9700     2.0740     1.1660 C.2   1 <1>  -0.0410 
  9 C       -5.8420     0.5130     0.7090 C.2   1 <1>   0.6160 
 10 O       -6.0440    -0.6740     0.8950 O.2   1 <1>  -0.5700 
 11 N       -6.9210     1.3750     0.6720 N.am  1 <1>  -0.6600 
 12 C       -8.2770     0.9490     1.1430 C.3   1 <1>   0.1400 
 13 C       -6.9080     2.7070     0.0040 C.3   1 <1>   0.1400 
 14 C       -9.2990     0.9130    -0.0210 C.3   1 <1>   0.0000 
 15 C       -7.9080     2.7250    -1.1580 C.3   1 <1>  -0.1600 
 16 C      -10.7100     0.5030     0.4520 C.3   1 <1>   0.2000 
 17 C       -9.3170     2.2900    -0.7180 C.3   1 <1>  -0.1600 
 18 C       -8.9640    -0.2260    -1.0000 C.3   1 <1>  -0.1600 
 19 O      -11.0320     1.0020     1.7030 O.3   1 <1>  -0.6800 
 20 C      -10.7460    -1.0270     0.4710 C.3   1 <1>  -0.1600 
 21 C       -9.5460    -1.4910    -0.3650 C.3   1 <1>  -0.1600 
 22 H       -3.9780    -0.6510    -0.8070 H     1 <1>   0.1500 
 23 H       -2.2630     3.2970     1.4420 H     1 <1>   0.3700 
 24 H       -4.5810     2.6530     1.8400 H     1 <1>   0.1500 
 25 H       -8.2250    -0.0140     1.6200 H     1 <1>   0.0800 
 26 H       -8.6030     1.6580     1.8840 H     1 <1>   0.0800 
 27 H       -7.1770     3.4610     0.7240 H     1 <1>   0.0800 
 28 H       -5.9300     2.9380    -0.3790 H     1 <1>   0.0800 
 29 H       -7.9540     3.7180    -1.5680 H     1 <1>   0.0800 
 30 H       -7.5500     2.0720    -1.9360 H     1 <1>   0.0800 
 31 H      -11.4450     0.8690    -0.2450 H     1 <1>   0.0800 
 32 H       -9.9700     2.2660    -1.5740 H     1 <1>   0.0800 
 33 H       -9.7100     3.0210    -0.0320 H     1 <1>   0.0800 
 34 H       -9.4580    -0.0540    -1.9410 H     1 <1>   0.0800 
 35 H       -7.9090    -0.3290    -1.1840 H     1 <1>   0.0800 
 36 H      -10.5630     0.4970     2.3920 H     1 <1>   0.4000 
 37 H      -10.6650    -1.4190     1.4690 H     1 <1>   0.0800 
 38 H      -11.6640    -1.3700     0.0280 H     1 <1>   0.0800 
 39 H       -8.8070    -1.9390     0.2780 H     1 <1>   0.0800 
 40 H       -9.8320    -2.2090    -1.1140 H     1 <1>   0.0800 
@<TRIPOS>BOND
  1   1   2  1   
  2   2   3  1   
  3   2   4  2   
  4   3   5  2   
  5   3   6  am  
  6   4   7  1   
  7   4  22  1   
  8   6   8  1   
  9   6  23  1   
 10   7   8  2   
 11   7   9  1   
 12   8  24  1   
 13   9  10  2   
 14   9  11  am  
 15  11  12  1   
 16  11  13  1   
 17  12  14  1   
 18  12  25  1   
 19  12  26  1   
 20  13  15  1   
 21  13  27  1   
 22  13  28  1   
 23  14  16  1   
 24  14  17  1   
 25  14  18  1   
 26  15  17  1   
 27  15  29  1   
 28  15  30  1   
 29  16  19  1   
 30  16  20  1   
 31  16  31  1   
 32  17  32  1   
 33  17  33  1   
 34  18  21  1   
 35  18  34  1   
 36  18  35  1   
 37  19  36  1   
 38  20  21  1   
 39  20  37  1   
 40  20  38  1   
 41  21  39  1   
 42  21  40  1   
@<TRIPOS>SUBSTRUCTURE
  1 ****   9 GROUP 4 **** **** 0

# MOE 2024.06 (io_trps.svl 2023.06)
