@<TRIPOS>MOLECULE
NONAME
41 43 1 0 0 
SMALL
USER_CHARGES


@<TRIPOS>ATOM
  1 O       -0.5780    -0.0280     1.9510 O.3   1 <1>  -0.5600 
  2 C        0.5170     0.2330     1.1290 C.3   1 <1>   0.1200 
  3 C       -1.7680     0.2990     1.2970 C.3   1 <1>   0.1200 
  4 C        0.0820     1.3830     0.2280 C.3   1 <1>   0.2890 
  5 C       -1.3790     1.0150    -0.0020 C.3   1 <1>  -0.0800 
  6 N        0.2010     2.6550     0.9880 N.pl3 1 <1>  -0.8690 
  7 C       -2.3230     2.1720    -0.3810 C.3   1 <1>  -0.0170 
  8 C        0.7850     3.8240     0.6920 C.ar  1 <1>   0.4100 
  9 C       -3.7280     1.6570    -0.6520 C.ar  1 <1>  -0.1430 
 10 N        0.8440     4.6760     1.6900 N.ar  1 <1>  -0.6200 
 11 C        1.2970     4.1280    -0.5840 C.ar  1 <1>  -0.1500 
 12 C       -4.7350     1.7450     0.2880 C.ar  1 <1>  -0.1500 
 13 C       -4.0700     1.0710    -1.8550 C.ar  1 <1>  -0.1500 
 14 C        1.4240     5.8350     1.4610 C.ar  1 <1>   0.7710 
 15 C        1.8860     5.3330    -0.7880 C.ar  1 <1>   0.2180 
 16 C       -5.9950     1.2520    -0.0080 C.ar  1 <1>   0.1600 
 17 C       -5.3610     0.6100    -2.0500 C.ar  1 <1>   0.1600 
 18 N        1.9400     6.1820     0.2680 N.ar  1 <1>  -0.1790 
 19 N        1.4810     6.6780     2.4880 N.pl3 1 <1>  -0.9000 
 20 C        2.4750     5.7710    -2.1180 C.3   1 <1>  -0.0970 
 21 N       -6.3320     0.6840    -1.1540 N.ar  1 <1>  -0.6200 
 22 H        1.3740     0.4770     1.7330 H     1 <1>   0.0800 
 23 H        0.7130    -0.6540     0.5520 H     1 <1>   0.0800 
 24 H       -2.3230    -0.6030     1.1050 H     1 <1>   0.0800 
 25 H       -2.3320     0.9400     1.9520 H     1 <1>   0.0800 
 26 H        0.6530     1.4100    -0.6820 H     1 <1>   0.0800 
 27 H       -1.4130     0.2830    -0.7890 H     1 <1>   0.0800 
 28 H       -0.1240     2.5420     1.9570 H     1 <1>   0.4000 
 29 H       -1.9520     2.6670    -1.2610 H     1 <1>   0.0800 
 30 H       -2.3580     2.9010     0.4100 H     1 <1>   0.0800 
 31 H        1.2100     3.4030    -1.3690 H     1 <1>   0.1500 
 32 H       -4.5550     2.1900     1.2500 H     1 <1>   0.1500 
 33 H       -3.3470     0.9670    -2.6430 H     1 <1>   0.1500 
 34 H       -6.7660     1.3290     0.7390 H     1 <1>   0.1500 
 35 H       -5.6100     0.1560    -2.9940 H     1 <1>   0.1500 
 36 H        2.3650     7.1000     0.1980 H     1 <1>   0.4570 
 37 H        1.8830     7.6160     2.5340 H     1 <1>   0.4000 
 38 H        1.0750     6.3600     3.3750 H     1 <1>   0.4000 
 39 H        2.3600     4.9960    -2.8550 H     1 <1>   0.0800 
 40 H        3.5250     5.9800    -2.0150 H     1 <1>   0.0800 
 41 H        1.9750     6.6530    -2.4800 H     1 <1>   0.0800 
@<TRIPOS>BOND
  1   1   2  1   
  2   1   3  1   
  3   2   4  1   
  4   2  22  1   
  5   2  23  1   
  6   3   5  1   
  7   3  24  1   
  8   3  25  1   
  9   4   5  1   
 10   4   6  1   
 11   4  26  1   
 12   5   7  1   
 13   5  27  1   
 14   6   8  1   
 15   6  28  1   
 16   7   9  1   
 17   7  29  1   
 18   7  30  1   
 19   8  10  ar  
 20   8  11  ar  
 21   9  12  ar  
 22   9  13  ar  
 23  10  14  ar  
 24  11  15  ar  
 25  11  31  1   
 26  12  16  ar  
 27  12  32  1   
 28  13  17  ar  
 29  13  33  1   
 30  14  18  ar  
 31  14  19  1   
 32  15  18  ar  
 33  15  20  1   
 34  16  21  ar  
 35  16  34  1   
 36  17  21  ar  
 37  17  35  1   
 38  18  36  1   
 39  19  37  1   
 40  19  38  1   
 41  20  39  1   
 42  20  40  1   
 43  20  41  1   
@<TRIPOS>SUBSTRUCTURE
  1 ****   7 GROUP 4 **** **** 0

# MOE 2024.06 (io_trps.svl 2023.06)
