@<TRIPOS>MOLECULE
NONAME
65 68 1 0 0 
SMALL
USER_CHARGES


@<TRIPOS>ATOM
  1 O        1.1290     0.2880     1.5110 O.2   1 <1>  -0.5700 
  2 C        1.4290    -0.7370     0.9420 C.2   1 <1>   0.5690 
  3 N        2.4730    -0.7280     0.0450 N.am  1 <1>  -0.6600 
  4 C        0.5450    -1.9350     1.2570 C.3   1 <1>  -0.0990 
  5 C        2.8470    -1.9200    -0.7920 C.3   1 <1>   0.1400 
  6 C        3.4500     0.4170     0.0040 C.3   1 <1>   0.1400 
  7 C        0.9760    -3.3120     0.7600 C.3   1 <1>   0.1200 
  8 C        3.2590    -3.1870     0.0160 C.3   1 <1>   0.2800 
  9 C        2.9580     1.6070    -0.8510 C.3   1 <1>   0.3430 
 10 O        2.3310    -3.4860     1.0220 O.3   1 <1>  -0.5600 
 11 C        3.3370    -4.4100    -0.9230 C.3   1 <1>  -0.1600 
 12 C        4.5930    -2.9740     0.7720 C.3   1 <1>  -0.1600 
 13 N        1.7670     2.2690    -0.2460 N.4   1 <1>  -0.9590 
 14 C        4.2600    -5.4920    -0.3660 C.3   1 <1>   0.1400 
 15 C        5.8110    -3.5080     0.0140 C.3   1 <1>   0.1400 
 16 C        0.8650     2.9240    -1.2490 C.3   1 <1>   0.3430 
 17 C        2.1160     3.2110     0.8710 C.3   1 <1>   0.3430 
 18 N        5.6520    -4.9640    -0.2760 N.am  1 <1>  -0.6600 
 19 C       -0.3340     3.6060    -0.5600 C.3   1 <1>   0.1200 
 20 C        0.8520     3.8700     1.4540 C.3   1 <1>   0.1200 
 21 C        6.7210    -5.8400    -0.2630 C.2   1 <1>   0.5440 
 22 O        0.1110     4.4810     0.4360 O.3   1 <1>  -0.5600 
 23 O        6.5000    -7.0350    -0.2040 O.2   1 <1>  -0.5700 
 24 C        8.0910    -5.3710    -0.3050 C.ar  1 <1>   0.0860 
 25 C        8.5420    -4.5150    -1.3120 C.ar  1 <1>  -0.1500 
 26 C        9.0110    -5.7600     0.6680 C.ar  1 <1>  -0.1500 
 27 C        9.8430    -4.0500    -1.3290 C.ar  1 <1>  -0.1500 
 28 C       10.3150    -5.3010     0.6580 C.ar  1 <1>  -0.1500 
 29 C       10.7390    -4.4330    -0.3440 C.ar  1 <1>   0.0820 
 30 O       11.9910    -3.9300    -0.4270 O.3   1 <1>  -0.3620 
 31 C       12.9930    -4.2780     0.5020 C.3   1 <1>   0.0400 
 32 H       -0.4420    -1.7320     0.8870 H     1 <1>   0.0800 
 33 H        0.4650    -1.9940     2.3280 H     1 <1>   0.0800 
 34 H        3.6630    -1.6650    -1.4440 H     1 <1>   0.0800 
 35 H        2.0220    -2.1600    -1.4380 H     1 <1>   0.0800 
 36 H        4.3890     0.0740    -0.3940 H     1 <1>   0.0800 
 37 H        3.6450     0.7520     1.0090 H     1 <1>   0.0800 
 38 H        0.7690    -3.4500    -0.2860 H     1 <1>   0.0800 
 39 H        0.4450    -4.0730     1.3060 H     1 <1>   0.0800 
 40 H        2.7120     1.2350    -1.8310 H     1 <1>   0.0800 
 41 H        3.7520     2.3270    -0.9590 H     1 <1>   0.0800 
 42 H        3.7260    -4.1200    -1.8830 H     1 <1>   0.0800 
 43 H        2.3620    -4.8280    -1.0900 H     1 <1>   0.0800 
 44 H        4.5590    -3.4940     1.7140 H     1 <1>   0.0800 
 45 H        4.7420    -1.9360     0.9960 H     1 <1>   0.0800 
 46 H        1.2330     1.5070     0.2240 H     1 <1>   0.4500 
 47 H        4.2410    -6.3550    -1.0110 H     1 <1>   0.0800 
 48 H        3.9300    -5.7960     0.6140 H     1 <1>   0.0800 
 49 H        6.6920    -3.3490     0.6120 H     1 <1>   0.0800 
 50 H        5.9300    -2.9770    -0.9150 H     1 <1>   0.0800 
 51 H        0.5010     2.1920    -1.9500 H     1 <1>   0.0800 
 52 H        1.4110     3.6720    -1.7990 H     1 <1>   0.0800 
 53 H        2.7710     3.9860     0.5100 H     1 <1>   0.0800 
 54 H        2.6240     2.6750     1.6560 H     1 <1>   0.0800 
 55 H       -0.9900     2.8780    -0.1140 H     1 <1>   0.0800 
 56 H       -0.8950     4.1820    -1.2750 H     1 <1>   0.0800 
 57 H        1.1230     4.6300     2.1650 H     1 <1>   0.0800 
 58 H        0.2320     3.1420     1.9500 H     1 <1>   0.0800 
 59 H        7.8600    -4.2200    -2.0890 H     1 <1>   0.1500 
 60 H        8.6840    -6.4350     1.4410 H     1 <1>   0.1500 
 61 H       10.1780    -3.3900    -2.1080 H     1 <1>   0.1500 
 62 H       10.9840    -5.6270     1.4320 H     1 <1>   0.1500 
 63 H       13.8970    -3.7660     0.2260 H     1 <1>   0.0800 
 64 H       13.1490    -5.3410     0.4650 H     1 <1>   0.0800 
 65 H       12.6820    -3.9670     1.4840 H     1 <1>   0.0800 
@<TRIPOS>BOND
  1   1   2  2   
  2   2   3  am  
  3   2   4  1   
  4   3   5  1   
  5   3   6  1   
  6   4   7  1   
  7   4  32  1   
  8   4  33  1   
  9   5   8  1   
 10   5  34  1   
 11   5  35  1   
 12   6   9  1   
 13   6  36  1   
 14   6  37  1   
 15   7  10  1   
 16   7  38  1   
 17   7  39  1   
 18   8  10  1   
 19   8  11  1   
 20   8  12  1   
 21   9  13  1   
 22   9  40  1   
 23   9  41  1   
 24  11  14  1   
 25  11  42  1   
 26  11  43  1   
 27  12  15  1   
 28  12  44  1   
 29  12  45  1   
 30  13  16  1   
 31  13  17  1   
 32  13  46  1   
 33  14  18  1   
 34  14  47  1   
 35  14  48  1   
 36  15  18  1   
 37  15  49  1   
 38  15  50  1   
 39  16  19  1   
 40  16  51  1   
 41  16  52  1   
 42  17  20  1   
 43  17  53  1   
 44  17  54  1   
 45  18  21  am  
 46  19  22  1   
 47  19  55  1   
 48  19  56  1   
 49  20  22  1   
 50  20  57  1   
 51  20  58  1   
 52  21  23  2   
 53  21  24  1   
 54  24  25  ar  
 55  24  26  ar  
 56  25  27  ar  
 57  25  59  1   
 58  26  28  ar  
 59  26  60  1   
 60  27  29  ar  
 61  27  61  1   
 62  28  29  ar  
 63  28  62  1   
 64  29  30  1   
 65  30  31  1   
 66  31  63  1   
 67  31  64  1   
 68  31  65  1   
@<TRIPOS>SUBSTRUCTURE
  1 ****  12 GROUP 4 **** **** 0

# MOE 2024.06 (io_trps.svl 2023.06)
