@<TRIPOS>MOLECULE
NONAME
61 63 1 0 0 
SMALL
USER_CHARGES


@<TRIPOS>ATOM
  1 O       -0.6270     0.6080     1.8030 O.2   1 <1>  -0.5700 
  2 C       -1.0150     0.9140     0.7010 C.2   1 <1>   0.5690 
  3 N       -1.4610    -0.0210    -0.1920 N.am  1 <1>  -0.6600 
  4 C       -1.0040     2.3820     0.3040 C.3   1 <1>  -0.0990 
  5 C       -1.5480    -1.4680     0.2030 C.3   1 <1>   0.3640 
  6 C       -1.9530     0.3090    -1.5680 C.3   1 <1>   0.1400 
  7 C       -0.5460     3.3240     1.4240 C.3   1 <1>   0.0210 
  8 C       -0.3260    -2.2760    -0.2750 C.ar  1 <1>  -0.1440 
  9 C       -2.8930    -2.0900    -0.2930 C.3   1 <1>   0.2000 
 10 C       -2.4130    -0.9380    -2.3400 C.3   1 <1>   0.1200 
 11 C       -0.6250     4.7620     0.9420 C.2   1 <1>  -0.1810 
 12 C       -0.2330    -3.6140     0.0930 C.ar  1 <1>  -0.1500 
 13 C        0.7020    -1.7340    -1.0430 C.ar  1 <1>  -0.1500 
 14 O       -3.3230    -1.6670    -1.5730 O.3   1 <1>  -0.5600 
 15 C       -4.0400    -1.7670     0.6740 C.3   1 <1>   0.1200 
 16 C       -1.7270     5.6070     1.0400 C.2   1 <1>   0.1080 
 17 C        0.3220     5.5040     0.3260 C.2   1 <1>  -0.3320 
 18 C        0.8290    -4.4030    -0.3140 C.ar  1 <1>   0.0830 
 19 C        1.7790    -2.5080    -1.4400 C.ar  1 <1>  -0.1500 
 20 O       -3.8750    -2.4570     1.8710 O.3   1 <1>  -0.6800 
 21 N       -1.4970     6.7730     0.5290 N.2   1 <1>  -0.7070 
 22 C       -3.0590     5.2590     1.6660 C.3   1 <1>  -0.0590 
 23 N       -0.2310     6.7150     0.0910 N.pl3 1 <1>   0.3140 
 24 C        1.7440     5.1300    -0.0620 C.3   1 <1>  -0.0600 
 25 O        0.8070    -5.7100     0.0500 O.3   1 <1>  -0.3630 
 26 C        1.8590    -3.8380    -1.0710 C.ar  1 <1>   0.0830 
 27 C        0.3990     7.8740    -0.5520 C.3   1 <1>   0.0160 
 28 C        0.7320    -6.6550    -0.9960 C.3   1 <1>   0.0400 
 29 O        2.9580    -4.5310    -1.4580 O.3   1 <1>  -0.3630 
 30 C        3.8320    -4.9320    -0.4260 C.3   1 <1>   0.0400 
 31 H       -0.3480     2.5070    -0.5370 H     1 <1>   0.0800 
 32 H       -1.9950     2.6640     0.0050 H     1 <1>   0.0800 
 33 H       -1.5420    -1.5370     1.2780 H     1 <1>   0.0800 
 34 H       -2.7850     0.9880    -1.4930 H     1 <1>   0.0800 
 35 H       -1.1700     0.7960    -2.1220 H     1 <1>   0.0800 
 36 H        0.4630     3.0890     1.7110 H     1 <1>   0.0800 
 37 H       -1.1680     3.1980     2.2930 H     1 <1>   0.0800 
 38 H       -2.8010    -3.1580    -0.3500 H     1 <1>   0.0800 
 39 H       -1.5820    -1.5740    -2.5920 H     1 <1>   0.0800 
 40 H       -2.9080    -0.6500    -3.2500 H     1 <1>   0.0800 
 41 H       -0.9900    -4.0690     0.7060 H     1 <1>   0.1500 
 42 H        0.6880    -0.7010    -1.3350 H     1 <1>   0.1500 
 43 H       -4.9860    -2.0560     0.2500 H     1 <1>   0.0800 
 44 H       -4.0510    -0.7140     0.8980 H     1 <1>   0.0800 
 45 H        2.5690    -2.0800    -2.0290 H     1 <1>   0.1500 
 46 H       -4.1350    -3.3940     1.7730 H     1 <1>   0.4000 
 47 H       -3.4030     4.3080     1.3060 H     1 <1>   0.0800 
 48 H       -3.7860     6.0090     1.4140 H     1 <1>   0.0800 
 49 H       -2.9550     5.2200     2.7340 H     1 <1>   0.0800 
 50 H        1.9540     4.1080     0.1960 H     1 <1>   0.0800 
 51 H        2.4450     5.7610     0.4540 H     1 <1>   0.0800 
 52 H        1.8820     5.2460    -1.1220 H     1 <1>   0.0800 
 53 H        1.2690     8.1570     0.0090 H     1 <1>   0.0800 
 54 H       -0.3010     8.6890    -0.5690 H     1 <1>   0.0800 
 55 H        0.6730     7.6130    -1.5560 H     1 <1>   0.0800 
 56 H        0.5740    -7.6250    -0.5610 H     1 <1>   0.0800 
 57 H        1.6530    -6.6490    -1.5500 H     1 <1>   0.0800 
 58 H       -0.0920    -6.3990    -1.6380 H     1 <1>   0.0800 
 59 H        4.6940    -5.3900    -0.8750 H     1 <1>   0.0800 
 60 H        3.3300    -5.6380     0.2110 H     1 <1>   0.0800 
 61 H        4.1240    -4.0640     0.1370 H     1 <1>   0.0800 
@<TRIPOS>BOND
  1   1   2  2   
  2   2   3  am  
  3   2   4  1   
  4   3   5  1   
  5   3   6  1   
  6   4   7  1   
  7   4  31  1   
  8   4  32  1   
  9   5   8  1   
 10   5   9  1   
 11   5  33  1   
 12   6  10  1   
 13   6  34  1   
 14   6  35  1   
 15   7  11  1   
 16   7  36  1   
 17   7  37  1   
 18   8  12  ar  
 19   8  13  ar  
 20   9  14  1   
 21   9  15  1   
 22   9  38  1   
 23  10  14  1   
 24  10  39  1   
 25  10  40  1   
 26  11  16  1   
 27  11  17  2   
 28  12  18  ar  
 29  12  41  1   
 30  13  19  ar  
 31  13  42  1   
 32  15  20  1   
 33  15  43  1   
 34  15  44  1   
 35  16  21  2   
 36  16  22  1   
 37  17  23  1   
 38  17  24  1   
 39  18  25  1   
 40  18  26  ar  
 41  19  26  ar  
 42  19  45  1   
 43  20  46  1   
 44  21  23  1   
 45  22  47  1   
 46  22  48  1   
 47  22  49  1   
 48  23  27  1   
 49  24  50  1   
 50  24  51  1   
 51  24  52  1   
 52  25  28  1   
 53  26  29  1   
 54  27  53  1   
 55  27  54  1   
 56  27  55  1   
 57  28  56  1   
 58  28  57  1   
 59  28  58  1   
 60  29  30  1   
 61  30  59  1   
 62  30  60  1   
 63  30  61  1   
@<TRIPOS>SUBSTRUCTURE
  1 ****   3 GROUP 4 **** **** 0

# MOE 2024.06 (io_trps.svl 2023.06)
