@<TRIPOS>MOLECULE
NONAME
53 54 1 0 0 
SMALL
USER_CHARGES


@<TRIPOS>ATOM
  1 S        1.8580     2.2620    -0.6060 S.o2  1 <1>   1.3330 
  2 O        1.2180     2.8970    -1.7330 O.2   1 <1>  -0.6500 
  3 O        2.7330     3.0680     0.2190 O.2   1 <1>  -0.6500 
  4 N        2.6750     0.8710    -1.1150 N.am  1 <1>  -0.8490 
  5 C        0.5670     1.6450     0.4820 C.3   1 <1>  -0.0550 
  6 C        2.0370     0.2020    -2.2560 C.3   1 <1>   0.1160 
  7 C        4.0870     1.1280    -1.4230 C.3   1 <1>   0.1160 
  8 C       -0.3210     2.7130     1.1780 C.3   1 <1>  -0.0800 
  9 C       -1.0420     3.6460     0.1960 C.3   1 <1>   0.2000 
 10 C        0.4660     3.6780     2.0730 C.3   1 <1>   0.3430 
 11 O       -2.2760     3.9780     0.7410 O.3   1 <1>  -0.6800 
 12 C       -0.1730     4.9100     0.0910 C.3   1 <1>   0.3430 
 13 N        0.8400     4.8120     1.1930 N.4   1 <1>  -0.9590 
 14 C        1.1410     6.0960     1.8730 C.3   1 <1>   0.4860 
 15 C        1.6470     7.0670     0.8260 C.ar  1 <1>  -0.1440 
 16 C        2.8340     6.8090     0.1560 C.ar  1 <1>  -0.1500 
 17 C        0.9250     8.2100     0.5150 C.ar  1 <1>  -0.1500 
 18 C        3.2960     7.6680    -0.8250 C.ar  1 <1>   0.0820 
 19 C        1.3840     9.0770    -0.4610 C.ar  1 <1>  -0.1500 
 20 O        4.4570     7.3120    -1.4290 O.3   1 <1>  -0.3630 
 21 C        2.5640     8.8110    -1.1330 C.ar  1 <1>  -0.1500 
 22 C        5.0620     8.0670    -2.4550 C.3   1 <1>   0.2000 
 23 C        5.9730     7.1180    -3.2280 C.3   1 <1>  -0.2400 
 24 C        5.8640     9.2070    -1.8220 C.3   1 <1>  -0.2400 
 25 H       -0.0740     0.9970    -0.0860 H     1 <1>   0.0800 
 26 H        1.0260     1.0380     1.2390 H     1 <1>   0.0800 
 27 H        2.5530    -0.7170    -2.4810 H     1 <1>   0.0800 
 28 H        2.0580     0.8370    -3.1270 H     1 <1>   0.0800 
 29 H        1.0130    -0.0350    -2.0260 H     1 <1>   0.0800 
 30 H        4.5780     0.2150    -1.7140 H     1 <1>   0.0800 
 31 H        4.5920     1.5150    -0.5540 H     1 <1>   0.0800 
 32 H        4.1740     1.8460    -2.2220 H     1 <1>   0.0800 
 33 H       -1.0370     2.1760     1.7770 H     1 <1>   0.0800 
 34 H       -1.2240     3.2000    -0.7680 H     1 <1>   0.0800 
 35 H        1.3370     3.2070     2.5010 H     1 <1>   0.0800 
 36 H       -0.1740     4.0300     2.8660 H     1 <1>   0.0800 
 37 H       -2.2160     4.3880     1.6240 H     1 <1>   0.4000 
 38 H       -0.7840     5.7920     0.1880 H     1 <1>   0.0800 
 39 H        0.3320     4.9380    -0.8620 H     1 <1>   0.0800 
 40 H        1.7350     4.5370     0.7340 H     1 <1>   0.4500 
 41 H        0.2560     6.4880     2.3450 H     1 <1>   0.0800 
 42 H        1.9020     5.9510     2.6230 H     1 <1>   0.0800 
 43 H        3.4270     5.9370     0.3760 H     1 <1>   0.1500 
 44 H        0.0030     8.4410     1.0220 H     1 <1>   0.1500 
 45 H        0.8230     9.9650    -0.7000 H     1 <1>   0.1500 
 46 H        2.8940     9.5010    -1.8850 H     1 <1>   0.1500 
 47 H        4.2980     8.4380    -3.1160 H     1 <1>   0.0800 
 48 H        6.7270     6.7090    -2.5790 H     1 <1>   0.0800 
 49 H        6.4580     7.6440    -4.0300 H     1 <1>   0.0800 
 50 H        5.3930     6.3170    -3.6500 H     1 <1>   0.0800 
 51 H        6.6120     8.8110    -1.1580 H     1 <1>   0.0800 
 52 H        5.2190     9.8660    -1.2710 H     1 <1>   0.0800 
 53 H        6.3540     9.7780    -2.5880 H     1 <1>   0.0800 
@<TRIPOS>BOND
  1   1   2  2   
  2   1   3  2   
  3   1   4  am  
  4   1   5  1   
  5   4   6  1   
  6   4   7  1   
  7   5   8  1   
  8   5  25  1   
  9   5  26  1   
 10   6  27  1   
 11   6  28  1   
 12   6  29  1   
 13   7  30  1   
 14   7  31  1   
 15   7  32  1   
 16   8   9  1   
 17   8  10  1   
 18   8  33  1   
 19   9  11  1   
 20   9  12  1   
 21   9  34  1   
 22  10  13  1   
 23  10  35  1   
 24  10  36  1   
 25  11  37  1   
 26  12  13  1   
 27  12  38  1   
 28  12  39  1   
 29  13  14  1   
 30  13  40  1   
 31  14  15  1   
 32  14  41  1   
 33  14  42  1   
 34  15  16  ar  
 35  15  17  ar  
 36  16  18  ar  
 37  16  43  1   
 38  17  19  ar  
 39  17  44  1   
 40  18  20  1   
 41  18  21  ar  
 42  19  21  ar  
 43  19  45  1   
 44  20  22  1   
 45  21  46  1   
 46  22  23  1   
 47  22  24  1   
 48  22  47  1   
 49  23  48  1   
 50  23  49  1   
 51  23  50  1   
 52  24  51  1   
 53  24  52  1   
 54  24  53  1   
@<TRIPOS>SUBSTRUCTURE
  1 ****  13 GROUP 4 **** **** 0

# MOE 2024.06 (io_trps.svl 2023.06)
