@<TRIPOS>MOLECULE
NONAME
57 60 1 0 0 
SMALL
USER_CHARGES


@<TRIPOS>ATOM
  1 O        0.0880    -0.7200     0.1450 O.3   1 <1>  -0.3630 
  2 C       -0.0600    -2.0500     0.3500 C.ar  1 <1>   0.0830 
  3 C        0.9970    -0.2150    -0.8060 C.3   1 <1>   0.1200 
  4 C       -0.9400    -2.4310     1.3480 C.ar  1 <1>  -0.1500 
  5 C        0.6160    -3.0280    -0.3740 C.ar  1 <1>  -0.1500 
  6 C        0.9340     1.3120    -0.7640 C.3   1 <1>  -0.1600 
  7 C       -1.1560    -3.7690     1.6230 C.ar  1 <1>  -0.1500 
  8 C        0.3990    -4.3680    -0.1000 C.ar  1 <1>  -0.1500 
  9 C        1.8990     1.9390    -1.7770 C.3   1 <1>  -0.2400 
 10 C       -0.4930    -4.7460     0.8950 C.ar  1 <1>  -0.1430 
 11 C       -0.7510    -6.2110     1.1870 C.3   1 <1>   0.4860 
 12 N       -1.5910    -6.7740     0.0930 N.4   1 <1>  -0.9590 
 13 C       -2.9620    -6.1660     0.1120 C.3   1 <1>   0.3430 
 14 C       -1.7710    -8.2490     0.2690 C.3   1 <1>   0.3430 
 15 C       -3.8470    -7.1670     0.8590 C.3   1 <1>   0.2000 
 16 C       -3.2780    -8.5050     0.3860 C.3   1 <1>  -0.0800 
 17 O       -3.6230    -7.0150     2.2250 O.3   1 <1>  -0.6800 
 18 C       -3.6200    -9.7430     1.2410 C.3   1 <1>  -0.0170 
 19 C       -2.8120   -10.9480     0.7710 C.ar  1 <1>  -0.1430 
 20 C       -3.0900   -11.6260    -0.4410 C.ar  1 <1>   0.0000 
 21 C       -1.7600   -11.3960     1.5170 C.ar  1 <1>  -0.1500 
 22 C       -2.2120   -12.6690    -0.8250 C.ar  1 <1>   0.3100 
 23 C       -4.1840   -11.3380    -1.2900 C.ar  1 <1>  -0.1500 
 24 C       -0.9710   -12.4580     1.0590 C.ar  1 <1>   0.1600 
 25 N       -1.1600   -13.0650    -0.0670 N.ar  1 <1>  -0.6200 
 26 C       -2.4320   -13.3310    -2.0430 C.ar  1 <1>  -0.1500 
 27 C       -4.3740   -12.0070    -2.4690 C.ar  1 <1>  -0.1500 
 28 C       -3.4850   -13.0110    -2.8560 C.ar  1 <1>  -0.1500 
 29 H        1.9840    -0.5610    -0.5510 H     1 <1>   0.0800 
 30 H        0.7110    -0.5790    -1.7770 H     1 <1>   0.0800 
 31 H       -1.4510    -1.6670     1.9080 H     1 <1>   0.1500 
 32 H        1.3110    -2.7620    -1.1480 H     1 <1>   0.1500 
 33 H       -0.0700     1.6310    -0.9870 H     1 <1>   0.0800 
 34 H        1.1900     1.6490     0.2250 H     1 <1>   0.0800 
 35 H       -1.8440    -4.0330     2.4100 H     1 <1>   0.1500 
 36 H        0.9390    -5.1060    -0.6690 H     1 <1>   0.1500 
 37 H        1.6500     1.6300    -2.7770 H     1 <1>   0.0800 
 38 H        2.9120     1.6470    -1.5630 H     1 <1>   0.0800 
 39 H        1.8360     3.0120    -1.7270 H     1 <1>   0.0800 
 40 H       -1.2570    -6.3140     2.1340 H     1 <1>   0.0800 
 41 H        0.1900    -6.7330     1.2410 H     1 <1>   0.0800 
 42 H       -1.1300    -6.5500    -0.7970 H     1 <1>   0.4500 
 43 H       -2.9810    -5.1980     0.5860 H     1 <1>   0.0800 
 44 H       -3.3220    -6.0660    -0.8980 H     1 <1>   0.0800 
 45 H       -1.3560    -8.8010    -0.5600 H     1 <1>   0.0800 
 46 H       -1.2870    -8.5730     1.1770 H     1 <1>   0.0800 
 47 H       -4.8950    -7.0320     0.6510 H     1 <1>   0.0800 
 48 H       -3.6370    -8.6750    -0.6130 H     1 <1>   0.0800 
 49 H       -4.3570    -7.4040     2.7490 H     1 <1>   0.4000 
 50 H       -4.6720    -9.9610     1.1900 H     1 <1>   0.0800 
 51 H       -3.3870    -9.5570     2.2750 H     1 <1>   0.0800 
 52 H       -1.5020   -10.9560     2.4640 H     1 <1>   0.1500 
 53 H       -4.8950   -10.5860    -1.0080 H     1 <1>   0.1500 
 54 H       -0.1520   -12.7860     1.6780 H     1 <1>   0.1500 
 55 H       -1.7420   -14.1090    -2.3160 H     1 <1>   0.1500 
 56 H       -5.2090   -11.7780    -3.1100 H     1 <1>   0.1500 
 57 H       -3.6430   -13.5290    -3.7870 H     1 <1>   0.1500 
@<TRIPOS>BOND
  1   1   2  1   
  2   1   3  1   
  3   2   4  ar  
  4   2   5  ar  
  5   3   6  1   
  6   3  29  1   
  7   3  30  1   
  8   4   7  ar  
  9   4  31  1   
 10   5   8  ar  
 11   5  32  1   
 12   6   9  1   
 13   6  33  1   
 14   6  34  1   
 15   7  10  ar  
 16   7  35  1   
 17   8  10  ar  
 18   8  36  1   
 19   9  37  1   
 20   9  38  1   
 21   9  39  1   
 22  10  11  1   
 23  11  12  1   
 24  11  40  1   
 25  11  41  1   
 26  12  13  1   
 27  12  14  1   
 28  12  42  1   
 29  13  15  1   
 30  13  43  1   
 31  13  44  1   
 32  14  16  1   
 33  14  45  1   
 34  14  46  1   
 35  15  16  1   
 36  15  17  1   
 37  15  47  1   
 38  16  18  1   
 39  16  48  1   
 40  17  49  1   
 41  18  19  1   
 42  18  50  1   
 43  18  51  1   
 44  19  20  ar  
 45  19  21  ar  
 46  20  22  ar  
 47  20  23  ar  
 48  21  24  ar  
 49  21  52  1   
 50  22  25  ar  
 51  22  26  ar  
 52  23  27  ar  
 53  23  53  1   
 54  24  25  ar  
 55  24  54  1   
 56  26  28  ar  
 57  26  55  1   
 58  27  28  ar  
 59  27  56  1   
 60  28  57  1   
@<TRIPOS>SUBSTRUCTURE
  1 ****  12 GROUP 4 **** **** 0

# MOE 2024.06 (io_trps.svl 2023.06)
