@<TRIPOS>MOLECULE
NONAME
43 45 1 0 0 
SMALL
USER_CHARGES


@<TRIPOS>ATOM
  1 O        0.0620     0.1220     0.3450 O.2   1 <1>  -0.5700 
  2 C        1.0780    -0.4620     0.6710 C.2   1 <1>   0.5440 
  3 N        2.2600     0.2230     0.7820 N.am  1 <1>  -0.4930 
  4 C        1.0400    -1.8830     0.9590 C.ar  1 <1>   0.0860 
  5 C        2.5410     1.5850     0.5070 C.2   1 <1>   0.0630 
  6 C       -0.0580    -2.4520     1.6010 C.ar  1 <1>  -0.1500 
  7 C        2.0880    -2.7370     0.6100 C.ar  1 <1>  -0.1500 
  8 C        1.7100     2.5860     0.0000 C.2   1 <1>   0.1390 
  9 C        3.7290     2.1970     0.6930 C.2   1 <1>  -0.3020 
 10 C       -0.1080    -3.8020     1.8940 C.ar  1 <1>  -0.1500 
 11 C        2.0450    -4.0890     0.8980 C.ar  1 <1>  -0.1500 
 12 N        2.3260     3.7250    -0.1220 N.2   1 <1>  -0.7070 
 13 N        3.5820     3.4870     0.3090 N.pl3 1 <1>   0.3140 
 14 C        0.9440    -4.6340     1.5430 C.ar  1 <1>  -0.1430 
 15 C        4.6450     4.5330     0.3460 C.3   1 <1>   0.1760 
 16 C        0.8870    -6.1270     1.8550 C.3   1 <1>   0.2390 
 17 C        4.2470     5.6770     1.2890 C.3   1 <1>  -0.2400 
 18 C        4.9330     5.0640    -1.0660 C.3   1 <1>  -0.2400 
 19 N       -0.3460    -6.7540     1.3370 N.pl3 1 <1>   0.3140 
 20 N       -1.1460    -7.4620     2.1040 N.2   1 <1>  -0.4180 
 21 C       -0.8560    -6.7660     0.1130 C.2   1 <1>   0.0060 
 22 N       -2.1010    -7.8750     1.3520 N.2   1 <1>   0.0000 
 23 N       -1.9350    -7.4500     0.1050 N.2   1 <1>  -0.3380 
 24 C       -0.2730    -6.0790    -1.1090 C.3   1 <1>  -0.0600 
 25 H        3.0430    -0.2980     1.1680 H     1 <1>   0.3700 
 26 H       -0.8870    -1.8180     1.8720 H     1 <1>   0.1500 
 27 H        2.9450    -2.3410     0.0940 H     1 <1>   0.1500 
 28 H        0.6760     2.4380    -0.2620 H     1 <1>   0.1500 
 29 H        4.6530     1.8020     1.0670 H     1 <1>   0.1500 
 30 H       -0.9770    -4.2000     2.3940 H     1 <1>   0.1500 
 31 H        2.8750    -4.7140     0.6130 H     1 <1>   0.1500 
 32 H        5.5390     4.0720     0.7260 H     1 <1>   0.0800 
 33 H        0.9180    -6.2690     2.9200 H     1 <1>   0.0800 
 34 H        1.7280    -6.6370     1.4230 H     1 <1>   0.0800 
 35 H        3.3560     6.1630     0.9300 H     1 <1>   0.0800 
 36 H        5.0360     6.4050     1.3450 H     1 <1>   0.0800 
 37 H        4.0630     5.2950     2.2770 H     1 <1>   0.0800 
 38 H        4.0550     5.5370    -1.4710 H     1 <1>   0.0800 
 39 H        5.2240     4.2560    -1.7130 H     1 <1>   0.0800 
 40 H        5.7290     5.7850    -1.0370 H     1 <1>   0.0800 
 41 H        0.7550    -6.3590    -1.2430 H     1 <1>   0.0800 
 42 H       -0.3410    -5.0110    -1.0010 H     1 <1>   0.0800 
 43 H       -0.8250    -6.3670    -1.9860 H     1 <1>   0.0800 
@<TRIPOS>BOND
  1   1   2  2   
  2   2   3  am  
  3   2   4  1   
  4   3   5  1   
  5   3  25  1   
  6   4   6  ar  
  7   4   7  ar  
  8   5   8  1   
  9   5   9  2   
 10   6  10  ar  
 11   6  26  1   
 12   7  11  ar  
 13   7  27  1   
 14   8  12  2   
 15   8  28  1   
 16   9  13  1   
 17   9  29  1   
 18  10  14  ar  
 19  10  30  1   
 20  11  14  ar  
 21  11  31  1   
 22  12  13  1   
 23  13  15  1   
 24  14  16  1   
 25  15  17  1   
 26  15  18  1   
 27  15  32  1   
 28  16  19  1   
 29  16  33  1   
 30  16  34  1   
 31  17  35  1   
 32  17  36  1   
 33  17  37  1   
 34  18  38  1   
 35  18  39  1   
 36  18  40  1   
 37  19  20  1   
 38  19  21  1   
 39  20  22  2   
 40  21  23  2   
 41  21  24  1   
 42  22  23  1   
 43  24  41  1   
 44  24  42  1   
 45  24  43  1   
@<TRIPOS>SUBSTRUCTURE
  1 ****   4 GROUP 4 **** **** 0

# MOE 2024.06 (io_trps.svl 2023.06)
