@<TRIPOS>MOLECULE
NONAME
45 47 1 0 0 
SMALL
USER_CHARGES


@<TRIPOS>ATOM
  1 O       -0.4110    -0.4600     1.4050 O.3   1 <1>  -0.5600 
  2 C        0.3610     0.6920     1.5260 C.3   1 <1>   0.1200 
  3 C       -1.6990    -0.1540     0.9600 C.3   1 <1>   0.1200 
  4 C       -0.2150     1.6630     0.5070 C.3   1 <1>   0.2890 
  5 C       -1.6930     1.3210     0.5430 C.3   1 <1>  -0.0800 
  6 N        0.0170     3.0840     0.8710 N.pl3 1 <1>  -0.8690 
  7 C       -2.4110     1.5970    -0.7870 C.3   1 <1>  -0.0170 
  8 C        0.8530     3.9840     0.3550 C.ar  1 <1>   0.4100 
  9 C       -3.8750     1.1930    -0.7150 C.ar  1 <1>  -0.1430 
 10 N        0.7870     5.1830     0.9300 N.ar  1 <1>  -0.6200 
 11 C        1.7450     3.7350    -0.6950 C.ar  1 <1>  -0.1500 
 12 C       -4.3460     0.0310    -1.2940 C.ar  1 <1>  -0.1500 
 13 C       -4.8100     1.9700    -0.0620 C.ar  1 <1>  -0.1500 
 14 C        1.5750     6.1200     0.4910 C.ar  1 <1>   0.5280 
 15 C        2.5570     4.7390    -1.1320 C.ar  1 <1>   0.2180 
 16 C       -5.6890    -0.2900    -1.1900 C.ar  1 <1>   0.1600 
 17 C       -6.1320     1.5570    -0.0160 C.ar  1 <1>   0.1600 
 18 N        2.4540     5.9360    -0.5180 N.ar  1 <1>  -0.1790 
 19 C        1.5060     7.4940     1.1480 C.3   1 <1>  -0.0160 
 20 C        3.5560     4.5670    -2.2640 C.3   1 <1>  -0.0970 
 21 N       -6.5930     0.4440    -0.5620 N.ar  1 <1>  -0.6200 
 22 C        1.1110     8.6150     0.1710 C.3   1 <1>  -0.2400 
 23 H        0.2440     1.0620     2.5290 H     1 <1>   0.0800 
 24 H        1.3890     0.4470     1.3280 H     1 <1>   0.0800 
 25 H       -1.9210    -0.8080     0.1340 H     1 <1>   0.0800 
 26 H       -2.3950    -0.3370     1.7610 H     1 <1>   0.0800 
 27 H        0.1970     1.4340    -0.4600 H     1 <1>   0.0800 
 28 H       -2.1740     1.8760     1.3290 H     1 <1>   0.0800 
 29 H       -0.5510     3.4060     1.6610 H     1 <1>   0.4000 
 30 H       -1.9270     1.0600    -1.5850 H     1 <1>   0.0800 
 31 H       -2.3470     2.6470    -1.0160 H     1 <1>   0.0800 
 32 H        1.7790     2.7590    -1.1380 H     1 <1>   0.1500 
 33 H       -3.6850    -0.6290    -1.8260 H     1 <1>   0.1500 
 34 H       -4.5270     2.8910     0.4120 H     1 <1>   0.1500 
 35 H       -6.0390    -1.2000    -1.6470 H     1 <1>   0.1500 
 36 H       -6.8470     2.1760     0.4980 H     1 <1>   0.1500 
 37 H        3.0350     6.7230    -0.8070 H     1 <1>   0.4570 
 38 H        0.7770     7.4610     1.9410 H     1 <1>   0.0800 
 39 H        2.4540     7.7210     1.6010 H     1 <1>   0.0800 
 40 H        3.5210     3.5630    -2.6490 H     1 <1>   0.0800 
 41 H        4.5570     4.7560    -1.9150 H     1 <1>   0.0800 
 42 H        3.3320     5.2420    -3.0710 H     1 <1>   0.0800 
 43 H        0.1620     8.3940    -0.2880 H     1 <1>   0.0800 
 44 H        1.8490     8.7530    -0.5990 H     1 <1>   0.0800 
 45 H        1.0120     9.5430     0.7070 H     1 <1>   0.0800 
@<TRIPOS>BOND
  1   1   2  1   
  2   1   3  1   
  3   2   4  1   
  4   2  23  1   
  5   2  24  1   
  6   3   5  1   
  7   3  25  1   
  8   3  26  1   
  9   4   5  1   
 10   4   6  1   
 11   4  27  1   
 12   5   7  1   
 13   5  28  1   
 14   6   8  1   
 15   6  29  1   
 16   7   9  1   
 17   7  30  1   
 18   7  31  1   
 19   8  10  ar  
 20   8  11  ar  
 21   9  12  ar  
 22   9  13  ar  
 23  10  14  ar  
 24  11  15  ar  
 25  11  32  1   
 26  12  16  ar  
 27  12  33  1   
 28  13  17  ar  
 29  13  34  1   
 30  14  18  ar  
 31  14  19  1   
 32  15  18  ar  
 33  15  20  1   
 34  16  21  ar  
 35  16  35  1   
 36  17  21  ar  
 37  17  36  1   
 38  18  37  1   
 39  19  22  1   
 40  19  38  1   
 41  19  39  1   
 42  20  40  1   
 43  20  41  1   
 44  20  42  1   
 45  22  43  1   
 46  22  44  1   
 47  22  45  1   
@<TRIPOS>SUBSTRUCTURE
  1 ****   6 GROUP 4 **** **** 0

# MOE 2024.06 (io_trps.svl 2023.06)
