@<TRIPOS>MOLECULE
NONAME
40 42 1 0 0 
SMALL
USER_CHARGES


@<TRIPOS>ATOM
  1 O       -0.7970     0.0990    -0.0820 O.3   1 <1>  -0.5600 
  2 C       -1.3990     0.6220     1.0720 C.3   1 <1>   0.1200 
  3 C       -1.1130    -1.2270    -0.3980 C.3   1 <1>   0.1200 
  4 C       -2.8360     1.1210     0.7770 C.3   1 <1>   0.4230 
  5 C       -2.6310    -1.4750    -0.5340 C.3   1 <1>  -0.0800 
  6 N       -3.1240     1.0380    -0.7130 N.4   1 <1>  -0.9590 
  7 C       -3.8840     0.4390     1.6960 C.3   1 <1>   0.2090 
  8 C       -3.3030    -1.8860     0.7940 C.3   1 <1>   0.2090 
  9 C       -3.3850    -0.3430    -1.2580 C.3   1 <1>   0.3430 
 10 C       -4.2120     1.9640    -1.1330 C.3   1 <1>   0.2630 
 11 N       -4.3390    -0.9030     1.2220 N.pl3 1 <1>  -0.8380 
 12 C       -5.6790    -1.1650     1.0490 C.ar  1 <1>   0.7200 
 13 N       -6.0000    -1.9010    -0.0030 N.ar  1 <1>  -0.6200 
 14 N       -6.5100    -0.6230     1.9310 N.ar  1 <1>  -0.6200 
 15 C       -7.2760    -2.1570    -0.1530 C.ar  1 <1>   0.3930 
 16 C       -7.7820    -0.9000     1.7620 C.ar  1 <1>   0.1600 
 17 O       -7.5780    -2.9150    -1.2230 O.3   1 <1>  -0.3620 
 18 C       -8.2270    -1.6750     0.7240 C.ar  1 <1>  -0.1500 
 19 C       -8.8790    -3.3990    -1.4760 C.3   1 <1>   0.0400 
 20 H       -1.3700    -0.1120     1.8580 H     1 <1>   0.0800 
 21 H       -0.8000     1.4570     1.3880 H     1 <1>   0.0800 
 22 H       -0.6310    -1.4370    -1.3380 H     1 <1>   0.0800 
 23 H       -0.6730    -1.8720     0.3450 H     1 <1>   0.0800 
 24 H       -2.8380     2.1600     1.0560 H     1 <1>   0.0800 
 25 H       -2.7260    -2.3440    -1.1600 H     1 <1>   0.0800 
 26 H       -2.2210     1.3080    -1.1340 H     1 <1>   0.4500 
 27 H       -4.7290     1.1010     1.7660 H     1 <1>   0.0800 
 28 H       -3.4890     0.3400     2.6920 H     1 <1>   0.0800 
 29 H       -2.5760    -1.9990     1.5790 H     1 <1>   0.0800 
 30 H       -3.7650    -2.8530     0.6700 H     1 <1>   0.0800 
 31 H       -4.4400    -0.5550    -1.2060 H     1 <1>   0.0800 
 32 H       -3.1100    -0.3600    -2.2990 H     1 <1>   0.0800 
 33 H       -5.1470     1.6580    -0.6910 H     1 <1>   0.0800 
 34 H       -4.3190     1.9510    -2.2060 H     1 <1>   0.0800 
 35 H       -3.9910     2.9710    -0.8210 H     1 <1>   0.0800 
 36 H       -8.4840    -0.4950     2.4720 H     1 <1>   0.1500 
 37 H       -9.2720    -1.8830     0.6140 H     1 <1>   0.1500 
 38 H       -8.8400    -4.0150    -2.3570 H     1 <1>   0.0800 
 39 H       -9.5390    -2.5660    -1.6440 H     1 <1>   0.0800 
 40 H       -9.2050    -3.9880    -0.6360 H     1 <1>   0.0800 
@<TRIPOS>BOND
  1   1   2  1   
  2   1   3  1   
  3   2   4  1   
  4   2  20  1   
  5   2  21  1   
  6   3   5  1   
  7   3  22  1   
  8   3  23  1   
  9   4   6  1   
 10   4   7  1   
 11   4  24  1   
 12   5   8  1   
 13   5   9  1   
 14   5  25  1   
 15   6   9  1   
 16   6  10  1   
 17   6  26  1   
 18   7  11  1   
 19   7  27  1   
 20   7  28  1   
 21   8  11  1   
 22   8  29  1   
 23   8  30  1   
 24   9  31  1   
 25   9  32  1   
 26  10  33  1   
 27  10  34  1   
 28  10  35  1   
 29  11  12  1   
 30  12  13  ar  
 31  12  14  ar  
 32  13  15  ar  
 33  14  16  ar  
 34  15  17  1   
 35  15  18  ar  
 36  16  18  ar  
 37  16  36  1   
 38  17  19  1   
 39  18  37  1   
 40  19  38  1   
 41  19  39  1   
 42  19  40  1   
@<TRIPOS>SUBSTRUCTURE
  1 ****  11 GROUP 4 **** **** 0

# MOE 2024.06 (io_trps.svl 2023.06)
