@<TRIPOS>MOLECULE
NONAME
59 61 1 0 0 
SMALL
USER_CHARGES


@<TRIPOS>ATOM
  1 F       -0.6600    -0.2190    -0.3780 F     1 <1>  -0.1900 
  2 C       -1.8950     0.2100    -0.3320 C.ar  1 <1>   0.1900 
  3 C       -2.3620     1.0170     0.7120 C.ar  1 <1>   0.0830 
  4 C       -2.7180    -0.1720    -1.3740 C.ar  1 <1>  -0.1500 
  5 O       -1.6520     1.4590     1.7890 O.3   1 <1>  -0.3630 
  6 C       -3.6860     1.4210     0.6670 C.ar  1 <1>  -0.1500 
  7 C       -4.0340     0.2500    -1.3880 C.ar  1 <1>  -0.1500 
  8 C       -0.3040     1.1130     2.0180 C.3   1 <1>   0.0400 
  9 C       -4.5480     1.0510    -0.3670 C.ar  1 <1>   0.0530 
 10 C       -5.9160     1.5070    -0.3740 C.2   1 <1>   0.0870 
 11 O       -6.1740     2.7500    -0.0550 O.3   1 <1>  -0.0190 
 12 C       -7.1090     0.9130    -0.6560 C.2   1 <1>  -0.0860 
 13 N       -7.4450     3.0400    -0.1130 N.2   1 <1>  -0.4100 
 14 C       -8.0300     1.9540    -0.4750 C.2   1 <1>   0.3720 
 15 C       -7.4260    -0.4360    -1.0210 C.2   1 <1>   0.7160 
 16 N       -9.4220     1.8700    -0.6550 N.pl3 1 <1>  -0.8210 
 17 O       -6.5900    -1.3200    -1.0270 O.2   1 <1>  -0.5700 
 18 N       -8.7020    -0.7770    -1.3500 N.am  1 <1>  -0.7300 
 19 C       -9.8790     2.6410    -1.8450 C.3   1 <1>   0.1290 
 20 C      -10.1830     2.2780     0.5600 C.3   1 <1>   0.1290 
 21 C       -9.1840    -2.1280    -1.6900 C.3   1 <1>   0.1400 
 22 C       -9.4020    -2.9430    -0.4060 C.3   1 <1>  -0.0800 
 23 C       -9.6280    -4.4250    -0.7600 C.3   1 <1>   0.3430 
 24 C      -10.5410    -2.3760     0.4640 C.3   1 <1>  -0.1600 
 25 N      -10.5080    -5.1340     0.2300 N.4   1 <1>  -0.9590 
 26 C      -10.7060    -3.2040     1.7530 C.3   1 <1>  -0.1600 
 27 C      -10.2500    -4.6630     1.6210 C.3   1 <1>   0.3430 
 28 C      -10.3780    -6.6060     0.0850 C.3   1 <1>   0.3430 
 29 C      -11.5690    -7.2950     0.7420 C.3   1 <1>  -0.2400 
 30 H       -2.3310    -0.7930    -2.1630 H     1 <1>   0.1500 
 31 H       -4.0580     2.0430     1.4620 H     1 <1>   0.1500 
 32 H       -4.6730    -0.0450    -2.2010 H     1 <1>   0.1500 
 33 H        0.0070     1.5710     2.9390 H     1 <1>   0.0800 
 34 H        0.2960     1.4840     1.2050 H     1 <1>   0.0800 
 35 H       -0.2260     0.0430     2.0980 H     1 <1>   0.0800 
 36 H       -9.3890    -0.0140    -1.2380 H     1 <1>   0.3700 
 37 H       -9.3120     2.3490    -2.7120 H     1 <1>   0.0800 
 38 H       -9.7370     3.6970    -1.6810 H     1 <1>   0.0800 
 39 H      -10.9220     2.4500    -2.0320 H     1 <1>   0.0800 
 40 H       -9.7970     1.7640     1.4240 H     1 <1>   0.0800 
 41 H      -11.2240     2.0320     0.4450 H     1 <1>   0.0800 
 42 H      -10.0860     3.3390     0.7220 H     1 <1>   0.0800 
 43 H       -8.4420    -2.6080    -2.3080 H     1 <1>   0.0800 
 44 H      -10.0970    -2.0490    -2.2560 H     1 <1>   0.0800 
 45 H       -8.4860    -2.8960     0.1600 H     1 <1>   0.0800 
 46 H       -8.6670    -4.9110    -0.8120 H     1 <1>   0.0800 
 47 H      -10.0820    -4.4910    -1.7360 H     1 <1>   0.0800 
 48 H      -11.4600    -2.3950    -0.0970 H     1 <1>   0.0800 
 49 H      -10.3440    -1.3490     0.7260 H     1 <1>   0.0800 
 50 H      -11.4810    -4.8790     0.0140 H     1 <1>   0.4500 
 51 H      -11.7360    -3.1760     2.0660 H     1 <1>   0.0800 
 52 H      -10.1300    -2.7520     2.5420 H     1 <1>   0.0800 
 53 H       -9.1940    -4.7300     1.8300 H     1 <1>   0.0800 
 54 H      -10.7770    -5.2700     2.3390 H     1 <1>   0.0800 
 55 H       -9.4570    -6.9460     0.5310 H     1 <1>   0.0800 
 56 H      -10.3630    -6.8670    -0.9620 H     1 <1>   0.0800 
 57 H      -11.5790    -7.1400     1.8050 H     1 <1>   0.0800 
 58 H      -11.4990    -8.3540     0.5690 H     1 <1>   0.0800 
 59 H      -12.4940    -6.9520     0.3150 H     1 <1>   0.0800 
@<TRIPOS>BOND
  1   1   2  1   
  2   2   3  ar  
  3   2   4  ar  
  4   3   5  1   
  5   3   6  ar  
  6   4   7  ar  
  7   4  30  1   
  8   5   8  1   
  9   6   9  ar  
 10   6  31  1   
 11   7   9  ar  
 12   7  32  1   
 13   8  33  1   
 14   8  34  1   
 15   8  35  1   
 16   9  10  1   
 17  10  11  1   
 18  10  12  2   
 19  11  13  1   
 20  12  14  1   
 21  12  15  1   
 22  13  14  2   
 23  14  16  1   
 24  15  17  2   
 25  15  18  am  
 26  16  19  1   
 27  16  20  1   
 28  18  21  1   
 29  18  36  1   
 30  19  37  1   
 31  19  38  1   
 32  19  39  1   
 33  20  40  1   
 34  20  41  1   
 35  20  42  1   
 36  21  22  1   
 37  21  43  1   
 38  21  44  1   
 39  22  23  1   
 40  22  24  1   
 41  22  45  1   
 42  23  25  1   
 43  23  46  1   
 44  23  47  1   
 45  24  26  1   
 46  24  48  1   
 47  24  49  1   
 48  25  27  1   
 49  25  28  1   
 50  25  50  1   
 51  26  27  1   
 52  26  51  1   
 53  26  52  1   
 54  27  53  1   
 55  27  54  1   
 56  28  29  1   
 57  28  55  1   
 58  28  56  1   
 59  29  57  1   
 60  29  58  1   
 61  29  59  1   
@<TRIPOS>SUBSTRUCTURE
  1 ****  15 GROUP 4 **** **** 0

# MOE 2024.06 (io_trps.svl 2023.06)
