@<TRIPOS>MOLECULE
NONAME
43 45 1 0 0 
SMALL
USER_CHARGES


@<TRIPOS>ATOM
  1 S       -0.6290     0.6240     1.8980 S.3   1 <1>  -0.0800 
  2 C        0.7720    -0.0040     1.0340 C.2   1 <1>   0.3250 
  3 C       -1.2920    -0.9740     2.0080 C.2   1 <1>  -0.1100 
  4 N        0.7090    -1.2810     0.8700 N.2   1 <1>  -0.5650 
  5 C        1.8170     0.9020     0.6050 C.ar  1 <1>   0.0530 
  6 C       -0.4440    -1.8260     1.4160 C.2   1 <1>   0.0460 
  7 C        3.0490     0.3990     0.1870 C.ar  1 <1>  -0.1500 
  8 C        1.6620     2.2900     0.5740 C.ar  1 <1>  -0.1500 
  9 C       -0.6350    -3.3290     1.2680 C.3   1 <1>   0.5240 
 10 C        4.0700     1.2270    -0.2380 C.ar  1 <1>  -0.1500 
 11 C        2.6800     3.1240     0.1500 C.ar  1 <1>  -0.1500 
 12 N       -0.3360    -3.6880    -0.1440 N.4   1 <1>  -0.9590 
 13 C        3.9030     2.6070    -0.2620 C.ar  1 <1>  -0.1430 
 14 C        0.0390    -5.1270    -0.2710 C.3   1 <1>   0.3430 
 15 C       -1.4620    -3.2840    -1.0500 C.3   1 <1>   0.3430 
 16 C        5.0350     3.5300    -0.7410 C.3   1 <1>   1.1630 
 17 C       -1.1380    -6.0290     0.0750 C.3   1 <1>  -0.1860 
 18 C       -2.2890    -4.4720    -1.5540 C.3   1 <1>  -0.1600 
 19 F        4.9920     3.7260    -2.0520 F     1 <1>  -0.3400 
 20 F        4.9920     4.7340    -0.1820 F     1 <1>  -0.3400 
 21 F        6.2420     3.0430    -0.4770 F     1 <1>  -0.3400 
 22 C       -0.7860    -7.3250    -0.5730 C.2   1 <1>   0.9060 
 23 C       -2.4810    -5.5380    -0.4770 C.3   1 <1>   0.2000 
 24 O       -0.6430    -7.3290    -1.7960 O.co2 1 <1>  -0.9000 
 25 O       -0.5930    -8.2970     0.1490 O.co2 1 <1>  -0.9000 
 26 O       -3.1930    -4.9600     0.5620 O.3   1 <1>  -0.6800 
 27 H       -2.2410    -1.0930     2.5020 H     1 <1>   0.1500 
 28 H        3.2110    -0.6650     0.1960 H     1 <1>   0.1500 
 29 H        0.7330     2.7370     0.8790 H     1 <1>   0.1500 
 30 H       -1.6370    -3.6130     1.5360 H     1 <1>   0.0800 
 31 H        0.0570    -3.8300     1.9230 H     1 <1>   0.0800 
 32 H        5.0030     0.7880    -0.5530 H     1 <1>   0.1500 
 33 H        2.5110     4.1890     0.1420 H     1 <1>   0.1500 
 34 H        0.4780    -3.0950    -0.3680 H     1 <1>   0.4500 
 35 H        0.3340    -5.3200    -1.2910 H     1 <1>   0.0800 
 36 H        0.8770    -5.3670     0.3620 H     1 <1>   0.0800 
 37 H       -2.1170    -2.6100    -0.5230 H     1 <1>   0.0800 
 38 H       -1.0670    -2.7550    -1.9020 H     1 <1>   0.0800 
 39 H       -1.1890    -6.2070     1.1320 H     1 <1>   0.0800 
 40 H       -1.7890    -4.9190    -2.3960 H     1 <1>   0.0800 
 41 H       -3.2460    -4.1310    -1.9060 H     1 <1>   0.0800 
 42 H       -3.0660    -6.3600    -0.8620 H     1 <1>   0.0800 
 43 H       -3.5940    -5.6740     1.1020 H     1 <1>   0.4000 
@<TRIPOS>BOND
  1   1   2  1   
  2   1   3  1   
  3   2   4  2   
  4   2   5  1   
  5   3   6  2   
  6   3  27  1   
  7   4   6  1   
  8   5   7  ar  
  9   5   8  ar  
 10   6   9  1   
 11   7  10  ar  
 12   7  28  1   
 13   8  11  ar  
 14   8  29  1   
 15   9  12  1   
 16   9  30  1   
 17   9  31  1   
 18  10  13  ar  
 19  10  32  1   
 20  11  13  ar  
 21  11  33  1   
 22  12  14  1   
 23  12  15  1   
 24  12  34  1   
 25  13  16  1   
 26  14  17  1   
 27  14  35  1   
 28  14  36  1   
 29  15  18  1   
 30  15  37  1   
 31  15  38  1   
 32  16  19  1   
 33  16  20  1   
 34  16  21  1   
 35  17  22  1   
 36  17  23  1   
 37  17  39  1   
 38  18  23  1   
 39  18  40  1   
 40  18  41  1   
 41  22  24  ar  
 42  22  25  ar  
 43  23  26  1   
 44  23  42  1   
 45  26  43  1   
@<TRIPOS>SUBSTRUCTURE
  1 ****   4 GROUP 4 **** **** 0

# MOE 2024.06 (io_trps.svl 2023.06)
