@<TRIPOS>MOLECULE
NONAME
50 51 1 0 0 
SMALL
USER_CHARGES


@<TRIPOS>ATOM
  1 O        0.3650     1.2520     0.7170 O.co2 1 <1>  -0.9000 
  2 C       -0.1370     2.1070     1.4660 C.2   1 <1>   0.9060 
  3 O        0.4290     2.4870     2.4950 O.co2 1 <1>  -0.9000 
  4 C       -1.5790     2.6090     1.1720 C.3   1 <1>   0.4600 
  5 N       -2.5590     1.5070     0.7750 N.4   1 <1>  -0.9590 
  6 C       -1.6380     3.7420     0.1400 C.ar  1 <1>  -0.1430 
  7 C       -2.2430     0.9060    -0.5630 C.3   1 <1>   0.3430 
  8 C       -3.9930     1.9140     0.8530 C.3   1 <1>   0.3430 
  9 C       -2.4970     4.8160     0.3520 C.ar  1 <1>   0.0830 
 10 C       -0.8420     3.7260    -0.9980 C.ar  1 <1>  -0.1500 
 11 C       -3.1270    -0.3450    -0.8570 C.3   1 <1>   0.2800 
 12 C       -4.9120     0.9720     0.0450 C.3   1 <1>   0.1200 
 13 O       -3.2480     4.8190     1.4830 O.3   1 <1>  -0.3630 
 14 C       -2.5700     5.8410    -0.5850 C.ar  1 <1>  -0.1500 
 15 C       -0.9100     4.7480    -1.9290 C.ar  1 <1>  -0.1430 
 16 O       -4.3290    -0.2940    -0.1140 O.3   1 <1>  -0.5600 
 17 C       -3.4550    -0.4110    -2.3740 C.3   1 <1>  -0.1600 
 18 C       -2.3530    -1.5860    -0.3470 C.3   1 <1>  -0.1600 
 19 C       -3.6300     6.0440     2.0720 C.3   1 <1>   0.0400 
 20 C       -1.7820     5.8030    -1.7200 C.ar  1 <1>  -0.1500 
 21 C       -0.0290     4.7120    -3.1650 C.3   1 <1>  -0.0970 
 22 C       -4.7670    -1.1130    -2.7770 C.3   1 <1>  -0.2400 
 23 C       -3.0530    -2.9470    -0.4850 C.3   1 <1>  -0.2400 
 24 H       -1.9070     3.0190     2.1100 H     1 <1>   0.0800 
 25 H       -2.4000     0.7420     1.4420 H     1 <1>   0.4500 
 26 H       -1.2070     0.6200    -0.6210 H     1 <1>   0.0800 
 27 H       -2.4100     1.6460    -1.3260 H     1 <1>   0.0800 
 28 H       -4.1160     2.9110     0.4670 H     1 <1>   0.0800 
 29 H       -4.3070     1.9260     1.8830 H     1 <1>   0.0800 
 30 H       -0.1490     2.9150    -1.1630 H     1 <1>   0.1500 
 31 H       -5.1070     1.3850    -0.9300 H     1 <1>   0.0800 
 32 H       -5.8520     0.8460     0.5520 H     1 <1>   0.0800 
 33 H       -3.2360     6.6720    -0.4490 H     1 <1>   0.1500 
 34 H       -2.6350    -0.8890    -2.8820 H     1 <1>   0.0800 
 35 H       -3.5030     0.5900    -2.7640 H     1 <1>   0.0800 
 36 H       -2.1260    -1.4350     0.6940 H     1 <1>   0.0800 
 37 H       -1.4070    -1.6430    -0.8580 H     1 <1>   0.0800 
 38 H       -4.0080     5.8400     3.0580 H     1 <1>   0.0800 
 39 H       -4.3980     6.5000     1.4750 H     1 <1>   0.0800 
 40 H       -2.7660     6.6840     2.1400 H     1 <1>   0.0800 
 41 H       -1.8440     6.6010    -2.4400 H     1 <1>   0.1500 
 42 H        0.8950     4.2040    -2.9520 H     1 <1>   0.0800 
 43 H        0.2040     5.7100    -3.4900 H     1 <1>   0.0800 
 44 H       -0.5340     4.1960    -3.9610 H     1 <1>   0.0800 
 45 H       -4.8060    -2.1230    -2.4170 H     1 <1>   0.0800 
 46 H       -4.8550    -1.1360    -3.8490 H     1 <1>   0.0800 
 47 H       -5.6180    -0.5860    -2.3840 H     1 <1>   0.0800 
 48 H       -4.0470    -2.9080    -0.0770 H     1 <1>   0.0800 
 49 H       -2.4970    -3.6970     0.0500 H     1 <1>   0.0800 
 50 H       -3.1030    -3.2470    -1.5160 H     1 <1>   0.0800 
@<TRIPOS>BOND
  1   1   2  ar  
  2   2   3  ar  
  3   2   4  1   
  4   4   5  1   
  5   4   6  1   
  6   4  24  1   
  7   5   7  1   
  8   5   8  1   
  9   5  25  1   
 10   6   9  ar  
 11   6  10  ar  
 12   7  11  1   
 13   7  26  1   
 14   7  27  1   
 15   8  12  1   
 16   8  28  1   
 17   8  29  1   
 18   9  13  1   
 19   9  14  ar  
 20  10  15  ar  
 21  10  30  1   
 22  11  16  1   
 23  11  17  1   
 24  11  18  1   
 25  12  16  1   
 26  12  31  1   
 27  12  32  1   
 28  13  19  1   
 29  14  20  ar  
 30  14  33  1   
 31  15  20  ar  
 32  15  21  1   
 33  17  22  1   
 34  17  34  1   
 35  17  35  1   
 36  18  23  1   
 37  18  36  1   
 38  18  37  1   
 39  19  38  1   
 40  19  39  1   
 41  19  40  1   
 42  20  41  1   
 43  21  42  1   
 44  21  43  1   
 45  21  44  1   
 46  22  45  1   
 47  22  46  1   
 48  22  47  1   
 49  23  48  1   
 50  23  49  1   
 51  23  50  1   
@<TRIPOS>SUBSTRUCTURE
  1 ****   5 GROUP 4 **** **** 0

# MOE 2024.06 (io_trps.svl 2023.06)
