@<TRIPOS>MOLECULE
NONAME
47 49 1 0 0 
SMALL
USER_CHARGES


@<TRIPOS>ATOM
  1 S        0.5310     0.0610     1.9600 S.o2  1 <1>   1.4470 
  2 O        1.2950    -0.9830     2.6070 O.2   1 <1>  -0.6500 
  3 O       -0.0450     1.1140     2.7670 O.2   1 <1>  -0.6500 
  4 N        1.6720     0.8500     0.9770 N.am  1 <1>  -0.8490 
  5 C       -0.6940    -0.5280     0.7440 C.ar  1 <1>  -0.0090 
  6 C        2.5470     1.7040     1.8110 C.3   1 <1>   0.1960 
  7 C        2.4210    -0.0930     0.1360 C.3   1 <1>   0.1960 
  8 C       -0.9250    -1.8700     0.4230 C.ar  1 <1>  -0.1440 
  9 C       -1.4320     0.4340     0.0620 C.ar  1 <1>  -0.1500 
 10 C        3.7030     2.4460     1.0870 C.3   1 <1>   0.4230 
 11 C        3.1060     0.6090    -1.0570 C.3   1 <1>  -0.0800 
 12 C       -1.8480    -2.2020    -0.5580 C.ar  1 <1>  -0.1500 
 13 C       -0.2040    -3.0170     1.1220 C.3   1 <1>  -0.0960 
 14 C       -2.3520     0.0980    -0.9120 C.ar  1 <1>  -0.1500 
 15 N        3.3470     3.0270    -0.2660 N.4   1 <1>  -0.9590 
 16 C        4.9740     1.5670     0.9650 C.3   1 <1>   0.1200 
 17 C        4.6370     0.4000    -1.0820 C.3   1 <1>   0.1200 
 18 C        2.6700     2.0800    -1.2170 C.3   1 <1>   0.3430 
 19 C       -2.5610    -1.2290    -1.2320 C.ar  1 <1>  -0.1430 
 20 C        2.5930     4.3080    -0.1600 C.3   1 <1>   0.2630 
 21 O        5.3330     1.3860    -0.3780 O.3   1 <1>  -0.5600 
 22 C       -3.5690    -1.6180    -2.2990 C.3   1 <1>  -0.0970 
 23 H        1.9360     2.4590     2.2750 H     1 <1>   0.0800 
 24 H        2.9610     1.1160     2.6150 H     1 <1>   0.0800 
 25 H        3.1290    -0.6440     0.7340 H     1 <1>   0.0800 
 26 H        1.7350    -0.8180    -0.2710 H     1 <1>   0.0800 
 27 H       -1.2870     1.4730     0.3020 H     1 <1>   0.1500 
 28 H        3.9810     3.2580     1.7370 H     1 <1>   0.0800 
 29 H        2.7360     0.0930    -1.9250 H     1 <1>   0.0800 
 30 H       -2.0240    -3.2350    -0.8040 H     1 <1>   0.1500 
 31 H       -0.5620    -3.9710     0.7770 H     1 <1>   0.0800 
 32 H       -0.3720    -2.9710     2.1830 H     1 <1>   0.0800 
 33 H        0.8530    -2.9720     0.9320 H     1 <1>   0.0800 
 34 H       -2.9070     0.8710    -1.4160 H     1 <1>   0.1500 
 35 H        4.2780     3.1850    -0.6900 H     1 <1>   0.4500 
 36 H        4.8650     0.6080     1.4420 H     1 <1>   0.0800 
 37 H        5.7940     2.0740     1.4440 H     1 <1>   0.0800 
 38 H        4.9890     0.4470    -2.0990 H     1 <1>   0.0800 
 39 H        4.9110    -0.5640    -0.6860 H     1 <1>   0.0800 
 40 H        1.6030     2.1310    -1.0720 H     1 <1>   0.0800 
 41 H        2.8760     2.3960    -2.2260 H     1 <1>   0.0800 
 42 H        1.6280     4.1340     0.2880 H     1 <1>   0.0800 
 43 H        2.4460     4.7370    -1.1380 H     1 <1>   0.0800 
 44 H        3.1360     5.0150     0.4460 H     1 <1>   0.0800 
 45 H       -3.7510    -0.7970    -2.9690 H     1 <1>   0.0800 
 46 H       -4.4980    -1.8980    -1.8350 H     1 <1>   0.0800 
 47 H       -3.2030    -2.4500    -2.8730 H     1 <1>   0.0800 
@<TRIPOS>BOND
  1   1   2  2   
  2   1   3  2   
  3   1   4  am  
  4   1   5  1   
  5   4   6  1   
  6   4   7  1   
  7   5   8  ar  
  8   5   9  ar  
  9   6  10  1   
 10   6  23  1   
 11   6  24  1   
 12   7  11  1   
 13   7  25  1   
 14   7  26  1   
 15   8  12  ar  
 16   8  13  1   
 17   9  14  ar  
 18   9  27  1   
 19  10  15  1   
 20  10  16  1   
 21  10  28  1   
 22  11  17  1   
 23  11  18  1   
 24  11  29  1   
 25  12  19  ar  
 26  12  30  1   
 27  13  31  1   
 28  13  32  1   
 29  13  33  1   
 30  14  19  ar  
 31  14  34  1   
 32  15  18  1   
 33  15  20  1   
 34  15  35  1   
 35  16  21  1   
 36  16  36  1   
 37  16  37  1   
 38  17  21  1   
 39  17  38  1   
 40  17  39  1   
 41  18  40  1   
 42  18  41  1   
 43  19  22  1   
 44  20  42  1   
 45  20  43  1   
 46  20  44  1   
 47  22  45  1   
 48  22  46  1   
 49  22  47  1   
@<TRIPOS>SUBSTRUCTURE
  1 ****   4 GROUP 4 **** **** 0

# MOE 2024.06 (io_trps.svl 2023.06)
