@<TRIPOS>MOLECULE
NONAME
47 48 1 0 0 
SMALL
USER_CHARGES


@<TRIPOS>ATOM
  1 O       -0.0450    -1.5330    -0.0900 O.2   1 <1>  -0.5700 
  2 C        0.8010    -1.9610     0.6590 C.2   1 <1>   0.5690 
  3 N        0.4870    -2.8250     1.6550 N.am  1 <1>  -0.7300 
  4 C        2.2720    -1.5720     0.4780 C.3   1 <1>  -0.0190 
  5 C       -0.8720    -3.3990     1.8970 C.3   1 <1>   0.2010 
  6 C        2.4490    -0.1660    -0.1230 C.3   1 <1>  -0.2400 
  7 C        3.0080    -2.6070    -0.3880 C.3   1 <1>  -0.2400 
  8 C       -0.9390    -4.8930     1.5640 C.2   1 <1>   0.5690 
  9 O       -0.8060    -5.6640     2.4870 O.2   1 <1>  -0.5700 
 10 N       -1.1170    -5.3290     0.2770 N.am  1 <1>  -0.6600 
 11 C       -1.0280    -6.7950    -0.0440 C.3   1 <1>   0.3640 
 12 C       -1.4020    -4.4060    -0.8700 C.3   1 <1>   0.1400 
 13 C        0.3990    -7.2060    -0.4420 C.ar  1 <1>  -0.1440 
 14 C       -2.0530    -7.2440    -1.1340 C.3   1 <1>   0.2000 
 15 C       -1.6900    -5.1570    -2.1770 C.3   1 <1>   0.1200 
 16 C        1.3670    -6.3160    -0.8980 C.ar  1 <1>  -0.1500 
 17 C        0.7380    -8.5490    -0.3350 C.ar  1 <1>  -0.1500 
 18 O       -2.5760    -6.1990    -1.9220 O.3   1 <1>  -0.5600 
 19 C       -3.2540    -7.9660    -0.5120 C.3   1 <1>   0.1200 
 20 C        2.6290    -6.7600    -1.2500 C.ar  1 <1>  -0.1500 
 21 C        1.9990    -8.9960    -0.6860 C.ar  1 <1>  -0.1500 
 22 O       -2.8690    -9.2120    -0.0250 O.3   1 <1>  -0.6800 
 23 C        2.9470    -8.1010    -1.1470 C.ar  1 <1>  -0.1500 
 24 H        1.2320    -3.2510     2.2110 H     1 <1>   0.3700 
 25 H        2.7280    -1.5650     1.4520 H     1 <1>   0.0800 
 26 H       -1.1190    -3.2730     2.9350 H     1 <1>   0.0800 
 27 H       -1.6080    -2.8650     1.3250 H     1 <1>   0.0800 
 28 H        2.0310    -0.1260    -1.1140 H     1 <1>   0.0800 
 29 H        3.4910     0.0950    -0.1750 H     1 <1>   0.0800 
 30 H        1.9420     0.5610     0.4870 H     1 <1>   0.0800 
 31 H        2.5710    -2.6460    -1.3710 H     1 <1>   0.0800 
 32 H        2.9370    -3.5840     0.0570 H     1 <1>   0.0800 
 33 H        4.0480    -2.3490    -0.4810 H     1 <1>   0.0800 
 34 H       -1.2520    -7.3500     0.8510 H     1 <1>   0.0800 
 35 H       -2.2570    -3.7970    -0.6330 H     1 <1>   0.0800 
 36 H       -0.5650    -3.7530    -1.0280 H     1 <1>   0.0800 
 37 H       -1.5700    -7.9220    -1.8150 H     1 <1>   0.0800 
 38 H       -0.7890    -5.5580    -2.6080 H     1 <1>   0.0800 
 39 H       -2.1490    -4.4950    -2.8910 H     1 <1>   0.0800 
 40 H        1.1570    -5.2670    -0.9800 H     1 <1>   0.1500 
 41 H        0.0150    -9.2590     0.0310 H     1 <1>   0.1500 
 42 H       -4.0270    -8.1180    -1.2450 H     1 <1>   0.0800 
 43 H       -3.6450    -7.3920     0.3110 H     1 <1>   0.0800 
 44 H        3.3670    -6.0600    -1.6040 H     1 <1>   0.1500 
 45 H        2.2440   -10.0400    -0.5970 H     1 <1>   0.1500 
 46 H       -2.7990    -9.8610    -0.7540 H     1 <1>   0.4000 
 47 H        3.9280    -8.4470    -1.4210 H     1 <1>   0.1500 
@<TRIPOS>BOND
  1   1   2  2   
  2   2   3  am  
  3   2   4  1   
  4   3   5  1   
  5   3  24  1   
  6   4   6  1   
  7   4   7  1   
  8   4  25  1   
  9   5   8  1   
 10   5  26  1   
 11   5  27  1   
 12   6  28  1   
 13   6  29  1   
 14   6  30  1   
 15   7  31  1   
 16   7  32  1   
 17   7  33  1   
 18   8   9  2   
 19   8  10  am  
 20  10  11  1   
 21  10  12  1   
 22  11  13  1   
 23  11  14  1   
 24  11  34  1   
 25  12  15  1   
 26  12  35  1   
 27  12  36  1   
 28  13  16  ar  
 29  13  17  ar  
 30  14  18  1   
 31  14  19  1   
 32  14  37  1   
 33  15  18  1   
 34  15  38  1   
 35  15  39  1   
 36  16  20  ar  
 37  16  40  1   
 38  17  21  ar  
 39  17  41  1   
 40  19  22  1   
 41  19  42  1   
 42  19  43  1   
 43  20  23  ar  
 44  20  44  1   
 45  21  23  ar  
 46  21  45  1   
 47  22  46  1   
 48  23  47  1   
@<TRIPOS>SUBSTRUCTURE
  1 ****  10 GROUP 4 **** **** 0

# MOE 2024.06 (io_trps.svl 2023.06)
