@<TRIPOS>MOLECULE
NONAME
53 56 1 0 0 
SMALL
USER_CHARGES


@<TRIPOS>ATOM
  1 N       -1.7350     0.1850    -0.0810 N.2   1 <1>  -0.5650 
  2 C       -1.1830     1.4160     0.1190 C.ar  1 <1>   0.2270 
  3 C       -2.0640    -0.2190     1.1020 C.2   1 <1>   0.0060 
  4 C       -1.1910     1.7300     1.4650 C.ar  1 <1>  -0.1520 
  5 C       -0.6610     2.3180    -0.8050 C.ar  1 <1>  -0.1500 
  6 N       -1.7560     0.6680     2.0880 N.pl3 1 <1>   0.0330 
  7 C       -2.7350    -1.5610     1.3690 C.3   1 <1>   0.5230 
  8 C       -0.6810     2.9450     1.9280 C.ar  1 <1>  -0.1500 
  9 C       -0.1570     3.5200    -0.3580 C.ar  1 <1>  -0.1500 
 10 N       -2.8040    -2.2930     0.0710 N.4   1 <1>  -0.9590 
 11 C       -0.1670     3.8320     1.0080 C.ar  1 <1>  -0.1500 
 12 C       -4.1120    -2.3360    -0.6370 C.3   1 <1>   0.4230 
 13 C       -2.1470    -3.6310     0.1370 C.3   1 <1>   0.2630 
 14 C       -4.6470    -0.9650    -1.0270 C.3   1 <1>  -0.1600 
 15 C       -5.2630    -2.9500     0.1560 C.3   1 <1>  -0.1600 
 16 C       -6.1070    -1.2450    -1.4080 C.3   1 <1>  -0.0800 
 17 C       -6.5260    -2.4740    -0.5870 C.3   1 <1>  -0.0800 
 18 C       -7.0820    -0.1150    -1.0590 C.3   1 <1>  -0.1600 
 19 C       -7.6870    -2.0260     0.3170 C.3   1 <1>  -0.1600 
 20 C       -7.6650    -0.4960     0.3030 C.3   1 <1>   0.4230 
 21 N       -9.0010     0.1120     0.5970 N.4   1 <1>  -0.9590 
 22 C      -10.0830    -0.1810    -0.4040 C.3   1 <1>   0.2630 
 23 C       -8.8830     1.5930     0.7850 C.3   1 <1>   0.2630 
 24 H       -0.6610     2.0590    -1.8470 H     1 <1>   0.1500 
 25 H       -1.8850     0.5910     3.1020 H     1 <1>   0.2700 
 26 H       -3.7180    -1.4060     1.7770 H     1 <1>   0.0800 
 27 H       -2.1440    -2.1170     2.0790 H     1 <1>   0.0800 
 28 H       -0.6880     3.1810     2.9780 H     1 <1>   0.1500 
 29 H        0.2510     4.2310    -1.0550 H     1 <1>   0.1500 
 30 H       -2.2060    -1.6740    -0.5180 H     1 <1>   0.4500 
 31 H        0.2340     4.7780     1.3300 H     1 <1>   0.1500 
 32 H       -3.9950    -2.9040    -1.5480 H     1 <1>   0.0800 
 33 H       -2.7100    -4.2970     0.7710 H     1 <1>   0.0800 
 34 H       -1.1470    -3.5380     0.5300 H     1 <1>   0.0800 
 35 H       -2.0840    -4.0640    -0.8490 H     1 <1>   0.0800 
 36 H       -4.6080    -0.2880    -0.1930 H     1 <1>   0.0800 
 37 H       -4.1000    -0.5460    -1.8540 H     1 <1>   0.0800 
 38 H       -5.2060    -4.0250     0.1610 H     1 <1>   0.0800 
 39 H       -5.2720    -2.5870     1.1660 H     1 <1>   0.0800 
 40 H       -6.1590    -1.4710    -2.4630 H     1 <1>   0.0800 
 41 H       -6.8620    -3.2530    -1.2540 H     1 <1>   0.0800 
 42 H       -7.8440    -0.0970    -1.8160 H     1 <1>   0.0800 
 43 H       -6.5910     0.8420    -1.0330 H     1 <1>   0.0800 
 44 H       -7.5940    -2.4120     1.3170 H     1 <1>   0.0800 
 45 H       -8.5970    -2.4030    -0.1110 H     1 <1>   0.0800 
 46 H       -6.9620    -0.1780     1.0560 H     1 <1>   0.0800 
 47 H       -9.3110    -0.2860     1.4960 H     1 <1>   0.4500 
 48 H       -9.8390     0.2470    -1.3630 H     1 <1>   0.0800 
 49 H      -11.0180     0.2410    -0.0740 H     1 <1>   0.0800 
 50 H      -10.2170    -1.2430    -0.5230 H     1 <1>   0.0800 
 51 H       -8.5690     2.0640    -0.1320 H     1 <1>   0.0800 
 52 H       -8.1600     1.8190     1.5530 H     1 <1>   0.0800 
 53 H       -9.8330     2.0110     1.0780 H     1 <1>   0.0800 
@<TRIPOS>BOND
  1   1   2  1   
  2   1   3  2   
  3   2   4  ar  
  4   2   5  ar  
  5   3   6  1   
  6   3   7  1   
  7   4   6  1   
  8   4   8  ar  
  9   5   9  ar  
 10   5  24  1   
 11   6  25  1   
 12   7  10  1   
 13   7  26  1   
 14   7  27  1   
 15   8  11  ar  
 16   8  28  1   
 17   9  11  ar  
 18   9  29  1   
 19  10  12  1   
 20  10  13  1   
 21  10  30  1   
 22  11  31  1   
 23  12  14  1   
 24  12  15  1   
 25  12  32  1   
 26  13  33  1   
 27  13  34  1   
 28  13  35  1   
 29  14  16  1   
 30  14  36  1   
 31  14  37  1   
 32  15  17  1   
 33  15  38  1   
 34  15  39  1   
 35  16  17  1   
 36  16  18  1   
 37  16  40  1   
 38  17  19  1   
 39  17  41  1   
 40  18  20  1   
 41  18  42  1   
 42  18  43  1   
 43  19  20  1   
 44  19  44  1   
 45  19  45  1   
 46  20  21  1   
 47  20  46  1   
 48  21  22  1   
 49  21  23  1   
 50  21  47  1   
 51  22  48  1   
 52  22  49  1   
 53  22  50  1   
 54  23  51  1   
 55  23  52  1   
 56  23  53  1   
@<TRIPOS>SUBSTRUCTURE
  1 ****  14 GROUP 4 **** **** 0

# MOE 2024.06 (io_trps.svl 2023.06)
