@<TRIPOS>MOLECULE
NONAME
52 54 1 0 0 
SMALL
USER_CHARGES


@<TRIPOS>ATOM
  1 S        3.5020    -2.2770    -1.7510 S.3   1 <1>  -0.0800 
  2 C        2.4970    -1.4780    -0.5440 C.2   1 <1>   0.3250 
  3 C        2.8980    -3.8210    -1.2460 C.2   1 <1>  -0.1100 
  4 N        1.8130    -2.3220     0.1490 N.2   1 <1>  -0.5650 
  5 C        2.5120    -0.0320    -0.4400 C.ar  1 <1>   0.0530 
  6 C        2.0230    -3.6330    -0.2470 C.2   1 <1>   0.0460 
  7 C        1.7560     0.6040     0.5450 C.ar  1 <1>  -0.1500 
  8 C        3.2500     0.7930    -1.2920 C.ar  1 <1>  -0.1500 
  9 C        1.2530    -4.7480     0.4590 C.3   1 <1>   0.5240 
 10 C        1.7300     1.9800     0.6740 C.ar  1 <1>  -0.1500 
 11 C        3.2280     2.1700    -1.1680 C.ar  1 <1>  -0.1500 
 12 N       -0.2110    -4.6430     0.2390 N.4   1 <1>  -0.9590 
 13 C        2.4640     2.7890    -0.1850 C.ar  1 <1>  -0.1430 
 14 C       -0.6220    -4.6070    -1.2140 C.3   1 <1>   0.3430 
 15 C       -0.8680    -3.5610     1.0080 C.3   1 <1>   0.3430 
 16 C        2.4410     4.3210    -0.0480 C.3   1 <1>   1.1630 
 17 C       -2.1130    -4.2170    -1.4080 C.3   1 <1>   0.2000 
 18 C       -2.3870    -3.8170     1.0590 C.3   1 <1>  -0.1600 
 19 F        1.3020     4.7770     0.4590 F     1 <1>  -0.3400 
 20 F        2.6040     4.9440    -1.2090 F     1 <1>  -0.3400 
 21 F        3.4060     4.7610     0.7490 F     1 <1>  -0.3400 
 22 O       -2.1980    -2.8380    -1.6090 O.3   1 <1>  -0.6800 
 23 C       -2.9420    -4.6190    -0.1660 C.3   1 <1>  -0.1060 
 24 C       -2.6770    -6.1310    -0.0370 C.2   1 <1>   0.9060 
 25 C       -4.4550    -4.3340    -0.3750 C.3   1 <1>  -0.1600 
 26 O       -1.9850    -6.5440     0.9060 O.co2 1 <1>  -0.9000 
 27 O       -2.9400    -6.8540    -0.9970 O.co2 1 <1>  -0.9000 
 28 C       -5.3360    -4.8030     0.7950 C.3   1 <1>  -0.1600 
 29 C       -6.8140    -4.5160     0.5170 C.3   1 <1>  -0.2400 
 30 H        3.2630    -4.6940    -1.7590 H     1 <1>   0.1500 
 31 H        1.1750     0.0060     1.2250 H     1 <1>   0.1500 
 32 H        3.8560     0.3680    -2.0710 H     1 <1>   0.1500 
 33 H        1.4620    -4.7090     1.5150 H     1 <1>   0.0800 
 34 H        1.5950    -5.6990     0.0880 H     1 <1>   0.0800 
 35 H        1.1290     2.4200     1.4540 H     1 <1>   0.1500 
 36 H        3.8160     2.7630    -1.8510 H     1 <1>   0.1500 
 37 H       -0.6580    -5.5170     0.6220 H     1 <1>   0.4500 
 38 H       -0.0140    -3.9100    -1.7650 H     1 <1>   0.0800 
 39 H       -0.4800    -5.5910    -1.6300 H     1 <1>   0.0800 
 40 H       -0.4740    -3.5120     2.0090 H     1 <1>   0.0800 
 41 H       -0.6780    -2.6190     0.5180 H     1 <1>   0.0800 
 42 H       -2.4920    -4.6970    -2.2960 H     1 <1>   0.0800 
 43 H       -2.6230    -4.3380     1.9710 H     1 <1>   0.0800 
 44 H       -2.8700    -2.8580     1.1200 H     1 <1>   0.0800 
 45 H       -3.1330    -2.5940    -1.7590 H     1 <1>   0.4000 
 46 H       -4.6150    -3.2820    -0.5250 H     1 <1>   0.0800 
 47 H       -4.7780    -4.8460    -1.2670 H     1 <1>   0.0800 
 48 H       -5.2100    -5.8640     0.9430 H     1 <1>   0.0800 
 49 H       -5.0490    -4.3050     1.7040 H     1 <1>   0.0800 
 50 H       -7.1330    -5.0320    -0.3720 H     1 <1>   0.0800 
 51 H       -6.9760    -3.4610     0.3860 H     1 <1>   0.0800 
 52 H       -7.4150    -4.8560     1.3410 H     1 <1>   0.0800 
@<TRIPOS>BOND
  1   1   2  1   
  2   1   3  1   
  3   2   4  2   
  4   2   5  1   
  5   3   6  2   
  6   3  30  1   
  7   4   6  1   
  8   5   7  ar  
  9   5   8  ar  
 10   6   9  1   
 11   7  10  ar  
 12   7  31  1   
 13   8  11  ar  
 14   8  32  1   
 15   9  12  1   
 16   9  33  1   
 17   9  34  1   
 18  10  13  ar  
 19  10  35  1   
 20  11  13  ar  
 21  11  36  1   
 22  12  14  1   
 23  12  15  1   
 24  12  37  1   
 25  13  16  1   
 26  14  17  1   
 27  14  38  1   
 28  14  39  1   
 29  15  18  1   
 30  15  40  1   
 31  15  41  1   
 32  16  19  1   
 33  16  20  1   
 34  16  21  1   
 35  17  22  1   
 36  17  23  1   
 37  17  42  1   
 38  18  23  1   
 39  18  43  1   
 40  18  44  1   
 41  22  45  1   
 42  23  24  1   
 43  23  25  1   
 44  24  26  ar  
 45  24  27  ar  
 46  25  28  1   
 47  25  46  1   
 48  25  47  1   
 49  28  29  1   
 50  28  48  1   
 51  28  49  1   
 52  29  50  1   
 53  29  51  1   
 54  29  52  1   
@<TRIPOS>SUBSTRUCTURE
  1 ****   4 GROUP 4 **** **** 0

# MOE 2024.06 (io_trps.svl 2023.06)
