@<TRIPOS>MOLECULE
NONAME
51 54 1 0 0 
SMALL
USER_CHARGES


@<TRIPOS>ATOM
  1 O       -2.3780     2.8460    -1.4080 O.2   1 <1>  -0.5700 
  2 C       -2.2610     1.8030    -0.7960 C.2   1 <1>   0.7160 
  3 N       -2.8910     0.6790    -1.2680 N.am  1 <1>  -0.6600 
  4 C       -1.4880     1.7480     0.4100 C.2   1 <1>  -0.0860 
  5 C       -3.9970     0.7350    -2.2540 C.3   1 <1>   0.1400 
  6 C       -2.8470    -0.6570    -0.6270 C.3   1 <1>   0.1400 
  7 C       -0.1030     1.7860     0.5340 C.2   1 <1>   0.2350 
  8 C       -1.8870     1.6600     1.6920 C.2   1 <1>  -0.0400 
  9 C       -4.8660    -0.4900    -1.9480 C.3   1 <1>   0.2000 
 10 C       -3.8560    -1.5050    -1.4060 C.3   1 <1>  -0.0800 
 11 N        0.2070     1.7170     1.7880 N.2   1 <1>  -0.4100 
 12 C        0.8630     1.8900    -0.5410 C.ar  1 <1>   0.0540 
 13 O       -0.8770     1.6350     2.5230 O.3   1 <1>  -0.0190 
 14 C       -3.2930     1.6020     2.2600 C.3   1 <1>  -0.0600 
 15 O       -5.7810    -0.1890    -0.9290 O.3   1 <1>  -0.5600 
 16 C       -4.4600    -2.6490    -0.5720 C.3   1 <1>   0.0200 
 17 C        1.9750     2.7190    -0.4090 C.ar  1 <1>  -0.1500 
 18 C        0.7340     1.1730    -1.7320 C.ar  1 <1>  -0.1500 
 19 C       -6.9580     0.4260    -1.3520 C.3   1 <1>   0.0400 
 20 C       -3.3740    -3.5800    -0.0690 C.2   1 <1>  -0.0400 
 21 C        2.9120     2.8400    -1.4190 C.ar  1 <1>  -0.1500 
 22 C        1.6670     1.2890    -2.7460 C.ar  1 <1>  -0.1500 
 23 O       -2.6200    -4.2260    -0.9180 O.3   1 <1>  -0.0190 
 24 C       -2.9760    -3.9070     1.1690 C.2   1 <1>  -0.1500 
 25 C        2.7590     2.1240    -2.5920 C.ar  1 <1>  -0.1500 
 26 N       -1.7350    -4.9650    -0.3140 N.2   1 <1>  -0.4100 
 27 C       -1.9270    -4.7950     0.9450 C.2   1 <1>   0.1080 
 28 C       -1.1150    -5.4690     2.0280 C.3   1 <1>  -0.0590 
 29 H       -4.5480     1.6560    -2.1750 H     1 <1>   0.0800 
 30 H       -3.5790     0.6550    -3.2420 H     1 <1>   0.0800 
 31 H       -1.8570    -1.0800    -0.6750 H     1 <1>   0.0800 
 32 H       -3.1530    -0.5700     0.4010 H     1 <1>   0.0800 
 33 H       -5.3950    -0.8590    -2.8100 H     1 <1>   0.0800 
 34 H       -3.3360    -1.9330    -2.2460 H     1 <1>   0.0800 
 35 H       -4.0230     1.6320     1.4720 H     1 <1>   0.0800 
 36 H       -3.4540     2.4400     2.9130 H     1 <1>   0.0800 
 37 H       -3.4230     0.6940     2.8210 H     1 <1>   0.0800 
 38 H       -5.1530    -3.2090    -1.1740 H     1 <1>   0.0800 
 39 H       -4.9960    -2.2540     0.2720 H     1 <1>   0.0800 
 40 H        2.1010     3.2770     0.5030 H     1 <1>   0.1500 
 41 H       -0.1010     0.5110    -1.8690 H     1 <1>   0.1500 
 42 H       -7.5750     0.5960    -0.4870 H     1 <1>   0.0800 
 43 H       -7.4730    -0.2240    -2.0390 H     1 <1>   0.0800 
 44 H       -6.7290     1.3670    -1.8200 H     1 <1>   0.0800 
 45 H        3.7600     3.4900    -1.2910 H     1 <1>   0.1500 
 46 H        1.5450     0.7290    -3.6570 H     1 <1>   0.1500 
 47 H       -3.3480    -3.5840     2.1230 H     1 <1>   0.1500 
 48 H        3.4850     2.2170    -3.3810 H     1 <1>   0.1500 
 49 H       -1.7640    -6.0300     2.6750 H     1 <1>   0.0800 
 50 H       -0.5900    -4.7300     2.6030 H     1 <1>   0.0800 
 51 H       -0.4000    -6.1400     1.5860 H     1 <1>   0.0800 
@<TRIPOS>BOND
  1   1   2  2   
  2   2   3  am  
  3   2   4  1   
  4   3   5  1   
  5   3   6  1   
  6   4   7  1   
  7   4   8  2   
  8   5   9  1   
  9   5  29  1   
 10   5  30  1   
 11   6  10  1   
 12   6  31  1   
 13   6  32  1   
 14   7  11  2   
 15   7  12  1   
 16   8  13  1   
 17   8  14  1   
 18   9  10  1   
 19   9  15  1   
 20   9  33  1   
 21  10  16  1   
 22  10  34  1   
 23  11  13  1   
 24  12  17  ar  
 25  12  18  ar  
 26  14  35  1   
 27  14  36  1   
 28  14  37  1   
 29  15  19  1   
 30  16  20  1   
 31  16  38  1   
 32  16  39  1   
 33  17  21  ar  
 34  17  40  1   
 35  18  22  ar  
 36  18  41  1   
 37  19  42  1   
 38  19  43  1   
 39  19  44  1   
 40  20  23  1   
 41  20  24  2   
 42  21  25  ar  
 43  21  45  1   
 44  22  25  ar  
 45  22  46  1   
 46  23  26  1   
 47  24  27  1   
 48  24  47  1   
 49  25  48  1   
 50  26  27  2   
 51  27  28  1   
 52  28  49  1   
 53  28  50  1   
 54  28  51  1   
@<TRIPOS>SUBSTRUCTURE
  1 ****   6 GROUP 4 **** **** 0

# MOE 2024.06 (io_trps.svl 2023.06)
