@<TRIPOS>MOLECULE
NONAME
47 48 1 0 0 
SMALL
USER_CHARGES


@<TRIPOS>ATOM
  1 CL       0.2440     0.3760     1.9970 Cl    1 <1>  -0.1770 
  2 C        1.8100    -0.2670     1.5760 C.ar  1 <1>   0.1770 
  3 C        2.3510     0.0270     0.3380 C.ar  1 <1>  -0.1500 
  4 C        2.4860    -1.0570     2.4870 C.ar  1 <1>  -0.1500 
  5 C        3.5950    -0.4800    -0.0100 C.ar  1 <1>  -0.1440 
  6 C        3.7300    -1.5610     2.1510 C.ar  1 <1>  -0.1500 
  7 C        4.2800    -1.2760     0.9050 C.ar  1 <1>   0.0820 
  8 C        4.1720    -0.1640    -1.3830 C.3   1 <1>   0.3530 
  9 O        5.5130    -1.7290     0.5750 O.3   1 <1>  -0.3630 
 10 N        4.8070     1.1750    -1.3680 N.pl3 1 <1>  -0.8690 
 11 C        5.7830    -3.1170     0.6500 C.3   1 <1>   0.2000 
 12 C        5.7860     1.6800    -0.6130 C.ar  1 <1>   0.7710 
 13 C        7.2990    -3.2840     0.5980 C.3   1 <1>  -0.2400 
 14 C        5.1050    -3.8170    -0.5290 C.3   1 <1>  -0.2400 
 15 N        6.1380     2.9180    -0.8760 N.ar  1 <1>  -0.6200 
 16 N        6.3660     0.9450     0.3470 N.ar  1 <1>  -0.1790 
 17 C        7.1170     3.4470    -0.1640 C.ar  1 <1>   0.4100 
 18 C        7.3430     1.4590     1.1260 C.ar  1 <1>   0.2110 
 19 N        7.4860     4.7090    -0.4990 N.pl3 1 <1>  -0.8380 
 20 C        7.7430     2.7350     0.8940 C.ar  1 <1>  -0.1440 
 21 C        6.4740     5.7430    -0.8600 C.3   1 <1>   0.1290 
 22 C        8.8760     5.0590    -0.9040 C.3   1 <1>   0.1290 
 23 C        8.8070     3.3790     1.7810 C.3   1 <1>  -0.0970 
 24 H        1.7900     0.6490    -0.3390 H     1 <1>   0.1500 
 25 H        2.0390    -1.2670     3.4430 H     1 <1>   0.1500 
 26 H        4.2610    -2.1630     2.8660 H     1 <1>   0.1500 
 27 H        3.3770    -0.1680    -2.1110 H     1 <1>   0.0800 
 28 H        4.8900    -0.9070    -1.6860 H     1 <1>   0.0800 
 29 H        4.4400     1.8310    -2.0650 H     1 <1>   0.4000 
 30 H        5.4100    -3.5070     1.5820 H     1 <1>   0.0800 
 31 H        7.6960    -2.8890    -0.3210 H     1 <1>   0.0800 
 32 H        7.5510    -4.3290     0.6520 H     1 <1>   0.0800 
 33 H        7.7590    -2.7890     1.4340 H     1 <1>   0.0800 
 34 H        5.4620    -3.4240    -1.4630 H     1 <1>   0.0800 
 35 H        4.0380    -3.7020    -0.4720 H     1 <1>   0.0800 
 36 H        5.3240    -4.8690    -0.5000 H     1 <1>   0.0800 
 37 H        6.0000    -0.0020     0.4690 H     1 <1>   0.4570 
 38 H        7.7610     0.8440     1.9060 H     1 <1>   0.1500 
 39 H        5.5080     5.4730    -0.4690 H     1 <1>   0.0800 
 40 H        6.4030     5.8260    -1.9310 H     1 <1>   0.0800 
 41 H        6.7570     6.6950    -0.4470 H     1 <1>   0.0800 
 42 H        9.4920     4.1780    -0.9370 H     1 <1>   0.0800 
 43 H        9.2940     5.7610    -0.2050 H     1 <1>   0.0800 
 44 H        8.8710     5.5030    -1.8850 H     1 <1>   0.0800 
 45 H        8.5040     4.3750     2.0560 H     1 <1>   0.0800 
 46 H        9.7470     3.4350     1.2630 H     1 <1>   0.0800 
 47 H        8.9550     2.8160     2.6860 H     1 <1>   0.0800 
@<TRIPOS>BOND
  1   1   2  1   
  2   2   3  ar  
  3   2   4  ar  
  4   3   5  ar  
  5   3  24  1   
  6   4   6  ar  
  7   4  25  1   
  8   5   7  ar  
  9   5   8  1   
 10   6   7  ar  
 11   6  26  1   
 12   7   9  1   
 13   8  10  1   
 14   8  27  1   
 15   8  28  1   
 16   9  11  1   
 17  10  12  1   
 18  10  29  1   
 19  11  13  1   
 20  11  14  1   
 21  11  30  1   
 22  12  15  ar  
 23  12  16  ar  
 24  13  31  1   
 25  13  32  1   
 26  13  33  1   
 27  14  34  1   
 28  14  35  1   
 29  14  36  1   
 30  15  17  ar  
 31  16  18  ar  
 32  16  37  1   
 33  17  19  1   
 34  17  20  ar  
 35  18  20  ar  
 36  18  38  1   
 37  19  21  1   
 38  19  22  1   
 39  20  23  1   
 40  21  39  1   
 41  21  40  1   
 42  21  41  1   
 43  22  42  1   
 44  22  43  1   
 45  22  44  1   
 46  23  45  1   
 47  23  46  1   
 48  23  47  1   
@<TRIPOS>SUBSTRUCTURE
  1 ****  16 GROUP 4 **** **** 0

# MOE 2024.06 (io_trps.svl 2023.06)
