@<TRIPOS>MOLECULE
NONAME
54 57 1 0 0 
SMALL
USER_CHARGES


@<TRIPOS>ATOM
  1 S        2.1840     1.6770    -2.5410 S.3   1 <1>  -0.0800 
  2 C        2.0980     0.6510    -1.1170 C.2   1 <1>   0.3250 
  3 C        0.6730     1.0450    -3.0900 C.2   1 <1>  -0.1100 
  4 N        1.0300    -0.0660    -1.1000 N.2   1 <1>  -0.5650 
  5 C        3.1720     0.6880    -0.1440 C.ar  1 <1>   0.0530 
  6 C        0.1950     0.1400    -2.2100 C.2   1 <1>   0.1410 
  7 C        3.2550    -0.3010     0.8380 C.ar  1 <1>  -0.1500 
  8 C        4.1540     1.6830    -0.1230 C.ar  1 <1>  -0.1500 
  9 C       -1.0640    -0.5840    -2.4010 C.2   1 <1>   0.7160 
 10 C        4.2610    -0.3050     1.7870 C.ar  1 <1>  -0.1500 
 11 C        5.1640     1.6860     0.8220 C.ar  1 <1>  -0.1500 
 12 O       -1.5060    -0.6830    -3.5340 O.2   1 <1>  -0.5700 
 13 N       -1.8010    -1.1480    -1.3680 N.am  1 <1>  -0.6600 
 14 C        5.2200     0.6910     1.7800 C.ar  1 <1>  -0.1500 
 15 C       -2.8260    -2.1870    -1.6830 C.3   1 <1>   0.2200 
 16 C       -1.6500    -0.6890     0.0450 C.3   1 <1>   0.0600 
 17 C       -4.2430    -1.6310    -1.6700 C.3   1 <1>  -0.1600 
 18 C       -2.8790    -3.3580    -0.7040 C.3   1 <1>  -0.1600 
 19 C       -5.1380    -2.8730    -1.5530 C.3   1 <1>  -0.0800 
 20 C       -4.2660    -3.9790    -0.9330 C.3   1 <1>  -0.0800 
 21 C       -6.3390    -2.6830    -0.6190 C.3   1 <1>  -0.1600 
 22 C       -4.9690    -4.4170     0.3580 C.3   1 <1>  -0.1600 
 23 C       -5.8660    -3.2380     0.7240 C.3   1 <1>   0.4230 
 24 N       -6.9640    -3.6080     1.6700 N.4   1 <1>  -0.9590 
 25 C       -7.9600    -4.5990     1.1420 C.3   1 <1>   0.2630 
 26 C       -7.6710    -2.3840     2.1590 C.3   1 <1>   0.2630 
 27 H        0.2740     1.4000    -4.0230 H     1 <1>   0.1500 
 28 H        2.5160    -1.0840     0.8540 H     1 <1>   0.1500 
 29 H        4.1380     2.4750    -0.8500 H     1 <1>   0.1500 
 30 H        4.2990    -1.0830     2.5300 H     1 <1>   0.1500 
 31 H        5.9080     2.4630     0.8140 H     1 <1>   0.1500 
 32 H        6.0060     0.6910     2.5170 H     1 <1>   0.1500 
 33 H       -2.6360    -2.5970    -2.6620 H     1 <1>   0.0800 
 34 H       -2.5940    -0.7130     0.5570 H     1 <1>   0.0800 
 35 H       -1.2840     0.3230     0.0730 H     1 <1>   0.0800 
 36 H       -0.9490    -1.3250     0.5580 H     1 <1>   0.0800 
 37 H       -4.3740    -0.9820    -0.8240 H     1 <1>   0.0800 
 38 H       -4.4440    -1.0830    -2.5750 H     1 <1>   0.0800 
 39 H       -2.0930    -4.0630    -0.9090 H     1 <1>   0.0800 
 40 H       -2.7930    -3.0140     0.3090 H     1 <1>   0.0800 
 41 H       -5.4640    -3.1690    -2.5380 H     1 <1>   0.0800 
 42 H       -4.1760    -4.8060    -1.6190 H     1 <1>   0.0800 
 43 H       -7.1550    -3.2590    -1.0130 H     1 <1>   0.0800 
 44 H       -6.6320    -1.6500    -0.5510 H     1 <1>   0.0800 
 45 H       -4.2680    -4.6500     1.1400 H     1 <1>   0.0800 
 46 H       -5.5510    -5.2920     0.1330 H     1 <1>   0.0800 
 47 H       -5.2390    -2.4900     1.1830 H     1 <1>   0.0800 
 48 H       -6.5010    -4.0440     2.4810 H     1 <1>   0.4500 
 49 H       -8.4930    -4.1880     0.3000 H     1 <1>   0.0800 
 50 H       -8.6760    -4.8500     1.9070 H     1 <1>   0.0800 
 51 H       -7.4680    -5.5050     0.8300 H     1 <1>   0.0800 
 52 H       -8.1770    -1.8930     1.3430 H     1 <1>   0.0800 
 53 H       -6.9680    -1.6930     2.5950 H     1 <1>   0.0800 
 54 H       -8.4020    -2.6470     2.9080 H     1 <1>   0.0800 
@<TRIPOS>BOND
  1   1   2  1   
  2   1   3  1   
  3   2   4  2   
  4   2   5  1   
  5   3   6  2   
  6   3  27  1   
  7   4   6  1   
  8   5   7  ar  
  9   5   8  ar  
 10   6   9  1   
 11   7  10  ar  
 12   7  28  1   
 13   8  11  ar  
 14   8  29  1   
 15   9  12  2   
 16   9  13  am  
 17  10  14  ar  
 18  10  30  1   
 19  11  14  ar  
 20  11  31  1   
 21  13  15  1   
 22  13  16  1   
 23  14  32  1   
 24  15  17  1   
 25  15  18  1   
 26  15  33  1   
 27  16  34  1   
 28  16  35  1   
 29  16  36  1   
 30  17  19  1   
 31  17  37  1   
 32  17  38  1   
 33  18  20  1   
 34  18  39  1   
 35  18  40  1   
 36  19  20  1   
 37  19  21  1   
 38  19  41  1   
 39  20  22  1   
 40  20  42  1   
 41  21  23  1   
 42  21  43  1   
 43  21  44  1   
 44  22  23  1   
 45  22  45  1   
 46  22  46  1   
 47  23  24  1   
 48  23  47  1   
 49  24  25  1   
 50  24  26  1   
 51  24  48  1   
 52  25  49  1   
 53  25  50  1   
 54  25  51  1   
 55  26  52  1   
 56  26  53  1   
 57  26  54  1   
@<TRIPOS>SUBSTRUCTURE
  1 ****  16 GROUP 4 **** **** 0

# MOE 2024.06 (io_trps.svl 2023.06)
