@<TRIPOS>MOLECULE
NONAME
49 51 1 0 0 
SMALL
USER_CHARGES


@<TRIPOS>ATOM
  1 O       -2.8350     0.9240     2.7810 O.2   1 <1>  -0.5700 
  2 C       -2.6840     1.4760     1.7160 C.2   1 <1>   0.5690 
  3 N       -2.7780     0.7780     0.5420 N.am  1 <1>  -0.6600 
  4 C       -2.4000     2.9730     1.7230 C.3   1 <1>   0.0440 
  5 C       -2.5850     1.3110    -0.8310 C.3   1 <1>   0.1400 
  6 C       -2.9680    -0.6930     0.4990 C.3   1 <1>   0.1400 
  7 C       -1.0980     3.3440     1.0190 C.ar  1 <1>  -0.1440 
  8 C       -3.1410     0.2180    -1.7400 C.3   1 <1>   0.2000 
  9 C       -2.8230    -1.0740    -0.9800 C.3   1 <1>  -0.0800 
 10 C       -1.0840     4.3070     0.0220 C.ar  1 <1>  -0.1500 
 11 C        0.0860     2.7110     1.3680 C.ar  1 <1>  -0.1500 
 12 O       -4.5160     0.3840    -1.8170 O.3   1 <1>  -0.6800 
 13 C       -3.6520    -2.3040    -1.3910 C.3   1 <1>  -0.0170 
 14 C        0.0970     4.6220    -0.6260 C.ar  1 <1>  -0.1500 
 15 C        1.2690     3.0250     0.7220 C.ar  1 <1>  -0.1500 
 16 C       -3.1940    -3.5440    -0.6390 C.ar  1 <1>  -0.1440 
 17 C        1.2780     3.9850    -0.2850 C.ar  1 <1>   0.0820 
 18 C       -3.8340    -3.9900     0.5000 C.ar  1 <1>  -0.1500 
 19 C       -2.1080    -4.2860    -1.0570 C.ar  1 <1>  -0.1500 
 20 O        2.3890     4.3500    -0.9730 O.3   1 <1>  -0.3620 
 21 C       -3.3670    -5.1220     1.1480 C.ar  1 <1>   0.1600 
 22 C       -1.7230    -5.4040    -0.3360 C.ar  1 <1>   0.1600 
 23 C        3.6500     3.8020    -0.6700 C.3   1 <1>   0.1200 
 24 N       -2.3260    -5.8390     0.7580 N.ar  1 <1>  -0.6200 
 25 C        4.6770     4.4380    -1.6020 C.3   1 <1>  -0.2400 
 26 H       -3.2320     3.4730     1.2650 H     1 <1>   0.0800 
 27 H       -2.3450     3.3080     2.7430 H     1 <1>   0.0800 
 28 H       -3.0910     2.2490    -0.9790 H     1 <1>   0.0800 
 29 H       -1.5310     1.4370    -1.0130 H     1 <1>   0.0800 
 30 H       -2.2340    -1.1910     1.1090 H     1 <1>   0.0800 
 31 H       -3.9520    -0.9270     0.8660 H     1 <1>   0.0800 
 32 H       -2.7340     0.2450    -2.7360 H     1 <1>   0.0800 
 33 H       -1.7840    -1.2990    -1.1480 H     1 <1>   0.0800 
 34 H       -1.9880     4.8190    -0.2590 H     1 <1>   0.1500 
 35 H        0.0890     1.9650     2.1460 H     1 <1>   0.1500 
 36 H       -4.8650     0.5010    -0.9100 H     1 <1>   0.4000 
 37 H       -3.5450    -2.4700    -2.4490 H     1 <1>   0.0800 
 38 H       -4.6970    -2.1350    -1.1980 H     1 <1>   0.0800 
 39 H        0.1130     5.3670    -1.4010 H     1 <1>   0.1500 
 40 H        2.1650     2.5140     1.0160 H     1 <1>   0.1500 
 41 H       -4.6900    -3.4710     0.8900 H     1 <1>   0.1500 
 42 H       -1.5570    -4.0060    -1.9360 H     1 <1>   0.1500 
 43 H       -3.8780    -5.4540     2.0360 H     1 <1>   0.1500 
 44 H       -0.8740    -5.9710    -0.6770 H     1 <1>   0.1500 
 45 H        3.8800     4.0250     0.3580 H     1 <1>   0.0800 
 46 H        3.6060     2.7380    -0.8220 H     1 <1>   0.0800 
 47 H        4.7010     5.5020    -1.4530 H     1 <1>   0.0800 
 48 H        4.4280     4.2240    -2.6260 H     1 <1>   0.0800 
 49 H        5.6530     4.0390    -1.3950 H     1 <1>   0.0800 
@<TRIPOS>BOND
  1   1   2  2   
  2   2   3  am  
  3   2   4  1   
  4   3   5  1   
  5   3   6  1   
  6   4   7  1   
  7   4  26  1   
  8   4  27  1   
  9   5   8  1   
 10   5  28  1   
 11   5  29  1   
 12   6   9  1   
 13   6  30  1   
 14   6  31  1   
 15   7  10  ar  
 16   7  11  ar  
 17   8   9  1   
 18   8  12  1   
 19   8  32  1   
 20   9  13  1   
 21   9  33  1   
 22  10  14  ar  
 23  10  34  1   
 24  11  15  ar  
 25  11  35  1   
 26  12  36  1   
 27  13  16  1   
 28  13  37  1   
 29  13  38  1   
 30  14  17  ar  
 31  14  39  1   
 32  15  17  ar  
 33  15  40  1   
 34  16  18  ar  
 35  16  19  ar  
 36  17  20  1   
 37  18  21  ar  
 38  18  41  1   
 39  19  22  ar  
 40  19  42  1   
 41  20  23  1   
 42  21  24  ar  
 43  21  43  1   
 44  22  24  ar  
 45  22  44  1   
 46  23  25  1   
 47  23  45  1   
 48  23  46  1   
 49  25  47  1   
 50  25  48  1   
 51  25  49  1   
@<TRIPOS>SUBSTRUCTURE
  1 ****   3 GROUP 4 **** **** 0

# MOE 2024.06 (io_trps.svl 2023.06)
