@<TRIPOS>MOLECULE
NONAME
55 57 1 0 0 
SMALL
USER_CHARGES


@<TRIPOS>ATOM
  1 O       -0.0500     0.6520    -0.4640 O.2   1 <1>  -0.5700 
  2 C       -0.3240     1.7700    -0.0600 C.2   1 <1>   0.7150 
  3 N       -1.6400     2.1860    -0.1340 N.am  1 <1>  -0.6600 
  4 C        0.7090     2.6240     0.4920 C.2   1 <1>   0.0550 
  5 C       -2.7220     1.2110    -0.4460 C.3   1 <1>   0.1400 
  6 C       -2.0170     3.6280    -0.1120 C.3   1 <1>   0.1400 
  7 O        1.9220     2.6740    -0.0530 O.3   1 <1>  -0.2800 
  8 C        0.6890     3.4700     1.5620 C.2   1 <1>  -0.1500 
  9 C       -4.0580     1.6830     0.1360 C.3   1 <1>  -0.1600 
 10 C       -3.2840     3.8550    -0.9370 C.3   1 <1>  -0.1600 
 11 C        2.6620     3.5180     0.6280 C.2   1 <1>  -0.0100 
 12 C        1.9550     4.0500     1.6470 C.2   1 <1>  -0.1500 
 13 C       -4.4950     3.1000    -0.3350 C.3   1 <1>   0.2800 
 14 O       -4.8470     3.7800     0.8500 O.3   1 <1>  -0.5600 
 15 C       -5.7300     3.0080    -1.3030 C.3   1 <1>   0.2000 
 16 C       -5.7230     4.8700     0.7690 C.3   1 <1>   0.1200 
 17 O       -5.6660     4.0040    -2.2940 O.3   1 <1>  -0.6800 
 18 C       -7.0840     3.1120    -0.5290 C.3   1 <1>   0.3000 
 19 C       -7.1030     4.4500     0.2290 C.3   1 <1>  -0.1600 
 20 N       -7.1400     2.0350     0.4910 N.am  1 <1>  -0.7300 
 21 C       -8.2730     2.9920    -1.5000 C.3   1 <1>  -0.2400 
 22 C       -8.1090     1.3830     1.1880 C.2   1 <1>   0.5690 
 23 O       -7.7540     0.5570     1.9920 O.2   1 <1>  -0.5700 
 24 C       -9.6160     1.6090     1.0310 C.3   1 <1>   0.1810 
 25 O       -9.9920     2.9340     1.3130 O.3   1 <1>  -0.5600 
 26 C      -11.3610     3.1520     1.2840 C.3   1 <1>   0.1200 
 27 C      -11.5910     4.6350     1.5420 C.3   1 <1>  -0.2400 
 28 H       -2.7990     1.1020    -1.5150 H     1 <1>   0.0800 
 29 H       -2.4720     0.2480    -0.0310 H     1 <1>   0.0800 
 30 H       -2.1900     3.9350     0.9060 H     1 <1>   0.0800 
 31 H       -1.2150     4.2210    -0.5190 H     1 <1>   0.0800 
 32 H       -0.1300     3.6620     2.2320 H     1 <1>   0.1500 
 33 H       -3.9620     1.6650     1.2090 H     1 <1>   0.0800 
 34 H       -4.7950     0.9470    -0.1240 H     1 <1>   0.0800 
 35 H       -3.0970     3.5150    -1.9400 H     1 <1>   0.0800 
 36 H       -3.4850     4.9080    -0.9950 H     1 <1>   0.0800 
 37 H        3.6810     3.6810     0.3230 H     1 <1>   0.1500 
 38 H        2.2750     4.7660     2.3840 H     1 <1>   0.1500 
 39 H       -5.6990     2.0750    -1.8380 H     1 <1>   0.0800 
 40 H       -5.8250     5.2770     1.7610 H     1 <1>   0.0800 
 41 H       -5.2760     5.6200     0.1420 H     1 <1>   0.0800 
 42 H       -5.6950     4.8870    -1.8810 H     1 <1>   0.4000 
 43 H       -7.8070     4.4000     1.0410 H     1 <1>   0.0800 
 44 H       -7.4510     5.2310    -0.4220 H     1 <1>   0.0800 
 45 H       -6.2280     1.9360     0.9470 H     1 <1>   0.3700 
 46 H       -8.1500     3.6530    -2.3380 H     1 <1>   0.0800 
 47 H       -9.1920     3.2760    -1.0290 H     1 <1>   0.0800 
 48 H       -8.3470     1.9890    -1.8790 H     1 <1>   0.0800 
 49 H      -10.1290     0.9610     1.7190 H     1 <1>   0.0800 
 50 H       -9.9170     1.3640     0.0300 H     1 <1>   0.0800 
 51 H      -11.7410     2.8720     0.3160 H     1 <1>   0.0800 
 52 H      -11.8250     2.5550     2.0520 H     1 <1>   0.0800 
 53 H      -11.1140     5.2220     0.7780 H     1 <1>   0.0800 
 54 H      -11.1940     4.9070     2.5040 H     1 <1>   0.0800 
 55 H      -12.6450     4.8480     1.5330 H     1 <1>   0.0800 
@<TRIPOS>BOND
  1   1   2  2   
  2   2   3  am  
  3   2   4  1   
  4   3   5  1   
  5   3   6  1   
  6   4   7  1   
  7   4   8  2   
  8   5   9  1   
  9   5  28  1   
 10   5  29  1   
 11   6  10  1   
 12   6  30  1   
 13   6  31  1   
 14   7  11  1   
 15   8  12  1   
 16   8  32  1   
 17   9  13  1   
 18   9  33  1   
 19   9  34  1   
 20  10  13  1   
 21  10  35  1   
 22  10  36  1   
 23  11  12  2   
 24  11  37  1   
 25  12  38  1   
 26  13  14  1   
 27  13  15  1   
 28  14  16  1   
 29  15  17  1   
 30  15  18  1   
 31  15  39  1   
 32  16  19  1   
 33  16  40  1   
 34  16  41  1   
 35  17  42  1   
 36  18  19  1   
 37  18  20  1   
 38  18  21  1   
 39  19  43  1   
 40  19  44  1   
 41  20  22  am  
 42  20  45  1   
 43  21  46  1   
 44  21  47  1   
 45  21  48  1   
 46  22  23  2   
 47  22  24  1   
 48  24  25  1   
 49  24  49  1   
 50  24  50  1   
 51  25  26  1   
 52  26  27  1   
 53  26  51  1   
 54  26  52  1   
 55  27  53  1   
 56  27  54  1   
 57  27  55  1   
@<TRIPOS>SUBSTRUCTURE
  1 ****  13 GROUP 4 **** **** 0

# MOE 2024.06 (io_trps.svl 2023.06)
