@<TRIPOS>MOLECULE
NONAME
44 46 1 0 0 
SMALL
USER_CHARGES


@<TRIPOS>ATOM
  1 O       -0.7550     0.4730     2.8080 O.3   1 <1>  -0.5600 
  2 C        0.4630     0.4890     2.1280 C.3   1 <1>   0.1200 
  3 C       -1.8070     0.6790     1.9090 C.3   1 <1>   0.1200 
  4 C        0.2550     1.4620     0.9750 C.3   1 <1>   0.2890 
  5 C       -1.1760     1.1200     0.5820 C.3   1 <1>  -0.0800 
  6 N        0.3510     2.8500     1.5040 N.pl3 1 <1>  -0.8690 
  7 C       -1.9550     2.2270    -0.1500 C.3   1 <1>  -0.0170 
  8 C        0.8700     3.9240     0.8840 C.ar  1 <1>   0.4100 
  9 C       -3.3230     1.7310    -0.5910 C.ar  1 <1>  -0.1430 
 10 N        1.2520     3.7980    -0.3710 N.ar  1 <1>  -0.6200 
 11 C        0.9790     5.1390     1.5820 C.ar  1 <1>  -0.1500 
 12 C       -3.4870     0.9810    -1.7370 C.ar  1 <1>  -0.1500 
 13 C       -4.4690     2.0030     0.1290 C.ar  1 <1>  -0.1500 
 14 C        1.7480     4.8690    -0.9590 C.ar  1 <1>   0.7710 
 15 C        1.4950     6.2210     0.9490 C.ar  1 <1>   0.2180 
 16 C       -4.7530     0.5480    -2.0970 C.ar  1 <1>   0.1600 
 17 C       -5.6880     1.5210    -0.3180 C.ar  1 <1>   0.1600 
 18 N        1.8770     6.0550    -0.3400 N.ar  1 <1>  -0.1790 
 19 N        2.1250     4.7200    -2.2340 N.pl3 1 <1>  -0.8690 
 20 C        1.6620     7.5830     1.6020 C.3   1 <1>  -0.0970 
 21 N       -5.8570     0.7980    -1.4130 N.ar  1 <1>  -0.6200 
 22 C        2.7200     5.6490    -3.2370 C.3   1 <1>   0.1290 
 23 H        1.2500     0.7910     2.7940 H     1 <1>   0.0800 
 24 H        0.6510    -0.5060     1.7620 H     1 <1>   0.0800 
 25 H       -2.3600    -0.2380     1.8020 H     1 <1>   0.0800 
 26 H       -2.4440     1.4410     2.3240 H     1 <1>   0.0800 
 27 H        0.9590     1.2990     0.1760 H     1 <1>   0.0800 
 28 H       -1.1420     0.2560    -0.0570 H     1 <1>   0.0800 
 29 H       -0.0170     2.9030     2.4610 H     1 <1>   0.4000 
 30 H       -1.3990     2.5420    -1.0160 H     1 <1>   0.0800 
 31 H       -2.0760     3.0850     0.4860 H     1 <1>   0.0800 
 32 H        0.6480     5.1730     2.6040 H     1 <1>   0.1500 
 33 H       -2.6460     0.7300    -2.3560 H     1 <1>   0.1500 
 34 H       -4.4300     2.5830     1.0320 H     1 <1>   0.1500 
 35 H       -4.8620    -0.0360    -2.9950 H     1 <1>   0.1500 
 36 H       -6.5720     1.7410     0.2560 H     1 <1>   0.1500 
 37 H        2.2730     6.8040    -0.8940 H     1 <1>   0.4570 
 38 H        1.9770     3.7670    -2.5900 H     1 <1>   0.4000 
 39 H        1.3160     7.5560     2.6210 H     1 <1>   0.0800 
 40 H        1.0900     8.3270     1.0740 H     1 <1>   0.0800 
 41 H        2.6970     7.8740     1.6080 H     1 <1>   0.0800 
 42 H        2.8620     6.6350    -2.8340 H     1 <1>   0.0800 
 43 H        2.0720     5.7180    -4.0960 H     1 <1>   0.0800 
 44 H        3.6740     5.2680    -3.5620 H     1 <1>   0.0800 
@<TRIPOS>BOND
  1   1   2  1   
  2   1   3  1   
  3   2   4  1   
  4   2  23  1   
  5   2  24  1   
  6   3   5  1   
  7   3  25  1   
  8   3  26  1   
  9   4   5  1   
 10   4   6  1   
 11   4  27  1   
 12   5   7  1   
 13   5  28  1   
 14   6   8  1   
 15   6  29  1   
 16   7   9  1   
 17   7  30  1   
 18   7  31  1   
 19   8  10  ar  
 20   8  11  ar  
 21   9  12  ar  
 22   9  13  ar  
 23  10  14  ar  
 24  11  15  ar  
 25  11  32  1   
 26  12  16  ar  
 27  12  33  1   
 28  13  17  ar  
 29  13  34  1   
 30  14  18  ar  
 31  14  19  1   
 32  15  18  ar  
 33  15  20  1   
 34  16  21  ar  
 35  16  35  1   
 36  17  21  ar  
 37  17  36  1   
 38  18  37  1   
 39  19  22  1   
 40  19  38  1   
 41  20  39  1   
 42  20  40  1   
 43  20  41  1   
 44  22  42  1   
 45  22  43  1   
 46  22  44  1   
@<TRIPOS>SUBSTRUCTURE
  1 ****   7 GROUP 4 **** **** 0

# MOE 2024.06 (io_trps.svl 2023.06)
