@<TRIPOS>MOLECULE
NONAME
21 21 1 0 0 
SMALL
USER_CHARGES


@<TRIPOS>ATOM
  1 BR       0.3880    -0.0310     0.8100 Br    1 <1>  -0.1110 
  2 C        0.2340     1.8670     0.5370 C.ar  1 <1>   0.1110 
  3 C       -0.8820     2.3970    -0.0590 C.ar  1 <1>   0.1600 
  4 C        1.2380     2.7120     0.9350 C.ar  1 <1>   0.1600 
  5 N       -0.9940     3.6970    -0.2500 N.ar  1 <1>  -0.6200 
  6 N        1.1390     4.0140     0.7520 N.ar  1 <1>  -0.6200 
  7 C        0.0250     4.4520     0.1630 C.ar  1 <1>   0.4770 
  8 C       -0.0720     5.9780    -0.0620 C.3   1 <1>   0.2050 
  9 C        0.2870     6.6610     1.2590 C.2   1 <1>   0.4490 
 10 C        0.9120     6.3960    -1.1790 C.3   1 <1>  -0.2400 
 11 C       -1.4870     6.4510    -0.4790 C.3   1 <1>  -0.2400 
 12 O        0.6470     7.8000     1.3500 O.2   1 <1>  -0.5700 
 13 H       -1.6830     1.7530    -0.3790 H     1 <1>   0.1500 
 14 H        2.1230     2.3190     1.4040 H     1 <1>   0.1500 
 15 H        0.1720     6.0540     2.1400 H     1 <1>   0.0600 
 16 H        1.9200     6.1440    -0.9000 H     1 <1>   0.0800 
 17 H        0.8650     7.4570    -1.3470 H     1 <1>   0.0800 
 18 H        0.6740     5.8870    -2.0960 H     1 <1>   0.0800 
 19 H       -2.2110     6.1610     0.2620 H     1 <1>   0.0800 
 20 H       -1.7700     6.0160    -1.4210 H     1 <1>   0.0800 
 21 H       -1.5100     7.5220    -0.5760 H     1 <1>   0.0800 
@<TRIPOS>BOND
  1   1   2  1   
  2   2   3  ar  
  3   2   4  ar  
  4   3   5  ar  
  5   3  13  1   
  6   4   6  ar  
  7   4  14  1   
  8   5   7  ar  
  9   6   7  ar  
 10   7   8  1   
 11   8   9  1   
 12   8  10  1   
 13   8  11  1   
 14   9  12  2   
 15   9  15  1   
 16  10  16  1   
 17  10  17  1   
 18  10  18  1   
 19  11  19  1   
 20  11  20  1   
 21  11  21  1   
@<TRIPOS>SUBSTRUCTURE
  1 ****   7 GROUP 4 **** **** 0

# MOE 2024.06 (io_trps.svl 2023.06)
