@<TRIPOS>MOLECULE
NONAME
47 49 1 0 0 
SMALL
USER_CHARGES


@<TRIPOS>ATOM
  1 F        3.8780     0.9780    -2.5160 F     1 <1>  -0.1900 
  2 C        3.5160     1.5060    -1.3780 C.ar  1 <1>   0.1900 
  3 C        3.2490     0.6830    -0.2970 C.ar  1 <1>   0.1600 
  4 C        3.4140     2.8730    -1.2780 C.ar  1 <1>  -0.1500 
  5 N        2.8790     1.1420     0.8930 N.ar  1 <1>  -0.6200 
  6 C        3.0370     3.3770    -0.0410 C.ar  1 <1>   0.0860 
  7 C        2.7730     2.4630     0.9800 C.ar  1 <1>   0.1600 
  8 C        2.9210     4.7950     0.1950 C.2   1 <1>   0.5440 
  9 O        1.9590     5.3810    -0.2590 O.2   1 <1>  -0.5700 
 10 N        3.8790     5.4910     0.9040 N.am  1 <1>  -0.6600 
 11 C        5.1240     4.8540     1.4350 C.3   1 <1>   0.1400 
 12 C        3.7780     6.9680     1.0930 C.3   1 <1>   0.1400 
 13 C        6.2290     4.8170     0.3670 C.3   1 <1>   0.1100 
 14 C        5.0960     7.7070     0.8270 C.3   1 <1>  -0.1600 
 15 N        6.8560     6.1300     0.1120 N.3   1 <1>  -0.8100 
 16 C        5.9050     7.1600    -0.3530 C.3   1 <1>   0.1100 
 17 C        7.9900     5.9800    -0.8360 C.3   1 <1>   0.2900 
 18 C        8.8710     7.2210    -0.9400 C.2   1 <1>   0.2980 
 19 O        9.5240     7.6550     0.0900 O.3   1 <1>  -0.2800 
 20 N        9.0690     7.9410    -1.9790 N.2   1 <1>  -0.3380 
 21 C       10.1430     8.7000    -0.3550 C.2   1 <1>   0.2980 
 22 N        9.9010     8.9110    -1.5960 N.2   1 <1>  -0.3380 
 23 C       11.0290     9.5050     0.5950 C.3   1 <1>   0.1000 
 24 C       11.4460    10.8590     0.0010 C.3   1 <1>  -0.2400 
 25 C       12.2760     8.7000     0.9840 C.3   1 <1>  -0.2400 
 26 H        3.3430    -0.3820    -0.4190 H     1 <1>   0.1500 
 27 H        3.6130     3.5200    -2.1140 H     1 <1>   0.1500 
 28 H        2.4570     2.8600     1.9310 H     1 <1>   0.1500 
 29 H        4.9120     3.8490     1.7480 H     1 <1>   0.0800 
 30 H        5.4760     5.3860     2.3010 H     1 <1>   0.0800 
 31 H        3.4470     7.1720     2.0960 H     1 <1>   0.0800 
 32 H        3.0340     7.3660     0.4230 H     1 <1>   0.0800 
 33 H        5.8320     4.4130    -0.5480 H     1 <1>   0.0800 
 34 H        6.9920     4.1450     0.7210 H     1 <1>   0.0800 
 35 H        5.7070     7.7150     1.7130 H     1 <1>   0.0800 
 36 H        4.8470     8.7320     0.6190 H     1 <1>   0.0800 
 37 H        6.4480     7.9880    -0.7750 H     1 <1>   0.0800 
 38 H        5.2560     6.7690    -1.1200 H     1 <1>   0.0800 
 39 H        7.6120     5.7400    -1.8140 H     1 <1>   0.0800 
 40 H        8.6180     5.1700    -0.5130 H     1 <1>   0.0800 
 41 H       10.4540     9.6940     1.4850 H     1 <1>   0.0800 
 42 H       12.0310    10.7130    -0.8910 H     1 <1>   0.0800 
 43 H       12.0270    11.4200     0.7100 H     1 <1>   0.0800 
 44 H       10.5720    11.4320    -0.2560 H     1 <1>   0.0800 
 45 H       12.8650     8.4800     0.1110 H     1 <1>   0.0800 
 46 H       11.9880     7.7710     1.4450 H     1 <1>   0.0800 
 47 H       12.8800     9.2530     1.6810 H     1 <1>   0.0800 
@<TRIPOS>BOND
  1   1   2  1   
  2   2   3  ar  
  3   2   4  ar  
  4   3   5  ar  
  5   3  26  1   
  6   4   6  ar  
  7   4  27  1   
  8   5   7  ar  
  9   6   7  ar  
 10   6   8  1   
 11   7  28  1   
 12   8   9  2   
 13   8  10  am  
 14  10  11  1   
 15  10  12  1   
 16  11  13  1   
 17  11  29  1   
 18  11  30  1   
 19  12  14  1   
 20  12  31  1   
 21  12  32  1   
 22  13  15  1   
 23  13  33  1   
 24  13  34  1   
 25  14  16  1   
 26  14  35  1   
 27  14  36  1   
 28  15  16  1   
 29  15  17  1   
 30  16  37  1   
 31  16  38  1   
 32  17  18  1   
 33  17  39  1   
 34  17  40  1   
 35  18  19  1   
 36  18  20  2   
 37  19  21  1   
 38  20  22  1   
 39  21  22  2   
 40  21  23  1   
 41  23  24  1   
 42  23  25  1   
 43  23  41  1   
 44  24  42  1   
 45  24  43  1   
 46  24  44  1   
 47  25  45  1   
 48  25  46  1   
 49  25  47  1   
@<TRIPOS>SUBSTRUCTURE
  1 ****  15 GROUP 4 **** **** 0

# MOE 2024.06 (io_trps.svl 2023.06)
