@<TRIPOS>MOLECULE
NONAME
36 38 1 0 0 
SMALL
USER_CHARGES


@<TRIPOS>ATOM
  1 F       -2.2330     0.4580    -1.9420 F     1 <1>  -0.1900 
  2 C       -2.5490    -0.5630    -1.1760 C.ar  1 <1>   0.1900 
  3 C       -2.9250    -0.4340     0.1580 C.ar  1 <1>   0.3920 
  4 C       -2.5100    -1.8180    -1.7250 C.ar  1 <1>   0.1600 
  5 O       -3.0150     0.7270     0.8470 O.3   1 <1>  -0.3630 
  6 N       -3.2330    -1.4980     0.8690 N.ar  1 <1>  -0.6200 
  7 N       -2.8160    -2.8870    -1.0210 N.ar  1 <1>  -0.6200 
  8 C       -2.6430     1.9910     0.3430 C.3   1 <1>   0.0400 
  9 C       -3.1550    -2.6610     0.2450 C.ar  1 <1>   0.7200 
 10 N       -3.4770    -3.7180     1.0190 N.pl3 1 <1>  -0.8690 
 11 C       -3.9340    -5.0230     0.5060 C.3   1 <1>   0.2890 
 12 C       -5.4140    -4.9460     0.1180 C.3   1 <1>  -0.0160 
 13 C       -3.7170    -6.0720     1.5930 C.3   1 <1>  -0.1600 
 14 C       -6.0340    -6.3200    -0.1120 C.ar  1 <1>  -0.1430 
 15 C       -4.0770    -7.4630     1.0600 C.3   1 <1>  -0.0170 
 16 C       -5.4200    -7.4850     0.3390 C.ar  1 <1>  -0.1430 
 17 C       -7.2480    -6.3990    -0.7760 C.ar  1 <1>  -0.1500 
 18 C       -6.0320    -8.7090     0.1150 C.ar  1 <1>  -0.1500 
 19 C       -7.8520    -7.6230    -0.9950 C.ar  1 <1>  -0.1500 
 20 C       -7.2430    -8.7810    -0.5490 C.ar  1 <1>  -0.1500 
 21 H       -2.2240    -1.9450    -2.7540 H     1 <1>   0.1500 
 22 H       -2.7730     2.7140     1.1280 H     1 <1>   0.0800 
 23 H       -3.2810     2.2400    -0.4880 H     1 <1>   0.0800 
 24 H       -1.6110     1.9610     0.0430 H     1 <1>   0.0800 
 25 H       -3.8540    -3.4340     1.9210 H     1 <1>   0.4000 
 26 H       -3.3540    -5.2960    -0.3610 H     1 <1>   0.0800 
 27 H       -5.5050    -4.3570    -0.7780 H     1 <1>   0.0800 
 28 H       -5.9640    -4.4600     0.9030 H     1 <1>   0.0800 
 29 H       -4.3400    -5.8460     2.4400 H     1 <1>   0.0800 
 30 H       -2.6880    -6.0650     1.9050 H     1 <1>   0.0800 
 31 H       -4.0920    -8.1610     1.8790 H     1 <1>   0.0800 
 32 H       -3.3180    -7.7820     0.3680 H     1 <1>   0.0800 
 33 H       -7.7300    -5.5030    -1.1250 H     1 <1>   0.1500 
 34 H       -5.5640    -9.6160     0.4560 H     1 <1>   0.1500 
 35 H       -8.7940    -7.6740    -1.5120 H     1 <1>   0.1500 
 36 H       -7.7100    -9.7350    -0.7170 H     1 <1>   0.1500 
@<TRIPOS>BOND
  1   1   2  1   
  2   2   3  ar  
  3   2   4  ar  
  4   3   5  1   
  5   3   6  ar  
  6   4   7  ar  
  7   4  21  1   
  8   5   8  1   
  9   6   9  ar  
 10   7   9  ar  
 11   8  22  1   
 12   8  23  1   
 13   8  24  1   
 14   9  10  1   
 15  10  11  1   
 16  10  25  1   
 17  11  12  1   
 18  11  13  1   
 19  11  26  1   
 20  12  14  1   
 21  12  27  1   
 22  12  28  1   
 23  13  15  1   
 24  13  29  1   
 25  13  30  1   
 26  14  16  ar  
 27  14  17  ar  
 28  15  16  1   
 29  15  31  1   
 30  15  32  1   
 31  16  18  ar  
 32  17  19  ar  
 33  17  33  1   
 34  18  20  ar  
 35  18  34  1   
 36  19  20  ar  
 37  19  35  1   
 38  20  36  1   
@<TRIPOS>SUBSTRUCTURE
  1 ****  11 GROUP 4 **** **** 0

# MOE 2024.06 (io_trps.svl 2023.06)
