@<TRIPOS>MOLECULE
NONAME
40 42 1 0 0 
SMALL
USER_CHARGES


@<TRIPOS>ATOM
  1 CL       0.0490     0.1250     0.8920 Cl    1 <1>  -0.1770 
  2 C        1.3930    -0.8110     0.2450 C.ar  1 <1>   0.1770 
  3 C        1.2530    -2.1950    -0.0810 C.ar  1 <1>   0.4100 
  4 C        2.5990    -0.1980     0.0780 C.ar  1 <1>   0.2170 
  5 N        2.3020    -2.8840    -0.5090 N.ar  1 <1>  -0.6200 
  6 N        0.0910    -2.9130     0.0080 N.pl3 1 <1>  -0.8380 
  7 N        3.6210    -0.9620    -0.3870 N.ar  1 <1>  -0.1790 
  8 C        2.9090     1.2670     0.3730 C.3   1 <1>  -0.0970 
  9 C        3.4500    -2.2650    -0.6570 C.ar  1 <1>   0.7710 
 10 C       -1.3070    -2.3880     0.0130 C.3   1 <1>   0.2090 
 11 C        0.0470    -4.4020    -0.1350 C.3   1 <1>   0.2090 
 12 N        4.4650    -3.0000    -1.1010 N.pl3 1 <1>  -0.9000 
 13 C       -2.1960    -3.5840    -0.3310 C.3   1 <1>   0.2000 
 14 C       -1.4060    -4.8080     0.1110 C.3   1 <1>  -0.0800 
 15 O       -3.4140    -3.5370     0.3330 O.3   1 <1>  -0.6800 
 16 C       -1.8350    -6.0890    -0.6260 C.3   1 <1>  -0.0170 
 17 C       -1.0860    -7.3120    -0.1210 C.ar  1 <1>   0.1670 
 18 N        0.1550    -7.4720    -0.5560 N.ar  1 <1>  -0.6200 
 19 C       -1.7130    -8.1960     0.7560 C.ar  1 <1>   0.1600 
 20 C        0.7160    -8.5650    -0.0650 C.ar  1 <1>   0.1600 
 21 N       -1.1510    -9.2860     1.2520 N.ar  1 <1>  -0.6200 
 22 C        0.0840    -9.4410     0.8100 C.ar  1 <1>   0.1600 
 23 H        4.5500    -0.5810    -0.5380 H     1 <1>   0.4570 
 24 H        2.0420     1.8010     0.7170 H     1 <1>   0.0800 
 25 H        3.2630     1.7610    -0.5150 H     1 <1>   0.0800 
 26 H        3.6630     1.3430     1.1370 H     1 <1>   0.0800 
 27 H       -1.5470    -2.0250     0.9970 H     1 <1>   0.0800 
 28 H       -1.4280    -1.6070    -0.7180 H     1 <1>   0.0800 
 29 H        0.3480    -4.6710    -1.1350 H     1 <1>   0.0800 
 30 H        0.7080    -4.8790     0.5700 H     1 <1>   0.0800 
 31 H        5.4310    -2.7280    -1.2880 H     1 <1>   0.4000 
 32 H        4.2730    -3.9900    -1.2940 H     1 <1>   0.4000 
 33 H       -2.3870    -3.6010    -1.3910 H     1 <1>   0.0800 
 34 H       -1.5220    -4.9470     1.1720 H     1 <1>   0.0800 
 35 H       -3.2800    -3.5300     1.3010 H     1 <1>   0.4000 
 36 H       -1.6590    -5.9840    -1.6820 H     1 <1>   0.0800 
 37 H       -2.8920    -6.2350    -0.4910 H     1 <1>   0.0800 
 38 H       -2.7240    -7.9940     1.0620 H     1 <1>   0.1500 
 39 H        1.7250    -8.7810    -0.3680 H     1 <1>   0.1500 
 40 H        0.6250   -10.3040     1.1560 H     1 <1>   0.1500 
@<TRIPOS>BOND
  1   1   2  1   
  2   2   3  ar  
  3   2   4  ar  
  4   3   5  ar  
  5   3   6  1   
  6   4   7  ar  
  7   4   8  1   
  8   5   9  ar  
  9   6  10  1   
 10   6  11  1   
 11   7   9  ar  
 12   7  23  1   
 13   8  24  1   
 14   8  25  1   
 15   8  26  1   
 16   9  12  1   
 17  10  13  1   
 18  10  27  1   
 19  10  28  1   
 20  11  14  1   
 21  11  29  1   
 22  11  30  1   
 23  12  31  1   
 24  12  32  1   
 25  13  14  1   
 26  13  15  1   
 27  13  33  1   
 28  14  16  1   
 29  14  34  1   
 30  15  35  1   
 31  16  17  1   
 32  16  36  1   
 33  16  37  1   
 34  17  18  ar  
 35  17  19  ar  
 36  18  20  ar  
 37  19  21  ar  
 38  19  38  1   
 39  20  22  ar  
 40  20  39  1   
 41  21  22  ar  
 42  22  40  1   
@<TRIPOS>SUBSTRUCTURE
  1 ****  11 GROUP 4 **** **** 0

# MOE 2024.06 (io_trps.svl 2023.06)
