@<TRIPOS>MOLECULE
NONAME
46 48 1 0 0 
SMALL
USER_CHARGES


@<TRIPOS>ATOM
  1 O        0.7010    -0.4500    -0.5330 O.2   1 <1>  -0.5700 
  2 C       -0.1470     0.4130    -0.5700 C.2   1 <1>   0.5690 
  3 N       -1.4790     0.0930    -0.6450 N.am  1 <1>  -0.6600 
  4 C        0.3090     1.8690    -0.5750 C.3   1 <1>   0.1810 
  5 C       -2.6090     1.0550    -0.6130 C.3   1 <1>   0.1400 
  6 C       -1.9740    -1.3020    -0.6340 C.3   1 <1>   0.1400 
  7 O       -0.2000     2.5790     0.5460 O.3   1 <1>  -0.3620 
  8 C       -3.8680     0.1860    -0.6240 C.3   1 <1>   0.2000 
  9 C       -3.4240    -1.1990    -0.1560 C.3   1 <1>  -0.0800 
 10 C       -0.3880     3.9280     0.4970 C.ar  1 <1>   0.0820 
 11 O       -4.8380     0.6820     0.2330 O.3   1 <1>  -0.6800 
 12 C       -4.3430    -2.3190    -0.6730 C.3   1 <1>  -0.0170 
 13 C        0.3770     4.8330    -0.2580 C.ar  1 <1>   0.0820 
 14 C       -1.4330     4.4000     1.2760 C.ar  1 <1>  -0.1500 
 15 C       -3.9030    -3.6870    -0.1760 C.ar  1 <1>   0.1670 
 16 O        1.4390     4.3840    -0.9890 O.3   1 <1>  -0.3630 
 17 C        0.0420     6.1860    -0.2290 C.ar  1 <1>  -0.1500 
 18 C       -1.7490     5.7460     1.3010 C.ar  1 <1>  -0.1500 
 19 N       -2.9340    -4.2790    -0.8560 N.ar  1 <1>  -0.6200 
 20 C       -4.5130    -4.2520     0.9430 C.ar  1 <1>   0.1600 
 21 C        2.4270     5.2630    -1.4820 C.3   1 <1>   0.0400 
 22 C       -1.0130     6.6370     0.5440 C.ar  1 <1>  -0.1500 
 23 C       -2.6160    -5.4570    -0.3450 C.ar  1 <1>   0.1600 
 24 N       -4.1970    -5.4300     1.4550 N.ar  1 <1>  -0.6200 
 25 C       -3.2270    -6.0130     0.7730 C.ar  1 <1>   0.1600 
 26 H       -0.0390     2.3430    -1.4730 H     1 <1>   0.0800 
 27 H        1.3820     1.9100    -0.5350 H     1 <1>   0.0800 
 28 H       -2.5570     1.6390     0.2880 H     1 <1>   0.0800 
 29 H       -2.5790     1.6970    -1.4760 H     1 <1>   0.0800 
 30 H       -1.9240    -1.7000    -1.6340 H     1 <1>   0.0800 
 31 H       -1.3830    -1.9200     0.0220 H     1 <1>   0.0800 
 32 H       -4.2780     0.1520    -1.6190 H     1 <1>   0.0800 
 33 H       -3.4010    -1.2230     0.9200 H     1 <1>   0.0800 
 34 H       -4.4820     0.7530     1.1400 H     1 <1>   0.4000 
 35 H       -4.3470    -2.3240    -1.7490 H     1 <1>   0.0800 
 36 H       -5.3500    -2.1270    -0.3480 H     1 <1>   0.0800 
 37 H       -2.0010     3.7040     1.8660 H     1 <1>   0.1500 
 38 H        0.5900     6.9090    -0.8030 H     1 <1>   0.1500 
 39 H       -2.5660     6.0970     1.9080 H     1 <1>   0.1500 
 40 H       -5.2960    -3.7040     1.4380 H     1 <1>   0.1500 
 41 H        3.2240     4.6710    -1.8950 H     1 <1>   0.0800 
 42 H        2.8000     5.8610    -0.6680 H     1 <1>   0.0800 
 43 H        1.9960     5.8800    -2.2500 H     1 <1>   0.0800 
 44 H       -1.2610     7.6850     0.5580 H     1 <1>   0.1500 
 45 H       -1.8330    -6.0090    -0.8340 H     1 <1>   0.1500 
 46 H       -2.8980    -6.9780     1.1140 H     1 <1>   0.1500 
@<TRIPOS>BOND
  1   1   2  2   
  2   2   3  am  
  3   2   4  1   
  4   3   5  1   
  5   3   6  1   
  6   4   7  1   
  7   4  26  1   
  8   4  27  1   
  9   5   8  1   
 10   5  28  1   
 11   5  29  1   
 12   6   9  1   
 13   6  30  1   
 14   6  31  1   
 15   7  10  1   
 16   8   9  1   
 17   8  11  1   
 18   8  32  1   
 19   9  12  1   
 20   9  33  1   
 21  10  13  ar  
 22  10  14  ar  
 23  11  34  1   
 24  12  15  1   
 25  12  35  1   
 26  12  36  1   
 27  13  16  1   
 28  13  17  ar  
 29  14  18  ar  
 30  14  37  1   
 31  15  19  ar  
 32  15  20  ar  
 33  16  21  1   
 34  17  22  ar  
 35  17  38  1   
 36  18  22  ar  
 37  18  39  1   
 38  19  23  ar  
 39  20  24  ar  
 40  20  40  1   
 41  21  41  1   
 42  21  42  1   
 43  21  43  1   
 44  22  44  1   
 45  23  25  ar  
 46  23  45  1   
 47  24  25  ar  
 48  25  46  1   
@<TRIPOS>SUBSTRUCTURE
  1 ****   3 GROUP 4 **** **** 0

# MOE 2024.06 (io_trps.svl 2023.06)
