@<TRIPOS>MOLECULE
NONAME
46 48 1 0 0 
SMALL
USER_CHARGES


@<TRIPOS>ATOM
  1 O        0.0450    -0.5030     0.2510 O.3   1 <1>  -0.3630 
  2 C       -0.0270    -1.8430     0.3610 C.ar  1 <1>   0.3920 
  3 C        0.9370     0.1060    -0.6590 C.3   1 <1>   0.1200 
  4 N        0.7340    -2.6020    -0.4230 N.ar  1 <1>  -0.6200 
  5 C       -0.9090    -2.3500     1.3030 C.ar  1 <1>  -0.1500 
  6 C        0.7830     1.6200    -0.5350 C.3   1 <1>  -0.2400 
  7 C        0.6090    -3.9040    -0.2550 C.ar  1 <1>   0.1600 
  8 C       -1.0360    -3.7110     1.4610 C.ar  1 <1>  -0.1500 
  9 C       -0.2540    -4.5110     0.6460 C.ar  1 <1>  -0.1440 
 10 C       -0.3340    -6.0210     0.7290 C.3   1 <1>   0.4860 
 11 N       -1.1810    -6.5340    -0.3870 N.4   1 <1>  -0.9590 
 12 C       -2.5780    -5.9840    -0.3690 C.3   1 <1>   0.3430 
 13 C       -1.2760    -8.0290    -0.4020 C.3   1 <1>   0.3430 
 14 C       -3.4930    -7.1590    -0.7160 C.3   1 <1>   0.2000 
 15 C       -2.7520    -8.3900    -0.2130 C.3   1 <1>  -0.0800 
 16 O       -4.7310    -7.0530    -0.1030 O.3   1 <1>  -0.6800 
 17 C       -3.1740    -9.6800    -0.9440 C.3   1 <1>  -0.0170 
 18 C       -2.4660   -10.9130    -0.3980 C.ar  1 <1>   0.1670 
 19 N       -1.1460   -10.9360    -0.5110 N.ar  1 <1>  -0.6200 
 20 C       -3.2080   -11.9450     0.1780 C.ar  1 <1>   0.1600 
 21 C       -0.6270   -12.0570    -0.0300 C.ar  1 <1>   0.1600 
 22 N       -2.6860   -13.0530     0.6730 N.ar  1 <1>  -0.6200 
 23 C       -1.3720   -13.0800     0.5440 C.ar  1 <1>   0.1600 
 24 H        1.9390    -0.2000    -0.4100 H     1 <1>   0.0800 
 25 H        0.6890    -0.2260    -1.6530 H     1 <1>   0.0800 
 26 H       -1.4810    -1.6610     1.8990 H     1 <1>   0.1500 
 27 H        1.0220     1.9350     0.4640 H     1 <1>   0.0800 
 28 H       -0.2250     1.9090    -0.7740 H     1 <1>   0.0800 
 29 H        1.4520     2.1090    -1.2190 H     1 <1>   0.0800 
 30 H        1.2390    -4.5150    -0.8810 H     1 <1>   0.1500 
 31 H       -1.7150    -4.1110     2.1950 H     1 <1>   0.1500 
 32 H       -0.7570    -6.3090     1.6780 H     1 <1>   0.0800 
 33 H        0.6580    -6.4380     0.6620 H     1 <1>   0.0800 
 34 H       -0.7420    -6.2320    -1.2680 H     1 <1>   0.4500 
 35 H       -2.8220    -5.6290     0.6180 H     1 <1>   0.0800 
 36 H       -2.6920    -5.1800    -1.0790 H     1 <1>   0.0800 
 37 H       -0.9380    -8.4050    -1.3550 H     1 <1>   0.0800 
 38 H       -0.6750    -8.4820     0.3700 H     1 <1>   0.0800 
 39 H       -3.6490    -7.1940    -1.7820 H     1 <1>   0.0800 
 40 H       -2.9210    -8.5110     0.8430 H     1 <1>   0.0800 
 41 H       -4.7020    -7.2240     0.8590 H     1 <1>   0.4000 
 42 H       -2.9550    -9.6010    -1.9950 H     1 <1>   0.0800 
 43 H       -4.2390    -9.8060    -0.8490 H     1 <1>   0.0800 
 44 H       -4.2790   -11.8560     0.2320 H     1 <1>   0.1500 
 45 H        0.4410   -12.1780    -0.0910 H     1 <1>   0.1500 
 46 H       -0.8600   -13.9530     0.9100 H     1 <1>   0.1500 
@<TRIPOS>BOND
  1   1   2  1   
  2   1   3  1   
  3   2   4  ar  
  4   2   5  ar  
  5   3   6  1   
  6   3  24  1   
  7   3  25  1   
  8   4   7  ar  
  9   5   8  ar  
 10   5  26  1   
 11   6  27  1   
 12   6  28  1   
 13   6  29  1   
 14   7   9  ar  
 15   7  30  1   
 16   8   9  ar  
 17   8  31  1   
 18   9  10  1   
 19  10  11  1   
 20  10  32  1   
 21  10  33  1   
 22  11  12  1   
 23  11  13  1   
 24  11  34  1   
 25  12  14  1   
 26  12  35  1   
 27  12  36  1   
 28  13  15  1   
 29  13  37  1   
 30  13  38  1   
 31  14  15  1   
 32  14  16  1   
 33  14  39  1   
 34  15  17  1   
 35  15  40  1   
 36  16  41  1   
 37  17  18  1   
 38  17  42  1   
 39  17  43  1   
 40  18  19  ar  
 41  18  20  ar  
 42  19  21  ar  
 43  20  22  ar  
 44  20  44  1   
 45  21  23  ar  
 46  21  45  1   
 47  22  23  ar  
 48  23  46  1   
@<TRIPOS>SUBSTRUCTURE
  1 ****  11 GROUP 4 **** **** 0

# MOE 2024.06 (io_trps.svl 2023.06)
