@<TRIPOS>MOLECULE
NONAME
48 50 1 0 0 
SMALL
USER_CHARGES


@<TRIPOS>ATOM
  1 CL      -1.0450     0.9500    -1.3020 Cl    1 <1>  -0.1770 
  2 C       -2.4060     0.1310    -0.5730 C.ar  1 <1>   0.1770 
  3 C       -3.5370    -0.1000    -1.3190 C.ar  1 <1>  -0.1500 
  4 C       -2.3020    -0.2700     0.7630 C.ar  1 <1>  -0.1500 
  5 C       -4.6030    -0.7550    -0.7070 C.ar  1 <1>   0.2270 
  6 C       -3.3550    -0.9180     1.3700 C.ar  1 <1>  -0.1500 
  7 N       -5.8160    -1.0980    -1.2220 N.2   1 <1>  -0.5650 
  8 C       -4.5070    -1.1540     0.6140 C.ar  1 <1>  -0.1520 
  9 C       -6.4250    -1.6800    -0.2490 C.2   1 <1>   0.0060 
 10 N       -5.6940    -1.7500     0.8930 N.pl3 1 <1>   0.0330 
 11 C       -7.8300    -2.2440    -0.3520 C.3   1 <1>   0.0200 
 12 C       -7.8030    -3.7760    -0.3850 C.3   1 <1>  -0.1600 
 13 C       -9.2100    -4.3520    -0.5210 C.3   1 <1>   0.2090 
 14 N       -9.1230    -5.8260    -0.4750 N.pl3 1 <1>  -0.8690 
 15 C      -10.2350    -6.6200    -0.3120 C.ar  1 <1>   0.4100 
 16 N      -11.3680    -6.0290     0.0380 N.ar  1 <1>  -0.6200 
 17 C      -10.1230    -7.9870    -0.5210 C.ar  1 <1>  -0.1500 
 18 C      -12.4130    -6.8240     0.1750 C.ar  1 <1>   0.1600 
 19 C      -11.2100    -8.8280    -0.3720 C.ar  1 <1>   0.0860 
 20 C      -12.3930    -8.1910    -0.0140 C.ar  1 <1>  -0.1500 
 21 C      -11.1090   -10.2610    -0.5790 C.2   1 <1>   0.5440 
 22 O      -10.2590   -10.7160    -1.3180 O.2   1 <1>  -0.5700 
 23 N      -11.9580   -11.1190     0.0630 N.am  1 <1>  -0.7300 
 24 C      -11.9620   -12.5800    -0.0740 C.3   1 <1>   0.2200 
 25 C      -13.3680   -13.0160    -0.4700 C.3   1 <1>  -0.2400 
 26 C      -11.5480   -13.1850     1.2630 C.3   1 <1>  -0.2400 
 27 H       -3.6190     0.2060    -2.3430 H     1 <1>   0.1500 
 28 H       -1.3920    -0.0630     1.2980 H     1 <1>   0.1500 
 29 H       -3.3000    -1.2360     2.3970 H     1 <1>   0.1500 
 30 H       -5.9740    -2.1690     1.7830 H     1 <1>   0.2700 
 31 H       -8.2830    -1.8720    -1.2550 H     1 <1>   0.0800 
 32 H       -8.4160    -1.8960     0.4800 H     1 <1>   0.0800 
 33 H       -7.3600    -4.1480     0.5220 H     1 <1>   0.0800 
 34 H       -7.2040    -4.0960    -1.2200 H     1 <1>   0.0800 
 35 H       -9.6580    -4.0480    -1.4520 H     1 <1>   0.0800 
 36 H       -9.8280    -4.0020     0.2900 H     1 <1>   0.0800 
 37 H       -8.3920    -6.2160    -1.0720 H     1 <1>   0.4000 
 38 H       -9.1720    -8.3990    -0.8010 H     1 <1>   0.1500 
 39 H      -13.3420    -6.3530     0.4520 H     1 <1>   0.1500 
 40 H      -13.2970    -8.7560     0.1090 H     1 <1>   0.1500 
 41 H      -12.5830   -10.7600     0.7810 H     1 <1>   0.3700 
 42 H      -11.2630   -12.8820    -0.8390 H     1 <1>   0.0800 
 43 H      -14.0840   -12.7310     0.2800 H     1 <1>   0.0800 
 44 H      -13.3990   -14.0840    -0.5850 H     1 <1>   0.0800 
 45 H      -13.6370   -12.5690    -1.4100 H     1 <1>   0.0800 
 46 H      -12.2330   -12.9020     2.0420 H     1 <1>   0.0800 
 47 H      -10.5570   -12.8550     1.5190 H     1 <1>   0.0800 
 48 H      -11.5360   -14.2570     1.1890 H     1 <1>   0.0800 
@<TRIPOS>BOND
  1   1   2  1   
  2   2   3  ar  
  3   2   4  ar  
  4   3   5  ar  
  5   3  27  1   
  6   4   6  ar  
  7   4  28  1   
  8   5   7  1   
  9   5   8  ar  
 10   6   8  ar  
 11   6  29  1   
 12   7   9  2   
 13   8  10  1   
 14   9  10  1   
 15   9  11  1   
 16  10  30  1   
 17  11  12  1   
 18  11  31  1   
 19  11  32  1   
 20  12  13  1   
 21  12  33  1   
 22  12  34  1   
 23  13  14  1   
 24  13  35  1   
 25  13  36  1   
 26  14  15  1   
 27  14  37  1   
 28  15  16  ar  
 29  15  17  ar  
 30  16  18  ar  
 31  17  19  ar  
 32  17  38  1   
 33  18  20  ar  
 34  18  39  1   
 35  19  20  ar  
 36  19  21  1   
 37  20  40  1   
 38  21  22  2   
 39  21  23  am  
 40  23  24  1   
 41  23  41  1   
 42  24  25  1   
 43  24  26  1   
 44  24  42  1   
 45  25  43  1   
 46  25  44  1   
 47  25  45  1   
 48  26  46  1   
 49  26  47  1   
 50  26  48  1   
@<TRIPOS>SUBSTRUCTURE
  1 ****  14 GROUP 4 **** **** 0

# MOE 2024.06 (io_trps.svl 2023.06)
