@<TRIPOS>MOLECULE
NONAME
51 53 1 0 0 
SMALL
USER_CHARGES


@<TRIPOS>ATOM
  1 S       -0.0600     0.2430     0.0050 S.o2  1 <1>   1.3330 
  2 O       -0.6640     1.5530     0.0720 O.2   1 <1>  -0.6500 
  3 O        0.0010    -0.5770     1.1940 O.2   1 <1>  -0.6500 
  4 N       -0.8510    -0.6520    -1.2020 N.am  1 <1>  -0.8490 
  5 C        1.5890     0.4390    -0.6730 C.3   1 <1>  -0.0550 
  6 C       -2.2840    -0.3520    -1.2690 C.3   1 <1>   0.1160 
  7 C       -0.6490    -2.1000    -1.0820 C.3   1 <1>   0.1160 
  8 C        2.4970     1.3430     0.1840 C.3   1 <1>  -0.0800 
  9 C        3.8010     1.6500    -0.5340 C.3   1 <1>   0.2200 
 10 C        2.9670     0.6480     1.4720 C.3   1 <1>   0.1200 
 11 N        4.3050     2.9590    -0.0640 N.am  1 <1>  -0.7300 
 12 C        4.7080     0.5400    -0.0230 C.3   1 <1>   0.1200 
 13 O        4.3140     0.3200     1.2950 O.3   1 <1>  -0.5600 
 14 C        4.3810     4.0930    -0.8200 C.2   1 <1>   0.5440 
 15 O        4.0820     4.0190    -1.9940 O.2   1 <1>  -0.5700 
 16 C        4.8120     5.3540    -0.2400 C.ar  1 <1>   0.0860 
 17 C        5.3790     6.3470    -1.0140 C.ar  1 <1>  -0.1500 
 18 C        4.6620     5.6180     1.1380 C.ar  1 <1>  -0.1500 
 19 C        5.8090     7.5700    -0.4850 C.ar  1 <1>   0.3100 
 20 C        5.0720     6.8050     1.6860 C.ar  1 <1>  -0.1500 
 21 N        6.3640     8.4930    -1.3100 N.ar  1 <1>  -0.6200 
 22 C        5.6550     7.8080     0.9000 C.ar  1 <1>   0.3100 
 23 C        6.7310     9.5900    -0.7270 C.ar  1 <1>   0.1670 
 24 N        6.0490     8.9660     1.4830 N.ar  1 <1>  -0.6200 
 25 C        6.5740     9.8270     0.6680 C.ar  1 <1>   0.1670 
 26 C        7.3550    10.6460    -1.6240 C.3   1 <1>  -0.0970 
 27 C        7.0280    11.1390     1.2840 C.3   1 <1>  -0.0970 
 28 H        2.0460    -0.5240    -0.7950 H     1 <1>   0.0800 
 29 H        1.4920     0.8810    -1.6460 H     1 <1>   0.0800 
 30 H       -2.7490    -0.9230    -2.0540 H     1 <1>   0.0800 
 31 H       -2.4320     0.6940    -1.4840 H     1 <1>   0.0800 
 32 H       -2.7600    -0.5830    -0.3310 H     1 <1>   0.0800 
 33 H       -1.0920    -2.6060    -1.9230 H     1 <1>   0.0800 
 34 H       -1.0980    -2.4690    -0.1740 H     1 <1>   0.0800 
 35 H        0.4030    -2.3290    -1.0640 H     1 <1>   0.0800 
 36 H        1.9600     2.2490     0.4070 H     1 <1>   0.0800 
 37 H        3.7130     1.6390    -1.6080 H     1 <1>   0.0800 
 38 H        2.4260    -0.2560     1.6880 H     1 <1>   0.0800 
 39 H        2.9000     1.3130     2.3160 H     1 <1>   0.0800 
 40 H        4.6580     2.9460     0.8950 H     1 <1>   0.3700 
 41 H        5.7500     0.8080    -0.0530 H     1 <1>   0.0800 
 42 H        4.5470    -0.3710    -0.5720 H     1 <1>   0.0800 
 43 H        5.5060     6.1970    -2.0710 H     1 <1>   0.1500 
 44 H        4.2060     4.8740     1.7670 H     1 <1>   0.1500 
 45 H        4.9560     7.0050     2.7360 H     1 <1>   0.1500 
 46 H        8.3580    10.8570    -1.3040 H     1 <1>   0.0800 
 47 H        6.7700    11.5470    -1.5970 H     1 <1>   0.0800 
 48 H        7.3910    10.2980    -2.6410 H     1 <1>   0.0800 
 49 H        6.4940    11.9600     0.8420 H     1 <1>   0.0800 
 50 H        8.0830    11.2730     1.1350 H     1 <1>   0.0800 
 51 H        6.8340    11.1430     2.3420 H     1 <1>   0.0800 
@<TRIPOS>BOND
  1   1   2  2   
  2   1   3  2   
  3   1   4  am  
  4   1   5  1   
  5   4   6  1   
  6   4   7  1   
  7   5   8  1   
  8   5  28  1   
  9   5  29  1   
 10   6  30  1   
 11   6  31  1   
 12   6  32  1   
 13   7  33  1   
 14   7  34  1   
 15   7  35  1   
 16   8   9  1   
 17   8  10  1   
 18   8  36  1   
 19   9  11  1   
 20   9  12  1   
 21   9  37  1   
 22  10  13  1   
 23  10  38  1   
 24  10  39  1   
 25  11  14  am  
 26  11  40  1   
 27  12  13  1   
 28  12  41  1   
 29  12  42  1   
 30  14  15  2   
 31  14  16  1   
 32  16  17  ar  
 33  16  18  ar  
 34  17  19  ar  
 35  17  43  1   
 36  18  20  ar  
 37  18  44  1   
 38  19  21  ar  
 39  19  22  ar  
 40  20  22  ar  
 41  20  45  1   
 42  21  23  ar  
 43  22  24  ar  
 44  23  25  ar  
 45  23  26  1   
 46  24  25  ar  
 47  25  27  1   
 48  26  46  1   
 49  26  47  1   
 50  26  48  1   
 51  27  49  1   
 52  27  50  1   
 53  27  51  1   
@<TRIPOS>SUBSTRUCTURE
  1 ****  14 GROUP 4 **** **** 0

# MOE 2024.06 (io_trps.svl 2023.06)
