@<TRIPOS>MOLECULE
NONAME
51 54 1 0 0 
SMALL
USER_CHARGES


@<TRIPOS>ATOM
  1 N       -0.0900    -0.0580    -0.2540 N.ar  1 <1>  -0.6200 
  2 C        1.0580     0.5140     0.0760 C.ar  1 <1>   0.7710 
  3 C       -0.1450    -1.3760    -0.3080 C.ar  1 <1>   0.4100 
  4 N        2.1520    -0.2070     0.3680 N.ar  1 <1>  -0.1790 
  5 N        1.1360     1.8660     0.1190 N.pl3 1 <1>  -0.8380 
  6 N       -1.3240    -1.9410    -0.6810 N.pl3 1 <1>  -0.8380 
  7 C        0.9780    -2.1630     0.0140 C.ar  1 <1>  -0.1500 
  8 C        2.1430    -1.5590     0.3520 C.ar  1 <1>   0.2180 
  9 C        2.2890     2.7180     0.5220 C.3   1 <1>   0.2090 
 10 C       -0.0250     2.7250    -0.2480 C.3   1 <1>   0.2090 
 11 C       -2.6470    -1.2360    -0.5410 C.3   1 <1>   0.2090 
 12 C       -1.4870    -3.2730    -1.3600 C.3   1 <1>   0.2090 
 13 C        3.4150    -2.3150     0.7170 C.3   1 <1>  -0.0170 
 14 C        1.7130     4.1200     0.6650 C.3   1 <1>  -0.1600 
 15 C        0.5230     4.1440    -0.2860 C.3   1 <1>  -0.1600 
 16 C       -3.6960    -2.1210     0.1660 C.3   1 <1>   0.2090 
 17 C       -2.5160    -4.1580    -0.6310 C.3   1 <1>   0.2090 
 18 C        4.5580    -2.0370    -0.2690 C.3   1 <1>  -0.2400 
 19 N       -3.8350    -3.4640    -0.4800 N.pl3 1 <1>  -0.8380 
 20 C       -4.9190    -4.2270    -0.0780 C.ar  1 <1>   0.4100 
 21 N       -4.6730    -5.2120     0.7780 N.ar  1 <1>  -0.6200 
 22 C       -6.2130    -3.9510    -0.5530 C.ar  1 <1>   0.1600 
 23 C       -5.7680    -5.8710     1.1180 C.ar  1 <1>   0.1600 
 24 N       -7.3080    -4.6060    -0.2110 N.ar  1 <1>  -0.6200 
 25 C       -7.0400    -5.5820     0.6440 C.ar  1 <1>   0.1600 
 26 H        2.9810     0.3270     0.5900 H     1 <1>   0.4570 
 27 H        0.8890    -3.2310     0.0000 H     1 <1>   0.1500 
 28 H        3.0310     2.7130    -0.2600 H     1 <1>   0.0800 
 29 H        2.7230     2.3930     1.4530 H     1 <1>   0.0800 
 30 H       -0.7850     2.6380     0.5100 H     1 <1>   0.0800 
 31 H       -0.4380     2.4400    -1.2030 H     1 <1>   0.0800 
 32 H       -3.0120    -0.9740    -1.5180 H     1 <1>   0.0800 
 33 H       -2.5370    -0.3270     0.0230 H     1 <1>   0.0800 
 34 H       -0.5530    -3.7960    -1.4310 H     1 <1>   0.0800 
 35 H       -1.8370    -3.1090    -2.3640 H     1 <1>   0.0800 
 36 H        3.2120    -3.3730     0.7190 H     1 <1>   0.0800 
 37 H        3.7220    -2.0480     1.7140 H     1 <1>   0.0800 
 38 H        2.4390     4.8800     0.4310 H     1 <1>   0.0800 
 39 H        1.3740     4.2620     1.6760 H     1 <1>   0.0800 
 40 H       -0.2200     4.8670     0.0030 H     1 <1>   0.0800 
 41 H        0.8540     4.3660    -1.2860 H     1 <1>   0.0800 
 42 H       -4.6460    -1.6170     0.1560 H     1 <1>   0.0800 
 43 H       -3.4040    -2.2550     1.1930 H     1 <1>   0.0800 
 44 H       -2.1350    -4.4160     0.3420 H     1 <1>   0.0800 
 45 H       -2.6590    -5.0700    -1.1840 H     1 <1>   0.0800 
 46 H        4.2630    -2.3000    -1.2710 H     1 <1>   0.0800 
 47 H        5.4160    -2.6330    -0.0080 H     1 <1>   0.0800 
 48 H        4.8530    -1.0040    -0.2530 H     1 <1>   0.0800 
 49 H       -6.3140    -3.1420    -1.2510 H     1 <1>   0.1500 
 50 H       -5.6510    -6.6850     1.8110 H     1 <1>   0.1500 
 51 H       -7.8690    -6.1770     0.9830 H     1 <1>   0.1500 
@<TRIPOS>BOND
  1   1   2  ar  
  2   1   3  ar  
  3   2   4  ar  
  4   2   5  1   
  5   3   6  1   
  6   3   7  ar  
  7   4   8  ar  
  8   4  26  1   
  9   5   9  1   
 10   5  10  1   
 11   6  11  1   
 12   6  12  1   
 13   7   8  ar  
 14   7  27  1   
 15   8  13  1   
 16   9  14  1   
 17   9  28  1   
 18   9  29  1   
 19  10  15  1   
 20  10  30  1   
 21  10  31  1   
 22  11  16  1   
 23  11  32  1   
 24  11  33  1   
 25  12  17  1   
 26  12  34  1   
 27  12  35  1   
 28  13  18  1   
 29  13  36  1   
 30  13  37  1   
 31  14  15  1   
 32  14  38  1   
 33  14  39  1   
 34  15  40  1   
 35  15  41  1   
 36  16  19  1   
 37  16  42  1   
 38  16  43  1   
 39  17  19  1   
 40  17  44  1   
 41  17  45  1   
 42  18  46  1   
 43  18  47  1   
 44  18  48  1   
 45  19  20  1   
 46  20  21  ar  
 47  20  22  ar  
 48  21  23  ar  
 49  22  24  ar  
 50  22  49  1   
 51  23  25  ar  
 52  23  50  1   
 53  24  25  ar  
 54  25  51  1   
@<TRIPOS>SUBSTRUCTURE
  1 ****   6 GROUP 4 **** **** 0

# MOE 2024.06 (io_trps.svl 2023.06)
