@<TRIPOS>MOLECULE
NONAME
41 43 1 0 0 
SMALL
USER_CHARGES


@<TRIPOS>ATOM
  1 O        0.9540     0.2160     0.4500 O.3   1 <1>  -0.6800 
  2 C        1.7830    -0.2800    -0.5520 C.3   1 <1>   0.2000 
  3 C        2.5070    -1.5110    -0.0090 C.3   1 <1>  -0.0800 
  4 C        2.9170     0.7200    -0.7890 C.3   1 <1>   0.3430 
  5 C        3.7270    -0.9440     0.7400 C.3   1 <1>   0.3430 
  6 C        2.9350    -2.4630    -1.1420 C.3   1 <1>   0.0210 
  7 N        3.8840     0.4780     0.3170 N.4   1 <1>  -0.9590 
  8 C        3.5670    -3.7260    -0.5900 C.2   1 <1>   0.1080 
  9 C        3.6470     1.4280     1.4460 C.3   1 <1>   0.4860 
 10 N        4.6800    -3.7250     0.0760 N.2   1 <1>  -0.7070 
 11 C        3.0410    -5.0050    -0.7330 C.2   1 <1>  -0.1500 
 12 C        4.1270     2.8220     1.0470 C.ar  1 <1>   0.1670 
 13 N        4.9010    -5.0230     0.3720 N.pl3 1 <1>   0.3000 
 14 C        3.9180    -5.8140    -0.1040 C.2   1 <1>  -0.3320 
 15 N        5.2810     2.8810     0.3880 N.ar  1 <1>  -0.6200 
 16 C        3.3580     3.9300     1.3690 C.ar  1 <1>  -0.1500 
 17 C        3.8800    -7.3220     0.0700 C.3   1 <1>  -0.0600 
 18 C        5.6850     4.0970     0.0500 C.ar  1 <1>   0.1600 
 19 C        3.7910     5.1870     1.0050 C.ar  1 <1>  -0.1500 
 20 C        4.9890     5.2610     0.3290 C.ar  1 <1>  -0.1500 
 21 H        0.1450    -0.3320     0.5410 H     1 <1>   0.4000 
 22 H        1.1930    -0.4600    -1.4350 H     1 <1>   0.0800 
 23 H        1.8800    -2.0650     0.6680 H     1 <1>   0.0800 
 24 H        2.5550     1.7350    -0.8050 H     1 <1>   0.0800 
 25 H        3.3920     0.5010    -1.7310 H     1 <1>   0.0800 
 26 H        4.6190    -1.4990     0.5010 H     1 <1>   0.0800 
 27 H        3.5620    -1.0050     1.8030 H     1 <1>   0.0800 
 28 H        3.6440    -1.9870    -1.7970 H     1 <1>   0.0800 
 29 H        2.0770    -2.7410    -1.7280 H     1 <1>   0.0800 
 30 H        4.8430     0.7010    -0.0020 H     1 <1>   0.4500 
 31 H        2.6020     1.4520     1.7050 H     1 <1>   0.0800 
 32 H        4.2100     1.1130     2.3070 H     1 <1>   0.0800 
 33 H        2.1310    -5.2730    -1.2400 H     1 <1>   0.1500 
 34 H        5.7290    -5.3390     0.8930 H     1 <1>   0.2700 
 35 H        2.4280     3.8240     1.9010 H     1 <1>   0.1500 
 36 H        3.0000    -7.7270    -0.3980 H     1 <1>   0.0800 
 37 H        3.8580    -7.5780     1.1140 H     1 <1>   0.0800 
 38 H        4.7450    -7.7720    -0.3840 H     1 <1>   0.0800 
 39 H        6.6220     4.1750    -0.4770 H     1 <1>   0.1500 
 40 H        3.2230     6.0720     1.2390 H     1 <1>   0.1500 
 41 H        5.3840     6.2130     0.0210 H     1 <1>   0.1500 
@<TRIPOS>BOND
  1   1   2  1   
  2   1  21  1   
  3   2   3  1   
  4   2   4  1   
  5   2  22  1   
  6   3   5  1   
  7   3   6  1   
  8   3  23  1   
  9   4   7  1   
 10   4  24  1   
 11   4  25  1   
 12   5   7  1   
 13   5  26  1   
 14   5  27  1   
 15   6   8  1   
 16   6  28  1   
 17   6  29  1   
 18   7   9  1   
 19   7  30  1   
 20   8  10  2   
 21   8  11  1   
 22   9  12  1   
 23   9  31  1   
 24   9  32  1   
 25  10  13  1   
 26  11  14  2   
 27  11  33  1   
 28  12  15  ar  
 29  12  16  ar  
 30  13  14  1   
 31  13  34  1   
 32  14  17  1   
 33  15  18  ar  
 34  16  19  ar  
 35  16  35  1   
 36  17  36  1   
 37  17  37  1   
 38  17  38  1   
 39  18  20  ar  
 40  18  39  1   
 41  19  20  ar  
 42  19  40  1   
 43  20  41  1   
@<TRIPOS>SUBSTRUCTURE
  1 ****   5 GROUP 4 **** **** 0

# MOE 2024.06 (io_trps.svl 2023.06)
