@<TRIPOS>MOLECULE
NONAME
60 63 1 0 0 
SMALL
USER_CHARGES


@<TRIPOS>ATOM
  1 O       -1.7450     0.1400    -1.4370 O.2   1 <1>  -0.5700 
  2 C       -1.8000     0.6900    -0.3540 C.2   1 <1>   0.7150 
  3 N       -2.1770    -0.0480     0.7220 N.am  1 <1>  -0.7300 
  4 C       -1.5030     2.0820    -0.1750 C.2   1 <1>  -0.2370 
  5 C       -2.5530    -1.4780     0.6910 C.3   1 <1>   0.2200 
  6 N       -1.1140     2.9450    -1.1560 N.pl3 1 <1>   0.3140 
  7 C       -1.5410     2.8290     0.9650 C.2   1 <1>  -0.1500 
  8 C       -4.0590    -1.5920     0.5390 C.3   1 <1>  -0.0800 
  9 C       -2.3290    -2.1010     2.0640 C.3   1 <1>   0.1200 
 10 N       -0.9140     4.1870    -0.6730 N.2   1 <1>  -0.7070 
 11 C       -0.9140     2.6190    -2.5990 C.3   1 <1>   0.0960 
 12 C       -1.1740     4.1070     0.5940 C.2   1 <1>   0.1080 
 13 C       -4.5440    -1.4620     1.9870 C.3   1 <1>   0.1200 
 14 C       -4.4600    -2.9390    -0.0960 C.3   1 <1>  -0.0160 
 15 O       -3.4680    -1.8030     2.8150 O.3   1 <1>  -0.5600 
 16 C       -0.4680     3.8140    -3.4590 C.3   1 <1>  -0.2400 
 17 C       -1.0740     5.2980     1.5300 C.3   1 <1>   0.0210 
 18 C       -5.9650    -3.0270    -0.3290 C.ar  1 <1>  -0.1430 
 19 C       -2.4440     5.7370     2.0840 C.3   1 <1>  -0.0800 
 20 C       -6.6100    -2.3400    -1.3850 C.ar  1 <1>   0.0000 
 21 C       -6.7420    -3.7880     0.4950 C.ar  1 <1>  -0.1500 
 22 C       -3.3890     6.1910     0.9620 C.3   1 <1>  -0.2400 
 23 C       -2.2720     6.8700     3.1030 C.3   1 <1>  -0.2400 
 24 C       -8.0150    -2.4790    -1.4980 C.ar  1 <1>   0.3100 
 25 C       -5.9470    -1.5280    -2.3360 C.ar  1 <1>  -0.1500 
 26 C       -8.1250    -3.8630     0.2910 C.ar  1 <1>   0.1600 
 27 N       -8.7550    -3.2420    -0.6540 N.ar  1 <1>  -0.6200 
 28 C       -8.6840    -1.8020    -2.5300 C.ar  1 <1>  -0.1500 
 29 C       -6.6300    -0.8830    -3.3310 C.ar  1 <1>  -0.1500 
 30 C       -8.0160    -1.0190    -3.4310 C.ar  1 <1>  -0.1500 
 31 H       -2.3290     0.4210     1.6140 H     1 <1>   0.3700 
 32 H       -2.0050    -1.9890    -0.0830 H     1 <1>   0.0800 
 33 H       -1.7980     2.5240     1.9620 H     1 <1>   0.1500 
 34 H       -4.4500    -0.7900    -0.0620 H     1 <1>   0.0800 
 35 H       -1.4560    -1.7150     2.5600 H     1 <1>   0.0800 
 36 H       -2.2610    -3.1720     1.9890 H     1 <1>   0.0800 
 37 H       -0.1760     1.8410    -2.6630 H     1 <1>   0.0800 
 38 H       -1.8420     2.2360    -2.9820 H     1 <1>   0.0800 
 39 H       -5.3770    -2.1020     2.2140 H     1 <1>   0.0800 
 40 H       -4.8100    -0.4420     2.2070 H     1 <1>   0.0800 
 41 H       -4.1480    -3.7470     0.5420 H     1 <1>   0.0800 
 42 H       -3.9510    -3.0690    -1.0350 H     1 <1>   0.0800 
 43 H        0.4710     4.1980    -3.1010 H     1 <1>   0.0800 
 44 H       -1.2060     4.5950    -3.4210 H     1 <1>   0.0800 
 45 H       -0.3460     3.5040    -4.4800 H     1 <1>   0.0800 
 46 H       -0.4230     5.0330     2.3420 H     1 <1>   0.0800 
 47 H       -0.6190     6.1170     1.0000 H     1 <1>   0.0800 
 48 H       -2.8940     4.8970     2.5870 H     1 <1>   0.0800 
 49 H       -6.3220    -4.3430     1.3140 H     1 <1>   0.1500 
 50 H       -2.9640     7.0180     0.4210 H     1 <1>   0.0800 
 51 H       -4.3380     6.4940     1.3680 H     1 <1>   0.0800 
 52 H       -3.5630     5.3880     0.2670 H     1 <1>   0.0800 
 53 H       -1.8280     7.7330     2.6380 H     1 <1>   0.0800 
 54 H       -1.6410     6.5530     3.9140 H     1 <1>   0.0800 
 55 H       -3.2260     7.1540     3.5100 H     1 <1>   0.0800 
 56 H       -4.8800    -1.4110    -2.2830 H     1 <1>   0.1500 
 57 H       -8.7000    -4.4740     0.9650 H     1 <1>   0.1500 
 58 H       -9.7500    -1.9230    -2.5890 H     1 <1>   0.1500 
 59 H       -6.1110    -0.2670    -4.0450 H     1 <1>   0.1500 
 60 H       -8.5430    -0.5060    -4.2170 H     1 <1>   0.1500 
@<TRIPOS>BOND
  1   1   2  2   
  2   2   3  am  
  3   2   4  1   
  4   3   5  1   
  5   3  31  1   
  6   4   6  1   
  7   4   7  2   
  8   5   8  1   
  9   5   9  1   
 10   5  32  1   
 11   6  10  1   
 12   6  11  1   
 13   7  12  1   
 14   7  33  1   
 15   8  13  1   
 16   8  14  1   
 17   8  34  1   
 18   9  15  1   
 19   9  35  1   
 20   9  36  1   
 21  10  12  2   
 22  11  16  1   
 23  11  37  1   
 24  11  38  1   
 25  12  17  1   
 26  13  15  1   
 27  13  39  1   
 28  13  40  1   
 29  14  18  1   
 30  14  41  1   
 31  14  42  1   
 32  16  43  1   
 33  16  44  1   
 34  16  45  1   
 35  17  19  1   
 36  17  46  1   
 37  17  47  1   
 38  18  20  ar  
 39  18  21  ar  
 40  19  22  1   
 41  19  23  1   
 42  19  48  1   
 43  20  24  ar  
 44  20  25  ar  
 45  21  26  ar  
 46  21  49  1   
 47  22  50  1   
 48  22  51  1   
 49  22  52  1   
 50  23  53  1   
 51  23  54  1   
 52  23  55  1   
 53  24  27  ar  
 54  24  28  ar  
 55  25  29  ar  
 56  25  56  1   
 57  26  27  ar  
 58  26  57  1   
 59  28  30  ar  
 60  28  58  1   
 61  29  30  ar  
 62  29  59  1   
 63  30  60  1   
@<TRIPOS>SUBSTRUCTURE
  1 ****   3 GROUP 4 **** **** 0

# MOE 2024.06 (io_trps.svl 2023.06)
