@<TRIPOS>MOLECULE
NONAME
46 48 1 0 0 
SMALL
USER_CHARGES


@<TRIPOS>ATOM
  1 O       -0.6510    -0.1280     1.2750 O.co2 1 <1>  -0.9000 
  2 C       -0.8870    -1.2860     0.8980 C.2   1 <1>   1.0330 
  3 O       -2.0800    -1.6340     0.7820 O.co2 1 <1>  -0.9000 
  4 C        0.1700    -2.2030     0.5860 C.2   1 <1>  -0.2330 
  5 C       -0.0100    -3.5800     0.4620 C.2   1 <1>   0.3720 
  6 C        1.5010    -2.0420     0.3450 C.2   1 <1>   0.0870 
  7 N        1.0890    -4.1830     0.1780 N.2   1 <1>  -0.4100 
  8 N       -1.2270    -4.2250     0.6180 N.pl3 1 <1>  -0.8520 
  9 O        1.9910    -3.2400     0.1180 O.3   1 <1>  -0.0190 
 10 C        2.3930    -0.9080     0.2780 C.ar  1 <1>   0.0530 
 11 C       -1.6950    -4.9970    -0.5550 C.3   1 <1>   0.2090 
 12 C        1.9740     0.3480    -0.1600 C.ar  1 <1>  -0.1500 
 13 C        3.7370    -1.0390     0.6340 C.ar  1 <1>  -0.1500 
 14 C       -1.8280    -6.4910    -0.2170 C.3   1 <1>   0.0000 
 15 C        2.8420     1.4220    -0.2360 C.ar  1 <1>  -0.1500 
 16 C        4.6140     0.0270     0.5570 C.ar  1 <1>  -0.1500 
 17 C       -2.5170    -7.2880    -1.3640 C.3   1 <1>   0.0000 
 18 C       -3.0570    -6.8100     0.6830 C.3   1 <1>   0.0000 
 19 C       -0.4900    -7.0780     0.2840 C.3   1 <1>   0.1200 
 20 C        4.1780     1.2670     0.1230 C.ar  1 <1>   0.0820 
 21 C       -3.4460    -7.9410    -0.3060 C.3   1 <1>   0.0000 
 22 O       -0.5500    -8.4660     0.4420 O.3   1 <1>  -0.5600 
 23 O        5.0940     2.2640     0.0790 O.3   1 <1>  -0.3630 
 24 C        0.6190    -9.0130     0.9560 C.3   1 <1>   0.0400 
 25 C        4.7240     3.5790    -0.2720 C.3   1 <1>   0.0400 
 26 H       -1.9140    -3.4610     0.8120 H     1 <1>   0.4000 
 27 H       -1.0070    -4.8760    -1.3740 H     1 <1>   0.0800 
 28 H       -2.6480    -4.6020    -0.8660 H     1 <1>   0.0800 
 29 H        0.9450     0.4870    -0.4420 H     1 <1>   0.1500 
 30 H        4.0940    -1.9930     0.9780 H     1 <1>   0.1500 
 31 H        2.4560     2.3640    -0.5730 H     1 <1>   0.1500 
 32 H        5.6450    -0.0950     0.8360 H     1 <1>   0.1500 
 33 H       -1.8760    -7.9900    -1.8670 H     1 <1>   0.0000 
 34 H       -3.0670    -6.6610    -2.0440 H     1 <1>   0.0000 
 35 H       -3.7890    -6.0210     0.6970 H     1 <1>   0.0000 
 36 H       -2.8040    -7.1680     1.6660 H     1 <1>   0.0000 
 37 H       -0.2380    -6.6340     1.2330 H     1 <1>   0.0800 
 38 H        0.2910    -6.8540    -0.4220 H     1 <1>   0.0800 
 39 H       -3.1040    -8.9100     0.0120 H     1 <1>   0.0000 
 40 H       -4.4850    -7.9280    -0.5830 H     1 <1>   0.0000 
 41 H        0.4830   -10.0760     1.0400 H     1 <1>   0.0800 
 42 H        0.8080    -8.5920     1.9290 H     1 <1>   0.0800 
 43 H        1.4340    -8.8000     0.2870 H     1 <1>   0.0800 
 44 H        5.5990     4.2000    -0.2110 H     1 <1>   0.0800 
 45 H        3.9770     3.9260     0.4200 H     1 <1>   0.0800 
 46 H        4.3450     3.5770    -1.2790 H     1 <1>   0.0800 
@<TRIPOS>BOND
  1   1   2  ar  
  2   2   3  ar  
  3   2   4  1   
  4   4   5  1   
  5   4   6  2   
  6   5   7  2   
  7   5   8  1   
  8   6   9  1   
  9   6  10  1   
 10   7   9  1   
 11   8  11  1   
 12   8  26  1   
 13  10  12  ar  
 14  10  13  ar  
 15  11  14  1   
 16  11  27  1   
 17  11  28  1   
 18  12  15  ar  
 19  12  29  1   
 20  13  16  ar  
 21  13  30  1   
 22  14  17  1   
 23  14  18  1   
 24  14  19  1   
 25  15  20  ar  
 26  15  31  1   
 27  16  20  ar  
 28  16  32  1   
 29  17  21  1   
 30  17  33  1   
 31  17  34  1   
 32  18  21  1   
 33  18  35  1   
 34  18  36  1   
 35  19  22  1   
 36  19  37  1   
 37  19  38  1   
 38  20  23  1   
 39  21  39  1   
 40  21  40  1   
 41  22  24  1   
 42  23  25  1   
 43  24  41  1   
 44  24  42  1   
 45  24  43  1   
 46  25  44  1   
 47  25  45  1   
 48  25  46  1   
@<TRIPOS>SUBSTRUCTURE
  1 ****   5 GROUP 4 **** **** 0

# MOE 2024.06 (io_trps.svl 2023.06)
