@<TRIPOS>MOLECULE
NONAME
45 48 1 0 0 
SMALL
USER_CHARGES


@<TRIPOS>ATOM
  1 O       -0.4350     0.1490     1.4560 O.2   1 <1>  -0.5700 
  2 C       -1.4160     0.8060     1.1590 C.2   1 <1>   0.7150 
  3 N       -2.5400     0.1540     0.7150 N.am  1 <1>  -0.6600 
  4 C       -1.3950     2.2360     1.2640 C.2   1 <1>  -0.2370 
  5 C       -3.6490     0.8030    -0.0260 C.3   1 <1>   0.1400 
  6 C       -2.5910    -1.3200     0.5530 C.3   1 <1>   0.1400 
  7 N       -0.3680     2.9980     0.7760 N.pl3 1 <1>   0.2940 
  8 C       -2.3160     3.0840     1.8300 C.2   1 <1>  -0.1500 
  9 C       -4.2340    -0.3090    -0.8950 C.3   1 <1>   0.2000 
 10 C       -3.9180    -1.6040    -0.1520 C.3   1 <1>  -0.0800 
 11 C       -0.6530     4.2970     1.0400 C.2   1 <1>  -0.3020 
 12 C        0.8310     2.5150     0.0480 C.3   1 <1>  -0.0910 
 13 C       -1.8450     4.3850     1.6870 C.2   1 <1>  -0.1500 
 14 O       -5.6030    -0.1660    -1.0550 O.3   1 <1>  -0.6800 
 15 C       -3.8760    -2.8360    -1.0680 C.3   1 <1>   0.0210 
 16 C        1.3370     3.2470    -1.1610 C.3   1 <1>  -0.2000 
 17 C        0.6590     1.9220    -1.3190 C.3   1 <1>  -0.2000 
 18 C       -3.4360    -4.0690    -0.3030 C.2   1 <1>   0.1080 
 19 N       -4.0550    -4.5020     0.7510 N.2   1 <1>  -0.7070 
 20 C       -2.3350    -4.8550    -0.6260 C.2   1 <1>  -0.1500 
 21 N       -3.3590    -5.5890     1.1320 N.pl3 1 <1>   0.3000 
 22 C       -2.3110    -5.8230     0.3140 C.2   1 <1>  -0.3320 
 23 C       -1.3370    -6.9740     0.4840 C.3   1 <1>  -0.0600 
 24 H       -4.3780     1.1620     0.6780 H     1 <1>   0.0800 
 25 H       -3.2840     1.6130    -0.6340 H     1 <1>   0.0800 
 26 H       -1.7560    -1.6370    -0.0500 H     1 <1>   0.0800 
 27 H       -2.5420    -1.8120     1.5100 H     1 <1>   0.0800 
 28 H       -3.2390     2.8090     2.3110 H     1 <1>   0.1500 
 29 H       -3.7730    -0.2880    -1.8680 H     1 <1>   0.0800 
 30 H       -4.6520    -1.7660     0.6190 H     1 <1>   0.0800 
 31 H        0.0090     5.0930     0.7530 H     1 <1>   0.1500 
 32 H        1.5350     2.0460     0.7130 H     1 <1>   0.1000 
 33 H       -2.3440     5.2760     2.0320 H     1 <1>   0.1500 
 34 H       -6.0620    -0.3460    -0.2120 H     1 <1>   0.4000 
 35 H       -3.2000    -2.6650    -1.8860 H     1 <1>   0.0800 
 36 H       -4.8560    -3.0140    -1.4740 H     1 <1>   0.0800 
 37 H        0.8220     4.1290    -1.5000 H     1 <1>   0.1000 
 38 H        2.3980     3.2950    -1.3320 H     1 <1>   0.1000 
 39 H        1.2560     1.0670    -1.5840 H     1 <1>   0.1000 
 40 H       -0.3260     1.8900    -1.7510 H     1 <1>   0.1000 
 41 H       -1.6640    -4.7020    -1.4520 H     1 <1>   0.1500 
 42 H       -3.6240    -6.1480     1.9520 H     1 <1>   0.2700 
 43 H       -0.5920    -6.9450    -0.2920 H     1 <1>   0.0800 
 44 H       -1.8570    -7.9140     0.4250 H     1 <1>   0.0800 
 45 H       -0.8420    -6.9050     1.4360 H     1 <1>   0.0800 
@<TRIPOS>BOND
  1   1   2  2   
  2   2   3  am  
  3   2   4  1   
  4   3   5  1   
  5   3   6  1   
  6   4   7  1   
  7   4   8  2   
  8   5   9  1   
  9   5  24  1   
 10   5  25  1   
 11   6  10  1   
 12   6  26  1   
 13   6  27  1   
 14   7  11  1   
 15   7  12  1   
 16   8  13  1   
 17   8  28  1   
 18   9  10  1   
 19   9  14  1   
 20   9  29  1   
 21  10  15  1   
 22  10  30  1   
 23  11  13  2   
 24  11  31  1   
 25  12  16  1   
 26  12  17  1   
 27  12  32  1   
 28  13  33  1   
 29  14  34  1   
 30  15  18  1   
 31  15  35  1   
 32  15  36  1   
 33  16  17  1   
 34  16  37  1   
 35  16  38  1   
 36  17  39  1   
 37  17  40  1   
 38  18  19  2   
 39  18  20  1   
 40  19  21  1   
 41  20  22  2   
 42  20  41  1   
 43  21  22  1   
 44  21  42  1   
 45  22  23  1   
 46  23  43  1   
 47  23  44  1   
 48  23  45  1   
@<TRIPOS>SUBSTRUCTURE
  1 ****   3 GROUP 4 **** **** 0

# MOE 2024.06 (io_trps.svl 2023.06)
