@<TRIPOS>MOLECULE
NONAME
41 42 1 0 0 
SMALL
USER_CHARGES


@<TRIPOS>ATOM
  1 S        0.1100     0.1630    -0.4060 S.o2  1 <1>   1.3330 
  2 O       -0.1710     0.7820    -1.6820 O.2   1 <1>  -0.6500 
  3 O        0.0450    -1.2760    -0.2810 O.2   1 <1>  -0.6500 
  4 N       -0.9390     0.8330     0.7470 N.am  1 <1>  -0.8490 
  5 C        1.7140     0.7660     0.1170 C.3   1 <1>  -0.0550 
  6 C       -0.9770     0.0740     2.0030 C.3   1 <1>   0.1160 
  7 C       -2.3000     0.9910     0.2250 C.3   1 <1>   0.1160 
  8 C        2.8750     0.2880    -0.7900 C.3   1 <1>  -0.0800 
  9 C        4.1990     1.0070    -0.5510 C.3   1 <1>   0.2200 
 10 C        3.2770    -1.1340    -0.4070 C.3   1 <1>   0.1200 
 11 N        4.0440     2.4600    -0.2810 N.am  1 <1>  -0.7300 
 12 C        4.8110     0.2210     0.6150 C.3   1 <1>   0.1200 
 13 O        4.0930    -0.9770     0.7070 O.3   1 <1>  -0.5600 
 14 C        5.0710     3.3080     0.0210 C.2   1 <1>   0.7150 
 15 O        6.1830     2.8380     0.1670 O.2   1 <1>  -0.5700 
 16 C        4.8080     4.7200     0.1430 C.2   1 <1>  -0.0450 
 17 S        6.1620     5.8210     0.4200 S.3   1 <1>  -0.0800 
 18 C        3.6640     5.4520     0.0880 C.2   1 <1>  -0.1500 
 19 C        5.1180     7.2250     0.4450 C.2   1 <1>  -0.1400 
 20 C        3.8390     6.8570     0.2570 C.2   1 <1>  -0.1500 
 21 C        5.7710     8.5730     0.6650 C.3   1 <1>  -0.0600 
 22 H        1.6600     1.8350     0.1080 H     1 <1>   0.0800 
 23 H        1.9060     0.4640     1.1280 H     1 <1>   0.0800 
 24 H       -1.5910     0.5850     2.7250 H     1 <1>   0.0800 
 25 H        0.0140    -0.0250     2.4110 H     1 <1>   0.0800 
 26 H       -1.3800    -0.9120     1.8360 H     1 <1>   0.0800 
 27 H       -2.9380     1.4320     0.9720 H     1 <1>   0.0800 
 28 H       -2.7030     0.0360    -0.0670 H     1 <1>   0.0800 
 29 H       -2.2920     1.6400    -0.6350 H     1 <1>   0.0800 
 30 H        2.5930     0.3410    -1.8280 H     1 <1>   0.0800 
 31 H        4.8390     0.8830    -1.4090 H     1 <1>   0.0800 
 32 H        3.8630    -1.5960    -1.1850 H     1 <1>   0.0800 
 33 H        2.4520    -1.7760    -0.1520 H     1 <1>   0.0800 
 34 H        3.1820     2.8820    -0.6180 H     1 <1>   0.3700 
 35 H        4.7060     0.7440     1.5490 H     1 <1>   0.0800 
 36 H        5.8470    -0.0080     0.4320 H     1 <1>   0.0800 
 37 H        2.6790     5.0500    -0.0660 H     1 <1>   0.1500 
 38 H        2.9980     7.5290     0.2300 H     1 <1>   0.1500 
 39 H        5.0300     9.3510     0.6600 H     1 <1>   0.0800 
 40 H        6.4840     8.7660    -0.1170 H     1 <1>   0.0800 
 41 H        6.2810     8.5830     1.6110 H     1 <1>   0.0800 
@<TRIPOS>BOND
  1   1   2  2   
  2   1   3  2   
  3   1   4  am  
  4   1   5  1   
  5   4   6  1   
  6   4   7  1   
  7   5   8  1   
  8   5  22  1   
  9   5  23  1   
 10   6  24  1   
 11   6  25  1   
 12   6  26  1   
 13   7  27  1   
 14   7  28  1   
 15   7  29  1   
 16   8   9  1   
 17   8  10  1   
 18   8  30  1   
 19   9  11  1   
 20   9  12  1   
 21   9  31  1   
 22  10  13  1   
 23  10  32  1   
 24  10  33  1   
 25  11  14  am  
 26  11  34  1   
 27  12  13  1   
 28  12  35  1   
 29  12  36  1   
 30  14  15  2   
 31  14  16  1   
 32  16  17  1   
 33  16  18  2   
 34  17  19  1   
 35  18  20  1   
 36  18  37  1   
 37  19  20  2   
 38  19  21  1   
 39  20  38  1   
 40  21  39  1   
 41  21  40  1   
 42  21  41  1   
@<TRIPOS>SUBSTRUCTURE
  1 ****  11 GROUP 4 **** **** 0

# MOE 2024.06 (io_trps.svl 2023.06)
