@<TRIPOS>MOLECULE
NONAME
54 57 1 0 0 
SMALL
USER_CHARGES


@<TRIPOS>ATOM
  1 S        0.9310     1.2020     0.0550 S.3   1 <1>  -0.0800 
  2 C        0.5430    -0.3950     0.7060 C.2   1 <1>  -0.0130 
  3 C       -0.2230     1.9960     1.1060 C.2   1 <1>  -0.1100 
  4 C        1.2360    -1.5550     0.1990 C.ar  1 <1>   0.0530 
  5 C       -0.4120    -0.2490     1.6580 C.2   1 <1>  -0.1500 
  6 C       -0.8440     1.0920     1.8840 C.2   1 <1>  -0.1500 
  7 C        1.3700    -2.6980     0.9850 C.ar  1 <1>  -0.1500 
  8 C        1.7940    -1.5910    -1.0770 C.ar  1 <1>  -0.1500 
  9 C        2.0240    -3.8420     0.5480 C.ar  1 <1>  -0.1440 
 10 C        2.4490    -2.7150    -1.5360 C.ar  1 <1>  -0.1500 
 11 C        2.5730    -3.8400    -0.7390 C.ar  1 <1>   0.0830 
 12 C        2.0960    -4.9960     1.5480 C.3   1 <1>   0.4860 
 13 O        3.1710    -4.9000    -1.3230 O.3   1 <1>  -0.3630 
 14 N        1.5180    -6.3000     1.0820 N.4   1 <1>  -0.9590 
 15 C        4.4030    -5.4380    -0.8400 C.3   1 <1>   0.0140 
 16 C        0.5310    -6.1990    -0.0540 C.3   1 <1>   0.3430 
 17 C        1.1840    -7.1800     2.2240 C.3   1 <1>   0.3430 
 18 C        4.1380    -6.7390    -0.1130 C.2   1 <1>   0.9060 
 19 C       -0.0420    -7.5490    -0.5840 C.3   1 <1>   0.4230 
 20 C        1.5290    -8.6420     1.9170 C.3   1 <1>  -0.1600 
 21 O        4.3280    -6.8110     1.1000 O.co2 1 <1>  -0.9000 
 22 O        3.3920    -7.5880    -0.6190 O.co2 1 <1>  -0.9000 
 23 N        0.9320    -8.6730    -0.4800 N.4   1 <1>  -0.9590 
 24 C       -1.2520    -8.0190     0.2350 C.3   1 <1>  -0.1600 
 25 C        0.7210    -9.3380     0.8150 C.3   1 <1>   0.4230 
 26 C        0.8500    -9.6200    -1.6280 C.3   1 <1>   0.2630 
 27 C       -0.7870    -9.2400     1.0370 C.3   1 <1>  -0.1600 
 28 H       -0.3150     3.0650     1.0280 H     1 <1>   0.1500 
 29 H       -0.8450    -1.0540     2.2240 H     1 <1>   0.1500 
 30 H       -1.5990     1.3180     2.6170 H     1 <1>   0.1500 
 31 H        0.9520    -2.6660     1.9760 H     1 <1>   0.1500 
 32 H        1.7120    -0.7360    -1.7230 H     1 <1>   0.1500 
 33 H        2.8680    -2.7260    -2.5270 H     1 <1>   0.1500 
 34 H        1.5720    -4.6900     2.4370 H     1 <1>   0.0800 
 35 H        3.1250    -5.1400     1.8340 H     1 <1>   0.0800 
 36 H        2.3670    -6.7630     0.6750 H     1 <1>   0.4500 
 37 H        5.0370    -5.6280    -1.6840 H     1 <1>   0.0800 
 38 H        4.8710    -4.7290    -0.1830 H     1 <1>   0.0800 
 39 H       -0.2850    -5.5570     0.2300 H     1 <1>   0.0800 
 40 H        1.0220    -5.7250    -0.8870 H     1 <1>   0.0800 
 41 H        1.7730    -6.8820     3.0780 H     1 <1>   0.0800 
 42 H        0.1430    -7.0770     2.4850 H     1 <1>   0.0800 
 43 H       -0.3390    -7.4040    -1.6100 H     1 <1>   0.0800 
 44 H        1.3780    -9.1990     2.8240 H     1 <1>   0.0800 
 45 H        2.5800    -8.7240     1.6960 H     1 <1>   0.0800 
 46 H        1.9160    -8.2940    -0.5050 H     1 <1>   0.4500 
 47 H       -1.6180    -7.2410     0.8820 H     1 <1>   0.0800 
 48 H       -2.0520    -8.2950    -0.4300 H     1 <1>   0.0800 
 49 H        1.0310   -10.3710     0.7610 H     1 <1>   0.0800 
 50 H       -0.1280   -10.0680    -1.6820 H     1 <1>   0.0800 
 51 H        1.5870   -10.3990    -1.5140 H     1 <1>   0.0800 
 52 H        1.0530    -9.1000    -2.5500 H     1 <1>   0.0800 
 53 H       -1.2500   -10.1290     0.6460 H     1 <1>   0.0800 
 54 H       -1.0420    -9.1690     2.0800 H     1 <1>   0.0800 
@<TRIPOS>BOND
  1   1   2  1   
  2   1   3  1   
  3   2   4  1   
  4   2   5  2   
  5   3   6  2   
  6   3  28  1   
  7   4   7  ar  
  8   4   8  ar  
  9   5   6  1   
 10   5  29  1   
 11   6  30  1   
 12   7   9  ar  
 13   7  31  1   
 14   8  10  ar  
 15   8  32  1   
 16   9  11  ar  
 17   9  12  1   
 18  10  11  ar  
 19  10  33  1   
 20  11  13  1   
 21  12  14  1   
 22  12  34  1   
 23  12  35  1   
 24  13  15  1   
 25  14  16  1   
 26  14  17  1   
 27  14  36  1   
 28  15  18  1   
 29  15  37  1   
 30  15  38  1   
 31  16  19  1   
 32  16  39  1   
 33  16  40  1   
 34  17  20  1   
 35  17  41  1   
 36  17  42  1   
 37  18  21  ar  
 38  18  22  ar  
 39  19  23  1   
 40  19  24  1   
 41  19  43  1   
 42  20  25  1   
 43  20  44  1   
 44  20  45  1   
 45  23  25  1   
 46  23  26  1   
 47  23  46  1   
 48  24  27  1   
 49  24  47  1   
 50  24  48  1   
 51  25  27  1   
 52  25  49  1   
 53  26  50  1   
 54  26  51  1   
 55  26  52  1   
 56  27  53  1   
 57  27  54  1   
@<TRIPOS>SUBSTRUCTURE
  1 ****   9 GROUP 4 **** **** 0

# MOE 2024.06 (io_trps.svl 2023.06)
