@<TRIPOS>MOLECULE
NONAME
51 52 1 0 0 
SMALL
USER_CHARGES


@<TRIPOS>ATOM
  1 O       -3.7070     1.9180    -2.1320 O.2   1 <1>  -0.5700 
  2 C       -2.9420     1.7200    -1.2070 C.2   1 <1>   0.5440 
  3 N       -3.0200     0.4730    -0.6500 N.am  1 <1>  -0.6600 
  4 C       -2.1360     2.8060    -0.6660 C.ar  1 <1>   0.0860 
  5 C       -2.7540    -0.7260    -1.5090 C.3   1 <1>   0.3210 
  6 C       -3.4230     0.2890     0.7770 C.3   1 <1>   0.1400 
  7 C       -0.9450     2.6190     0.0600 C.ar  1 <1>   0.0820 
  8 C       -2.5580     4.1240    -0.8720 C.ar  1 <1>  -0.1500 
  9 C       -3.4940    -1.9920    -1.0670 C.2   1 <1>   0.0460 
 10 C       -4.9500     0.0930     0.9020 C.3   1 <1>   0.3430 
 11 O       -0.4880     1.3550     0.2430 O.3   1 <1>  -0.3630 
 12 C       -0.2510     3.7160     0.5700 C.ar  1 <1>  -0.1500 
 13 C       -1.8640     5.2060    -0.3680 C.ar  1 <1>  -0.1500 
 14 N       -4.8250    -2.1350    -1.2590 N.2   1 <1>  -0.5650 
 15 C       -2.9760    -3.1020    -0.4860 C.2   1 <1>  -0.3320 
 16 N       -5.6910     0.9150    -0.1100 N.4   1 <1>  -0.9590 
 17 C        0.7740     1.0670     0.8020 C.3   1 <1>   0.1200 
 18 C       -0.7090     5.0010     0.3600 C.ar  1 <1>  -0.1500 
 19 C       -5.0790    -3.3240    -0.8170 C.2   1 <1>   0.0360 
 20 N       -3.9990    -3.9630    -0.3290 N.pl3 1 <1>   0.0330 
 21 C       -1.5560    -3.4510    -0.0700 C.3   1 <1>  -0.0600 
 22 C       -5.8990     2.3300     0.3010 C.3   1 <1>   0.2630 
 23 C       -6.9500     0.2530    -0.5500 C.3   1 <1>   0.2630 
 24 C        0.9690    -0.4450     0.7630 C.3   1 <1>  -0.2400 
 25 H       -1.6970    -0.9140    -1.5000 H     1 <1>   0.0800 
 26 H       -3.0330    -0.5090    -2.5260 H     1 <1>   0.0800 
 27 H       -3.1350     1.1570     1.3430 H     1 <1>   0.0800 
 28 H       -2.9060    -0.5560     1.2000 H     1 <1>   0.0800 
 29 H       -3.4490     4.3070    -1.4470 H     1 <1>   0.1500 
 30 H       -5.2770     0.3320     1.9000 H     1 <1>   0.0800 
 31 H       -5.1610    -0.9490     0.7340 H     1 <1>   0.0800 
 32 H        0.6540     3.5940     1.1340 H     1 <1>   0.1500 
 33 H       -2.2170     6.2090    -0.5440 H     1 <1>   0.1500 
 34 H       -5.0510     0.9190    -0.9410 H     1 <1>   0.4500 
 35 H        0.7910     1.4240     1.8170 H     1 <1>   0.0800 
 36 H        1.5300     1.5630     0.2170 H     1 <1>   0.0800 
 37 H       -0.1650     5.8430     0.7550 H     1 <1>   0.1500 
 38 H       -6.0520    -3.7850    -0.8330 H     1 <1>   0.1500 
 39 H       -3.9640    -4.9130     0.0550 H     1 <1>   0.2700 
 40 H       -0.8810    -2.6460    -0.2930 H     1 <1>   0.0800 
 41 H       -1.2210    -4.3260    -0.5980 H     1 <1>   0.0800 
 42 H       -1.5140    -3.6470     0.9870 H     1 <1>   0.0800 
 43 H       -6.5500     2.3810     1.1590 H     1 <1>   0.0800 
 44 H       -6.3430     2.8870    -0.5080 H     1 <1>   0.0800 
 45 H       -4.9550     2.7870     0.5490 H     1 <1>   0.0800 
 46 H       -7.6440     0.1810     0.2700 H     1 <1>   0.0800 
 47 H       -6.7390    -0.7390    -0.9150 H     1 <1>   0.0800 
 48 H       -7.4060     0.8170    -1.3470 H     1 <1>   0.0800 
 49 H        0.2020    -0.9330     1.3370 H     1 <1>   0.0800 
 50 H        1.9250    -0.6980     1.1850 H     1 <1>   0.0800 
 51 H        0.9430    -0.7940    -0.2540 H     1 <1>   0.0800 
@<TRIPOS>BOND
  1   1   2  2   
  2   2   3  am  
  3   2   4  1   
  4   3   5  1   
  5   3   6  1   
  6   4   7  ar  
  7   4   8  ar  
  8   5   9  1   
  9   5  25  1   
 10   5  26  1   
 11   6  10  1   
 12   6  27  1   
 13   6  28  1   
 14   7  11  1   
 15   7  12  ar  
 16   8  13  ar  
 17   8  29  1   
 18   9  14  1   
 19   9  15  2   
 20  10  16  1   
 21  10  30  1   
 22  10  31  1   
 23  11  17  1   
 24  12  18  ar  
 25  12  32  1   
 26  13  18  ar  
 27  13  33  1   
 28  14  19  2   
 29  15  20  1   
 30  15  21  1   
 31  16  22  1   
 32  16  23  1   
 33  16  34  1   
 34  17  24  1   
 35  17  35  1   
 36  17  36  1   
 37  18  37  1   
 38  19  20  1   
 39  19  38  1   
 40  20  39  1   
 41  21  40  1   
 42  21  41  1   
 43  21  42  1   
 44  22  43  1   
 45  22  44  1   
 46  22  45  1   
 47  23  46  1   
 48  23  47  1   
 49  23  48  1   
 50  24  49  1   
 51  24  50  1   
 52  24  51  1   
@<TRIPOS>SUBSTRUCTURE
  1 ****   3 GROUP 4 **** **** 0

# MOE 2024.06 (io_trps.svl 2023.06)
