@<TRIPOS>MOLECULE
NONAME
42 44 1 0 0 
SMALL
USER_CHARGES


@<TRIPOS>ATOM
  1 F        2.1160    -4.4250    -2.4360 F     1 <1>  -0.1900 
  2 C        1.3450    -4.7790    -1.4450 C.ar  1 <1>   0.1900 
  3 C        1.6640    -5.9140    -0.7270 C.ar  1 <1>  -0.1500 
  4 C        0.2360    -4.0090    -1.1530 C.ar  1 <1>  -0.1500 
  5 C        0.8370    -6.2940     0.3160 C.ar  1 <1>  -0.1500 
  6 C       -0.5840    -4.3950    -0.1060 C.ar  1 <1>  -0.1500 
  7 C       -0.2900    -5.5390     0.6280 C.ar  1 <1>  -0.1430 
  8 C       -1.1930    -5.9830     1.7620 C.3   1 <1>   0.4870 
  9 N       -2.1150    -6.9910     1.2020 N.4   1 <1>  -0.9590 
 10 C       -3.2890    -6.4630     0.4500 C.3   1 <1>   0.3430 
 11 C       -2.6130    -8.0510     2.1020 C.3   1 <1>   0.3430 
 12 C       -4.3420    -7.5810     0.4920 C.3   1 <1>   0.2000 
 13 C       -3.7200    -8.7330     1.2960 C.3   1 <1>  -0.0800 
 14 O       -5.4730    -7.1230     1.1580 O.3   1 <1>  -0.6800 
 15 C       -3.1770    -9.8680     0.3920 C.3   1 <1>   0.0210 
 16 C       -1.8940    -9.5480    -0.3670 C.2   1 <1>   0.1080 
 17 N       -1.7680    -8.5390    -1.1750 N.2   1 <1>  -0.7070 
 18 C       -0.7220   -10.2900    -0.2780 C.2   1 <1>  -0.1500 
 19 N       -0.5110    -8.6380    -1.6630 N.pl3 1 <1>   0.3000 
 20 C        0.1440    -9.6800    -1.1130 C.2   1 <1>  -0.3320 
 21 C        1.5790   -10.0500    -1.4450 C.3   1 <1>  -0.0600 
 22 H        2.5440    -6.4790    -0.9810 H     1 <1>   0.1500 
 23 H        0.0270    -3.1280    -1.7350 H     1 <1>   0.1500 
 24 H        1.0810    -7.1810     0.8790 H     1 <1>   0.1500 
 25 H       -1.4470    -3.7930     0.1270 H     1 <1>   0.1500 
 26 H       -1.7400    -5.1480     2.1690 H     1 <1>   0.0800 
 27 H       -0.5920    -6.4210     2.5410 H     1 <1>   0.0800 
 28 H       -1.5870    -7.4930     0.4540 H     1 <1>   0.4500 
 29 H       -3.6810    -5.5720     0.9110 H     1 <1>   0.0800 
 30 H       -3.0070    -6.2540    -0.5700 H     1 <1>   0.0800 
 31 H       -1.8310    -8.7450     2.3680 H     1 <1>   0.0800 
 32 H       -3.0260    -7.6110     2.9940 H     1 <1>   0.0800 
 33 H       -4.6410    -7.8740    -0.5010 H     1 <1>   0.0800 
 34 H       -4.4490    -9.1700     1.9570 H     1 <1>   0.0800 
 35 H       -5.3390    -7.0110     2.1190 H     1 <1>   0.4000 
 36 H       -3.9320   -10.1510    -0.3210 H     1 <1>   0.0800 
 37 H       -2.9920   -10.7330     1.0040 H     1 <1>   0.0800 
 38 H       -0.5630   -11.1690     0.3230 H     1 <1>   0.1500 
 39 H       -0.1320    -7.9920    -2.3700 H     1 <1>   0.2700 
 40 H        1.8760   -10.9220    -0.8900 H     1 <1>   0.0800 
 41 H        2.2450    -9.2430    -1.1960 H     1 <1>   0.0800 
 42 H        1.6730   -10.2690    -2.4950 H     1 <1>   0.0800 
@<TRIPOS>BOND
  1   1   2  1   
  2   2   3  ar  
  3   2   4  ar  
  4   3   5  ar  
  5   3  22  1   
  6   4   6  ar  
  7   4  23  1   
  8   5   7  ar  
  9   5  24  1   
 10   6   7  ar  
 11   6  25  1   
 12   7   8  1   
 13   8   9  1   
 14   8  26  1   
 15   8  27  1   
 16   9  10  1   
 17   9  11  1   
 18   9  28  1   
 19  10  12  1   
 20  10  29  1   
 21  10  30  1   
 22  11  13  1   
 23  11  31  1   
 24  11  32  1   
 25  12  13  1   
 26  12  14  1   
 27  12  33  1   
 28  13  15  1   
 29  13  34  1   
 30  14  35  1   
 31  15  16  1   
 32  15  36  1   
 33  15  37  1   
 34  16  17  2   
 35  16  18  1   
 36  17  19  1   
 37  18  20  2   
 38  18  38  1   
 39  19  20  1   
 40  19  39  1   
 41  20  21  1   
 42  21  40  1   
 43  21  41  1   
 44  21  42  1   
@<TRIPOS>SUBSTRUCTURE
  1 ****   9 GROUP 4 **** **** 0

# MOE 2024.06 (io_trps.svl 2023.06)
