@<TRIPOS>MOLECULE
NONAME
62 65 1 0 0 
SMALL
USER_CHARGES


@<TRIPOS>ATOM
  1 O       -0.7010    -2.4900    -1.1920 O.2   1 <1>  -0.5700 
  2 C        0.2950    -2.2860    -0.5170 C.2   1 <1>   0.6900 
  3 N        1.4290    -3.0330    -0.7270 N.am  1 <1>  -0.6600 
  4 N        0.2650    -1.3210     0.4610 N.am  1 <1>  -0.6600 
  5 C        2.1740    -3.6100     0.4180 C.3   1 <1>   0.1400 
  6 C        1.6120    -3.7870    -1.9920 C.3   1 <1>   0.1400 
  7 C        1.4190    -0.4190     0.7140 C.3   1 <1>   0.0600 
  8 C       -1.0270    -0.8760     1.0410 C.3   1 <1>   0.0600 
  9 C        1.6450    -5.0190     0.6900 C.3   1 <1>  -0.1600 
 10 C        1.0760    -5.2090    -1.8150 C.3   1 <1>  -0.1600 
 11 C        1.6750    -5.9080    -0.5720 C.3   1 <1>  -0.0190 
 12 C        1.1060    -7.3050    -0.2900 C.2   1 <1>   0.5690 
 13 O        1.9040    -8.2130    -0.2480 O.2   1 <1>  -0.5700 
 14 N       -0.2280    -7.5470    -0.0600 N.am  1 <1>  -0.6600 
 15 C       -1.3670    -6.6100    -0.1700 C.3   1 <1>   0.1400 
 16 C       -0.7020    -8.8820     0.3680 C.3   1 <1>   0.1400 
 17 C       -2.4570    -7.1960     0.7240 C.3   1 <1>  -0.0800 
 18 C       -2.1530    -8.7050     0.8370 C.3   1 <1>  -0.0800 
 19 C       -3.9050    -6.8210     0.3200 C.3   1 <1>   0.4240 
 20 C       -3.1390    -9.5820     0.0460 C.3   1 <1>  -0.1600 
 21 O       -4.0600    -6.9440    -1.0500 O.3   1 <1>  -0.6800 
 22 C       -4.2040    -5.3570     0.7030 C.ar  1 <1>  -0.1440 
 23 C       -4.8680    -7.8600     0.9230 C.3   1 <1>  -0.1600 
 24 C       -4.6060    -9.3070     0.4390 C.3   1 <1>  -0.1600 
 25 C       -3.7850    -4.3220    -0.1280 C.ar  1 <1>  -0.1500 
 26 C       -4.8660    -5.0170     1.8790 C.ar  1 <1>  -0.1500 
 27 C       -4.0210    -2.9980     0.1950 C.ar  1 <1>  -0.1500 
 28 C       -5.1070    -3.6930     2.2060 C.ar  1 <1>  -0.1500 
 29 C       -4.6860    -2.6800     1.3640 C.ar  1 <1>  -0.1500 
 30 H        3.2230    -3.6440     0.1780 H     1 <1>   0.0800 
 31 H        2.0470    -3.0050     1.2980 H     1 <1>   0.0800 
 32 H        1.0860    -3.2920    -2.7920 H     1 <1>   0.0800 
 33 H        2.6580    -3.8110    -2.2410 H     1 <1>   0.0800 
 34 H        1.7290    -0.5060     1.7400 H     1 <1>   0.0800 
 35 H        1.1340     0.6000     0.5150 H     1 <1>   0.0800 
 36 H        2.2440    -0.6740     0.0730 H     1 <1>   0.0800 
 37 H       -0.8860    -0.5570     2.0580 H     1 <1>   0.0800 
 38 H       -1.7300    -1.6910     1.0310 H     1 <1>   0.0800 
 39 H       -1.4250    -0.0640     0.4590 H     1 <1>   0.0800 
 40 H        2.2420    -5.4770     1.4590 H     1 <1>   0.0800 
 41 H        0.6470    -4.9330     1.0750 H     1 <1>   0.0800 
 42 H        0.0100    -5.1320    -1.7490 H     1 <1>   0.0800 
 43 H        1.3000    -5.7860    -2.6930 H     1 <1>   0.0800 
 44 H        2.7160    -6.0570    -0.8000 H     1 <1>   0.0800 
 45 H       -1.1170    -5.6140     0.1460 H     1 <1>   0.0800 
 46 H       -1.6780    -6.5820    -1.1990 H     1 <1>   0.0800 
 47 H       -0.6320    -9.5660    -0.4600 H     1 <1>   0.0800 
 48 H       -0.0830    -9.2430     1.1720 H     1 <1>   0.0800 
 49 H       -2.2930    -6.7840     1.7040 H     1 <1>   0.0800 
 50 H       -2.2130    -8.9970     1.8720 H     1 <1>   0.0800 
 51 H       -3.0050    -9.3950    -1.0060 H     1 <1>   0.0800 
 52 H       -2.9150   -10.6220     0.2110 H     1 <1>   0.0800 
 53 H       -4.0110    -7.8910    -1.2660 H     1 <1>   0.4000 
 54 H       -4.7440    -7.8490     1.9900 H     1 <1>   0.0800 
 55 H       -5.8850    -7.5750     0.7150 H     1 <1>   0.0800 
 56 H       -4.8960    -9.9830     1.2250 H     1 <1>   0.0800 
 57 H       -5.2370    -9.5230    -0.4080 H     1 <1>   0.0800 
 58 H       -3.2650    -4.5350    -1.0470 H     1 <1>   0.1500 
 59 H       -5.2070    -5.7700     2.5640 H     1 <1>   0.1500 
 60 H       -3.6800    -2.2240    -0.4710 H     1 <1>   0.1500 
 61 H       -5.6250    -3.4500     3.1170 H     1 <1>   0.1500 
 62 H       -4.8740    -1.6520     1.6150 H     1 <1>   0.1500 
@<TRIPOS>BOND
  1   1   2  2   
  2   2   3  am  
  3   2   4  am  
  4   3   5  1   
  5   3   6  1   
  6   4   7  1   
  7   4   8  1   
  8   5   9  1   
  9   5  30  1   
 10   5  31  1   
 11   6  10  1   
 12   6  32  1   
 13   6  33  1   
 14   7  34  1   
 15   7  35  1   
 16   7  36  1   
 17   8  37  1   
 18   8  38  1   
 19   8  39  1   
 20   9  11  1   
 21   9  40  1   
 22   9  41  1   
 23  10  11  1   
 24  10  42  1   
 25  10  43  1   
 26  11  12  1   
 27  11  44  1   
 28  12  13  2   
 29  12  14  am  
 30  14  15  1   
 31  14  16  1   
 32  15  17  1   
 33  15  45  1   
 34  15  46  1   
 35  16  18  1   
 36  16  47  1   
 37  16  48  1   
 38  17  18  1   
 39  17  19  1   
 40  17  49  1   
 41  18  20  1   
 42  18  50  1   
 43  19  21  1   
 44  19  22  1   
 45  19  23  1   
 46  20  24  1   
 47  20  51  1   
 48  20  52  1   
 49  21  53  1   
 50  22  25  ar  
 51  22  26  ar  
 52  23  24  1   
 53  23  54  1   
 54  23  55  1   
 55  24  56  1   
 56  24  57  1   
 57  25  27  ar  
 58  25  58  1   
 59  26  28  ar  
 60  26  59  1   
 61  27  29  ar  
 62  27  60  1   
 63  28  29  ar  
 64  28  61  1   
 65  29  62  1   
@<TRIPOS>SUBSTRUCTURE
  1 ****  15 GROUP 4 **** **** 0

# MOE 2024.06 (io_trps.svl 2023.06)
