@<TRIPOS>MOLECULE
NONAME
44 45 1 0 0 
SMALL
USER_CHARGES


@<TRIPOS>ATOM
  1 O       -0.3440     0.7870     0.2860 O.2   1 <1>  -0.5700 
  2 C       -0.1880     1.9820     0.2970 C.2   1 <1>   0.5690 
  3 N       -1.1040     2.7920     0.8700 N.am  1 <1>  -0.7300 
  4 C        1.0390     2.6020    -0.3800 C.3   1 <1>   0.1810 
  5 C       -0.9810     4.2690     0.9170 C.3   1 <1>   0.3640 
  6 O        1.2730     3.9420     0.0020 O.3   1 <1>  -0.5600 
  7 C       -2.3290     4.8880     0.5520 C.ar  1 <1>  -0.1440 
  8 C        0.1280     4.7820    -0.0380 C.3   1 <1>   0.2610 
  9 C       -3.0870     4.4040    -0.5090 C.ar  1 <1>  -0.1500 
 10 C       -2.8080     5.9670     1.2810 C.ar  1 <1>  -0.1500 
 11 C        0.5050     6.2430     0.2670 C.2   1 <1>   0.5690 
 12 C       -4.2990     4.9880    -0.8300 C.ar  1 <1>  -0.1500 
 13 C       -4.0200     6.5520     0.9600 C.ar  1 <1>  -0.1500 
 14 O        0.3480     6.6670     1.3940 O.2   1 <1>  -0.5700 
 15 N        1.0000     7.0630    -0.7240 N.am  1 <1>  -0.6600 
 16 C       -4.7670     6.0630    -0.0960 C.ar  1 <1>  -0.1500 
 17 C        1.1830     8.5200    -0.4800 C.3   1 <1>   0.1400 
 18 C        1.4230     6.5940    -2.0740 C.3   1 <1>   0.0600 
 19 C        2.5620     8.7810     0.1220 C.3   1 <1>  -0.0990 
 20 C        2.7250    10.2560     0.3890 C.2   1 <1>   0.5690 
 21 O        3.0020    10.9830    -0.5320 O.2   1 <1>  -0.5700 
 22 N        2.5390    10.7140     1.6540 N.am  1 <1>  -0.7300 
 23 C        2.6630    12.1320     2.0770 C.3   1 <1>   0.0600 
 24 H       -1.9230     2.3780     1.3180 H     1 <1>   0.3700 
 25 H        0.9110     2.5720    -1.4460 H     1 <1>   0.0800 
 26 H        1.9120     2.0320    -0.1200 H     1 <1>   0.0800 
 27 H       -0.7290     4.5410     1.9270 H     1 <1>   0.0800 
 28 H       -0.2580     4.7470    -1.0390 H     1 <1>   0.0800 
 29 H       -2.7420     3.5670    -1.0910 H     1 <1>   0.1500 
 30 H       -2.2360     6.3640     2.1040 H     1 <1>   0.1500 
 31 H       -4.8800     4.6060    -1.6520 H     1 <1>   0.1500 
 32 H       -4.3810     7.3890     1.5330 H     1 <1>   0.1500 
 33 H       -5.7100     6.5180    -0.3460 H     1 <1>   0.1500 
 34 H        1.0750     9.0640    -1.4040 H     1 <1>   0.0800 
 35 H        0.4220     8.8700     0.1980 H     1 <1>   0.0800 
 36 H        2.2860     7.1480    -2.4020 H     1 <1>   0.0800 
 37 H        0.6240     6.7460    -2.7780 H     1 <1>   0.0800 
 38 H        1.6880     5.5510    -2.0530 H     1 <1>   0.0800 
 39 H        3.3280     8.4710    -0.5640 H     1 <1>   0.0800 
 40 H        2.6710     8.2310     1.0380 H     1 <1>   0.0800 
 41 H        2.2790    10.0500     2.3870 H     1 <1>   0.3700 
 42 H        2.9400    12.7500     1.2390 H     1 <1>   0.0800 
 43 H        3.4200    12.2200     2.8370 H     1 <1>   0.0800 
 44 H        1.7230    12.4790     2.4680 H     1 <1>   0.0800 
@<TRIPOS>BOND
  1   1   2  2   
  2   2   3  am  
  3   2   4  1   
  4   3   5  1   
  5   3  24  1   
  6   4   6  1   
  7   4  25  1   
  8   4  26  1   
  9   5   7  1   
 10   5   8  1   
 11   5  27  1   
 12   6   8  1   
 13   7   9  ar  
 14   7  10  ar  
 15   8  11  1   
 16   8  28  1   
 17   9  12  ar  
 18   9  29  1   
 19  10  13  ar  
 20  10  30  1   
 21  11  14  2   
 22  11  15  am  
 23  12  16  ar  
 24  12  31  1   
 25  13  16  ar  
 26  13  32  1   
 27  15  17  1   
 28  15  18  1   
 29  16  33  1   
 30  17  19  1   
 31  17  34  1   
 32  17  35  1   
 33  18  36  1   
 34  18  37  1   
 35  18  38  1   
 36  19  20  1   
 37  19  39  1   
 38  19  40  1   
 39  20  21  2   
 40  20  22  am  
 41  22  23  1   
 42  22  41  1   
 43  23  42  1   
 44  23  43  1   
 45  23  44  1   
@<TRIPOS>SUBSTRUCTURE
  1 ****  11 GROUP 4 **** **** 0

# MOE 2024.06 (io_trps.svl 2023.06)
