@<TRIPOS>MOLECULE
NONAME
43 44 1 0 0 
SMALL
USER_CHARGES


@<TRIPOS>ATOM
  1 F       -3.1890     0.7080     2.6570 F     1 <1>  -0.1900 
  2 C       -2.5660     0.8080     1.5130 C.ar  1 <1>   0.1900 
  3 C       -2.3570    -0.3380     0.7550 C.ar  1 <1>  -0.1440 
  4 C       -2.1400     2.0590     1.1120 C.ar  1 <1>  -0.1500 
  5 C       -1.6720    -0.2180    -0.4510 C.ar  1 <1>  -0.1500 
  6 C       -2.8520    -1.6890     1.2460 C.3   1 <1>   0.4870 
  7 C       -1.4760     2.1370    -0.0950 C.ar  1 <1>   0.1900 
  8 C       -1.2320     1.0250    -0.8820 C.ar  1 <1>  -0.1500 
  9 N       -4.2310    -1.9580     0.7830 N.4   1 <1>  -0.9590 
 10 F       -1.0610     3.3020    -0.5090 F     1 <1>  -0.1900 
 11 C       -4.4060    -2.0140    -0.7200 C.3   1 <1>   0.3430 
 12 C       -5.2880    -1.1470     1.4390 C.3   1 <1>   0.3430 
 13 C       -5.8980    -2.0170    -1.1530 C.3   1 <1>   0.2000 
 14 C       -6.6680    -1.8060     1.2330 C.3   1 <1>  -0.1600 
 15 O       -6.2930    -0.6930    -1.3430 O.3   1 <1>  -0.6800 
 16 C       -6.7660    -2.6860    -0.0590 C.3   1 <1>  -0.1060 
 17 C       -6.0830    -4.0550     0.1480 C.2   1 <1>   0.9060 
 18 C       -8.2490    -2.9480    -0.4640 C.3   1 <1>  -0.1600 
 19 O       -5.5020    -4.2880     1.2180 O.co2 1 <1>  -0.9000 
 20 O       -5.9080    -4.7730    -0.8360 O.co2 1 <1>  -0.9000 
 21 C       -9.0990    -1.7540    -0.9380 C.3   1 <1>  -0.1600 
 22 C      -10.5620    -2.1700    -1.1080 C.3   1 <1>  -0.2400 
 23 H       -2.3150     2.9340     1.7110 H     1 <1>   0.1500 
 24 H       -1.4770    -1.0840    -1.0620 H     1 <1>   0.1500 
 25 H       -2.8240    -1.7160     2.3230 H     1 <1>   0.0800 
 26 H       -2.1980    -2.4630     0.8800 H     1 <1>   0.0800 
 27 H       -0.7050     1.1370    -1.8130 H     1 <1>   0.1500 
 28 H       -4.4690    -2.9350     1.1000 H     1 <1>   0.4500 
 29 H       -3.9190    -1.1810    -1.1940 H     1 <1>   0.0800 
 30 H       -3.9550    -2.9250    -1.0790 H     1 <1>   0.0800 
 31 H       -5.0900    -1.0510     2.4940 H     1 <1>   0.0800 
 32 H       -5.2940    -0.1620     1.0000 H     1 <1>   0.0800 
 33 H       -6.0010    -2.5300    -2.0950 H     1 <1>   0.0800 
 34 H       -6.9060    -2.4050     2.0950 H     1 <1>   0.0800 
 35 H       -7.3900    -1.0130     1.2110 H     1 <1>   0.0800 
 36 H       -7.2500    -0.6800    -1.5440 H     1 <1>   0.4000 
 37 H       -8.2570    -3.6860    -1.2510 H     1 <1>   0.0800 
 38 H       -8.7360    -3.4050     0.3810 H     1 <1>   0.0800 
 39 H       -9.0550    -0.9440    -0.2330 H     1 <1>   0.0800 
 40 H       -8.7430    -1.4060    -1.8920 H     1 <1>   0.0800 
 41 H      -10.9710    -2.5030    -0.1700 H     1 <1>   0.0800 
 42 H      -10.6450    -2.9710    -1.8230 H     1 <1>   0.0800 
 43 H      -11.1460    -1.3380    -1.4590 H     1 <1>   0.0800 
@<TRIPOS>BOND
  1   1   2  1   
  2   2   3  ar  
  3   2   4  ar  
  4   3   5  ar  
  5   3   6  1   
  6   4   7  ar  
  7   4  23  1   
  8   5   8  ar  
  9   5  24  1   
 10   6   9  1   
 11   6  25  1   
 12   6  26  1   
 13   7   8  ar  
 14   7  10  1   
 15   8  27  1   
 16   9  11  1   
 17   9  12  1   
 18   9  28  1   
 19  11  13  1   
 20  11  29  1   
 21  11  30  1   
 22  12  14  1   
 23  12  31  1   
 24  12  32  1   
 25  13  15  1   
 26  13  16  1   
 27  13  33  1   
 28  14  16  1   
 29  14  34  1   
 30  14  35  1   
 31  15  36  1   
 32  16  17  1   
 33  16  18  1   
 34  17  19  ar  
 35  17  20  ar  
 36  18  21  1   
 37  18  37  1   
 38  18  38  1   
 39  21  22  1   
 40  21  39  1   
 41  21  40  1   
 42  22  41  1   
 43  22  42  1   
 44  22  43  1   
@<TRIPOS>SUBSTRUCTURE
  1 ****   9 GROUP 4 **** **** 0

# MOE 2024.06 (io_trps.svl 2023.06)
