@<TRIPOS>MOLECULE
NONAME
49 52 1 0 0 
SMALL
USER_CHARGES


@<TRIPOS>ATOM
  1 O       -2.1890     0.9640     2.8760 O.2   1 <1>  -0.5700 
  2 C       -2.4120     1.2890     1.7320 C.2   1 <1>   0.6300 
  3 N       -3.2400     0.5460     0.9340 N.am  1 <1>  -0.6600 
  4 C       -1.7380     2.5530     1.1800 C.3   1 <1>   0.0320 
  5 C       -3.4150     0.7250    -0.5300 C.3   1 <1>   0.1400 
  6 C       -3.8000    -0.7590     1.3630 C.3   1 <1>   0.1400 
  7 C       -0.5350     2.2310     0.3000 C.ar  1 <1>  -0.0320 
  8 C       -1.6040     3.7530     2.0760 C.3   1 <1>  -0.2000 
  9 C       -2.5680     3.7870     0.9370 C.3   1 <1>  -0.2000 
 10 C       -4.3030    -0.4430    -0.9650 C.3   1 <1>   0.2000 
 11 C       -4.0190    -1.5420     0.0620 C.3   1 <1>  -0.0800 
 12 C       -0.5040     2.5600    -1.0470 C.ar  1 <1>  -0.1500 
 13 C        0.5540     1.5810     0.8580 C.ar  1 <1>  -0.1500 
 14 O       -5.6290    -0.0600    -0.8350 O.3   1 <1>  -0.6800 
 15 C       -2.7680    -2.3500    -0.3360 C.3   1 <1>  -0.0170 
 16 C        0.5960     2.2380    -1.8230 C.ar  1 <1>  -0.1500 
 17 C        1.6540     1.2580     0.0830 C.ar  1 <1>  -0.1500 
 18 C       -2.4660    -3.4530     0.6670 C.ar  1 <1>  -0.1440 
 19 C        1.6800     1.5830    -1.2630 C.ar  1 <1>  -0.1440 
 20 C       -3.1620    -4.6440     0.6720 C.ar  1 <1>  -0.1500 
 21 C       -1.4790    -3.3190     1.6230 C.ar  1 <1>  -0.1500 
 22 C        2.8900     1.2300    -2.1090 C.3   1 <1>  -0.0970 
 23 C       -2.8490    -5.6160     1.6080 C.ar  1 <1>   0.1600 
 24 C       -1.2460    -4.3530     2.5150 C.ar  1 <1>   0.1600 
 25 N       -1.9070    -5.4990     2.5300 N.ar  1 <1>  -0.6200 
 26 H       -3.8580     1.6760    -0.7670 H     1 <1>   0.0800 
 27 H       -2.4560     0.6420    -1.0100 H     1 <1>   0.0800 
 28 H       -3.1390    -1.2620     2.0480 H     1 <1>   0.0800 
 29 H       -4.7400    -0.5880     1.8590 H     1 <1>   0.0800 
 30 H       -1.9800     3.6830     3.0820 H     1 <1>   0.1000 
 31 H       -0.7020     4.3370     2.0140 H     1 <1>   0.1000 
 32 H       -2.3420     4.4420     0.1150 H     1 <1>   0.1000 
 33 H       -3.6200     3.7530     1.1590 H     1 <1>   0.1000 
 34 H       -4.1390    -0.7440    -1.9860 H     1 <1>   0.0800 
 35 H       -4.8530    -2.2160     0.1510 H     1 <1>   0.0800 
 36 H       -1.3350     3.0680    -1.5010 H     1 <1>   0.1500 
 37 H        0.5430     1.3230     1.9040 H     1 <1>   0.1500 
 38 H       -5.7640     0.3280     0.0530 H     1 <1>   0.4000 
 39 H       -1.9130    -1.7000    -0.4160 H     1 <1>   0.0800 
 40 H       -2.9230    -2.7970    -1.3020 H     1 <1>   0.0800 
 41 H        0.6060     2.5030    -2.8660 H     1 <1>   0.1500 
 42 H        2.4910     0.7540     0.5340 H     1 <1>   0.1500 
 43 H       -3.9440    -4.8260    -0.0420 H     1 <1>   0.1500 
 44 H       -0.8920    -2.4210     1.6870 H     1 <1>   0.1500 
 45 H        2.6230     1.1710    -3.1490 H     1 <1>   0.0800 
 46 H        3.2910     0.2780    -1.8080 H     1 <1>   0.0800 
 47 H        3.6490     1.9810    -1.9880 H     1 <1>   0.0800 
 48 H       -3.4020    -6.5400     1.5970 H     1 <1>   0.1500 
 49 H       -0.4750    -4.2280     3.2560 H     1 <1>   0.1500 
@<TRIPOS>BOND
  1   1   2  2   
  2   2   3  am  
  3   2   4  1   
  4   3   5  1   
  5   3   6  1   
  6   4   7  1   
  7   4   8  1   
  8   4   9  1   
  9   5  10  1   
 10   5  26  1   
 11   5  27  1   
 12   6  11  1   
 13   6  28  1   
 14   6  29  1   
 15   7  12  ar  
 16   7  13  ar  
 17   8   9  1   
 18   8  30  1   
 19   8  31  1   
 20   9  32  1   
 21   9  33  1   
 22  10  11  1   
 23  10  14  1   
 24  10  34  1   
 25  11  15  1   
 26  11  35  1   
 27  12  16  ar  
 28  12  36  1   
 29  13  17  ar  
 30  13  37  1   
 31  14  38  1   
 32  15  18  1   
 33  15  39  1   
 34  15  40  1   
 35  16  19  ar  
 36  16  41  1   
 37  17  19  ar  
 38  17  42  1   
 39  18  20  ar  
 40  18  21  ar  
 41  19  22  1   
 42  20  23  ar  
 43  20  43  1   
 44  21  24  ar  
 45  21  44  1   
 46  22  45  1   
 47  22  46  1   
 48  22  47  1   
 49  23  25  ar  
 50  23  48  1   
 51  24  25  ar  
 52  24  49  1   
@<TRIPOS>SUBSTRUCTURE
  1 ****   3 GROUP 4 **** **** 0

# MOE 2024.06 (io_trps.svl 2023.06)
