@<TRIPOS>MOLECULE
NONAME
51 54 1 0 0 
SMALL
USER_CHARGES


@<TRIPOS>ATOM
  1 O       -1.2190     1.2580     2.4700 O.2   1 <1>  -0.5700 
  2 C       -1.9730     1.4220     1.5310 C.2   1 <1>   0.5440 
  3 N       -3.1430     0.6940     1.4620 N.am  1 <1>  -0.6600 
  4 C       -1.6220     2.3760     0.5170 C.ar  1 <1>   0.0860 
  5 C       -3.4150    -0.4580     2.3670 C.3   1 <1>   0.1400 
  6 C       -4.2390     0.9530     0.4880 C.3   1 <1>   0.1400 
  7 C       -1.1190     2.0420    -0.7360 C.ar  1 <1>   0.1660 
  8 C       -1.7810     3.7290     0.7540 C.ar  1 <1>   0.1600 
  9 C       -3.5930    -1.7220     1.5220 C.3   1 <1>  -0.1600 
 10 C       -4.4410    -0.2850    -0.3880 C.3   1 <1>  -0.1600 
 11 N       -0.8460     2.9490    -1.6430 N.ar  1 <1>  -0.6200 
 12 C       -0.8390     0.6060    -1.1470 C.3   1 <1>  -0.0970 
 13 N       -1.5160     4.6550    -0.1360 N.ar  1 <1>  -0.6200 
 14 C       -4.6860    -1.5570     0.4500 C.3   1 <1>   0.4240 
 15 C       -1.0670     4.2050    -1.2940 C.ar  1 <1>   0.7200 
 16 O       -5.8580    -1.3250     1.2020 O.3   1 <1>  -0.5600 
 17 C       -4.8100    -2.8310    -0.4360 C.ar  1 <1>  -0.1430 
 18 N       -0.7880     5.1270    -2.2110 N.pl3 1 <1>  -0.9000 
 19 C       -7.0830    -1.5810     0.5980 C.3   1 <1>   0.1200 
 20 C       -3.7520    -3.2940    -1.2310 C.ar  1 <1>   0.0830 
 21 C       -6.0060    -3.5470    -0.4540 C.ar  1 <1>  -0.1440 
 22 C       -7.1910    -3.0800     0.3670 C.3   1 <1>  -0.0170 
 23 O       -2.5780    -2.6040    -1.2430 O.3   1 <1>  -0.3620 
 24 C       -3.9070    -4.4450    -2.0020 C.ar  1 <1>  -0.1500 
 25 C       -6.1460    -4.6920    -1.2200 C.ar  1 <1>  -0.1500 
 26 C       -1.4100    -3.1080    -1.8530 C.3   1 <1>   0.0400 
 27 C       -5.0970    -5.1420    -1.9940 C.ar  1 <1>  -0.1500 
 28 H       -4.3080    -0.2590     2.9340 H     1 <1>   0.0800 
 29 H       -2.6050    -0.6010     3.0610 H     1 <1>   0.0800 
 30 H       -4.0180     1.8040    -0.1310 H     1 <1>   0.0800 
 31 H       -5.1440     1.1650     1.0320 H     1 <1>   0.0800 
 32 H       -2.1440     4.0430     1.7180 H     1 <1>   0.1500 
 33 H       -3.8500    -2.5500     2.1570 H     1 <1>   0.0800 
 34 H       -2.6460    -1.9480     1.0770 H     1 <1>   0.0800 
 35 H       -3.5670    -0.4030    -0.9930 H     1 <1>   0.0800 
 36 H       -5.2600    -0.1270    -1.0630 H     1 <1>   0.0800 
 37 H       -1.0540    -0.0960    -0.3620 H     1 <1>   0.0800 
 38 H        0.1970     0.5080    -1.4120 H     1 <1>   0.0800 
 39 H       -1.4360     0.3550    -2.0040 H     1 <1>   0.0800 
 40 H       -0.7380     6.0960    -1.9130 H     1 <1>   0.4000 
 41 H       -0.2430     4.8450    -3.0210 H     1 <1>   0.4000 
 42 H       -7.1500    -1.0370    -0.3270 H     1 <1>   0.0800 
 43 H       -7.8570    -1.2450     1.2650 H     1 <1>   0.0800 
 44 H       -8.1100    -3.2920    -0.1480 H     1 <1>   0.0800 
 45 H       -7.2040    -3.5910     1.3130 H     1 <1>   0.0800 
 46 H       -3.1150    -4.8180    -2.6210 H     1 <1>   0.1500 
 47 H       -7.0730    -5.2380    -1.2180 H     1 <1>   0.1500 
 48 H       -0.6010    -2.4340    -1.6360 H     1 <1>   0.0800 
 49 H       -1.5650    -3.1600    -2.9160 H     1 <1>   0.0800 
 50 H       -1.1930    -4.0800    -1.4450 H     1 <1>   0.0800 
 51 H       -5.2090    -6.0320    -2.5890 H     1 <1>   0.1500 
@<TRIPOS>BOND
  1   1   2  2   
  2   2   3  am  
  3   2   4  1   
  4   3   5  1   
  5   3   6  1   
  6   4   7  ar  
  7   4   8  ar  
  8   5   9  1   
  9   5  28  1   
 10   5  29  1   
 11   6  10  1   
 12   6  30  1   
 13   6  31  1   
 14   7  11  ar  
 15   7  12  1   
 16   8  13  ar  
 17   8  32  1   
 18   9  14  1   
 19   9  33  1   
 20   9  34  1   
 21  10  14  1   
 22  10  35  1   
 23  10  36  1   
 24  11  15  ar  
 25  12  37  1   
 26  12  38  1   
 27  12  39  1   
 28  13  15  ar  
 29  14  16  1   
 30  14  17  1   
 31  15  18  1   
 32  16  19  1   
 33  17  20  ar  
 34  17  21  ar  
 35  18  40  1   
 36  18  41  1   
 37  19  22  1   
 38  19  42  1   
 39  19  43  1   
 40  20  23  1   
 41  20  24  ar  
 42  21  22  1   
 43  21  25  ar  
 44  22  44  1   
 45  22  45  1   
 46  23  26  1   
 47  24  27  ar  
 48  24  46  1   
 49  25  27  ar  
 50  25  47  1   
 51  26  48  1   
 52  26  49  1   
 53  26  50  1   
 54  27  51  1   
@<TRIPOS>SUBSTRUCTURE
  1 ****  10 GROUP 4 **** **** 0

# MOE 2024.06 (io_trps.svl 2023.06)
