@<TRIPOS>MOLECULE
NONAME
49 52 1 0 0 
SMALL
USER_CHARGES


@<TRIPOS>ATOM
  1 F       -3.1200     1.8640    -2.3610 F     1 <1>  -0.3400 
  2 C       -2.7350     2.5090    -1.2720 C.3   1 <1>   0.8800 
  3 F       -2.6930     1.5930    -0.3110 F     1 <1>  -0.3400 
  4 O       -3.7660     3.4140    -0.9400 O.3   1 <1>  -0.3630 
  5 C       -3.4860     4.2930     0.0440 C.ar  1 <1>   0.0820 
  6 C       -4.0270     4.1070     1.3130 C.ar  1 <1>  -0.1440 
  7 C       -2.6860     5.3910    -0.2300 C.ar  1 <1>  -0.1500 
  8 C       -3.7460     5.0320     2.3080 C.ar  1 <1>  -0.1500 
  9 C       -4.9090     2.9080     1.6120 C.3   1 <1>   0.4870 
 10 C       -2.4110     6.3050     0.7700 C.ar  1 <1>  -0.1500 
 11 C       -2.9410     6.1250     2.0360 C.ar  1 <1>  -0.1500 
 12 N       -6.0840     2.9630     0.7090 N.4   1 <1>  -0.9590 
 13 C       -7.0100     4.0870     1.0760 C.3   1 <1>   0.3430 
 14 C       -6.7900     1.6580     0.6180 C.3   1 <1>   0.3430 
 15 C       -8.1410     4.2490     0.0460 C.3   1 <1>   0.1430 
 16 C       -7.8880     1.7490    -0.4460 C.3   1 <1>  -0.1600 
 17 C       -9.1090     5.2890     0.5580 C.ar  1 <1>   0.1670 
 18 C       -8.8690     2.9050    -0.1710 C.3   1 <1>  -0.1600 
 19 C       -7.6490     4.8720    -1.2890 C.3   1 <1>  -0.1600 
 20 N       -9.6000     5.3120     1.7720 N.ar  1 <1>  -0.6200 
 21 C       -9.4070     6.2180    -0.3940 C.ar  1 <1>  -0.1430 
 22 C       -8.6860     5.9410    -1.6890 C.3   1 <1>  -0.0170 
 23 C      -10.4220     6.3300     1.9940 C.ar  1 <1>   0.7200 
 24 C      -10.2780     7.2230    -0.0490 C.ar  1 <1>   0.1600 
 25 N      -10.7980     7.2860     1.1570 N.ar  1 <1>  -0.6200 
 26 N      -10.9550     6.3920     3.2150 N.pl3 1 <1>  -0.9000 
 27 H       -1.7710     2.9660    -1.4160 H     1 <1>   0.0800 
 28 H       -2.2820     5.5430    -1.2170 H     1 <1>   0.1500 
 29 H       -4.1430     4.9170     3.3030 H     1 <1>   0.1500 
 30 H       -5.2250     2.9180     2.6430 H     1 <1>   0.0800 
 31 H       -4.3470     2.0060     1.4330 H     1 <1>   0.0800 
 32 H       -1.7880     7.1600     0.5660 H     1 <1>   0.1500 
 33 H       -2.7240     6.8410     2.8120 H     1 <1>   0.1500 
 34 H       -5.6850     3.1760    -0.2180 H     1 <1>   0.4500 
 35 H       -6.4650     5.0140     1.1460 H     1 <1>   0.0800 
 36 H       -7.4530     3.8910     2.0390 H     1 <1>   0.0800 
 37 H       -7.2320     1.4140     1.5710 H     1 <1>   0.0800 
 38 H       -6.0960     0.8770     0.3520 H     1 <1>   0.0800 
 39 H       -8.4340     0.8210    -0.4610 H     1 <1>   0.0800 
 40 H       -7.4340     1.8630    -1.4150 H     1 <1>   0.0800 
 41 H       -9.5740     2.9930    -0.9810 H     1 <1>   0.0800 
 42 H       -9.4350     2.6710     0.7150 H     1 <1>   0.0800 
 43 H       -7.5220     4.1460    -2.0720 H     1 <1>   0.0800 
 44 H       -6.7060     5.3690    -1.1320 H     1 <1>   0.0800 
 45 H       -9.3810     5.5480    -2.4120 H     1 <1>   0.0800 
 46 H       -8.2150     6.8260    -2.0810 H     1 <1>   0.0800 
 47 H      -10.5490     7.9820    -0.7630 H     1 <1>   0.1500 
 48 H      -11.7590     7.0090     3.2960 H     1 <1>   0.4000 
 49 H      -11.0030     5.5180     3.7280 H     1 <1>   0.4000 
@<TRIPOS>BOND
  1   1   2  1   
  2   2   3  1   
  3   2   4  1   
  4   2  27  1   
  5   4   5  1   
  6   5   6  ar  
  7   5   7  ar  
  8   6   8  ar  
  9   6   9  1   
 10   7  10  ar  
 11   7  28  1   
 12   8  11  ar  
 13   8  29  1   
 14   9  12  1   
 15   9  30  1   
 16   9  31  1   
 17  10  11  ar  
 18  10  32  1   
 19  11  33  1   
 20  12  13  1   
 21  12  14  1   
 22  12  34  1   
 23  13  15  1   
 24  13  35  1   
 25  13  36  1   
 26  14  16  1   
 27  14  37  1   
 28  14  38  1   
 29  15  17  1   
 30  15  18  1   
 31  15  19  1   
 32  16  18  1   
 33  16  39  1   
 34  16  40  1   
 35  17  20  ar  
 36  17  21  ar  
 37  18  41  1   
 38  18  42  1   
 39  19  22  1   
 40  19  43  1   
 41  19  44  1   
 42  20  23  ar  
 43  21  22  1   
 44  21  24  ar  
 45  22  45  1   
 46  22  46  1   
 47  23  25  ar  
 48  23  26  1   
 49  24  25  ar  
 50  24  47  1   
 51  26  48  1   
 52  26  49  1   
@<TRIPOS>SUBSTRUCTURE
  1 ****  13 GROUP 4 **** **** 0

# MOE 2024.06 (io_trps.svl 2023.06)
