@<TRIPOS>MOLECULE
NONAME
42 43 1 0 0 
SMALL
USER_CHARGES


@<TRIPOS>ATOM
  1 O       -1.4460     0.9730    -1.5120 O.2   1 <1>  -0.5700 
  2 C       -1.0110     0.5990    -0.4260 C.2   1 <1>   0.5690 
  3 N       -1.2080    -0.6760     0.0010 N.am  1 <1>  -0.7300 
  4 C       -0.2410     1.5730     0.4860 C.3   1 <1>   0.2010 
  5 C       -1.9490    -1.7110    -0.7540 C.3   1 <1>   0.2200 
  6 N       -0.2490     2.9530    -0.0020 N.am  1 <1>  -0.7300 
  7 C       -3.3380    -1.8600    -0.1540 C.3   1 <1>  -0.0800 
  8 C       -1.3430    -3.0790    -0.4700 C.3   1 <1>   0.1200 
  9 C        0.1840     4.0100     0.7220 C.2   1 <1>   0.5690 
 10 C       -3.1040    -2.8540     0.9920 C.3   1 <1>   0.1200 
 11 C       -4.3460    -2.3880    -1.1920 C.3   1 <1>  -0.0170 
 12 O       -1.8690    -3.4710     0.7600 O.3   1 <1>  -0.5600 
 13 O        0.6290     3.8750     1.8350 O.2   1 <1>  -0.5700 
 14 C        0.1020     5.3950     0.1090 C.3   1 <1>  -0.0990 
 15 C       -5.7420    -2.5030    -0.5980 C.ar  1 <1>  -0.1440 
 16 C       -1.3430     5.8990    -0.0320 C.3   1 <1>  -0.2400 
 17 C       -6.5180    -1.3870    -0.3540 C.ar  1 <1>  -0.1500 
 18 C       -6.3070    -3.7200    -0.2750 C.ar  1 <1>  -0.1500 
 19 C       -7.7820    -1.5380     0.1920 C.ar  1 <1>   0.1600 
 20 C       -7.5810    -3.7610     0.2680 C.ar  1 <1>   0.1600 
 21 N       -8.3310    -2.6980     0.5110 N.ar  1 <1>  -0.6200 
 22 H       -0.8830    -0.9900     0.9200 H     1 <1>   0.3700 
 23 H        0.7880     1.2250     0.5720 H     1 <1>   0.0800 
 24 H       -0.6910     1.5410     1.4790 H     1 <1>   0.0800 
 25 H       -1.9590    -1.4760    -1.8060 H     1 <1>   0.0800 
 26 H       -0.6460     3.0960    -0.9200 H     1 <1>   0.3700 
 27 H       -3.6990    -0.9190     0.2230 H     1 <1>   0.0800 
 28 H       -0.2690    -3.0570    -0.4170 H     1 <1>   0.0800 
 29 H       -1.6580    -3.7970    -1.2060 H     1 <1>   0.0800 
 30 H       -3.8630    -3.6140     1.0500 H     1 <1>   0.0800 
 31 H       -3.0400    -2.3420     1.9360 H     1 <1>   0.0800 
 32 H       -4.0320    -3.3480    -1.5650 H     1 <1>   0.0800 
 33 H       -4.3850    -1.7110    -2.0280 H     1 <1>   0.0800 
 34 H        0.6550     6.0760     0.7320 H     1 <1>   0.0800 
 35 H        0.5770     5.3750    -0.8540 H     1 <1>   0.0800 
 36 H       -1.8190     5.9260     0.9330 H     1 <1>   0.0800 
 37 H       -1.9090     5.2500    -0.6780 H     1 <1>   0.0800 
 38 H       -1.3510     6.8910    -0.4480 H     1 <1>   0.0800 
 39 H       -6.1520    -0.4030    -0.5830 H     1 <1>   0.1500 
 40 H       -5.7720    -4.6380    -0.4370 H     1 <1>   0.1500 
 41 H       -8.3720    -0.6570     0.3760 H     1 <1>   0.1500 
 42 H       -8.0050    -4.7190     0.5150 H     1 <1>   0.1500 
@<TRIPOS>BOND
  1   1   2  2   
  2   2   3  am  
  3   2   4  1   
  4   3   5  1   
  5   3  22  1   
  6   4   6  1   
  7   4  23  1   
  8   4  24  1   
  9   5   7  1   
 10   5   8  1   
 11   5  25  1   
 12   6   9  am  
 13   6  26  1   
 14   7  10  1   
 15   7  11  1   
 16   7  27  1   
 17   8  12  1   
 18   8  28  1   
 19   8  29  1   
 20   9  13  2   
 21   9  14  1   
 22  10  12  1   
 23  10  30  1   
 24  10  31  1   
 25  11  15  1   
 26  11  32  1   
 27  11  33  1   
 28  14  16  1   
 29  14  34  1   
 30  14  35  1   
 31  15  17  ar  
 32  15  18  ar  
 33  16  36  1   
 34  16  37  1   
 35  16  38  1   
 36  17  19  ar  
 37  17  39  1   
 38  18  20  ar  
 39  18  40  1   
 40  19  21  ar  
 41  19  41  1   
 42  20  21  ar  
 43  20  42  1   
@<TRIPOS>SUBSTRUCTURE
  1 ****   7 GROUP 4 **** **** 0

# MOE 2024.06 (io_trps.svl 2023.06)
