@<TRIPOS>MOLECULE
NONAME
41 42 1 0 0 
SMALL
USER_CHARGES


@<TRIPOS>ATOM
  1 O        0.6330    -0.7530     1.1660 O.3   1 <1>  -0.3630 
  2 C        1.5110     0.2180     0.8110 C.ar  1 <1>   0.0830 
  3 C        0.4510    -1.9000     0.3630 C.3   1 <1>   0.1200 
  4 C        1.6010     1.3150     1.6510 C.ar  1 <1>  -0.1500 
  5 C        2.3060     0.1660    -0.3310 C.ar  1 <1>  -0.1500 
  6 C       -0.6040    -2.7880     1.0180 C.3   1 <1>   0.2090 
  7 C        2.4720     2.3510     1.3630 C.ar  1 <1>  -0.1500 
  8 C        3.1760     1.2050    -0.6160 C.ar  1 <1>  -0.1500 
  9 N       -0.8440    -3.9870     0.1760 N.pl3 1 <1>  -0.8690 
 10 C        3.2650     2.3010     0.2270 C.ar  1 <1>  -0.1430 
 11 C       -2.0720    -4.2250    -0.3840 C.ar  1 <1>   0.4100 
 12 C        4.2210     3.4400    -0.0920 C.3   1 <1>  -0.0170 
 13 N       -2.4940    -5.4620    -0.2030 N.ar  1 <1>  -0.6200 
 14 C       -2.8150    -3.2590    -1.0840 C.ar  1 <1>   0.1600 
 15 C        3.5280     4.4960    -0.9610 C.3   1 <1>  -0.1600 
 16 C       -3.6810    -5.6790    -0.7430 C.ar  1 <1>   0.1670 
 17 N       -4.0030    -3.4640    -1.6210 N.ar  1 <1>  -0.6200 
 18 C        4.4710     5.6550    -1.2990 C.3   1 <1>  -0.2400 
 19 C       -4.4110    -4.7100    -1.4270 C.ar  1 <1>   0.1600 
 20 C       -4.2310    -7.0810    -0.5750 C.3   1 <1>  -0.0970 
 21 H        1.3890    -2.4220     0.2970 H     1 <1>   0.0800 
 22 H        0.1220    -1.5830    -0.6100 H     1 <1>   0.0800 
 23 H        0.9860     1.3530     2.5320 H     1 <1>   0.1500 
 24 H        2.2640    -0.6670    -1.0060 H     1 <1>   0.1500 
 25 H       -1.5180    -2.2330     1.1410 H     1 <1>   0.0800 
 26 H       -0.2570    -3.1010     1.9870 H     1 <1>   0.0800 
 27 H        2.5280     3.1970     2.0250 H     1 <1>   0.1500 
 28 H        3.7850     1.1580    -1.5020 H     1 <1>   0.1500 
 29 H       -0.4990    -4.8520     0.6040 H     1 <1>   0.4000 
 30 H        5.0820     3.0530    -0.6070 H     1 <1>   0.0800 
 31 H        4.5630     3.8900     0.8240 H     1 <1>   0.0800 
 32 H       -2.3840    -2.2830    -1.1930 H     1 <1>   0.1500 
 33 H        2.6670     4.8760    -0.4390 H     1 <1>   0.0800 
 34 H        3.1850     4.0370    -1.8720 H     1 <1>   0.0800 
 35 H        4.8070     6.1420    -0.4000 H     1 <1>   0.0800 
 36 H        3.9590     6.3790    -1.9080 H     1 <1>   0.0800 
 37 H        5.3280     5.2970    -1.8420 H     1 <1>   0.0800 
 38 H       -5.3710    -4.9710    -1.8340 H     1 <1>   0.1500 
 39 H       -4.3230    -7.3080     0.4710 H     1 <1>   0.0800 
 40 H       -3.5550    -7.7870    -1.0220 H     1 <1>   0.0800 
 41 H       -5.1950    -7.1800    -1.0400 H     1 <1>   0.0800 
@<TRIPOS>BOND
  1   1   2  1   
  2   1   3  1   
  3   2   4  ar  
  4   2   5  ar  
  5   3   6  1   
  6   3  21  1   
  7   3  22  1   
  8   4   7  ar  
  9   4  23  1   
 10   5   8  ar  
 11   5  24  1   
 12   6   9  1   
 13   6  25  1   
 14   6  26  1   
 15   7  10  ar  
 16   7  27  1   
 17   8  10  ar  
 18   8  28  1   
 19   9  11  1   
 20   9  29  1   
 21  10  12  1   
 22  11  13  ar  
 23  11  14  ar  
 24  12  15  1   
 25  12  30  1   
 26  12  31  1   
 27  13  16  ar  
 28  14  17  ar  
 29  14  32  1   
 30  15  18  1   
 31  15  33  1   
 32  15  34  1   
 33  16  19  ar  
 34  16  20  1   
 35  17  19  ar  
 36  18  35  1   
 37  18  36  1   
 38  18  37  1   
 39  19  38  1   
 40  20  39  1   
 41  20  40  1   
 42  20  41  1   
@<TRIPOS>SUBSTRUCTURE
  1 ****   3 GROUP 4 **** **** 0

# MOE 2024.06 (io_trps.svl 2023.06)
