@<TRIPOS>MOLECULE
NONAME
47 51 1 0 0 
SMALL
USER_CHARGES


@<TRIPOS>ATOM
  1 O       -0.5730     0.1270    -0.3730 O.2   1 <1>  -0.5700 
  2 C       -1.5090     0.7920     0.0340 C.2   1 <1>   0.7150 
  3 N       -2.6880     0.1360     0.3270 N.am  1 <1>  -0.6600 
  4 C       -1.3400     2.2190     0.1680 C.2   1 <1>   0.0550 
  5 C       -2.7380    -1.3440     0.5560 C.3   1 <1>   0.1400 
  6 C       -4.0480     0.7500     0.2020 C.3   1 <1>   0.1400 
  7 O       -2.1530     2.9650     0.8840 O.3   1 <1>  -0.0190 
  8 C       -0.4040     3.0610    -0.3250 C.2   1 <1>  -0.1500 
  9 C       -3.6910    -2.0310    -0.4370 C.3   1 <1>   0.3440 
 10 C       -4.9440    -0.0600    -0.7640 C.3   1 <1>   0.2950 
 11 N       -1.8310     4.2220     0.8790 N.2   1 <1>  -0.4100 
 12 C       -0.7690     4.3070     0.1580 C.2   1 <1>   0.2030 
 13 O       -4.9490    -1.4100    -0.4010 O.3   1 <1>  -0.5600 
 14 C       -3.8410    -3.5120    -0.0980 C.ar  1 <1>  -0.1430 
 15 C       -6.4140     0.3930    -0.8090 C.3   1 <1>  -0.1950 
 16 C       -0.0310     5.6040    -0.1230 C.3   1 <1>  -0.0140 
 17 C       -2.9850    -4.4370    -0.6800 C.ar  1 <1>  -0.1500 
 18 C       -4.8070    -3.9570     0.7940 C.ar  1 <1>  -0.1500 
 19 C       -6.8550     1.8090    -0.5840 C.3   1 <1>  -0.2000 
 20 C       -7.2190     0.7370     0.4060 C.3   1 <1>  -0.2000 
 21 C        1.4660     5.6640    -0.0580 C.3   1 <1>  -0.2000 
 22 C        0.6440     6.3320     1.0000 C.3   1 <1>  -0.2000 
 23 C       -3.0920    -5.7830    -0.3750 C.ar  1 <1>  -0.1500 
 24 C       -4.9160    -5.3020     1.1010 C.ar  1 <1>  -0.1500 
 25 C       -4.0580    -6.2170     0.5160 C.ar  1 <1>  -0.1500 
 26 H       -1.7600    -1.7810     0.4640 H     1 <1>   0.0800 
 27 H       -3.0840    -1.5340     1.5570 H     1 <1>   0.0800 
 28 H       -4.5030     0.7890     1.1750 H     1 <1>   0.0800 
 29 H       -3.9760     1.7530    -0.1750 H     1 <1>   0.0800 
 30 H        0.4390     2.8320    -0.9500 H     1 <1>   0.1500 
 31 H       -3.3020    -1.9360    -1.4360 H     1 <1>   0.0800 
 32 H       -4.5380     0.0150    -1.7580 H     1 <1>   0.0800 
 33 H       -6.9380    -0.1410    -1.5830 H     1 <1>   0.1000 
 34 H       -0.5300     6.2030    -0.8650 H     1 <1>   0.1000 
 35 H       -2.2280    -4.1160    -1.3740 H     1 <1>   0.1500 
 36 H       -5.4820    -3.2540     1.2520 H     1 <1>   0.1500 
 37 H       -6.1590     2.5670    -0.2670 H     1 <1>   0.1000 
 38 H       -7.6320     2.2110    -1.2110 H     1 <1>   0.1000 
 39 H       -8.2380     0.3940     0.4520 H     1 <1>   0.1000 
 40 H       -6.7490     0.7360     1.3740 H     1 <1>   0.1000 
 41 H        2.0190     4.7810     0.2120 H     1 <1>   0.1000 
 42 H        1.9890     6.2760    -0.7720 H     1 <1>   0.1000 
 43 H        0.5870     7.4060     1.0200 H     1 <1>   0.1000 
 44 H        0.6030     5.8970     1.9840 H     1 <1>   0.1000 
 45 H       -2.4250    -6.4930    -0.8310 H     1 <1>   0.1500 
 46 H       -5.6690    -5.6360     1.7920 H     1 <1>   0.1500 
 47 H       -4.1420    -7.2630     0.7540 H     1 <1>   0.1500 
@<TRIPOS>BOND
  1   1   2  2   
  2   2   3  am  
  3   2   4  1   
  4   3   5  1   
  5   3   6  1   
  6   4   7  1   
  7   4   8  2   
  8   5   9  1   
  9   5  26  1   
 10   5  27  1   
 11   6  10  1   
 12   6  28  1   
 13   6  29  1   
 14   7  11  1   
 15   8  12  1   
 16   8  30  1   
 17   9  13  1   
 18   9  14  1   
 19   9  31  1   
 20  10  13  1   
 21  10  15  1   
 22  10  32  1   
 23  11  12  2   
 24  12  16  1   
 25  14  17  ar  
 26  14  18  ar  
 27  15  19  1   
 28  15  20  1   
 29  15  33  1   
 30  16  21  1   
 31  16  22  1   
 32  16  34  1   
 33  17  23  ar  
 34  17  35  1   
 35  18  24  ar  
 36  18  36  1   
 37  19  20  1   
 38  19  37  1   
 39  19  38  1   
 40  20  39  1   
 41  20  40  1   
 42  21  22  1   
 43  21  41  1   
 44  21  42  1   
 45  22  43  1   
 46  22  44  1   
 47  23  25  ar  
 48  23  45  1   
 49  24  25  ar  
 50  24  46  1   
 51  25  47  1   
@<TRIPOS>SUBSTRUCTURE
  1 ****   3 GROUP 4 **** **** 0

# MOE 2024.06 (io_trps.svl 2023.06)
