@<TRIPOS>MOLECULE
NONAME
58 61 1 0 0 
SMALL
USER_CHARGES


@<TRIPOS>ATOM
  1 O       -1.4550     0.6200    -2.3380 O.2   1 <1>  -0.5700 
  2 C       -2.0960     1.0990    -1.4350 C.2   1 <1>   0.5690 
  3 N       -1.8110     2.3170    -0.9230 N.am  1 <1>  -0.7300 
  4 C       -3.2590     0.2930    -0.8640 C.3   1 <1>  -0.0190 
  5 C       -0.6970     3.1630    -1.3810 C.3   1 <1>   0.2840 
  6 C       -2.7570    -1.0440    -0.2860 C.3   1 <1>  -0.1600 
  7 C       -4.3290     0.0480    -1.9460 C.3   1 <1>  -0.1600 
  8 C       -0.5480     4.2970    -0.3850 C.ar  1 <1>  -0.1440 
  9 C       -3.9000    -1.9650     0.1320 C.3   1 <1>   0.3430 
 10 C       -5.4240    -0.9060    -1.4770 C.3   1 <1>   0.3430 
 11 C        0.2970     4.1650     0.7070 C.ar  1 <1>  -0.1500 
 12 C       -1.2660     5.4710    -0.5510 C.ar  1 <1>  -0.1500 
 13 N       -4.8060    -2.1900    -1.0350 N.4   1 <1>  -0.9590 
 14 C        0.4250     5.1930     1.6240 C.ar  1 <1>  -0.1500 
 15 C       -1.1400     6.5000     0.3650 C.ar  1 <1>  -0.1500 
 16 C       -5.8740    -3.2070    -0.7560 C.3   1 <1>   0.3430 
 17 C       -0.2970     6.3710     1.4560 C.ar  1 <1>   0.0820 
 18 C       -5.3230    -4.6280    -0.5880 C.3   1 <1>   0.0960 
 19 O       -0.2320     7.4270     2.3060 O.3   1 <1>  -0.3630 
 20 N       -6.4610    -5.5200    -0.3350 N.pl3 1 <1>   0.0480 
 21 C        0.6120     7.4080     3.4360 C.3   1 <1>   0.0400 
 22 C       -7.2270    -5.5380     0.7870 C.ar  1 <1>  -0.1520 
 23 C       -7.1310    -6.2740    -1.2450 C.2   1 <1>   0.0360 
 24 C       -8.3290    -6.3110     0.4670 C.ar  1 <1>   0.2270 
 25 C       -7.0930    -4.9660     2.0570 C.ar  1 <1>  -0.1500 
 26 N       -8.2410    -6.7560    -0.8150 N.2   1 <1>  -0.5650 
 27 C       -9.3320    -6.5230     1.4100 C.ar  1 <1>  -0.1500 
 28 C       -8.0910    -5.1810     2.9830 C.ar  1 <1>  -0.1500 
 29 C       -9.2100    -5.9580     2.6610 C.ar  1 <1>  -0.1500 
 30 H       -2.3350     2.7290    -0.1500 H     1 <1>   0.3700 
 31 H       -3.7070     0.8610    -0.0670 H     1 <1>   0.0800 
 32 H       -0.9140     3.5470    -2.3630 H     1 <1>   0.0800 
 33 H        0.2080     2.5800    -1.4340 H     1 <1>   0.0800 
 34 H       -2.1300    -0.8480     0.5670 H     1 <1>   0.0800 
 35 H       -2.1470    -1.5530    -1.0140 H     1 <1>   0.0800 
 36 H       -3.8690    -0.3570    -2.8320 H     1 <1>   0.0800 
 37 H       -4.7740     0.9880    -2.2240 H     1 <1>   0.0800 
 38 H       -4.4500    -1.5150     0.9440 H     1 <1>   0.0800 
 39 H       -3.4900    -2.9000     0.4760 H     1 <1>   0.0800 
 40 H       -6.1120    -1.0840    -2.2890 H     1 <1>   0.0800 
 41 H       -5.9710    -0.4590    -0.6610 H     1 <1>   0.0800 
 42 H        0.8590     3.2570     0.8470 H     1 <1>   0.1500 
 43 H       -1.9270     5.5910    -1.3930 H     1 <1>   0.1500 
 44 H       -4.2220    -2.5130    -1.8210 H     1 <1>   0.4500 
 45 H        1.0880     5.0610     2.4580 H     1 <1>   0.1500 
 46 H       -1.6940     7.4130     0.2400 H     1 <1>   0.1500 
 47 H       -6.5760    -3.2160    -1.5750 H     1 <1>   0.0800 
 48 H       -6.4120    -2.9290     0.1370 H     1 <1>   0.0800 
 49 H       -4.6530    -4.6930     0.2500 H     1 <1>   0.0800 
 50 H       -4.8210    -4.9520    -1.4810 H     1 <1>   0.0800 
 51 H        0.5010     8.3460     3.9500 H     1 <1>   0.0800 
 52 H        1.6300     7.2880     3.1100 H     1 <1>   0.0800 
 53 H        0.3140     6.6000     4.0810 H     1 <1>   0.0800 
 54 H       -6.7570    -6.4370    -2.2420 H     1 <1>   0.1500 
 55 H       -6.2300    -4.3810     2.3160 H     1 <1>   0.1500 
 56 H      -10.1780    -7.1260     1.1370 H     1 <1>   0.1500 
 57 H       -8.0200    -4.7590     3.9710 H     1 <1>   0.1500 
 58 H       -9.9760    -6.1130     3.4010 H     1 <1>   0.1500 
@<TRIPOS>BOND
  1   1   2  2   
  2   2   3  am  
  3   2   4  1   
  4   3   5  1   
  5   3  30  1   
  6   4   6  1   
  7   4   7  1   
  8   4  31  1   
  9   5   8  1   
 10   5  32  1   
 11   5  33  1   
 12   6   9  1   
 13   6  34  1   
 14   6  35  1   
 15   7  10  1   
 16   7  36  1   
 17   7  37  1   
 18   8  11  ar  
 19   8  12  ar  
 20   9  13  1   
 21   9  38  1   
 22   9  39  1   
 23  10  13  1   
 24  10  40  1   
 25  10  41  1   
 26  11  14  ar  
 27  11  42  1   
 28  12  15  ar  
 29  12  43  1   
 30  13  16  1   
 31  13  44  1   
 32  14  17  ar  
 33  14  45  1   
 34  15  17  ar  
 35  15  46  1   
 36  16  18  1   
 37  16  47  1   
 38  16  48  1   
 39  17  19  1   
 40  18  20  1   
 41  18  49  1   
 42  18  50  1   
 43  19  21  1   
 44  20  22  1   
 45  20  23  1   
 46  21  51  1   
 47  21  52  1   
 48  21  53  1   
 49  22  24  ar  
 50  22  25  ar  
 51  23  26  2   
 52  23  54  1   
 53  24  26  1   
 54  24  27  ar  
 55  25  28  ar  
 56  25  55  1   
 57  27  29  ar  
 58  27  56  1   
 59  28  29  ar  
 60  28  57  1   
 61  29  58  1   
@<TRIPOS>SUBSTRUCTURE
  1 ****   6 GROUP 4 **** **** 0

# MOE 2024.06 (io_trps.svl 2023.06)
