@<TRIPOS>MOLECULE
NONAME
52 57 1 0 0 
SMALL
USER_CHARGES


@<TRIPOS>ATOM
  1 O       -0.9560     0.7770     1.6160 O.2   1 <1>  -0.5700 
  2 C       -1.9280     1.2930     1.0810 C.2   1 <1>   0.7160 
  3 N       -3.1340     0.6130     1.1760 N.am  1 <1>  -0.6600 
  4 C       -1.7600     2.5640     0.3710 C.2   1 <1>   0.2030 
  5 C       -4.2670     0.7850     0.2280 C.3   1 <1>   0.1400 
  6 C       -3.3850    -0.4010     2.2370 C.3   1 <1>   0.1400 
  7 N       -2.6920     3.4600     0.0510 N.2   1 <1>  -0.7070 
  8 C       -0.5160     3.0370    -0.0710 C.2   1 <1>  -0.1810 
  9 C       -4.5710    -0.5580    -0.4380 C.3   1 <1>  -0.1600 
 10 C       -3.6680    -1.7540     1.5860 C.3   1 <1>  -0.1600 
 11 N       -2.0440     4.4640    -0.5710 N.pl3 1 <1>   0.3000 
 12 C       -0.7290     4.2090    -0.6490 C.2   1 <1>  -0.3320 
 13 C        0.9360     2.6490    -0.0840 C.3   1 <1>   0.0210 
 14 C       -4.8300    -1.6650     0.5930 C.3   1 <1>   0.4600 
 15 C        0.5090     4.8730    -1.1800 C.3   1 <1>   0.0200 
 16 C        1.5920     3.8050    -0.8820 C.3   1 <1>  -0.1600 
 17 O       -5.9760    -1.3380     1.3500 O.3   1 <1>  -0.5600 
 18 C       -5.0470    -3.0100    -0.0890 C.2   1 <1>  -0.3320 
 19 C       -7.2400    -1.6150     0.7950 C.3   1 <1>   0.1200 
 20 N       -4.1130    -3.7280    -0.7840 N.pl3 1 <1>   0.0330 
 21 C       -6.2160    -3.6810    -0.0920 C.2   1 <1>  -0.1810 
 22 C       -7.4390    -3.1270     0.5940 C.3   1 <1>   0.0210 
 23 C       -4.7110    -4.8820    -1.2300 C.ar  1 <1>  -0.1520 
 24 C       -6.0380    -4.8830    -0.8080 C.ar  1 <1>   0.0000 
 25 C       -4.1980    -5.9440    -1.9790 C.ar  1 <1>  -0.1500 
 26 C       -6.8680    -5.9600    -1.1340 C.ar  1 <1>  -0.1500 
 27 C       -5.0260    -6.9970    -2.2940 C.ar  1 <1>  -0.1500 
 28 C       -6.3610    -7.0050    -1.8720 C.ar  1 <1>  -0.1500 
 29 H       -4.0310     1.5000    -0.5380 H     1 <1>   0.0800 
 30 H       -5.1290     1.1390     0.7680 H     1 <1>   0.0800 
 31 H       -4.2350    -0.0910     2.8230 H     1 <1>   0.0800 
 32 H       -2.5400    -0.4830     2.8990 H     1 <1>   0.0800 
 33 H       -3.7270    -0.8310    -1.0430 H     1 <1>   0.0800 
 34 H       -5.4120    -0.4610    -1.0970 H     1 <1>   0.0800 
 35 H       -3.9050    -2.4820     2.3400 H     1 <1>   0.0800 
 36 H       -2.7780    -2.0800     1.0820 H     1 <1>   0.0800 
 37 H       -2.5210     5.3030    -0.9220 H     1 <1>   0.2700 
 38 H        1.0730     1.6990    -0.5700 H     1 <1>   0.0800 
 39 H        1.3120     2.6020     0.9230 H     1 <1>   0.0800 
 40 H        0.7060     5.7860    -0.6470 H     1 <1>   0.0800 
 41 H        0.4270     5.0650    -2.2360 H     1 <1>   0.0800 
 42 H        1.9810     3.4220    -1.8090 H     1 <1>   0.0800 
 43 H        2.4010     4.2360    -0.3200 H     1 <1>   0.0800 
 44 H       -7.3220    -1.1000    -0.1450 H     1 <1>   0.0800 
 45 H       -7.9850    -1.2280     1.4670 H     1 <1>   0.0800 
 46 H       -3.1340    -3.4710    -0.9410 H     1 <1>   0.2700 
 47 H       -8.3130    -3.3010    -0.0060 H     1 <1>   0.0800 
 48 H       -7.5710    -3.6090     1.5460 H     1 <1>   0.0800 
 49 H       -3.1720    -5.9320    -2.2990 H     1 <1>   0.1500 
 50 H       -7.8890    -5.9530    -0.8020 H     1 <1>   0.1500 
 51 H       -4.6550    -7.8270    -2.8690 H     1 <1>   0.1500 
 52 H       -6.9870    -7.8410    -2.1310 H     1 <1>   0.1500 
@<TRIPOS>BOND
  1   1   2  2   
  2   2   3  am  
  3   2   4  1   
  4   3   5  1   
  5   3   6  1   
  6   4   7  2   
  7   4   8  1   
  8   5   9  1   
  9   5  29  1   
 10   5  30  1   
 11   6  10  1   
 12   6  31  1   
 13   6  32  1   
 14   7  11  1   
 15   8  12  2   
 16   8  13  1   
 17   9  14  1   
 18   9  33  1   
 19   9  34  1   
 20  10  14  1   
 21  10  35  1   
 22  10  36  1   
 23  11  12  1   
 24  11  37  1   
 25  12  15  1   
 26  13  16  1   
 27  13  38  1   
 28  13  39  1   
 29  14  17  1   
 30  14  18  1   
 31  15  16  1   
 32  15  40  1   
 33  15  41  1   
 34  16  42  1   
 35  16  43  1   
 36  17  19  1   
 37  18  20  1   
 38  18  21  2   
 39  19  22  1   
 40  19  44  1   
 41  19  45  1   
 42  20  23  1   
 43  20  46  1   
 44  21  22  1   
 45  21  24  1   
 46  22  47  1   
 47  22  48  1   
 48  23  24  ar  
 49  23  25  ar  
 50  24  26  ar  
 51  25  27  ar  
 52  25  49  1   
 53  26  28  ar  
 54  26  50  1   
 55  27  28  ar  
 56  27  51  1   
 57  28  52  1   
@<TRIPOS>SUBSTRUCTURE
  1 ****   9 GROUP 4 **** **** 0

# MOE 2024.06 (io_trps.svl 2023.06)
