@<TRIPOS>MOLECULE
NONAME
47 49 1 0 0 
SMALL
USER_CHARGES


@<TRIPOS>ATOM
  1 O       -0.5940     0.3820     0.4610 O.2   1 <1>  -0.5700 
  2 C       -1.5470     1.0100     0.0300 C.2   1 <1>   0.5440 
  3 N       -2.6560     0.2820    -0.3720 N.am  1 <1>  -0.6600 
  4 C       -1.4600     2.4730    -0.0100 C.ar  1 <1>   0.3960 
  5 C       -4.0210     0.8570    -0.5910 C.3   1 <1>   0.1400 
  6 C       -2.5990    -1.1950    -0.6150 C.3   1 <1>   0.1400 
  7 N       -2.0910     3.1880    -0.9590 N.ar  1 <1>  -0.6200 
  8 C       -0.6860     3.1100     0.9680 C.ar  1 <1>   0.1600 
  9 C       -5.1100     0.0000     0.0840 C.3   1 <1>   0.2950 
 10 C       -3.7680    -1.9270     0.0790 C.3   1 <1>   0.2000 
 11 C       -1.8960     4.4890    -0.8520 C.ar  1 <1>   0.1600 
 12 N       -0.5000     4.4160     1.0810 N.ar  1 <1>  -0.6200 
 13 O       -4.9830    -1.3410    -0.2890 O.3   1 <1>  -0.5600 
 14 C       -6.5160     0.4580    -0.3150 C.3   1 <1>  -0.1950 
 15 C       -3.8620    -3.4100    -0.3010 C.3   1 <1>  -0.1600 
 16 C       -1.1260     5.0920     0.1380 C.ar  1 <1>   0.1670 
 17 C       -7.2090     1.5610     0.4220 C.3   1 <1>  -0.2000 
 18 C       -7.7040     0.1470     0.5390 C.3   1 <1>  -0.2000 
 19 C       -2.6530    -4.2320     0.1760 C.3   1 <1>  -0.1600 
 20 C       -0.9600     6.5980     0.1830 C.3   1 <1>  -0.0970 
 21 C       -2.8420    -5.7200    -0.1410 C.3   1 <1>  -0.1600 
 22 C       -1.6380    -6.5410     0.3290 C.3   1 <1>  -0.2400 
 23 H       -4.0850     1.8500    -0.1880 H     1 <1>   0.0800 
 24 H       -4.2130     0.9120    -1.6480 H     1 <1>   0.0800 
 25 H       -2.6480    -1.3760    -1.6740 H     1 <1>   0.0800 
 26 H       -1.6680    -1.5980    -0.2580 H     1 <1>   0.0800 
 27 H       -0.1950     2.4900     1.6980 H     1 <1>   0.1500 
 28 H       -5.0040     0.0590     1.1540 H     1 <1>   0.0800 
 29 H       -3.6640    -1.8410     1.1470 H     1 <1>   0.0800 
 30 H       -2.3710     5.1140    -1.5880 H     1 <1>   0.1500 
 31 H       -6.6600     0.4180    -1.3810 H     1 <1>   0.1000 
 32 H       -4.7520    -3.8140     0.1490 H     1 <1>   0.0800 
 33 H       -3.9580    -3.4960    -1.3690 H     1 <1>   0.0800 
 34 H       -6.7390     2.0070     1.2810 H     1 <1>   0.1000 
 35 H       -7.7990     2.2670    -0.1380 H     1 <1>   0.1000 
 36 H       -8.6230    -0.1300     0.0510 H     1 <1>   0.1000 
 37 H       -7.5490    -0.3910     1.4590 H     1 <1>   0.1000 
 38 H       -1.7570    -3.8840    -0.3080 H     1 <1>   0.0800 
 39 H       -2.5300    -4.1080     1.2380 H     1 <1>   0.0800 
 40 H       -1.4980     7.0750    -0.6150 H     1 <1>   0.0800 
 41 H        0.0820     6.8470     0.0980 H     1 <1>   0.0800 
 42 H       -1.3270     6.9720     1.1220 H     1 <1>   0.0800 
 43 H       -3.7300    -6.0850     0.3470 H     1 <1>   0.0800 
 44 H       -2.9670    -5.8520    -1.2020 H     1 <1>   0.0800 
 45 H       -1.5060    -6.4410     1.3920 H     1 <1>   0.0800 
 46 H       -0.7410    -6.2110    -0.1640 H     1 <1>   0.0800 
 47 H       -1.7900    -7.5810     0.1000 H     1 <1>   0.0800 
@<TRIPOS>BOND
  1   1   2  2   
  2   2   3  am  
  3   2   4  1   
  4   3   5  1   
  5   3   6  1   
  6   4   7  ar  
  7   4   8  ar  
  8   5   9  1   
  9   5  23  1   
 10   5  24  1   
 11   6  10  1   
 12   6  25  1   
 13   6  26  1   
 14   7  11  ar  
 15   8  12  ar  
 16   8  27  1   
 17   9  13  1   
 18   9  14  1   
 19   9  28  1   
 20  10  13  1   
 21  10  15  1   
 22  10  29  1   
 23  11  16  ar  
 24  11  30  1   
 25  12  16  ar  
 26  14  17  1   
 27  14  18  1   
 28  14  31  1   
 29  15  19  1   
 30  15  32  1   
 31  15  33  1   
 32  16  20  1   
 33  17  18  1   
 34  17  34  1   
 35  17  35  1   
 36  18  36  1   
 37  18  37  1   
 38  19  21  1   
 39  19  38  1   
 40  19  39  1   
 41  20  40  1   
 42  20  41  1   
 43  20  42  1   
 44  21  22  1   
 45  21  43  1   
 46  21  44  1   
 47  22  45  1   
 48  22  46  1   
 49  22  47  1   
@<TRIPOS>SUBSTRUCTURE
  1 ****   3 GROUP 4 **** **** 0

# MOE 2024.06 (io_trps.svl 2023.06)
