@<TRIPOS>MOLECULE
NONAME
58 60 1 0 0 
SMALL
USER_CHARGES


@<TRIPOS>ATOM
  1 O       -2.5370     1.7780    -2.1680 O.2   1 <1>  -0.5700 
  2 C       -2.4950     2.2460    -1.0450 C.2   1 <1>   0.5440 
  3 N       -3.3270     1.7210    -0.0710 N.am  1 <1>  -0.6600 
  4 C       -1.5620     3.3220    -0.7550 C.ar  1 <1>   0.0860 
  5 C       -4.5200     0.9040    -0.4610 C.3   1 <1>   0.2200 
  6 C       -2.7770     1.4890     1.3000 C.3   1 <1>   0.0600 
  7 C       -1.8830     4.3610     0.1220 C.ar  1 <1>  -0.1500 
  8 C       -0.3020     3.3600    -1.3520 C.ar  1 <1>  -0.1500 
  9 C       -5.4300     1.6420    -1.4420 C.3   1 <1>  -0.1600 
 10 C       -5.4690     0.6090     0.7020 C.3   1 <1>  -0.1600 
 11 C       -0.9890     5.3770     0.4050 C.ar  1 <1>  -0.1500 
 12 C        0.5980     4.3720    -1.0750 C.ar  1 <1>  -0.1500 
 13 C       -6.7930     0.9480    -1.3340 C.3   1 <1>  -0.0800 
 14 C       -6.8250     0.2930     0.0540 C.3   1 <1>  -0.0800 
 15 C        0.2680     5.3880    -0.1930 C.ar  1 <1>   0.0830 
 16 C       -7.9770     1.9190    -1.3920 C.3   1 <1>  -0.1600 
 17 C       -8.0210     0.9020     0.7960 C.3   1 <1>  -0.1600 
 18 O        1.2100     6.3350     0.0220 O.3   1 <1>  -0.3620 
 19 C       -8.2840     2.2200     0.0730 C.3   1 <1>   0.4230 
 20 C        1.0450     7.4210     0.9060 C.3   1 <1>   0.2000 
 21 N       -9.6540     2.7660     0.3270 N.4   1 <1>  -0.9590 
 22 C        2.0480     8.4940     0.4890 C.3   1 <1>  -0.2400 
 23 C        1.3140     6.9420     2.3340 C.3   1 <1>  -0.2400 
 24 C      -10.7850     1.9140    -0.1710 C.3   1 <1>   0.2630 
 25 C       -9.7750     4.1510    -0.2250 C.3   1 <1>   0.2630 
 26 H       -4.1890    -0.0210    -0.9060 H     1 <1>   0.0800 
 27 H       -3.3550     2.0340     2.0260 H     1 <1>   0.0800 
 28 H       -1.7520     1.8130     1.3640 H     1 <1>   0.0800 
 29 H       -2.8050     0.4390     1.5350 H     1 <1>   0.0800 
 30 H       -2.8540     4.3670     0.5840 H     1 <1>   0.1500 
 31 H       -0.0320     2.5800    -2.0440 H     1 <1>   0.1500 
 32 H       -5.4970     2.6740    -1.1470 H     1 <1>   0.0800 
 33 H       -5.0530     1.5840    -2.4490 H     1 <1>   0.0800 
 34 H       -5.1230    -0.2210     1.2930 H     1 <1>   0.0800 
 35 H       -5.5530     1.4860     1.3190 H     1 <1>   0.0800 
 36 H       -1.2850     6.1490     1.0880 H     1 <1>   0.1500 
 37 H        1.5660     4.3830    -1.5430 H     1 <1>   0.1500 
 38 H       -6.8720     0.1970    -2.1040 H     1 <1>   0.0800 
 39 H       -6.9360    -0.7760    -0.0440 H     1 <1>   0.0800 
 40 H       -8.7960     1.4100    -1.8660 H     1 <1>   0.0800 
 41 H       -7.7370     2.8070    -1.9500 H     1 <1>   0.0800 
 42 H       -7.8140     1.0490     1.8410 H     1 <1>   0.0800 
 43 H       -8.8510     0.2290     0.6900 H     1 <1>   0.0800 
 44 H       -7.5490     2.9290     0.4210 H     1 <1>   0.0800 
 45 H        0.0480     7.8110     0.7980 H     1 <1>   0.0800 
 46 H       -9.7470     2.8300     1.3510 H     1 <1>   0.4500 
 47 H        3.0520     8.1150     0.5540 H     1 <1>   0.0800 
 48 H        1.9610     9.3510     1.1310 H     1 <1>   0.0800 
 49 H        1.8510     8.8040    -0.5220 H     1 <1>   0.0800 
 50 H        2.3110     6.5470     2.4110 H     1 <1>   0.0800 
 51 H        0.6120     6.1810     2.6190 H     1 <1>   0.0800 
 52 H        1.2170     7.7640     3.0200 H     1 <1>   0.0800 
 53 H      -10.7510     1.8310    -1.2450 H     1 <1>   0.0800 
 54 H      -11.7300     2.3530     0.1060 H     1 <1>   0.0800 
 55 H      -10.7340     0.9260     0.2540 H     1 <1>   0.0800 
 56 H       -9.6860     4.1350    -1.2990 H     1 <1>   0.0800 
 57 H       -8.9990     4.7830     0.1760 H     1 <1>   0.0800 
 58 H      -10.7310     4.5760     0.0350 H     1 <1>   0.0800 
@<TRIPOS>BOND
  1   1   2  2   
  2   2   3  am  
  3   2   4  1   
  4   3   5  1   
  5   3   6  1   
  6   4   7  ar  
  7   4   8  ar  
  8   5   9  1   
  9   5  10  1   
 10   5  26  1   
 11   6  27  1   
 12   6  28  1   
 13   6  29  1   
 14   7  11  ar  
 15   7  30  1   
 16   8  12  ar  
 17   8  31  1   
 18   9  13  1   
 19   9  32  1   
 20   9  33  1   
 21  10  14  1   
 22  10  34  1   
 23  10  35  1   
 24  11  15  ar  
 25  11  36  1   
 26  12  15  ar  
 27  12  37  1   
 28  13  14  1   
 29  13  16  1   
 30  13  38  1   
 31  14  17  1   
 32  14  39  1   
 33  15  18  1   
 34  16  19  1   
 35  16  40  1   
 36  16  41  1   
 37  17  19  1   
 38  17  42  1   
 39  17  43  1   
 40  18  20  1   
 41  19  21  1   
 42  19  44  1   
 43  20  22  1   
 44  20  23  1   
 45  20  45  1   
 46  21  24  1   
 47  21  25  1   
 48  21  46  1   
 49  22  47  1   
 50  22  48  1   
 51  22  49  1   
 52  23  50  1   
 53  23  51  1   
 54  23  52  1   
 55  24  53  1   
 56  24  54  1   
 57  24  55  1   
 58  25  56  1   
 59  25  57  1   
 60  25  58  1   
@<TRIPOS>SUBSTRUCTURE
  1 ****   3 GROUP 4 **** **** 0

# MOE 2024.06 (io_trps.svl 2023.06)
