@<TRIPOS>MOLECULE
NONAME
48 50 1 0 0 
SMALL
USER_CHARGES


@<TRIPOS>ATOM
  1 O        1.6780     0.5770     0.3190 O.2   1 <1>  -0.5700 
  2 C        2.4290    -0.3070     0.6870 C.2   1 <1>   0.5440 
  3 N        3.1650    -0.1270     1.8410 N.am  1 <1>  -0.6600 
  4 C        2.5120    -1.5190    -0.1010 C.ar  1 <1>   0.0860 
  5 C        4.2220    -1.0890     2.2970 C.3   1 <1>   0.1400 
  6 C        2.9560     1.0770     2.6960 C.3   1 <1>   0.1400 
  7 C        1.5180    -2.4800    -0.0680 C.ar  1 <1>  -0.1500 
  8 C        3.5790    -1.8060    -0.9410 C.ar  1 <1>  -0.1500 
  9 C        5.5430    -0.4100     2.7060 C.3   1 <1>   0.1400 
 10 C        3.8270     2.2460     2.2160 C.3   1 <1>  -0.1600 
 11 C        1.6300    -3.6340    -0.8220 C.ar  1 <1>   0.3920 
 12 C        3.6050    -2.9860    -1.6560 C.ar  1 <1>   0.1600 
 13 N        5.8380     0.8000     1.8850 N.am  1 <1>  -0.6600 
 14 C        5.3330     2.0790     2.4540 C.3   1 <1>   0.1400 
 15 O        0.6200    -4.5240    -0.7300 O.3   1 <1>  -0.3630 
 16 N        2.6600    -3.9100    -1.6160 N.ar  1 <1>  -0.6200 
 17 C        6.3050     0.6850     0.5940 C.2   1 <1>   0.7160 
 18 C        0.6390    -5.7250    -1.4770 C.3   1 <1>   0.0400 
 19 O        6.5390    -0.4210     0.1440 O.2   1 <1>  -0.5700 
 20 C        6.5290     1.8480    -0.2210 C.2   1 <1>  -0.0860 
 21 C        5.7530     2.4860    -1.1210 C.2   1 <1>  -0.0400 
 22 C        7.6720     2.6270    -0.2480 C.2   1 <1>   0.1080 
 23 O        6.3470     3.5410    -1.6270 O.3   1 <1>  -0.0190 
 24 C        4.3510     2.1560    -1.5960 C.3   1 <1>  -0.0600 
 25 N        7.5330     3.6020    -1.0640 N.2   1 <1>  -0.4100 
 26 C        8.9220     2.3710     0.5660 C.3   1 <1>  -0.0590 
 27 H        4.4510    -1.7890     1.5160 H     1 <1>   0.0800 
 28 H        3.8460    -1.6580     3.1280 H     1 <1>   0.0800 
 29 H        3.1710     0.8420     3.7240 H     1 <1>   0.0800 
 30 H        1.9200     1.3680     2.6420 H     1 <1>   0.0800 
 31 H        0.6470    -2.3340     0.5430 H     1 <1>   0.1500 
 32 H        4.3910    -1.1090    -1.0330 H     1 <1>   0.1500 
 33 H        6.3470    -1.1190     2.6040 H     1 <1>   0.0800 
 34 H        5.4930    -0.1370     3.7450 H     1 <1>   0.0800 
 35 H        3.5100     3.1320     2.7360 H     1 <1>   0.0800 
 36 H        3.6390     2.4200     1.1730 H     1 <1>   0.0800 
 37 H        4.4500    -3.1820    -2.2950 H     1 <1>   0.1500 
 38 H        5.5350     2.0970     3.5110 H     1 <1>   0.0800 
 39 H        5.8550     2.9130     2.0170 H     1 <1>   0.0800 
 40 H       -0.2560    -6.2760    -1.2550 H     1 <1>   0.0800 
 41 H        1.5060    -6.2970    -1.1950 H     1 <1>   0.0800 
 42 H        0.6750    -5.4820    -2.5240 H     1 <1>   0.0800 
 43 H        3.9780     1.2840    -1.0950 H     1 <1>   0.0800 
 44 H        4.3590     1.9720    -2.6550 H     1 <1>   0.0800 
 45 H        3.6910     2.9790    -1.3910 H     1 <1>   0.0800 
 46 H        9.3070     1.3930     0.3430 H     1 <1>   0.0800 
 47 H        8.6960     2.4320     1.6150 H     1 <1>   0.0800 
 48 H        9.6730     3.1020     0.3270 H     1 <1>   0.0800 
@<TRIPOS>BOND
  1   1   2  2   
  2   2   3  am  
  3   2   4  1   
  4   3   5  1   
  5   3   6  1   
  6   4   7  ar  
  7   4   8  ar  
  8   5   9  1   
  9   5  27  1   
 10   5  28  1   
 11   6  10  1   
 12   6  29  1   
 13   6  30  1   
 14   7  11  ar  
 15   7  31  1   
 16   8  12  ar  
 17   8  32  1   
 18   9  13  1   
 19   9  33  1   
 20   9  34  1   
 21  10  14  1   
 22  10  35  1   
 23  10  36  1   
 24  11  15  1   
 25  11  16  ar  
 26  12  16  ar  
 27  12  37  1   
 28  13  14  1   
 29  13  17  am  
 30  14  38  1   
 31  14  39  1   
 32  15  18  1   
 33  17  19  2   
 34  17  20  1   
 35  18  40  1   
 36  18  41  1   
 37  18  42  1   
 38  20  21  2   
 39  20  22  1   
 40  21  23  1   
 41  21  24  1   
 42  22  25  2   
 43  22  26  1   
 44  23  25  1   
 45  24  43  1   
 46  24  44  1   
 47  24  45  1   
 48  26  46  1   
 49  26  47  1   
 50  26  48  1   
@<TRIPOS>SUBSTRUCTURE
  1 ****   2 GROUP 4 **** **** 0

# MOE 2024.06 (io_trps.svl 2023.06)
