@<TRIPOS>MOLECULE
NONAME
58 61 1 0 0 
SMALL
USER_CHARGES


@<TRIPOS>ATOM
  1 O       -2.1650    -1.2700     1.0380 O.3   1 <1>  -0.5600 
  2 C       -2.9190    -2.2240     0.3460 C.3   1 <1>   0.1200 
  3 C       -0.7960    -1.5430     1.0740 C.3   1 <1>   0.1200 
  4 C       -2.7750    -3.6070     1.0040 C.3   1 <1>   0.2090 
  5 C       -0.5310    -2.8870     1.7800 C.3   1 <1>   0.2090 
  6 N       -1.3220    -3.9990     1.1430 N.pl3 1 <1>  -0.8380 
  7 C       -0.8590    -5.1970     0.6950 C.ar  1 <1>   0.7710 
  8 N       -1.6520    -5.9710    -0.0280 N.ar  1 <1>  -0.6200 
  9 N        0.3950    -5.5730     1.0010 N.ar  1 <1>  -0.1790 
 10 C       -1.1970    -7.1360    -0.4490 C.ar  1 <1>   0.4100 
 11 C        0.9230    -6.7420     0.5700 C.ar  1 <1>   0.2180 
 12 N       -2.0450    -7.9310    -1.1550 N.pl3 1 <1>  -0.8380 
 13 C        0.1230    -7.5410    -0.1740 C.ar  1 <1>  -0.1500 
 14 C        2.3610    -7.0880     0.9340 C.3   1 <1>  -0.0170 
 15 C       -2.0650    -9.4190    -1.0580 C.3   1 <1>   0.2090 
 16 C       -3.2070    -7.3760    -1.9140 C.3   1 <1>   0.2090 
 17 C        3.3650    -6.0950     0.3330 C.3   1 <1>  -0.2400 
 18 C       -3.3570    -9.8670    -0.3730 C.3   1 <1>  -0.1600 
 19 C       -4.5040    -7.7850    -1.2200 C.3   1 <1>  -0.1600 
 20 C       -4.5880    -9.3050    -1.0930 C.3   1 <1>   0.2000 
 21 O       -5.7240    -9.5890    -0.3450 O.3   1 <1>  -0.5600 
 22 C       -6.3030   -10.8450    -0.5860 C.3   1 <1>   0.2630 
 23 C       -7.5300   -11.0990     0.2870 C.ar  1 <1>   0.1670 
 24 N       -8.1530   -12.2500     0.0620 N.ar  1 <1>  -0.6200 
 25 C       -7.9440   -10.1790     1.2440 C.ar  1 <1>  -0.1500 
 26 C       -9.2190   -12.4890     0.8090 C.ar  1 <1>   0.1600 
 27 C       -9.0560   -10.4420     2.0150 C.ar  1 <1>  -0.1500 
 28 C       -9.7050   -11.6340     1.7830 C.ar  1 <1>  -0.1500 
 29 H       -2.5890    -2.2540    -0.6780 H     1 <1>   0.0800 
 30 H       -3.9470    -1.9090     0.3680 H     1 <1>   0.0800 
 31 H       -0.3200    -0.7400     1.6090 H     1 <1>   0.0800 
 32 H       -0.4210    -1.5560     0.0650 H     1 <1>   0.0800 
 33 H       -3.3340    -4.3190     0.4230 H     1 <1>   0.0800 
 34 H       -3.2260    -3.5710     1.9810 H     1 <1>   0.0800 
 35 H       -0.8220    -2.7910     2.8140 H     1 <1>   0.0800 
 36 H        0.5240    -3.0810     1.7470 H     1 <1>   0.0800 
 37 H        0.9170    -4.9370     1.5850 H     1 <1>   0.4570 
 38 H        0.4730    -8.4730    -0.5730 H     1 <1>   0.1500 
 39 H        2.5930    -8.0750     0.5690 H     1 <1>   0.0800 
 40 H        2.4700    -7.1120     2.0050 H     1 <1>   0.0800 
 41 H       -1.2300    -9.7830    -0.4870 H     1 <1>   0.0800 
 42 H       -2.0060    -9.8400    -2.0480 H     1 <1>   0.0800 
 43 H       -3.1900    -7.7640    -2.9180 H     1 <1>   0.0800 
 44 H       -3.1500    -6.3020    -1.9790 H     1 <1>   0.0800 
 45 H        3.2690    -6.0640    -0.7390 H     1 <1>   0.0800 
 46 H        4.3690    -6.4080     0.5670 H     1 <1>   0.0800 
 47 H        3.2260    -5.1040     0.7240 H     1 <1>   0.0800 
 48 H       -3.3480    -9.5170     0.6440 H     1 <1>   0.0800 
 49 H       -3.3900   -10.9400    -0.3660 H     1 <1>   0.0800 
 50 H       -5.3410    -7.4240    -1.7890 H     1 <1>   0.0800 
 51 H       -4.5310    -7.3330    -0.2440 H     1 <1>   0.0800 
 52 H       -4.6880    -9.7380    -2.0750 H     1 <1>   0.0800 
 53 H       -5.5740   -11.6090    -0.3870 H     1 <1>   0.0800 
 54 H       -6.5960   -10.8930    -1.6190 H     1 <1>   0.0800 
 55 H       -7.4030    -9.2620     1.3870 H     1 <1>   0.1500 
 56 H       -9.7340   -13.4180     0.6370 H     1 <1>   0.1500 
 57 H       -9.3980    -9.7470     2.7620 H     1 <1>   0.1500 
 58 H      -10.5790   -11.9010     2.3490 H     1 <1>   0.1500 
@<TRIPOS>BOND
  1   1   2  1   
  2   1   3  1   
  3   2   4  1   
  4   2  29  1   
  5   2  30  1   
  6   3   5  1   
  7   3  31  1   
  8   3  32  1   
  9   4   6  1   
 10   4  33  1   
 11   4  34  1   
 12   5   6  1   
 13   5  35  1   
 14   5  36  1   
 15   6   7  1   
 16   7   8  ar  
 17   7   9  ar  
 18   8  10  ar  
 19   9  11  ar  
 20   9  37  1   
 21  10  12  1   
 22  10  13  ar  
 23  11  13  ar  
 24  11  14  1   
 25  12  15  1   
 26  12  16  1   
 27  13  38  1   
 28  14  17  1   
 29  14  39  1   
 30  14  40  1   
 31  15  18  1   
 32  15  41  1   
 33  15  42  1   
 34  16  19  1   
 35  16  43  1   
 36  16  44  1   
 37  17  45  1   
 38  17  46  1   
 39  17  47  1   
 40  18  20  1   
 41  18  48  1   
 42  18  49  1   
 43  19  20  1   
 44  19  50  1   
 45  19  51  1   
 46  20  21  1   
 47  20  52  1   
 48  21  22  1   
 49  22  23  1   
 50  22  53  1   
 51  22  54  1   
 52  23  24  ar  
 53  23  25  ar  
 54  24  26  ar  
 55  25  27  ar  
 56  25  55  1   
 57  26  28  ar  
 58  26  56  1   
 59  27  28  ar  
 60  27  57  1   
 61  28  58  1   
@<TRIPOS>SUBSTRUCTURE
  1 ****  12 GROUP 4 **** **** 0

# MOE 2024.06 (io_trps.svl 2023.06)
