@<TRIPOS>MOLECULE
NONAME
41 44 1 0 0 
SMALL
USER_CHARGES


@<TRIPOS>ATOM
  1 S       -0.3350     0.2530    -2.0490 S.3   1 <1>  -0.0800 
  2 C       -1.2560     1.1580    -0.8580 C.2   1 <1>  -0.1400 
  3 C       -1.6930    -0.8330    -2.3200 C.2   1 <1>  -0.1100 
  4 C       -2.4870     0.6470    -0.7240 C.2   1 <1>  -0.1810 
  5 C       -0.6850     2.3570    -0.1060 C.3   1 <1>   0.4600 
  6 C       -2.7440    -0.4930    -1.5490 C.2   1 <1>  -0.1500 
  7 C       -3.4590     1.2860     0.2430 C.3   1 <1>   0.0210 
  8 O       -1.6150     2.7400     0.8920 O.3   1 <1>  -0.5600 
  9 C       -0.4350     3.5430    -1.0460 C.3   1 <1>  -0.1600 
 10 C        0.6050     1.9800     0.6270 C.3   1 <1>  -0.1600 
 11 C       -2.9840     2.7160     0.5650 C.3   1 <1>   0.1200 
 12 C        0.1700     4.7320    -0.3030 C.3   1 <1>   0.2090 
 13 C        1.1990     3.1810     1.3610 C.3   1 <1>   0.2090 
 14 N        1.4120     4.2910     0.3910 N.pl3 1 <1>  -0.8380 
 15 C        2.5920     5.0100     0.3320 C.ar  1 <1>   0.7200 
 16 N        2.5320     6.2320    -0.1840 N.ar  1 <1>  -0.6200 
 17 N        3.6870     4.4110     0.7990 N.ar  1 <1>  -0.6200 
 18 C        3.6560     6.8980    -0.2370 C.ar  1 <1>   0.3930 
 19 C        4.8000     5.0990     0.7350 C.ar  1 <1>   0.1600 
 20 O        3.5630     8.1340    -0.7670 O.3   1 <1>  -0.3630 
 21 C        4.8450     6.3660     0.2200 C.ar  1 <1>  -0.1500 
 22 C        4.6670     9.0020    -0.8930 C.3   1 <1>   0.0400 
 23 H       -1.5570    -1.6230    -3.0380 H     1 <1>   0.1500 
 24 H       -3.6930    -0.9980    -1.5260 H     1 <1>   0.1500 
 25 H       -3.5080     0.7040     1.1460 H     1 <1>   0.0800 
 26 H       -4.4420     1.3260    -0.1920 H     1 <1>   0.0800 
 27 H       -1.3460     3.8340    -1.5320 H     1 <1>   0.0800 
 28 H        0.2530     3.2440    -1.8150 H     1 <1>   0.0800 
 29 H        1.3340     1.6220    -0.0760 H     1 <1>   0.0800 
 30 H        0.4010     1.1880     1.3220 H     1 <1>   0.0800 
 31 H       -3.5280     3.1060     1.4080 H     1 <1>   0.0800 
 32 H       -3.1460     3.3640    -0.2780 H     1 <1>   0.0800 
 33 H       -0.5260     5.1100     0.4260 H     1 <1>   0.0800 
 34 H        0.3730     5.5160    -1.0120 H     1 <1>   0.0800 
 35 H        2.1170     2.8870     1.8380 H     1 <1>   0.0800 
 36 H        0.5210     3.5130     2.1290 H     1 <1>   0.0800 
 37 H        5.6970     4.6340     1.1060 H     1 <1>   0.1500 
 38 H        5.7710     6.9010     0.1810 H     1 <1>   0.1500 
 39 H        4.3200     9.9170    -1.3390 H     1 <1>   0.0800 
 40 H        5.4030     8.5430    -1.5300 H     1 <1>   0.0800 
 41 H        5.0690     9.2010     0.0840 H     1 <1>   0.0800 
@<TRIPOS>BOND
  1   1   2  1   
  2   1   3  1   
  3   2   4  2   
  4   2   5  1   
  5   3   6  2   
  6   3  23  1   
  7   4   6  1   
  8   4   7  1   
  9   5   8  1   
 10   5   9  1   
 11   5  10  1   
 12   6  24  1   
 13   7  11  1   
 14   7  25  1   
 15   7  26  1   
 16   8  11  1   
 17   9  12  1   
 18   9  27  1   
 19   9  28  1   
 20  10  13  1   
 21  10  29  1   
 22  10  30  1   
 23  11  31  1   
 24  11  32  1   
 25  12  14  1   
 26  12  33  1   
 27  12  34  1   
 28  13  14  1   
 29  13  35  1   
 30  13  36  1   
 31  14  15  1   
 32  15  16  ar  
 33  15  17  ar  
 34  16  18  ar  
 35  17  19  ar  
 36  18  20  1   
 37  18  21  ar  
 38  19  21  ar  
 39  19  37  1   
 40  20  22  1   
 41  21  38  1   
 42  22  39  1   
 43  22  40  1   
 44  22  41  1   
@<TRIPOS>SUBSTRUCTURE
  1 ****  14 GROUP 4 **** **** 0

# MOE 2024.06 (io_trps.svl 2023.06)
