@<TRIPOS>MOLECULE
NONAME
52 54 1 0 0 
SMALL
USER_CHARGES


@<TRIPOS>ATOM
  1 O       -2.3580     0.6250     3.1970 O.2   1 <1>  -0.5700 
  2 C       -2.5100     1.2310     2.1620 C.2   1 <1>   0.5690 
  3 N       -2.8370     0.5820     1.0010 N.am  1 <1>  -0.6600 
  4 C       -2.3370     2.7440     2.1910 C.3   1 <1>   0.0440 
  5 C       -2.8720     1.1670    -0.3650 C.3   1 <1>   0.1400 
  6 C       -3.0560    -0.8780     0.9290 C.3   1 <1>   0.1400 
  7 C       -1.1920     3.2400     1.3120 C.ar  1 <1>  -0.1440 
  8 C       -3.2300     0.0090    -1.3050 C.3   1 <1>   0.2000 
  9 C       -2.7870    -1.2390    -0.5340 C.3   1 <1>  -0.0800 
 10 C       -1.4040     4.2440     0.3790 C.ar  1 <1>  -0.1500 
 11 C        0.0710     2.6800     1.4330 C.ar  1 <1>  -0.1500 
 12 O       -4.6170    -0.0430    -1.4920 O.3   1 <1>  -0.5600 
 13 C       -3.4680    -2.5450    -0.9810 C.3   1 <1>   0.0200 
 14 C       -0.3660     4.6730    -0.4300 C.ar  1 <1>  -0.1500 
 15 C        1.1110     3.1080     0.6260 C.ar  1 <1>  -0.1500 
 16 C       -5.1080     0.7640    -2.5150 C.3   1 <1>   0.0400 
 17 C       -2.8790    -3.7820    -0.3220 C.2   1 <1>  -0.0400 
 18 C        0.8940     4.1090    -0.3170 C.ar  1 <1>   0.0830 
 19 O       -3.4280    -4.9430    -0.5610 O.3   1 <1>  -0.0190 
 20 C       -1.8440    -3.9860     0.5110 C.2   1 <1>  -0.1500 
 21 O        1.8510     4.5830    -1.1510 O.3   1 <1>  -0.3630 
 22 N       -2.8220    -5.9090     0.0650 N.2   1 <1>  -0.4100 
 23 C       -1.8630    -5.3610     0.7210 C.2   1 <1>   0.1080 
 24 C        3.1810     4.1280    -1.0740 C.3   1 <1>   0.1200 
 25 C       -0.8930    -6.1170     1.6000 C.3   1 <1>  -0.0590 
 26 C        3.9990     4.8790    -2.1190 C.3   1 <1>  -0.2400 
 27 H       -3.2640     3.1910     1.8880 H     1 <1>   0.0800 
 28 H       -2.1480     3.0490     3.2040 H     1 <1>   0.0800 
 29 H       -3.5860     1.9680    -0.4260 H     1 <1>   0.0800 
 30 H       -1.8910     1.5320    -0.6120 H     1 <1>   0.0800 
 31 H       -2.4010    -1.4010     1.6040 H     1 <1>   0.0800 
 32 H       -4.0800    -1.0870     1.1880 H     1 <1>   0.0800 
 33 H       -2.7430     0.0840    -2.2630 H     1 <1>   0.0800 
 34 H       -1.7240    -1.3390    -0.6590 H     1 <1>   0.0800 
 35 H       -2.3730     4.7000     0.2760 H     1 <1>   0.1500 
 36 H        0.2490     1.9040     2.1590 H     1 <1>   0.1500 
 37 H       -3.3680    -2.6510    -2.0470 H     1 <1>   0.0800 
 38 H       -4.5190    -2.5050    -0.7560 H     1 <1>   0.0800 
 39 H       -0.5250     5.4510    -1.1540 H     1 <1>   0.1500 
 40 H        2.0750     2.6520     0.7450 H     1 <1>   0.1500 
 41 H       -6.1770     0.6480    -2.5460 H     1 <1>   0.0800 
 42 H       -4.6850     0.4470    -3.4530 H     1 <1>   0.0800 
 43 H       -4.8630     1.7920    -2.3160 H     1 <1>   0.0800 
 44 H       -1.1440    -3.2920     0.9370 H     1 <1>   0.1500 
 45 H        3.5530     4.3290    -0.0830 H     1 <1>   0.0800 
 46 H        3.1920     3.0700    -1.2710 H     1 <1>   0.0800 
 47 H       -0.9500    -5.7470     2.6080 H     1 <1>   0.0800 
 48 H        0.1080    -5.9900     1.2310 H     1 <1>   0.0800 
 49 H       -1.1360    -7.1640     1.5990 H     1 <1>   0.0800 
 50 H        3.9680     5.9360    -1.9230 H     1 <1>   0.0800 
 51 H        3.6090     4.6850    -3.1030 H     1 <1>   0.0800 
 52 H        5.0230     4.5530    -2.0850 H     1 <1>   0.0800 
@<TRIPOS>BOND
  1   1   2  2   
  2   2   3  am  
  3   2   4  1   
  4   3   5  1   
  5   3   6  1   
  6   4   7  1   
  7   4  27  1   
  8   4  28  1   
  9   5   8  1   
 10   5  29  1   
 11   5  30  1   
 12   6   9  1   
 13   6  31  1   
 14   6  32  1   
 15   7  10  ar  
 16   7  11  ar  
 17   8   9  1   
 18   8  12  1   
 19   8  33  1   
 20   9  13  1   
 21   9  34  1   
 22  10  14  ar  
 23  10  35  1   
 24  11  15  ar  
 25  11  36  1   
 26  12  16  1   
 27  13  17  1   
 28  13  37  1   
 29  13  38  1   
 30  14  18  ar  
 31  14  39  1   
 32  15  18  ar  
 33  15  40  1   
 34  16  41  1   
 35  16  42  1   
 36  16  43  1   
 37  17  19  1   
 38  17  20  2   
 39  18  21  1   
 40  19  22  1   
 41  20  23  1   
 42  20  44  1   
 43  21  24  1   
 44  22  23  2   
 45  23  25  1   
 46  24  26  1   
 47  24  45  1   
 48  24  46  1   
 49  25  47  1   
 50  25  48  1   
 51  25  49  1   
 52  26  50  1   
 53  26  51  1   
 54  26  52  1   
@<TRIPOS>SUBSTRUCTURE
  1 ****   3 GROUP 4 **** **** 0

# MOE 2024.06 (io_trps.svl 2023.06)
