@<TRIPOS>MOLECULE
NONAME
44 47 1 0 0 
SMALL
USER_CHARGES


@<TRIPOS>ATOM
  1 F       -2.0770    -0.3640    -2.0050 F     1 <1>  -0.3400 
  2 C       -1.8800    -0.9340    -0.8250 C.3   1 <1>   1.2400 
  3 F       -0.8700    -0.3110    -0.2360 F     1 <1>  -0.3400 
  4 O       -1.5700    -2.3100    -0.9990 O.3   1 <1>  -0.3630 
  5 O       -3.0520    -0.8250    -0.0310 O.3   1 <1>  -0.3630 
  6 C       -2.5230    -2.9660    -0.3290 C.ar  1 <1>   0.0820 
  7 C       -3.4010    -2.0870     0.2450 C.ar  1 <1>   0.0820 
  8 C       -2.6700    -4.3310    -0.1880 C.ar  1 <1>  -0.1500 
  9 C       -4.4730    -2.5290     0.9920 C.ar  1 <1>  -0.1500 
 10 C       -3.7500    -4.8010     0.5540 C.ar  1 <1>  -0.1440 
 11 C       -4.6400    -3.9000     1.1430 C.ar  1 <1>  -0.1500 
 12 C       -3.9670    -6.2930     0.7280 C.3   1 <1>   0.4870 
 13 N       -4.4580    -6.8690    -0.5570 N.4   1 <1>  -0.9590 
 14 C       -5.8110    -6.3200    -0.9050 C.3   1 <1>   0.3430 
 15 C       -4.6200    -8.3520    -0.4350 C.3   1 <1>   0.3430 
 16 C       -6.8180    -7.3400    -0.3690 C.3   1 <1>   0.2000 
 17 C       -6.1070    -8.6640    -0.6500 C.3   1 <1>  -0.0800 
 18 O       -6.9440    -7.1480     1.0050 O.3   1 <1>  -0.6800 
 19 C       -6.5880    -9.8860     0.1560 C.3   1 <1>  -0.0160 
 20 C       -5.6950   -11.0820    -0.1310 C.ar  1 <1>  -0.1430 
 21 C       -4.7940   -11.5610     0.8000 C.ar  1 <1>  -0.1500 
 22 C       -5.7350   -11.7480    -1.3400 C.ar  1 <1>  -0.1500 
 23 C       -3.9840   -12.6370     0.4770 C.ar  1 <1>   0.1600 
 24 C       -4.8800   -12.8150    -1.5630 C.ar  1 <1>   0.1600 
 25 N       -3.9990   -13.2650    -0.6860 N.ar  1 <1>  -0.6200 
 26 H       -1.9510    -4.9870    -0.6480 H     1 <1>   0.1500 
 27 H       -5.1500    -1.8230     1.4410 H     1 <1>   0.1500 
 28 H       -5.4730    -4.2560     1.7280 H     1 <1>   0.1500 
 29 H       -4.6870    -6.4680     1.5120 H     1 <1>   0.0800 
 30 H       -3.0370    -6.7570     1.0110 H     1 <1>   0.0800 
 31 H       -3.7840    -6.6200    -1.2910 H     1 <1>   0.4500 
 32 H       -5.9850    -5.3420    -0.4870 H     1 <1>   0.0800 
 33 H       -5.9090    -6.2640    -1.9760 H     1 <1>   0.0800 
 34 H       -4.0190    -8.8750    -1.1620 H     1 <1>   0.0800 
 35 H       -4.3280    -8.6760     0.5510 H     1 <1>   0.0800 
 36 H       -7.7880    -7.2510    -0.8310 H     1 <1>   0.0800 
 37 H       -6.2320    -8.8880    -1.6950 H     1 <1>   0.0800 
 38 H       -7.7600    -7.5750     1.3480 H     1 <1>   0.4000 
 39 H       -7.6030   -10.1270    -0.1100 H     1 <1>   0.0800 
 40 H       -6.5680    -9.6810     1.2120 H     1 <1>   0.0800 
 41 H       -4.7100   -11.1180     1.7760 H     1 <1>   0.1500 
 42 H       -6.4220   -11.4570    -2.1140 H     1 <1>   0.1500 
 43 H       -3.2860   -13.0020     1.2130 H     1 <1>   0.1500 
 44 H       -4.9230   -13.3260    -2.5100 H     1 <1>   0.1500 
@<TRIPOS>BOND
  1   1   2  1   
  2   2   3  1   
  3   2   4  1   
  4   2   5  1   
  5   4   6  1   
  6   5   7  1   
  7   6   7  ar  
  8   6   8  ar  
  9   7   9  ar  
 10   8  10  ar  
 11   8  26  1   
 12   9  11  ar  
 13   9  27  1   
 14  10  11  ar  
 15  10  12  1   
 16  11  28  1   
 17  12  13  1   
 18  12  29  1   
 19  12  30  1   
 20  13  14  1   
 21  13  15  1   
 22  13  31  1   
 23  14  16  1   
 24  14  32  1   
 25  14  33  1   
 26  15  17  1   
 27  15  34  1   
 28  15  35  1   
 29  16  17  1   
 30  16  18  1   
 31  16  36  1   
 32  17  19  1   
 33  17  37  1   
 34  18  38  1   
 35  19  20  1   
 36  19  39  1   
 37  19  40  1   
 38  20  21  ar  
 39  20  22  ar  
 40  21  23  ar  
 41  21  41  1   
 42  22  24  ar  
 43  22  42  1   
 44  23  25  ar  
 45  23  43  1   
 46  24  25  ar  
 47  24  44  1   
@<TRIPOS>SUBSTRUCTURE
  1 ****  13 GROUP 4 **** **** 0

# MOE 2024.06 (io_trps.svl 2023.06)
