@<TRIPOS>MOLECULE
NONAME
46 48 1 0 0 
SMALL
USER_CHARGES


@<TRIPOS>ATOM
  1 O       -0.2930    -0.8540    -0.7830 O.2   1 <1>  -0.5700 
  2 C        0.5330    -1.6740    -0.4620 C.2   1 <1>   0.5690 
  3 N        0.2320    -2.8330     0.2000 N.am  1 <1>  -0.6600 
  4 C        1.9880    -1.4200    -0.7980 C.3   1 <1>  -0.0990 
  5 C        1.2990    -3.7900     0.5750 C.3   1 <1>   0.1400 
  6 C       -1.1540    -3.1720     0.6230 C.3   1 <1>   0.0600 
  7 C        2.6380    -2.6910    -1.3750 C.3   1 <1>  -0.0800 
  8 C        2.2700    -3.9840    -0.6080 C.3   1 <1>  -0.0800 
  9 C        4.1710    -2.6280    -1.4130 C.3   1 <1>  -0.1600 
 10 C        3.6020    -4.6290    -0.2000 C.3   1 <1>  -0.1600 
 11 C        4.6090    -4.0710    -1.2050 C.3   1 <1>   0.4230 
 12 N        6.0410    -4.2220    -0.8080 N.4   1 <1>  -0.9590 
 13 C        6.4680    -3.5970     0.4880 C.3   1 <1>   0.4860 
 14 C        6.4350    -5.6680    -0.8420 C.3   1 <1>   0.2630 
 15 C        7.1850    -2.2690     0.2510 C.ar  1 <1>  -0.1440 
 16 C        8.4110    -2.2010    -0.4190 C.ar  1 <1>   0.0730 
 17 C        6.6120    -1.1070     0.7500 C.ar  1 <1>  -0.1500 
 18 C        9.0460    -3.3790    -0.9360 C.1   1 <1>   0.4840 
 19 C        9.0190    -0.9620    -0.5900 C.ar  1 <1>  -0.1500 
 20 C        7.2290     0.1170     0.5710 C.ar  1 <1>  -0.1500 
 21 N        9.3860    -4.3870    -1.3420 N.1   1 <1>  -0.5570 
 22 C        8.4330     0.1900    -0.1020 C.ar  1 <1>  -0.1500 
 23 H        2.0540    -0.6140    -1.5070 H     1 <1>   0.0800 
 24 H        2.4770    -1.1110     0.1070 H     1 <1>   0.0800 
 25 H        1.8180    -3.3930     1.4310 H     1 <1>   0.0800 
 26 H        0.8660    -4.7370     0.8510 H     1 <1>   0.0800 
 27 H       -1.4600    -4.0950     0.1630 H     1 <1>   0.0800 
 28 H       -1.8410    -2.3970     0.3260 H     1 <1>   0.0800 
 29 H       -1.1950    -3.2750     1.6930 H     1 <1>   0.0800 
 30 H        2.2740    -2.8060    -2.3840 H     1 <1>   0.0800 
 31 H        1.7810    -4.6430    -1.3080 H     1 <1>   0.0800 
 32 H        4.5110    -2.0040    -0.6110 H     1 <1>   0.0800 
 33 H        4.5190    -2.2330    -2.3510 H     1 <1>   0.0800 
 34 H        3.5370    -5.7020    -0.2520 H     1 <1>   0.0800 
 35 H        3.8480    -4.3290     0.8010 H     1 <1>   0.0800 
 36 H        4.4530    -4.5860    -2.1400 H     1 <1>   0.0800 
 37 H        6.5890    -3.7520    -1.5420 H     1 <1>   0.4500 
 38 H        5.6170    -3.4380     1.1270 H     1 <1>   0.0800 
 39 H        7.1450    -4.2590     1.0050 H     1 <1>   0.0800 
 40 H        5.8890    -6.2270    -0.0990 H     1 <1>   0.0800 
 41 H        7.4900    -5.7800    -0.6470 H     1 <1>   0.0800 
 42 H        6.2280    -6.0900    -1.8120 H     1 <1>   0.0800 
 43 H        5.6790    -1.1320     1.2900 H     1 <1>   0.1500 
 44 H        9.9620    -0.8910    -1.1080 H     1 <1>   0.1500 
 45 H        6.7770     1.0160     0.9570 H     1 <1>   0.1500 
 46 H        8.9160     1.1440    -0.2400 H     1 <1>   0.1500 
@<TRIPOS>BOND
  1   1   2  2   
  2   2   3  am  
  3   2   4  1   
  4   3   5  1   
  5   3   6  1   
  6   4   7  1   
  7   4  23  1   
  8   4  24  1   
  9   5   8  1   
 10   5  25  1   
 11   5  26  1   
 12   6  27  1   
 13   6  28  1   
 14   6  29  1   
 15   7   8  1   
 16   7   9  1   
 17   7  30  1   
 18   8  10  1   
 19   8  31  1   
 20   9  11  1   
 21   9  32  1   
 22   9  33  1   
 23  10  11  1   
 24  10  34  1   
 25  10  35  1   
 26  11  12  1   
 27  11  36  1   
 28  12  13  1   
 29  12  14  1   
 30  12  37  1   
 31  13  15  1   
 32  13  38  1   
 33  13  39  1   
 34  14  40  1   
 35  14  41  1   
 36  14  42  1   
 37  15  16  ar  
 38  15  17  ar  
 39  16  18  1   
 40  16  19  ar  
 41  17  20  ar  
 42  17  43  1   
 43  18  21  3   
 44  19  22  ar  
 45  19  44  1   
 46  20  22  ar  
 47  20  45  1   
 48  22  46  1   
@<TRIPOS>SUBSTRUCTURE
  1 ****   9 GROUP 4 **** **** 0

# MOE 2024.06 (io_trps.svl 2023.06)
