@<TRIPOS>MOLECULE
NONAME
52 55 1 0 0 
SMALL
USER_CHARGES


@<TRIPOS>ATOM
  1 O       -2.4690    -0.5200    -2.7380 O.2   1 <1>  -0.5700 
  2 C       -2.6100    -0.8850    -1.5940 C.2   1 <1>   0.5690 
  3 N       -2.3650    -0.0600    -0.5360 N.am  1 <1>  -0.6600 
  4 C       -3.0670    -2.3070    -1.3630 C.3   1 <1>  -0.0190 
  5 C       -2.6150    -0.4920     0.8700 C.3   1 <1>   0.2200 
  6 C       -1.8860     1.3400    -0.7180 C.3   1 <1>   0.0600 
  7 C       -1.9920    -3.1100    -0.6060 C.3   1 <1>   0.1200 
  8 C       -4.5080    -2.3490    -0.8170 C.3   1 <1>   0.1400 
  9 C       -1.6730    -1.6530     1.2820 C.3   1 <1>   0.1200 
 10 C       -4.1250    -0.7230     1.1140 C.3   1 <1>   0.1400 
 11 O       -2.0060    -2.9200     0.7760 O.3   1 <1>  -0.5600 
 12 N       -4.6470    -2.0490     0.6450 N.am  1 <1>  -0.6600 
 13 C       -5.0380    -3.0050     1.5660 C.2   1 <1>   0.5440 
 14 O       -5.2210    -2.6770     2.7240 O.2   1 <1>  -0.5700 
 15 C       -5.2220    -4.3870     1.1940 C.ar  1 <1>   0.0860 
 16 C       -6.4300    -4.8590     0.6280 C.ar  1 <1>   0.0000 
 17 C       -4.2120    -5.2960     1.3530 C.ar  1 <1>  -0.1500 
 18 C       -6.5060    -6.2120     0.2270 C.ar  1 <1>   0.3100 
 19 C       -7.5580    -4.0360     0.4420 C.ar  1 <1>  -0.1500 
 20 C       -4.3740    -6.6180     0.9400 C.ar  1 <1>   0.1670 
 21 N       -5.4580    -7.0650     0.3920 N.ar  1 <1>  -0.6200 
 22 C       -7.7040    -6.6900    -0.3650 C.ar  1 <1>  -0.1430 
 23 C       -8.7000    -4.5190    -0.1280 C.ar  1 <1>  -0.1500 
 24 C       -3.2380    -7.6010     1.1230 C.3   1 <1>  -0.0970 
 25 C       -8.7860    -5.8530    -0.5410 C.ar  1 <1>  -0.1430 
 26 C       -7.7430    -8.1620    -0.7900 C.3   1 <1>  -0.0970 
 27 C      -10.0990    -6.3060    -1.1680 C.3   1 <1>  -0.0970 
 28 H       -3.1170    -2.7470    -2.3420 H     1 <1>   0.0800 
 29 H       -2.3440     0.3390     1.4970 H     1 <1>   0.0800 
 30 H       -0.9580     1.4800    -0.1930 H     1 <1>   0.0800 
 31 H       -2.6190     2.0290    -0.3360 H     1 <1>   0.0800 
 32 H       -1.7240     1.5580    -1.7600 H     1 <1>   0.0800 
 33 H       -1.0090    -2.8700    -0.9730 H     1 <1>   0.0800 
 34 H       -2.1640    -4.1600    -0.7680 H     1 <1>   0.0800 
 35 H       -4.9130    -3.3210    -1.0330 H     1 <1>   0.0800 
 36 H       -5.1050    -1.6410    -1.3650 H     1 <1>   0.0800 
 37 H       -1.7020    -1.7460     2.3530 H     1 <1>   0.0800 
 38 H       -0.6610    -1.4280     0.9950 H     1 <1>   0.0800 
 39 H       -4.6840     0.0610     0.6370 H     1 <1>   0.0800 
 40 H       -4.2960    -0.6230     2.1710 H     1 <1>   0.0800 
 41 H       -3.2830    -4.9840     1.7950 H     1 <1>   0.1500 
 42 H       -7.5180    -3.0080     0.7590 H     1 <1>   0.1500 
 43 H       -9.5460    -3.8670    -0.2590 H     1 <1>   0.1500 
 44 H       -2.3640    -7.1180     1.5190 H     1 <1>   0.0800 
 45 H       -2.9910    -8.0450     0.1760 H     1 <1>   0.0800 
 46 H       -3.5440    -8.3780     1.7990 H     1 <1>   0.0800 
 47 H       -8.6760    -8.4560    -1.2260 H     1 <1>   0.0800 
 48 H       -7.5660    -8.7880     0.0670 H     1 <1>   0.0800 
 49 H       -6.9660    -8.3490    -1.5100 H     1 <1>   0.0800 
 50 H      -10.8090    -5.5000    -1.2170 H     1 <1>   0.0800 
 51 H      -10.5320    -7.0960    -0.5820 H     1 <1>   0.0800 
 52 H       -9.9270    -6.6610    -2.1680 H     1 <1>   0.0800 
@<TRIPOS>BOND
  1   1   2  2   
  2   2   3  am  
  3   2   4  1   
  4   3   5  1   
  5   3   6  1   
  6   4   7  1   
  7   4   8  1   
  8   4  28  1   
  9   5   9  1   
 10   5  10  1   
 11   5  29  1   
 12   6  30  1   
 13   6  31  1   
 14   6  32  1   
 15   7  11  1   
 16   7  33  1   
 17   7  34  1   
 18   8  12  1   
 19   8  35  1   
 20   8  36  1   
 21   9  11  1   
 22   9  37  1   
 23   9  38  1   
 24  10  12  1   
 25  10  39  1   
 26  10  40  1   
 27  12  13  am  
 28  13  14  2   
 29  13  15  1   
 30  15  16  ar  
 31  15  17  ar  
 32  16  18  ar  
 33  16  19  ar  
 34  17  20  ar  
 35  17  41  1   
 36  18  21  ar  
 37  18  22  ar  
 38  19  23  ar  
 39  19  42  1   
 40  20  21  ar  
 41  20  24  1   
 42  22  25  ar  
 43  22  26  1   
 44  23  25  ar  
 45  23  43  1   
 46  24  44  1   
 47  24  45  1   
 48  24  46  1   
 49  25  27  1   
 50  26  47  1   
 51  26  48  1   
 52  26  49  1   
 53  27  50  1   
 54  27  51  1   
 55  27  52  1   
@<TRIPOS>SUBSTRUCTURE
  1 ****  15 GROUP 4 **** **** 0

# MOE 2024.06 (io_trps.svl 2023.06)
