@<TRIPOS>MOLECULE
NONAME
56 59 1 0 0 
SMALL
USER_CHARGES


@<TRIPOS>ATOM
  1 O        0.2110     1.0440     0.9380 O.3   1 <1>  -0.0190 
  2 N        0.0270    -0.2210     0.8710 N.2   1 <1>  -0.4100 
  3 C        1.3890     1.3560     0.4710 C.2   1 <1>   0.4250 
  4 C        1.1150    -0.6500     0.3580 C.2   1 <1>   0.3350 
  5 N        2.0130     0.2980     0.0830 N.2   1 <1>  -0.5650 
  6 C        1.8420     2.7280     0.4350 C.ar  1 <1>   0.0530 
  7 C        1.4100    -2.1010     0.0650 C.3   1 <1>  -0.0590 
  8 C        3.0840     3.0840    -0.0600 C.ar  1 <1>  -0.1500 
  9 C        1.0710     3.7910     0.8890 C.ar  1 <1>  -0.1500 
 10 C        3.5100     4.4090    -0.0880 C.ar  1 <1>   0.4100 
 11 C        1.5620     5.0770     0.8230 C.ar  1 <1>   0.1600 
 12 N        2.7490     5.4070     0.3500 N.ar  1 <1>  -0.6200 
 13 N        4.7660     4.7660    -0.5800 N.pl3 1 <1>  -0.8380 
 14 C        4.9160     6.0480    -1.3280 C.3   1 <1>   0.2090 
 15 C        5.8190     3.7460    -0.8540 C.3   1 <1>   0.1290 
 16 C        5.3090     7.1950    -0.3770 C.3   1 <1>  -0.0800 
 17 C        5.4640     8.5180    -1.1430 C.3   1 <1>  -0.1600 
 18 C        6.5920     6.9070     0.4230 C.3   1 <1>  -0.1600 
 19 C        5.8380     9.6630    -0.2020 C.3   1 <1>   0.3430 
 20 C        6.9430     8.0740     1.3420 C.3   1 <1>   0.3430 
 21 N        7.0880     9.3210     0.5400 N.4   1 <1>  -0.9590 
 22 C        7.5490    10.4560     1.3830 C.3   1 <1>   0.4860 
 23 C        7.9190    11.6120     0.4760 C.ar  1 <1>  -0.1430 
 24 C        7.0840    12.7170     0.3770 C.ar  1 <1>  -0.1500 
 25 C        9.0910    11.5730    -0.2670 C.ar  1 <1>  -0.1500 
 26 C        7.4120    13.7640    -0.4660 C.ar  1 <1>  -0.1500 
 27 C        9.4170    12.6210    -1.1090 C.ar  1 <1>  -0.1500 
 28 C        8.5760    13.7150    -1.2110 C.ar  1 <1>  -0.1500 
 29 H        0.5760    -2.7130     0.3530 H     1 <1>   0.0800 
 30 H        2.2800    -2.4090     0.6150 H     1 <1>   0.0800 
 31 H        1.5940    -2.2260    -0.9850 H     1 <1>   0.0800 
 32 H        3.7200     2.3080    -0.4350 H     1 <1>   0.1500 
 33 H        0.0900     3.6170     1.2930 H     1 <1>   0.1500 
 34 H        0.9430     5.8830     1.1800 H     1 <1>   0.1500 
 35 H        3.9810     6.2850    -1.8090 H     1 <1>   0.0800 
 36 H        5.6580     5.9350    -2.0990 H     1 <1>   0.0800 
 37 H        5.8490     3.0230    -0.0570 H     1 <1>   0.0800 
 38 H        6.7840     4.2160    -0.9190 H     1 <1>   0.0800 
 39 H        5.6090     3.2440    -1.7830 H     1 <1>   0.0800 
 40 H        4.5010     7.3200     0.3230 H     1 <1>   0.0800 
 41 H        4.5330     8.7610    -1.6260 H     1 <1>   0.0800 
 42 H        6.2130     8.4250    -1.9110 H     1 <1>   0.0800 
 43 H        7.4120     6.7010    -0.2410 H     1 <1>   0.0800 
 44 H        6.4400     6.0340     1.0340 H     1 <1>   0.0800 
 45 H        5.0330     9.8300     0.4950 H     1 <1>   0.0800 
 46 H        5.9820    10.5640    -0.7780 H     1 <1>   0.0800 
 47 H        7.8620     7.8550     1.8620 H     1 <1>   0.0800 
 48 H        6.1590     8.1970     2.0720 H     1 <1>   0.0800 
 49 H        7.8150     9.1680    -0.1680 H     1 <1>   0.4500 
 50 H        8.4150    10.1660     1.9560 H     1 <1>   0.0800 
 51 H        6.7710    10.7550     2.0670 H     1 <1>   0.0800 
 52 H        6.1750    12.7800     0.9510 H     1 <1>   0.1500 
 53 H        9.7660    10.7370    -0.1990 H     1 <1>   0.1500 
 54 H        6.7650    14.6220    -0.5440 H     1 <1>   0.1500 
 55 H       10.3260    12.5930    -1.6860 H     1 <1>   0.1500 
 56 H        8.8310    14.5310    -1.8660 H     1 <1>   0.1500 
@<TRIPOS>BOND
  1   1   2  1   
  2   1   3  1   
  3   2   4  2   
  4   3   5  2   
  5   3   6  1   
  6   4   5  1   
  7   4   7  1   
  8   6   8  ar  
  9   6   9  ar  
 10   7  29  1   
 11   7  30  1   
 12   7  31  1   
 13   8  10  ar  
 14   8  32  1   
 15   9  11  ar  
 16   9  33  1   
 17  10  12  ar  
 18  10  13  1   
 19  11  12  ar  
 20  11  34  1   
 21  13  14  1   
 22  13  15  1   
 23  14  16  1   
 24  14  35  1   
 25  14  36  1   
 26  15  37  1   
 27  15  38  1   
 28  15  39  1   
 29  16  17  1   
 30  16  18  1   
 31  16  40  1   
 32  17  19  1   
 33  17  41  1   
 34  17  42  1   
 35  18  20  1   
 36  18  43  1   
 37  18  44  1   
 38  19  21  1   
 39  19  45  1   
 40  19  46  1   
 41  20  21  1   
 42  20  47  1   
 43  20  48  1   
 44  21  22  1   
 45  21  49  1   
 46  22  23  1   
 47  22  50  1   
 48  22  51  1   
 49  23  24  ar  
 50  23  25  ar  
 51  24  26  ar  
 52  24  52  1   
 53  25  27  ar  
 54  25  53  1   
 55  26  28  ar  
 56  26  54  1   
 57  27  28  ar  
 58  27  55  1   
 59  28  56  1   
@<TRIPOS>SUBSTRUCTURE
  1 ****  16 GROUP 4 **** **** 0

# MOE 2024.06 (io_trps.svl 2023.06)
