@<TRIPOS>MOLECULE
NONAME
42 43 1 0 0 
SMALL
USER_CHARGES


@<TRIPOS>ATOM
  1 O       -0.9650    -0.0640     1.4550 O.3   1 <1>  -0.5600 
  2 C       -1.7650     0.2610     0.3530 C.3   1 <1>   0.1200 
  3 C       -0.0720     0.9670     1.7680 C.3   1 <1>   0.1200 
  4 C       -1.5240     1.7450     0.0820 C.3   1 <1>   0.2000 
  5 C       -0.0990     1.9230     0.5800 C.3   1 <1>   0.2890 
  6 O       -1.6070     2.1130    -1.2750 O.3   1 <1>  -0.5600 
  7 N        0.2480     3.3370     0.9180 N.pl3 1 <1>  -0.8690 
  8 C       -2.8780     1.9760    -1.8340 C.3   1 <1>   0.1200 
  9 C        0.3430     4.4050     0.1180 C.ar  1 <1>   0.7710 
 10 C       -2.8360     2.6010    -3.2230 C.3   1 <1>  -0.2400 
 11 N        0.8720     5.4840     0.6530 N.ar  1 <1>  -0.6200 
 12 N       -0.0810     4.3510    -1.1560 N.ar  1 <1>  -0.1790 
 13 C        1.0120     6.5550    -0.1120 C.ar  1 <1>   0.4100 
 14 C        0.0320     5.4220    -1.9730 C.ar  1 <1>   0.2110 
 15 N        1.5770     7.6620     0.4460 N.pl3 1 <1>  -0.8380 
 16 C        0.5850     6.5450    -1.4580 C.ar  1 <1>  -0.1500 
 17 C        2.2050     8.7690    -0.3260 C.3   1 <1>   0.2090 
 18 C        1.7660     7.7910     1.9260 C.3   1 <1>   0.1290 
 19 C        1.2110     9.9200    -0.4590 C.3   1 <1>  -0.2400 
 20 H       -1.4400    -0.3470    -0.4740 H     1 <1>   0.0800 
 21 H       -2.7910     0.0510     0.6000 H     1 <1>   0.0800 
 22 H       -0.4300     1.4440     2.6640 H     1 <1>   0.0800 
 23 H        0.9040     0.5430     1.9290 H     1 <1>   0.0800 
 24 H       -2.2090     2.3410     0.6620 H     1 <1>   0.0800 
 25 H        0.5920     1.5450    -0.1560 H     1 <1>   0.0800 
 26 H        0.6050     3.4900     1.8680 H     1 <1>   0.4000 
 27 H       -3.1240     0.9290    -1.9020 H     1 <1>   0.0800 
 28 H       -3.6010     2.4820    -1.2140 H     1 <1>   0.0800 
 29 H       -2.0950     2.1130    -3.8310 H     1 <1>   0.0800 
 30 H       -2.6300     3.6530    -3.1630 H     1 <1>   0.0800 
 31 H       -3.7930     2.4750    -3.6990 H     1 <1>   0.0800 
 32 H       -0.5420     3.4760    -1.4360 H     1 <1>   0.4570 
 33 H       -0.3220     5.3490    -2.9890 H     1 <1>   0.1500 
 34 H        0.6920     7.4300    -2.0530 H     1 <1>   0.1500 
 35 H        3.0910     9.1090     0.1850 H     1 <1>   0.0800 
 36 H        2.5100     8.4250    -1.2990 H     1 <1>   0.0800 
 37 H        1.7000     8.8230     2.2250 H     1 <1>   0.0800 
 38 H        2.7330     7.4070     2.2020 H     1 <1>   0.0800 
 39 H        1.0080     7.2420     2.4570 H     1 <1>   0.0800 
 40 H        0.9530    10.3060     0.5100 H     1 <1>   0.0800 
 41 H        0.3170     9.5930    -0.9570 H     1 <1>   0.0800 
 42 H        1.6530    10.7140    -1.0320 H     1 <1>   0.0800 
@<TRIPOS>BOND
  1   1   2  1   
  2   1   3  1   
  3   2   4  1   
  4   2  20  1   
  5   2  21  1   
  6   3   5  1   
  7   3  22  1   
  8   3  23  1   
  9   4   5  1   
 10   4   6  1   
 11   4  24  1   
 12   5   7  1   
 13   5  25  1   
 14   6   8  1   
 15   7   9  1   
 16   7  26  1   
 17   8  10  1   
 18   8  27  1   
 19   8  28  1   
 20   9  11  ar  
 21   9  12  ar  
 22  10  29  1   
 23  10  30  1   
 24  10  31  1   
 25  11  13  ar  
 26  12  14  ar  
 27  12  32  1   
 28  13  15  1   
 29  13  16  ar  
 30  14  16  ar  
 31  14  33  1   
 32  15  17  1   
 33  15  18  1   
 34  16  34  1   
 35  17  19  1   
 36  17  35  1   
 37  17  36  1   
 38  18  37  1   
 39  18  38  1   
 40  18  39  1   
 41  19  40  1   
 42  19  41  1   
 43  19  42  1   
@<TRIPOS>SUBSTRUCTURE
  1 ****   9 GROUP 4 **** **** 0

# MOE 2024.06 (io_trps.svl 2023.06)
