@<TRIPOS>MOLECULE
NONAME
52 54 1 0 0 
SMALL
USER_CHARGES


@<TRIPOS>ATOM
  1 O        0.2840     1.4530     1.8740 O.2   1 <1>  -0.5700 
  2 C        0.0340     2.2940     1.0410 C.2   1 <1>   0.5690 
  3 N       -1.1350     3.0180     1.0900 N.am  1 <1>  -0.6600 
  4 C        1.0420     2.5510    -0.0790 C.3   1 <1>   0.0440 
  5 C       -1.5120     4.1370     0.1830 C.3   1 <1>   0.1400 
  6 C       -2.1870     2.7270     2.1020 C.3   1 <1>   0.1400 
  7 C        2.2130     1.5730    -0.1520 C.ar  1 <1>  -0.1440 
  8 C       -2.7930     3.7700    -0.5710 C.3   1 <1>  -0.1600 
  9 C       -3.4830     2.3410     1.3830 C.3   1 <1>  -0.1600 
 10 C        3.4880     1.9650     0.2270 C.ar  1 <1>  -0.1500 
 11 C        2.0120     0.2800    -0.6080 C.ar  1 <1>  -0.1500 
 12 C       -3.9530     3.4140     0.3830 C.3   1 <1>   0.2800 
 13 C        4.5460     1.0770     0.1460 C.ar  1 <1>  -0.1500 
 14 C        3.0710    -0.6090    -0.6890 C.ar  1 <1>  -0.1500 
 15 O       -4.2000     4.5820     1.1410 O.3   1 <1>  -0.5600 
 16 C       -5.2330     2.9200    -0.3650 C.3   1 <1>   0.2000 
 17 C        4.3450    -0.2160    -0.3120 C.ar  1 <1>  -0.1440 
 18 C       -5.4850     5.1320     1.1620 C.3   1 <1>   0.1200 
 19 O       -4.9590     1.8740    -1.2560 O.3   1 <1>  -0.6800 
 20 C       -6.0550     4.0540    -1.0510 C.3   1 <1>   0.2800 
 21 C        5.5080    -1.1870    -0.3940 C.3   1 <1>   0.2640 
 22 C       -5.9340     5.3780    -0.2780 C.3   1 <1>  -0.1600 
 23 O       -7.3820     3.6670    -0.9950 O.3   1 <1>  -0.6800 
 24 C       -5.7710     4.2750    -2.5440 C.3   1 <1>  -0.2400 
 25 O        6.2670    -0.8320    -1.4900 O.3   1 <1>  -0.6800 
 26 H        0.5190     2.5070    -1.0150 H     1 <1>   0.0800 
 27 H        1.4210     3.5480     0.0410 H     1 <1>   0.0800 
 28 H       -1.6820     5.0210     0.7740 H     1 <1>   0.0800 
 29 H       -0.7310     4.3580    -0.5200 H     1 <1>   0.0800 
 30 H       -1.8830     1.9240     2.7510 H     1 <1>   0.0800 
 31 H       -2.3470     3.6020     2.7070 H     1 <1>   0.0800 
 32 H       -2.5820     2.9340    -1.2130 H     1 <1>   0.0800 
 33 H       -3.0750     4.5960    -1.1930 H     1 <1>   0.0800 
 34 H       -4.2530     2.1640     2.1110 H     1 <1>   0.0800 
 35 H       -3.3130     1.4150     0.8620 H     1 <1>   0.0800 
 36 H        3.6640     2.9610     0.5910 H     1 <1>   0.1500 
 37 H        1.0260    -0.0420    -0.8940 H     1 <1>   0.1500 
 38 H        5.5320     1.3940     0.4410 H     1 <1>   0.1500 
 39 H        2.8910    -1.6080    -1.0440 H     1 <1>   0.1500 
 40 H       -5.8650     2.4890     0.3930 H     1 <1>   0.0800 
 41 H       -6.1480     4.4590     1.6800 H     1 <1>   0.0800 
 42 H       -5.4320     6.0590     1.7070 H     1 <1>   0.0800 
 43 H       -5.8060     1.5750    -1.6440 H     1 <1>   0.4000 
 44 H        5.1640    -2.1970    -0.5330 H     1 <1>   0.0800 
 45 H        6.1300    -1.1350     0.4830 H     1 <1>   0.0800 
 46 H       -5.1940     6.0080    -0.7380 H     1 <1>   0.0800 
 47 H       -6.8650     5.9160    -0.2870 H     1 <1>   0.0800 
 48 H       -7.9300     4.3040    -1.4920 H     1 <1>   0.4000 
 49 H       -4.7340     4.5060    -2.6990 H     1 <1>   0.0800 
 50 H       -6.3530     5.0930    -2.9260 H     1 <1>   0.0800 
 51 H       -5.9980     3.3910    -3.1130 H     1 <1>   0.0800 
 52 H        5.6800    -0.3810    -2.1290 H     1 <1>   0.4000 
@<TRIPOS>BOND
  1   1   2  2   
  2   2   3  am  
  3   2   4  1   
  4   3   5  1   
  5   3   6  1   
  6   4   7  1   
  7   4  26  1   
  8   4  27  1   
  9   5   8  1   
 10   5  28  1   
 11   5  29  1   
 12   6   9  1   
 13   6  30  1   
 14   6  31  1   
 15   7  10  ar  
 16   7  11  ar  
 17   8  12  1   
 18   8  32  1   
 19   8  33  1   
 20   9  12  1   
 21   9  34  1   
 22   9  35  1   
 23  10  13  ar  
 24  10  36  1   
 25  11  14  ar  
 26  11  37  1   
 27  12  15  1   
 28  12  16  1   
 29  13  17  ar  
 30  13  38  1   
 31  14  17  ar  
 32  14  39  1   
 33  15  18  1   
 34  16  19  1   
 35  16  20  1   
 36  16  40  1   
 37  17  21  1   
 38  18  22  1   
 39  18  41  1   
 40  18  42  1   
 41  19  43  1   
 42  20  22  1   
 43  20  23  1   
 44  20  24  1   
 45  21  25  1   
 46  21  44  1   
 47  21  45  1   
 48  22  46  1   
 49  22  47  1   
 50  23  48  1   
 51  24  49  1   
 52  24  50  1   
 53  24  51  1   
 54  25  52  1   
@<TRIPOS>SUBSTRUCTURE
  1 ****   3 GROUP 4 **** **** 0

# MOE 2024.06 (io_trps.svl 2023.06)
