@<TRIPOS>MOLECULE
NONAME
41 43 1 0 0 
SMALL
USER_CHARGES


@<TRIPOS>ATOM
  1 CL       0.3120    -0.0140     0.3500 Cl    1 <1>  -0.1770 
  2 C       -0.9100     1.1000    -0.2120 C.ar  1 <1>   0.1770 
  3 C       -1.0080     2.4000     0.2840 C.ar  1 <1>  -0.0090 
  4 C       -1.7630     0.6160    -1.1880 C.ar  1 <1>  -0.1500 
  5 S        0.0990     3.0700     1.5570 S.o2  1 <1>   1.4470 
  6 C       -2.0080     3.2150    -0.2500 C.ar  1 <1>  -0.1500 
  7 C       -2.7360     1.4600    -1.6800 C.ar  1 <1>   0.1900 
  8 O        0.7340     2.0710     2.3820 O.2   1 <1>  -0.6500 
  9 O       -0.5800     4.1660     2.2100 O.2   1 <1>  -0.6500 
 10 N        1.3770     3.8100     0.7070 N.am  1 <1>  -0.8490 
 11 C       -2.8750     2.7560    -1.2290 C.ar  1 <1>  -0.1500 
 12 F       -3.5460     1.0200    -2.6020 F     1 <1>  -0.1900 
 13 C        2.0970     4.7200     1.6360 C.3   1 <1>   0.1960 
 14 C        2.2690     2.8290     0.0730 C.3   1 <1>   0.1960 
 15 C        3.4000     5.3970     1.1320 C.3   1 <1>   0.4230 
 16 C        3.1960     3.4610    -0.9880 C.3   1 <1>  -0.0800 
 17 N        3.3500     5.9090    -0.2910 N.4   1 <1>  -0.9590 
 18 C        4.6410     4.4890     1.3200 C.3   1 <1>   0.1200 
 19 C        4.6940     3.2230    -0.6960 C.3   1 <1>   0.1200 
 20 C        2.8380     4.9270    -1.3030 C.3   1 <1>   0.3430 
 21 C        2.6570     7.2230    -0.4100 C.3   1 <1>   0.2630 
 22 O        5.2620     4.2300     0.0900 O.3   1 <1>  -0.5600 
 23 H       -1.6740    -0.3900    -1.5550 H     1 <1>   0.1500 
 24 H       -2.1180     4.2260     0.1100 H     1 <1>   0.1500 
 25 H       -3.6480     3.3870    -1.6340 H     1 <1>   0.1500 
 26 H        1.4240     5.5160     1.9100 H     1 <1>   0.0800 
 27 H        2.3230     4.1920     2.5490 H     1 <1>   0.0800 
 28 H        2.8300     2.2930     0.8240 H     1 <1>   0.0800 
 29 H        1.6680     2.0990    -0.4390 H     1 <1>   0.0800 
 30 H        3.5640     6.2380     1.7850 H     1 <1>   0.0800 
 31 H        2.9950     2.9070    -1.8880 H     1 <1>   0.0800 
 32 H        4.3550     6.0070    -0.5220 H     1 <1>   0.4500 
 33 H        4.4080     3.5590     1.8100 H     1 <1>   0.0800 
 34 H        5.3610     5.0040     1.9330 H     1 <1>   0.0800 
 35 H        5.2450     3.2140    -1.6220 H     1 <1>   0.0800 
 36 H        4.8580     2.2760    -0.2090 H     1 <1>   0.0800 
 37 H        1.7650     5.0070    -1.3680 H     1 <1>   0.0800 
 38 H        3.2410     5.1840    -2.2690 H     1 <1>   0.0800 
 39 H        1.6130     7.1170    -0.1610 H     1 <1>   0.0800 
 40 H        2.7350     7.5970    -1.4180 H     1 <1>   0.0800 
 41 H        3.1010     7.9440     0.2580 H     1 <1>   0.0800 
@<TRIPOS>BOND
  1   1   2  1   
  2   2   3  ar  
  3   2   4  ar  
  4   3   5  1   
  5   3   6  ar  
  6   4   7  ar  
  7   4  23  1   
  8   5   8  2   
  9   5   9  2   
 10   5  10  am  
 11   6  11  ar  
 12   6  24  1   
 13   7  11  ar  
 14   7  12  1   
 15  10  13  1   
 16  10  14  1   
 17  11  25  1   
 18  13  15  1   
 19  13  26  1   
 20  13  27  1   
 21  14  16  1   
 22  14  28  1   
 23  14  29  1   
 24  15  17  1   
 25  15  18  1   
 26  15  30  1   
 27  16  19  1   
 28  16  20  1   
 29  16  31  1   
 30  17  20  1   
 31  17  21  1   
 32  17  32  1   
 33  18  22  1   
 34  18  33  1   
 35  18  34  1   
 36  19  22  1   
 37  19  35  1   
 38  19  36  1   
 39  20  37  1   
 40  20  38  1   
 41  21  39  1   
 42  21  40  1   
 43  21  41  1   
@<TRIPOS>SUBSTRUCTURE
  1 ****  10 GROUP 4 **** **** 0

# MOE 2024.06 (io_trps.svl 2023.06)
