@<TRIPOS>MOLECULE
NONAME
51 54 1 0 0 
SMALL
USER_CHARGES


@<TRIPOS>ATOM
  1 O       -0.0350     1.2610    -2.7540 O.2   1 <1>  -0.5700 
  2 C       -0.2160     1.5860    -1.5950 C.2   1 <1>   0.5440 
  3 N       -1.3030     1.0820    -0.9110 N.am  1 <1>  -0.6600 
  4 C        0.6850     2.5260    -0.9970 C.ar  1 <1>   0.0860 
  5 C       -2.5180     0.6790    -1.6660 C.3   1 <1>   0.1400 
  6 C       -1.5410     1.3390     0.5460 C.3   1 <1>   0.1400 
  7 C        1.7010     2.1780    -0.1090 C.ar  1 <1>   0.3100 
  8 C        0.5450     3.8710    -1.2720 C.ar  1 <1>   0.1600 
  9 C       -3.5390     1.8300    -1.6470 C.3   1 <1>  -0.1600 
 10 C       -2.9660     1.8540     0.8030 C.3   1 <1>  -0.1600 
 11 N        2.4670     3.1050     0.4440 N.ar  1 <1>  -0.6200 
 12 C        1.9380     0.8000     0.2710 C.ar  1 <1>   0.0000 
 13 N        1.3000     4.7980    -0.7360 N.ar  1 <1>  -0.6200 
 14 C       -3.4880     2.6940    -0.3710 C.3   1 <1>   0.4180 
 15 C        2.2190     4.3510     0.0990 C.ar  1 <1>   0.7200 
 16 C        2.1420    -0.2060    -0.6740 C.ar  1 <1>  -0.1500 
 17 C        1.9700     0.4350     1.6170 C.ar  1 <1>  -0.1500 
 18 O       -2.5800     3.7420    -0.6300 O.3   1 <1>  -0.5600 
 19 C       -4.8690     3.2680    -0.0620 C.2   1 <1>  -0.2880 
 20 N        2.9980     5.2760     0.6510 N.pl3 1 <1>  -0.9000 
 21 C        2.3480    -1.5190    -0.2930 C.ar  1 <1>  -0.1500 
 22 C        2.1770    -0.8760     2.0040 C.ar  1 <1>  -0.1500 
 23 C       -2.6310     4.8650     0.2040 C.3   1 <1>   0.1200 
 24 C       -5.1160     4.5680     0.1220 C.2   1 <1>  -0.2760 
 25 C        2.3650    -1.8580     1.0480 C.ar  1 <1>  -0.1500 
 26 C       -3.9830     5.5760     0.0580 C.3   1 <1>  -0.0220 
 27 C       -6.4920     5.1510     0.3910 C.3   1 <1>  -0.1020 
 28 H       -2.9370    -0.1930    -1.1950 H     1 <1>   0.0800 
 29 H       -2.2760     0.4170    -2.6820 H     1 <1>   0.0800 
 30 H       -0.8520     2.0770     0.9120 H     1 <1>   0.0800 
 31 H       -1.3720     0.4300     1.0980 H     1 <1>   0.0800 
 32 H       -0.2310     4.1760    -1.9550 H     1 <1>   0.1500 
 33 H       -4.5140     1.3910    -1.7510 H     1 <1>   0.0800 
 34 H       -3.3890     2.4610    -2.5040 H     1 <1>   0.0800 
 35 H       -2.9950     2.4190     1.7160 H     1 <1>   0.0800 
 36 H       -3.6200     1.0120     0.9420 H     1 <1>   0.0800 
 37 H        2.1370     0.0400    -1.7230 H     1 <1>   0.1500 
 38 H        1.8340     1.1940     2.3670 H     1 <1>   0.1500 
 39 H       -5.6330     2.5150    -0.0100 H     1 <1>   0.1500 
 40 H        2.9890     6.2030     0.2370 H     1 <1>   0.4000 
 41 H        3.8550     4.9630     1.0980 H     1 <1>   0.4000 
 42 H        2.4970    -2.2780    -1.0420 H     1 <1>   0.1500 
 43 H        2.1970    -1.1340     3.0490 H     1 <1>   0.1500 
 44 H       -1.8280     5.5230    -0.0780 H     1 <1>   0.0800 
 45 H       -2.4770     4.5480     1.2190 H     1 <1>   0.0800 
 46 H        2.5260    -2.8800     1.3450 H     1 <1>   0.1500 
 47 H       -4.0160     6.1020    -0.8800 H     1 <1>   0.0800 
 48 H       -4.0770     6.2960     0.8500 H     1 <1>   0.0800 
 49 H       -6.7510     5.8560    -0.3780 H     1 <1>   0.0800 
 50 H       -6.5040     5.6520     1.3430 H     1 <1>   0.0800 
 51 H       -7.2350     4.3740     0.4050 H     1 <1>   0.0800 
@<TRIPOS>BOND
  1   1   2  2   
  2   2   3  am  
  3   2   4  1   
  4   3   5  1   
  5   3   6  1   
  6   4   7  ar  
  7   4   8  ar  
  8   5   9  1   
  9   5  28  1   
 10   5  29  1   
 11   6  10  1   
 12   6  30  1   
 13   6  31  1   
 14   7  11  ar  
 15   7  12  1   
 16   8  13  ar  
 17   8  32  1   
 18   9  14  1   
 19   9  33  1   
 20   9  34  1   
 21  10  14  1   
 22  10  35  1   
 23  10  36  1   
 24  11  15  ar  
 25  12  16  ar  
 26  12  17  ar  
 27  13  15  ar  
 28  14  18  1   
 29  14  19  1   
 30  15  20  1   
 31  16  21  ar  
 32  16  37  1   
 33  17  22  ar  
 34  17  38  1   
 35  18  23  1   
 36  19  24  2   
 37  19  39  1   
 38  20  40  1   
 39  20  41  1   
 40  21  25  ar  
 41  21  42  1   
 42  22  25  ar  
 43  22  43  1   
 44  23  26  1   
 45  23  44  1   
 46  23  45  1   
 47  24  26  1   
 48  24  27  1   
 49  25  46  1   
 50  26  47  1   
 51  26  48  1   
 52  27  49  1   
 53  27  50  1   
 54  27  51  1   
@<TRIPOS>SUBSTRUCTURE
  1 ****   4 GROUP 4 **** **** 0

# MOE 2024.06 (io_trps.svl 2023.06)
