@<TRIPOS>MOLECULE
NONAME
46 48 1 0 0 
SMALL
USER_CHARGES


@<TRIPOS>ATOM
  1 S       -0.7030     1.3120     0.7160 S.o2  1 <1>   1.4470 
  2 O       -1.5950     2.4370     0.9050 O.2   1 <1>  -0.6500 
  3 O        0.0010     0.8150     1.8820 O.2   1 <1>  -0.6500 
  4 N       -1.6270     0.0230     0.1200 N.am  1 <1>  -0.8490 
  5 C        0.4940     1.7280    -0.5870 C.ar  1 <1>  -0.0090 
  6 C       -0.8500    -1.2290     0.0360 C.3   1 <1>   0.1960 
  7 C       -2.8700    -0.1510     0.8660 C.3   1 <1>   0.1960 
  8 C        1.6500     2.4340    -0.2740 C.ar  1 <1>  -0.1500 
  9 C        0.2910     1.3800    -1.9170 C.ar  1 <1>  -0.1500 
 10 C       -1.6250    -2.3850    -0.6280 C.3   1 <1>  -0.1060 
 11 C       -3.7370    -1.2190     0.2050 C.3   1 <1>  -0.1600 
 12 C        2.5800     2.7800    -1.2430 C.ar  1 <1>  -0.1440 
 13 C        1.2130     1.7090    -2.8930 C.ar  1 <1>  -0.1500 
 14 C       -1.8120    -2.0670    -2.1180 C.2   1 <1>   0.9060 
 15 C       -2.9710    -2.5360     0.1200 C.3   1 <1>   0.2000 
 16 C       -0.7910    -3.6940    -0.5620 C.3   1 <1>  -0.0650 
 17 C        2.3570     2.4100    -2.5580 C.ar  1 <1>  -0.1500 
 18 C        3.8320     3.5490    -0.8610 C.3   1 <1>  -0.0960 
 19 O       -2.8740    -2.3660    -2.6890 O.co2 1 <1>  -0.9000 
 20 O       -0.8590    -1.6020    -2.7550 O.co2 1 <1>  -0.9000 
 21 O       -3.7780    -3.4520    -0.5170 O.3   1 <1>  -0.6800 
 22 C       -0.3990    -4.1780     0.8460 C.3   1 <1>  -0.1950 
 23 C        0.8490    -3.7060     1.5240 C.3   1 <1>  -0.2000 
 24 C        0.7560    -5.1120     1.0080 C.3   1 <1>  -0.2000 
 25 H        0.0580    -1.0570    -0.5180 H     1 <1>   0.0800 
 26 H       -0.5700    -1.5180     1.0330 H     1 <1>   0.0800 
 27 H       -2.6480    -0.4270     1.8840 H     1 <1>   0.0800 
 28 H       -3.4200     0.7750     0.8770 H     1 <1>   0.0800 
 29 H        1.8210     2.7150     0.7510 H     1 <1>   0.1500 
 30 H       -0.5950     0.8330    -2.2030 H     1 <1>   0.1500 
 31 H       -4.0150    -0.8810    -0.7790 H     1 <1>   0.0800 
 32 H       -4.6300    -1.3600     0.7840 H     1 <1>   0.0800 
 33 H        1.0310     1.4080    -3.9110 H     1 <1>   0.1500 
 34 H       -2.8060    -2.8970     1.1190 H     1 <1>   0.0800 
 35 H       -1.3490    -4.4780    -1.0450 H     1 <1>   0.0800 
 36 H        0.1050    -3.5550    -1.1440 H     1 <1>   0.0800 
 37 H        3.0690     2.6600    -3.3240 H     1 <1>   0.1500 
 38 H        4.1940     4.1190    -1.6980 H     1 <1>   0.0800 
 39 H        4.5990     2.8630    -0.5500 H     1 <1>   0.0800 
 40 H        3.6230     4.2280    -0.0540 H     1 <1>   0.0800 
 41 H       -3.7060    -3.2190    -1.4920 H     1 <1>   0.4000 
 42 H       -1.2560    -4.4030     1.4580 H     1 <1>   0.1000 
 43 H        1.4960    -3.0150     1.0100 H     1 <1>   0.1000 
 44 H        0.8220    -3.5340     2.5860 H     1 <1>   0.1000 
 45 H        0.6690    -5.9210     1.7130 H     1 <1>   0.1000 
 46 H        1.3330    -5.3820     0.1400 H     1 <1>   0.1000 
@<TRIPOS>BOND
  1   1   2  2   
  2   1   3  2   
  3   1   4  am  
  4   1   5  1   
  5   4   6  1   
  6   4   7  1   
  7   5   8  ar  
  8   5   9  ar  
  9   6  10  1   
 10   6  25  1   
 11   6  26  1   
 12   7  11  1   
 13   7  27  1   
 14   7  28  1   
 15   8  12  ar  
 16   8  29  1   
 17   9  13  ar  
 18   9  30  1   
 19  10  14  1   
 20  10  15  1   
 21  10  16  1   
 22  11  15  1   
 23  11  31  1   
 24  11  32  1   
 25  12  17  ar  
 26  12  18  1   
 27  13  17  ar  
 28  13  33  1   
 29  14  19  ar  
 30  14  20  ar  
 31  15  21  1   
 32  15  34  1   
 33  16  22  1   
 34  16  35  1   
 35  16  36  1   
 36  17  37  1   
 37  18  38  1   
 38  18  39  1   
 39  18  40  1   
 40  21  41  1   
 41  22  23  1   
 42  22  24  1   
 43  22  42  1   
 44  23  24  1   
 45  23  43  1   
 46  23  44  1   
 47  24  45  1   
 48  24  46  1   
@<TRIPOS>SUBSTRUCTURE
  1 ****   6 GROUP 4 **** **** 0

# MOE 2024.06 (io_trps.svl 2023.06)
