@<TRIPOS>MOLECULE
NONAME
53 55 1 0 0 
SMALL
USER_CHARGES


@<TRIPOS>ATOM
  1 O       -0.9870     0.1000    -1.1800 O.2   1 <1>  -0.5700 
  2 C       -1.8820     0.8710    -0.9230 C.2   1 <1>   0.5690 
  3 N       -1.7210     2.2290    -0.9920 N.am  1 <1>  -0.6600 
  4 C       -3.2120     0.2680    -0.5180 C.3   1 <1>  -0.0990 
  5 C       -2.7820     3.2490    -0.7470 C.3   1 <1>   0.1400 
  6 C       -0.3930     2.8290    -1.3100 C.3   1 <1>   0.1400 
  7 C       -3.0740    -1.2470    -0.3680 C.3   1 <1>   0.3430 
  8 C       -2.3660     4.1500     0.4200 C.3   1 <1>  -0.1600 
  9 C        0.0520     3.7320    -0.1550 C.3   1 <1>  -0.1600 
 10 N       -4.3650    -1.8750     0.0360 N.4   1 <1>  -0.9590 
 11 C       -1.0000     4.8060     0.1650 C.3   1 <1>  -0.0800 
 12 C       -5.4370    -1.8620    -0.9920 C.3   1 <1>   0.3430 
 13 C       -4.2250    -3.3090     0.4210 C.3   1 <1>   0.3430 
 14 C       -0.5680     5.6440     1.3730 C.3   1 <1>  -0.2400 
 15 C       -6.4550    -2.8610    -0.4450 C.3   1 <1>   0.2000 
 16 C       -5.5880    -3.9750     0.1500 C.3   1 <1>  -0.0800 
 17 O       -7.1290    -2.2380     0.6000 O.3   1 <1>  -0.6800 
 18 C       -5.4630    -5.1760    -0.8130 C.3   1 <1>  -0.0170 
 19 C       -4.6590    -6.3190    -0.2080 C.ar  1 <1>   0.1670 
 20 N       -3.3590    -6.1110    -0.0680 N.ar  1 <1>  -0.6200 
 21 C       -5.2920    -7.5060     0.1610 C.ar  1 <1>   0.1600 
 22 C       -2.7400    -7.1620     0.4500 C.ar  1 <1>   0.1600 
 23 N       -4.6760    -8.5480     0.6880 N.ar  1 <1>  -0.6200 
 24 C       -3.3770    -8.3400     0.8170 C.ar  1 <1>   0.1600 
 25 H       -3.5100     0.6950     0.4210 H     1 <1>   0.0800 
 26 H       -3.9310     0.5070    -1.2780 H     1 <1>   0.0800 
 27 H       -2.9010     3.8460    -1.6360 H     1 <1>   0.0800 
 28 H       -3.7290     2.7920    -0.5290 H     1 <1>   0.0800 
 29 H        0.3480     2.0630    -1.4700 H     1 <1>   0.0800 
 30 H       -0.4740     3.4060    -2.2160 H     1 <1>   0.0800 
 31 H       -2.3210    -1.4500     0.3770 H     1 <1>   0.0800 
 32 H       -2.7300    -1.6700    -1.2990 H     1 <1>   0.0800 
 33 H       -3.1120     4.9130     0.5580 H     1 <1>   0.0800 
 34 H       -2.3280     3.5610     1.3200 H     1 <1>   0.0800 
 35 H        0.2300     3.1190     0.7120 H     1 <1>   0.0800 
 36 H        0.9820     4.2030    -0.4180 H     1 <1>   0.0800 
 37 H       -4.7620    -1.3930     0.8570 H     1 <1>   0.4500 
 38 H       -1.0890     5.4610    -0.6870 H     1 <1>   0.0800 
 39 H       -5.8760    -0.8850    -1.1120 H     1 <1>   0.0800 
 40 H       -5.0510    -2.2100    -1.9350 H     1 <1>   0.0800 
 41 H       -3.4640    -3.7720    -0.1870 H     1 <1>   0.0800 
 42 H       -3.9450    -3.4060     1.4570 H     1 <1>   0.0800 
 43 H       -0.4650     5.0260     2.2470 H     1 <1>   0.0800 
 44 H       -1.2950     6.4100     1.5760 H     1 <1>   0.0800 
 45 H        0.3770     6.1210     1.1770 H     1 <1>   0.0800 
 46 H       -7.1710    -3.1830    -1.1830 H     1 <1>   0.0800 
 47 H       -6.0060    -4.3330     1.0760 H     1 <1>   0.0800 
 48 H       -7.8920    -2.7740     0.9070 H     1 <1>   0.4000 
 49 H       -4.9880    -4.8740    -1.7310 H     1 <1>   0.0800 
 50 H       -6.4460    -5.5340    -1.0640 H     1 <1>   0.0800 
 51 H       -6.3530    -7.6030     0.0150 H     1 <1>   0.1500 
 52 H       -1.6750    -7.0910     0.5920 H     1 <1>   0.1500 
 53 H       -2.7900    -9.1410     1.2320 H     1 <1>   0.1500 
@<TRIPOS>BOND
  1   1   2  2   
  2   2   3  am  
  3   2   4  1   
  4   3   5  1   
  5   3   6  1   
  6   4   7  1   
  7   4  25  1   
  8   4  26  1   
  9   5   8  1   
 10   5  27  1   
 11   5  28  1   
 12   6   9  1   
 13   6  29  1   
 14   6  30  1   
 15   7  10  1   
 16   7  31  1   
 17   7  32  1   
 18   8  11  1   
 19   8  33  1   
 20   8  34  1   
 21   9  11  1   
 22   9  35  1   
 23   9  36  1   
 24  10  12  1   
 25  10  13  1   
 26  10  37  1   
 27  11  14  1   
 28  11  38  1   
 29  12  15  1   
 30  12  39  1   
 31  12  40  1   
 32  13  16  1   
 33  13  41  1   
 34  13  42  1   
 35  14  43  1   
 36  14  44  1   
 37  14  45  1   
 38  15  16  1   
 39  15  17  1   
 40  15  46  1   
 41  16  18  1   
 42  16  47  1   
 43  17  48  1   
 44  18  19  1   
 45  18  49  1   
 46  18  50  1   
 47  19  20  ar  
 48  19  21  ar  
 49  20  22  ar  
 50  21  23  ar  
 51  21  51  1   
 52  22  24  ar  
 53  22  52  1   
 54  23  24  ar  
 55  24  53  1   
@<TRIPOS>SUBSTRUCTURE
  1 ****   7 GROUP 4 **** **** 0

# MOE 2024.06 (io_trps.svl 2023.06)
