@<TRIPOS>MOLECULE
NONAME
55 56 1 0 0 
SMALL
USER_CHARGES


@<TRIPOS>ATOM
  1 S        0.9040    -0.3420     1.5380 S.o2  1 <1>   1.3330 
  2 O       -0.1180    -1.1200     2.1960 O.2   1 <1>  -0.6500 
  3 O        2.2710    -0.3640     2.0070 O.2   1 <1>  -0.6500 
  4 N        0.9000    -0.7340    -0.1150 N.am  1 <1>  -0.8490 
  5 C        0.4000     1.3830     1.5220 C.3   1 <1>  -0.0550 
  6 C       -0.4150    -1.1750    -0.5990 C.3   1 <1>   0.1160 
  7 C        1.9010    -1.7580    -0.4390 C.3   1 <1>   0.1160 
  8 C        1.3930     2.2940     0.7700 C.3   1 <1>  -0.1600 
  9 C        0.9780     3.7630     0.8330 C.3   1 <1>   0.3430 
 10 N        2.0400     4.6190     0.2340 N.4   1 <1>  -0.9590 
 11 C        1.8720     6.0560     0.6380 C.3   1 <1>   0.3430 
 12 C        2.1400     4.4830    -1.2490 C.3   1 <1>   0.3430 
 13 C        2.7300     7.0190    -0.2050 C.3   1 <1>  -0.0800 
 14 C        3.4530     5.1170    -1.7240 C.3   1 <1>  -0.1600 
 15 C        3.9270     6.3000    -0.8600 C.3   1 <1>  -0.1600 
 16 C        3.1770     8.2110     0.6550 C.3   1 <1>   0.1200 
 17 O        3.8620     9.1210    -0.1710 O.3   1 <1>  -0.3630 
 18 C        4.4280    10.2530     0.3250 C.ar  1 <1>   0.0820 
 19 C        5.1550    11.0480    -0.5590 C.ar  1 <1>  -0.1430 
 20 C        4.3110    10.6370     1.6590 C.ar  1 <1>  -0.1500 
 21 C        5.7540    12.2110    -0.1000 C.ar  1 <1>  -0.1500 
 22 C        5.2980    10.6540    -2.0220 C.3   1 <1>  -0.0970 
 23 C        4.9130    11.8000     2.1050 C.ar  1 <1>  -0.1500 
 24 C        5.6350    12.5860     1.2260 C.ar  1 <1>  -0.1500 
 25 H        0.3180     1.7160     2.5400 H     1 <1>   0.0800 
 26 H       -0.5710     1.4580     1.0740 H     1 <1>   0.0800 
 27 H       -1.1620    -0.4300    -0.3860 H     1 <1>   0.0800 
 28 H       -0.7040    -2.0970    -0.1200 H     1 <1>   0.0800 
 29 H       -0.3850    -1.3320    -1.6640 H     1 <1>   0.0800 
 30 H        2.8880    -1.4040    -0.1910 H     1 <1>   0.0800 
 31 H        1.8810    -1.9830    -1.4910 H     1 <1>   0.0800 
 32 H        1.7090    -2.6600     0.1200 H     1 <1>   0.0800 
 33 H        1.4460     1.9620    -0.2520 H     1 <1>   0.0800 
 34 H        2.3650     2.1770     1.2190 H     1 <1>   0.0800 
 35 H        0.8370     4.0380     1.8660 H     1 <1>   0.0800 
 36 H        0.0440     3.9090     0.3130 H     1 <1>   0.0800 
 37 H        2.9490     4.3080     0.6060 H     1 <1>   0.4500 
 38 H        2.1450     6.1560     1.6770 H     1 <1>   0.0800 
 39 H        0.8380     6.3460     0.5420 H     1 <1>   0.0800 
 40 H        1.3070     4.9890    -1.7110 H     1 <1>   0.0800 
 41 H        2.1160     3.4480    -1.5470 H     1 <1>   0.0800 
 42 H        2.1010     7.4140    -0.9850 H     1 <1>   0.0800 
 43 H        3.3080     5.4520    -2.7370 H     1 <1>   0.0800 
 44 H        4.2240     4.3670    -1.7540 H     1 <1>   0.0800 
 45 H        4.5910     5.9420    -0.0910 H     1 <1>   0.0800 
 46 H        4.4900     6.9840    -1.4740 H     1 <1>   0.0800 
 47 H        3.8500     7.8960     1.4340 H     1 <1>   0.0800 
 48 H        2.3300     8.7230     1.0780 H     1 <1>   0.0800 
 49 H        3.7570    10.0530     2.3670 H     1 <1>   0.1500 
 50 H        6.3180    12.8320    -0.7730 H     1 <1>   0.1500 
 51 H        5.7840     9.6980    -2.0950 H     1 <1>   0.0800 
 52 H        5.8800    11.3770    -2.5640 H     1 <1>   0.0800 
 53 H        4.3270    10.5850    -2.4770 H     1 <1>   0.0800 
 54 H        4.8220    12.0940     3.1360 H     1 <1>   0.1500 
 55 H        6.1040    13.4910     1.5730 H     1 <1>   0.1500 
@<TRIPOS>BOND
  1   1   2  2   
  2   1   3  2   
  3   1   4  am  
  4   1   5  1   
  5   4   6  1   
  6   4   7  1   
  7   5   8  1   
  8   5  25  1   
  9   5  26  1   
 10   6  27  1   
 11   6  28  1   
 12   6  29  1   
 13   7  30  1   
 14   7  31  1   
 15   7  32  1   
 16   8   9  1   
 17   8  33  1   
 18   8  34  1   
 19   9  10  1   
 20   9  35  1   
 21   9  36  1   
 22  10  11  1   
 23  10  12  1   
 24  10  37  1   
 25  11  13  1   
 26  11  38  1   
 27  11  39  1   
 28  12  14  1   
 29  12  40  1   
 30  12  41  1   
 31  13  15  1   
 32  13  16  1   
 33  13  42  1   
 34  14  15  1   
 35  14  43  1   
 36  14  44  1   
 37  15  45  1   
 38  15  46  1   
 39  16  17  1   
 40  16  47  1   
 41  16  48  1   
 42  17  18  1   
 43  18  19  ar  
 44  18  20  ar  
 45  19  21  ar  
 46  19  22  1   
 47  20  23  ar  
 48  20  49  1   
 49  21  24  ar  
 50  21  50  1   
 51  22  51  1   
 52  22  52  1   
 53  22  53  1   
 54  23  24  ar  
 55  23  54  1   
 56  24  55  1   
@<TRIPOS>SUBSTRUCTURE
  1 ****  11 GROUP 4 **** **** 0

# MOE 2024.06 (io_trps.svl 2023.06)
