@<TRIPOS>MOLECULE
NONAME
47 47 1 0 0 
SMALL
USER_CHARGES


@<TRIPOS>ATOM
  1 O        2.6450    -1.4990    -3.0230 O.2   1 <1>  -0.5700 
  2 C        2.3950    -0.8940    -2.0070 C.2   1 <1>   0.5690 
  3 N        2.5580     0.4570    -1.9830 N.am  1 <1>  -0.4940 
  4 C        1.8710    -1.6370    -0.7570 C.3   1 <1>   0.2810 
  5 C        2.3010     1.3460    -0.9210 C.2   1 <1>  -0.0880 
  6 N        0.3810    -1.6610    -0.7600 N.am  1 <1>  -0.7300 
  7 C        2.4380    -3.0690    -0.6590 C.3   1 <1>  -0.1600 
  8 N        1.1170     1.9710    -0.6880 N.pl3 1 <1>   0.3140 
  9 C        3.1450     1.7360     0.0620 C.2   1 <1>  -0.1810 
 10 C       -0.4750    -1.0940     0.1140 C.2   1 <1>   0.5690 
 11 C        2.2150    -3.7890     0.6900 C.3   1 <1>  -0.0800 
 12 N        1.1810     2.7390     0.4190 N.2   1 <1>  -0.7070 
 13 C       -0.1290     1.8680    -1.4610 C.3   1 <1>   0.0160 
 14 C        2.3920     2.5980     0.8570 C.2   1 <1>   0.1080 
 15 C        4.5950     1.3340     0.2690 C.3   1 <1>  -0.0590 
 16 O       -1.6260    -0.9390    -0.2000 O.2   1 <1>  -0.5700 
 17 C       -0.0200    -0.6460     1.4820 C.3   1 <1>  -0.1790 
 18 C        3.3100    -4.8420     0.9020 C.3   1 <1>  -0.2400 
 19 C        0.8500    -4.4880     0.7680 C.3   1 <1>  -0.2400 
 20 C        2.8850     3.3160     2.1000 C.3   1 <1>   0.0210 
 21 C        3.4960     4.6760     1.7470 C.3   1 <1>  -0.2400 
 22 H        2.9260     0.8480    -2.8530 H     1 <1>   0.3700 
 23 H        2.2150    -1.0930     0.1040 H     1 <1>   0.0800 
 24 H       -0.0340    -2.0090    -1.6270 H     1 <1>   0.3700 
 25 H        2.0610    -3.6680    -1.4700 H     1 <1>   0.0800 
 26 H        3.4990    -2.9810    -0.8160 H     1 <1>   0.0800 
 27 H        2.2890    -3.0740     1.4930 H     1 <1>   0.0800 
 28 H       -0.1100     0.9860    -2.0720 H     1 <1>   0.0800 
 29 H       -0.2300     2.7410    -2.0780 H     1 <1>   0.0800 
 30 H       -0.9580     1.8110    -0.7800 H     1 <1>   0.0800 
 31 H        5.2180     2.2100     0.2830 H     1 <1>   0.0800 
 32 H        4.9260     0.6910    -0.5250 H     1 <1>   0.0800 
 33 H        4.7020     0.8140     1.2030 H     1 <1>   0.0800 
 34 H        0.3920    -1.4780     2.0190 H     1 <1>   0.0800 
 35 H       -0.8590    -0.2610     2.0320 H     1 <1>   0.0800 
 36 H        0.7150     0.1300     1.4000 H     1 <1>   0.0800 
 37 H        3.2880    -5.5750     0.1140 H     1 <1>   0.0800 
 38 H        3.1700    -5.3460     1.8420 H     1 <1>   0.0800 
 39 H        4.2820    -4.3820     0.9140 H     1 <1>   0.0800 
 40 H        0.7380    -5.1920    -0.0370 H     1 <1>   0.0800 
 41 H        0.0420    -3.7830     0.7170 H     1 <1>   0.0800 
 42 H        0.7560    -5.0200     1.6990 H     1 <1>   0.0800 
 43 H        2.0520     3.4610     2.7660 H     1 <1>   0.0800 
 44 H        3.6110     2.7080     2.6070 H     1 <1>   0.0800 
 45 H        2.7600     5.2870     1.2550 H     1 <1>   0.0800 
 46 H        4.3340     4.5480     1.0870 H     1 <1>   0.0800 
 47 H        3.8250     5.1790     2.6390 H     1 <1>   0.0800 
@<TRIPOS>BOND
  1   1   2  2   
  2   2   3  am  
  3   2   4  1   
  4   3   5  1   
  5   3  22  1   
  6   4   6  1   
  7   4   7  1   
  8   4  23  1   
  9   5   8  1   
 10   5   9  2   
 11   6  10  am  
 12   6  24  1   
 13   7  11  1   
 14   7  25  1   
 15   7  26  1   
 16   8  12  1   
 17   8  13  1   
 18   9  14  1   
 19   9  15  1   
 20  10  16  2   
 21  10  17  1   
 22  11  18  1   
 23  11  19  1   
 24  11  27  1   
 25  12  14  2   
 26  13  28  1   
 27  13  29  1   
 28  13  30  1   
 29  14  20  1   
 30  15  31  1   
 31  15  32  1   
 32  15  33  1   
 33  17  34  1   
 34  17  35  1   
 35  17  36  1   
 36  18  37  1   
 37  18  38  1   
 38  18  39  1   
 39  19  40  1   
 40  19  41  1   
 41  19  42  1   
 42  20  21  1   
 43  20  43  1   
 44  20  44  1   
 45  21  45  1   
 46  21  46  1   
 47  21  47  1   
@<TRIPOS>SUBSTRUCTURE
  1 ****   4 GROUP 4 **** **** 0

# MOE 2024.06 (io_trps.svl 2023.06)
