@<TRIPOS>MOLECULE
NONAME
46 48 1 0 0 
SMALL
USER_CHARGES


@<TRIPOS>ATOM
  1 S        0.0340    -0.5820     0.0050 S.3   1 <1>  -0.0800 
  2 C       -0.7100    -1.8360     0.9880 C.ar  1 <1>   0.2970 
  3 C       -1.2870    -0.6330    -1.1590 C.2   1 <1>  -0.1400 
  4 N       -0.1680    -2.2480     2.1150 N.ar  1 <1>  -0.5670 
  5 C       -1.8830    -2.2760     0.4200 C.ar  1 <1>   0.0000 
  6 C       -2.2070    -1.5520    -0.7990 C.2   1 <1>  -0.1810 
  7 C       -1.1640     0.3400    -2.3160 C.3   1 <1>  -0.0600 
  8 C       -0.8930    -3.1770     2.7020 C.ar  1 <1>   0.4700 
  9 C       -2.5120    -3.3040     1.1410 C.ar  1 <1>   0.4100 
 10 C       -3.4950    -1.8160    -1.5660 C.3   1 <1>  -0.0590 
 11 N       -2.0280    -3.7220     2.2990 N.ar  1 <1>  -0.6200 
 12 N       -3.6360    -3.9590     0.6870 N.pl3 1 <1>  -0.8380 
 13 C       -3.4870    -4.9230    -0.4480 C.3   1 <1>   0.2090 
 14 C       -4.7960    -4.2310     1.5900 C.3   1 <1>   0.2090 
 15 C       -3.2830    -6.3920     0.0110 C.3   1 <1>  -0.1060 
 16 C       -5.1850    -5.7160     1.5900 C.3   1 <1>  -0.1600 
 17 C       -3.9540    -7.2670    -1.0670 C.2   1 <1>   0.9060 
 18 C       -3.9260    -6.5600     1.4210 C.3   1 <1>   0.2000 
 19 C       -1.7710    -6.7410     0.1510 C.3   1 <1>  -0.1600 
 20 O       -4.4470    -8.3650    -0.7670 O.co2 1 <1>  -0.9000 
 21 O       -3.9930    -6.8650    -2.2380 O.co2 1 <1>  -0.9000 
 22 O       -4.2310    -7.8760     1.7080 O.3   1 <1>  -0.6800 
 23 C       -0.9590    -6.7600    -1.1580 C.3   1 <1>  -0.1600 
 24 C        0.5110    -7.0880    -0.8820 C.3   1 <1>  -0.2400 
 25 H       -1.9710     0.2210    -3.0130 H     1 <1>   0.0800 
 26 H       -0.2380     0.1700    -2.8350 H     1 <1>   0.0800 
 27 H       -1.1730     1.3480    -1.9440 H     1 <1>   0.0800 
 28 H       -0.5090    -3.5470     3.6380 H     1 <1>   0.1500 
 29 H       -4.3220    -1.8880    -0.8840 H     1 <1>   0.0800 
 30 H       -3.4170    -2.7310    -2.1220 H     1 <1>   0.0800 
 31 H       -3.7060    -1.0220    -2.2560 H     1 <1>   0.0800 
 32 H       -4.3870    -4.8490    -1.0350 H     1 <1>   0.0800 
 33 H       -2.6790    -4.6190    -1.0860 H     1 <1>   0.0800 
 34 H       -4.5430    -3.9360     2.5940 H     1 <1>   0.0800 
 35 H       -5.6370    -3.6380     1.2750 H     1 <1>   0.0800 
 36 H       -5.8680    -5.9160     0.7840 H     1 <1>   0.0800 
 37 H       -5.6690    -5.9530     2.5190 H     1 <1>   0.0800 
 38 H       -3.2220    -6.2450     2.1730 H     1 <1>   0.0800 
 39 H       -1.3160    -6.0430     0.8320 H     1 <1>   0.0800 
 40 H       -1.6970    -7.7190     0.5970 H     1 <1>   0.0800 
 41 H       -4.4220    -8.3100     0.8160 H     1 <1>   0.4000 
 42 H       -1.3650    -7.5010    -1.8260 H     1 <1>   0.0800 
 43 H       -1.0140    -5.8080    -1.6540 H     1 <1>   0.0800 
 44 H        0.5950    -8.0520    -0.4120 H     1 <1>   0.0800 
 45 H        0.9450    -6.3450    -0.2370 H     1 <1>   0.0800 
 46 H        1.0610    -7.1060    -1.8060 H     1 <1>   0.0800 
@<TRIPOS>BOND
  1   1   2  1   
  2   1   3  1   
  3   2   4  ar  
  4   2   5  ar  
  5   3   6  2   
  6   3   7  1   
  7   4   8  ar  
  8   5   6  1   
  9   5   9  ar  
 10   6  10  1   
 11   7  25  1   
 12   7  26  1   
 13   7  27  1   
 14   8  11  ar  
 15   8  28  1   
 16   9  11  ar  
 17   9  12  1   
 18  10  29  1   
 19  10  30  1   
 20  10  31  1   
 21  12  13  1   
 22  12  14  1   
 23  13  15  1   
 24  13  32  1   
 25  13  33  1   
 26  14  16  1   
 27  14  34  1   
 28  14  35  1   
 29  15  17  1   
 30  15  18  1   
 31  15  19  1   
 32  16  18  1   
 33  16  36  1   
 34  16  37  1   
 35  17  20  ar  
 36  17  21  ar  
 37  18  22  1   
 38  18  38  1   
 39  19  23  1   
 40  19  39  1   
 41  19  40  1   
 42  22  41  1   
 43  23  24  1   
 44  23  42  1   
 45  23  43  1   
 46  24  44  1   
 47  24  45  1   
 48  24  46  1   
@<TRIPOS>SUBSTRUCTURE
  1 ****  12 GROUP 4 **** **** 0

# MOE 2024.06 (io_trps.svl 2023.06)
