@<TRIPOS>MOLECULE
NONAME
40 42 1 0 0 
SMALL
USER_CHARGES


@<TRIPOS>ATOM
  1 O       -0.3040     1.3880     2.0280 O.2   1 <1>  -0.5700 
  2 C       -0.1320     2.1690     1.1100 C.2   1 <1>   0.7160 
  3 N       -1.2160     2.8680     0.6240 N.am  1 <1>  -0.6600 
  4 C        1.1990     2.3410     0.5770 C.2   1 <1>  -0.0860 
  5 C       -2.6030     2.4510     1.0100 C.3   1 <1>   0.1400 
  6 C       -1.0780     4.1610    -0.1080 C.3   1 <1>   0.1400 
  7 C        2.3780     2.2630     1.2500 C.2   1 <1>  -0.0100 
  8 C        1.5880     2.6010    -0.7560 C.2   1 <1>  -0.1500 
  9 C       -3.6760     2.9570     0.0160 C.3   1 <1>   0.0000 
 10 C       -2.2280     5.1050     0.2450 C.3   1 <1>  -0.1600 
 11 O        3.4020     2.4670     0.4570 O.3   1 <1>  -0.2800 
 12 C        2.9350     2.6680    -0.7560 C.2   1 <1>  -0.0100 
 13 C       -5.0610     2.4450     0.4640 C.3   1 <1>   0.2000 
 14 C       -3.6110     4.5080    -0.0740 C.3   1 <1>  -0.1600 
 15 C       -3.5050     2.2660    -1.3530 C.3   1 <1>  -0.1600 
 16 O       -6.0610     3.1790    -0.1860 O.3   1 <1>  -0.5600 
 17 C       -5.1320     0.9940    -0.0280 C.3   1 <1>  -0.1600 
 18 C       -4.1790     0.8960    -1.2270 C.3   1 <1>  -0.1600 
 19 C       -7.2930     3.2030     0.4630 C.3   1 <1>   0.0400 
 20 H       -2.6370     1.3770     1.0750 H     1 <1>   0.0800 
 21 H       -2.8120     2.8420     1.9900 H     1 <1>   0.0800 
 22 H       -0.1440     4.6310     0.1510 H     1 <1>   0.0800 
 23 H       -1.0830     3.9730    -1.1680 H     1 <1>   0.0800 
 24 H        2.5510     2.0630     2.2940 H     1 <1>   0.1500 
 25 H        0.9160     2.7070    -1.5880 H     1 <1>   0.1500 
 26 H       -2.1670     5.3270     1.2970 H     1 <1>   0.0800 
 27 H       -2.1090     6.0340    -0.2850 H     1 <1>   0.0800 
 28 H        3.6320     2.8460    -1.5570 H     1 <1>   0.1500 
 29 H       -5.1930     2.5330     1.5300 H     1 <1>   0.0800 
 30 H       -3.9230     4.8220    -1.0550 H     1 <1>   0.0800 
 31 H       -4.3140     4.9360     0.6200 H     1 <1>   0.0800 
 32 H       -4.0330     2.8270    -2.1050 H     1 <1>   0.0800 
 33 H       -2.4790     2.1710    -1.6580 H     1 <1>   0.0800 
 34 H       -4.7850     0.3390     0.7510 H     1 <1>   0.0800 
 35 H       -6.1330     0.7060    -0.2960 H     1 <1>   0.0800 
 36 H       -3.4410     0.1320    -1.0470 H     1 <1>   0.0800 
 37 H       -4.7160     0.6570    -2.1290 H     1 <1>   0.0800 
 38 H       -7.9780     3.7670    -0.1450 H     1 <1>   0.0800 
 39 H       -7.1790     3.6830     1.4190 H     1 <1>   0.0800 
 40 H       -7.6590     2.1990     0.5840 H     1 <1>   0.0800 
@<TRIPOS>BOND
  1   1   2  2   
  2   2   3  am  
  3   2   4  1   
  4   3   5  1   
  5   3   6  1   
  6   4   7  2   
  7   4   8  1   
  8   5   9  1   
  9   5  20  1   
 10   5  21  1   
 11   6  10  1   
 12   6  22  1   
 13   6  23  1   
 14   7  11  1   
 15   7  24  1   
 16   8  12  2   
 17   8  25  1   
 18   9  13  1   
 19   9  14  1   
 20   9  15  1   
 21  10  14  1   
 22  10  26  1   
 23  10  27  1   
 24  11  12  1   
 25  12  28  1   
 26  13  16  1   
 27  13  17  1   
 28  13  29  1   
 29  14  30  1   
 30  14  31  1   
 31  15  18  1   
 32  15  32  1   
 33  15  33  1   
 34  16  19  1   
 35  17  18  1   
 36  17  34  1   
 37  17  35  1   
 38  18  36  1   
 39  18  37  1   
 40  19  38  1   
 41  19  39  1   
 42  19  40  1   
@<TRIPOS>SUBSTRUCTURE
  1 ****   3 GROUP 4 **** **** 0

# MOE 2024.06 (io_trps.svl 2023.06)
