@<TRIPOS>MOLECULE
NONAME
39 40 1 0 0 
SMALL
USER_CHARGES


@<TRIPOS>ATOM
  1 S        0.4440    -1.0290    -0.0070 S.3   1 <1>  -0.2860 
  2 C       -0.3960     0.4700     0.5250 C.2   1 <1>   0.2420 
  3 C       -0.3700    -2.3830     0.9770 C.3   1 <1>   0.1310 
  4 N       -1.3560     0.4950     1.3820 N.2   1 <1>  -0.3380 
  5 N       -0.0900     1.6700     0.0360 N.pl3 1 <1>   0.0480 
  6 C       -1.0630    -3.4000     0.0770 C.2   1 <1>   0.5690 
  7 N       -1.7350     1.7720     1.4690 N.2   1 <1>  -0.3380 
  8 C       -0.9740     2.4480     0.6720 C.2   1 <1>   0.0360 
  9 C        0.9400     2.0380    -0.9530 C.3   1 <1>   0.0160 
 10 O       -0.5220    -4.4770    -0.0310 O.2   1 <1>  -0.5700 
 11 N       -2.2670    -3.1460    -0.5360 N.am  1 <1>  -0.6600 
 12 C       -2.9130    -4.1760    -1.3940 C.3   1 <1>   0.3200 
 13 C       -2.9880    -1.8350    -0.4940 C.3   1 <1>   0.1400 
 14 C       -4.1870    -4.6600    -0.7300 C.2   1 <1>  -0.3320 
 15 C       -3.8370    -1.6830     0.7730 C.3   1 <1>   0.1200 
 16 N       -4.2290    -5.4310     0.3750 N.pl3 1 <1>   0.0480 
 17 C       -5.4700    -4.4360    -1.0910 C.2   1 <1>   0.0770 
 18 O       -4.1880    -0.3480     0.9220 O.3   1 <1>  -0.6800 
 19 C       -5.5470    -5.6180     0.6100 C.2   1 <1>   0.0360 
 20 C       -3.1030    -5.9710     1.1590 C.3   1 <1>   0.0160 
 21 N       -6.3250    -5.0380    -0.2460 N.2   1 <1>  -0.5650 
 22 H       -1.0610    -1.9480     1.6690 H     1 <1>   0.0800 
 23 H        0.4160    -2.8640     1.5290 H     1 <1>   0.0800 
 24 H       -1.0340     3.5110     0.5240 H     1 <1>   0.1500 
 25 H        1.9020     1.7120    -0.6010 H     1 <1>   0.0800 
 26 H        0.9510     3.1040    -1.0880 H     1 <1>   0.0800 
 27 H        0.7210     1.5590    -1.8900 H     1 <1>   0.0800 
 28 H       -2.2540    -5.0100    -1.5670 H     1 <1>   0.0800 
 29 H       -3.1420    -3.7450    -2.3530 H     1 <1>   0.0800 
 30 H       -3.6360    -1.7500    -1.3490 H     1 <1>   0.0800 
 31 H       -2.2770    -1.0370    -0.5560 H     1 <1>   0.0800 
 32 H       -3.2960    -1.9800     1.6530 H     1 <1>   0.0800 
 33 H       -4.7430    -2.2590     0.6940 H     1 <1>   0.0800 
 34 H       -5.8330    -3.8620    -1.9270 H     1 <1>   0.1500 
 35 H       -3.3990     0.1950     1.1690 H     1 <1>   0.4000 
 36 H       -5.9010    -6.2020     1.4410 H     1 <1>   0.1500 
 37 H       -2.3680    -6.3840     0.4920 H     1 <1>   0.0800 
 38 H       -3.4570    -6.7400     1.8200 H     1 <1>   0.0800 
 39 H       -2.6590    -5.1790     1.7320 H     1 <1>   0.0800 
@<TRIPOS>BOND
  1   1   2  1   
  2   1   3  1   
  3   2   4  2   
  4   2   5  1   
  5   3   6  1   
  6   3  22  1   
  7   3  23  1   
  8   4   7  1   
  9   5   8  1   
 10   5   9  1   
 11   6  10  2   
 12   6  11  am  
 13   7   8  2   
 14   8  24  1   
 15   9  25  1   
 16   9  26  1   
 17   9  27  1   
 18  11  12  1   
 19  11  13  1   
 20  12  14  1   
 21  12  28  1   
 22  12  29  1   
 23  13  15  1   
 24  13  30  1   
 25  13  31  1   
 26  14  16  1   
 27  14  17  2   
 28  15  18  1   
 29  15  32  1   
 30  15  33  1   
 31  16  19  1   
 32  16  20  1   
 33  17  21  1   
 34  17  34  1   
 35  18  35  1   
 36  19  21  2   
 37  19  36  1   
 38  20  37  1   
 39  20  38  1   
 40  20  39  1   
@<TRIPOS>SUBSTRUCTURE
  1 ****  13 GROUP 4 **** **** 0

# MOE 2024.06 (io_trps.svl 2023.06)
