@<TRIPOS>MOLECULE
NONAME
71 74 1 0 0 
SMALL
USER_CHARGES


@<TRIPOS>ATOM
  1 O        1.3710    -1.5840    -0.3670 O.3   1 <1>  -0.5600 
  2 C        0.9490    -2.9060    -0.6260 C.3   1 <1>   0.4180 
  3 C        1.4850    -0.7190    -1.4670 C.3   1 <1>   0.1200 
  4 C       -0.1580    -2.9260    -1.6720 C.2   1 <1>  -0.2880 
  5 C        0.4200    -3.4470     0.7080 C.3   1 <1>  -0.1600 
  6 C        2.1600    -3.7380    -1.0610 C.3   1 <1>  -0.1600 
  7 C        0.1210    -0.5130    -2.1390 C.3   1 <1>  -0.0220 
  8 C       -0.5590    -1.8520    -2.3560 C.2   1 <1>  -0.2760 
  9 C        1.5230    -3.8120     1.7090 C.3   1 <1>   0.3430 
 10 C        3.2920    -3.7140    -0.0270 C.3   1 <1>   0.3430 
 11 C       -1.6890    -1.8500    -3.3700 C.3   1 <1>  -0.1020 
 12 N        2.8120    -3.2080     1.2940 N.4   1 <1>  -0.9590 
 13 C        3.8630    -3.2550     2.3440 C.3   1 <1>   0.4860 
 14 C        5.0390    -2.4090     1.9000 C.ar  1 <1>  -0.1440 
 15 C        6.1600    -3.0180     1.3460 C.ar  1 <1>   0.0820 
 16 C        4.9950    -1.0300     2.0370 C.ar  1 <1>  -0.1500 
 17 O        6.1420    -4.3720     1.2330 O.3   1 <1>  -0.3620 
 18 C        7.2310    -2.2310     0.9280 C.ar  1 <1>  -0.1500 
 19 C        6.0630    -0.2560     1.6210 C.ar  1 <1>  -0.1500 
 20 C        7.2560    -5.0770     0.7230 C.3   1 <1>   0.1200 
 21 C        7.1780    -0.8560     1.0670 C.ar  1 <1>  -0.1500 
 22 C        6.9590    -6.5780     0.7890 C.3   1 <1>   0.1100 
 23 N        7.9710    -7.3640     0.0550 N.3   1 <1>  -0.8100 
 24 C        9.2840    -7.4080     0.7540 C.3   1 <1>   0.1100 
 25 C        7.4890    -8.7440    -0.2000 C.3   1 <1>   0.1100 
 26 C       10.3190    -8.3080     0.0310 C.3   1 <1>   0.3430 
 27 C        8.4990    -9.5840    -1.0230 C.3   1 <1>   0.3430 
 28 N        9.7730    -8.8260    -1.2650 N.4   1 <1>  -0.9590 
 29 C       10.7850    -9.5570    -2.0670 C.3   1 <1>   0.3430 
 30 C       10.2900    -9.7170    -3.4990 C.3   1 <1>  -0.2400 
 31 H        2.1860    -1.1390    -2.1670 H     1 <1>   0.0800 
 32 H        1.8690     0.2220    -1.1140 H     1 <1>   0.0800 
 33 H       -0.6020    -3.8970    -1.8070 H     1 <1>   0.1500 
 34 H       -0.1640    -4.3310     0.5310 H     1 <1>   0.0800 
 35 H       -0.2450    -2.7200     1.1400 H     1 <1>   0.0800 
 36 H        2.5260    -3.3990    -2.0120 H     1 <1>   0.0800 
 37 H        1.8460    -4.7560    -1.2020 H     1 <1>   0.0800 
 38 H        0.2750    -0.0170    -3.0800 H     1 <1>   0.0800 
 39 H       -0.4990     0.1170    -1.5260 H     1 <1>   0.0800 
 40 H        1.6290    -4.8840     1.7530 H     1 <1>   0.0800 
 41 H        1.2430    -3.4590     2.6890 H     1 <1>   0.0800 
 42 H        4.0740    -3.0640    -0.3850 H     1 <1>   0.0800 
 43 H        3.7080    -4.7020     0.0810 H     1 <1>   0.0800 
 44 H       -2.4570    -1.1600    -3.0680 H     1 <1>   0.0800 
 45 H       -2.1260    -2.8290    -3.4540 H     1 <1>   0.0800 
 46 H       -1.3210    -1.5580    -4.3380 H     1 <1>   0.0800 
 47 H        2.5970    -2.2100     1.1070 H     1 <1>   0.4500 
 48 H        4.1820    -4.2710     2.5070 H     1 <1>   0.0800 
 49 H        3.4770    -2.8650     3.2710 H     1 <1>   0.0800 
 50 H        4.1360    -0.5420     2.4680 H     1 <1>   0.1500 
 51 H        8.1140    -2.6600     0.4930 H     1 <1>   0.1500 
 52 H        6.0300     0.8160     1.7280 H     1 <1>   0.1500 
 53 H        8.1140    -4.8320     1.3240 H     1 <1>   0.0800 
 54 H        7.4070    -4.7720    -0.2980 H     1 <1>   0.0800 
 55 H        8.0080    -0.2490     0.7450 H     1 <1>   0.1500 
 56 H        5.9970    -6.7420     0.3340 H     1 <1>   0.0800 
 57 H        6.9130    -6.8980     1.8170 H     1 <1>   0.0800 
 58 H        9.1530    -7.7680     1.7610 H     1 <1>   0.0800 
 59 H        9.6910    -6.4130     0.8190 H     1 <1>   0.0800 
 60 H        6.5580    -8.7070    -0.7400 H     1 <1>   0.0800 
 61 H        7.2990    -9.2430     0.7350 H     1 <1>   0.0800 
 62 H       10.5800    -9.1330     0.6740 H     1 <1>   0.0800 
 63 H       11.2150    -7.7370    -0.1470 H     1 <1>   0.0800 
 64 H        8.0430    -9.8420    -1.9640 H     1 <1>   0.0800 
 65 H        8.7070   -10.5020    -0.4990 H     1 <1>   0.0800 
 66 H        9.4700    -7.9780    -1.7680 H     1 <1>   0.4500 
 67 H       10.9790   -10.5240    -1.6310 H     1 <1>   0.0800 
 68 H       11.7080    -8.9990    -2.0780 H     1 <1>   0.0800 
 69 H        9.4250   -10.3520    -3.5490 H     1 <1>   0.0800 
 70 H       11.0650   -10.1750    -4.0890 H     1 <1>   0.0800 
 71 H       10.0650    -8.7600    -3.9350 H     1 <1>   0.0800 
@<TRIPOS>BOND
  1   1   2  1   
  2   1   3  1   
  3   2   4  1   
  4   2   5  1   
  5   2   6  1   
  6   3   7  1   
  7   3  31  1   
  8   3  32  1   
  9   4   8  2   
 10   4  33  1   
 11   5   9  1   
 12   5  34  1   
 13   5  35  1   
 14   6  10  1   
 15   6  36  1   
 16   6  37  1   
 17   7   8  1   
 18   7  38  1   
 19   7  39  1   
 20   8  11  1   
 21   9  12  1   
 22   9  40  1   
 23   9  41  1   
 24  10  12  1   
 25  10  42  1   
 26  10  43  1   
 27  11  44  1   
 28  11  45  1   
 29  11  46  1   
 30  12  13  1   
 31  12  47  1   
 32  13  14  1   
 33  13  48  1   
 34  13  49  1   
 35  14  15  ar  
 36  14  16  ar  
 37  15  17  1   
 38  15  18  ar  
 39  16  19  ar  
 40  16  50  1   
 41  17  20  1   
 42  18  21  ar  
 43  18  51  1   
 44  19  21  ar  
 45  19  52  1   
 46  20  22  1   
 47  20  53  1   
 48  20  54  1   
 49  21  55  1   
 50  22  23  1   
 51  22  56  1   
 52  22  57  1   
 53  23  24  1   
 54  23  25  1   
 55  24  26  1   
 56  24  58  1   
 57  24  59  1   
 58  25  27  1   
 59  25  60  1   
 60  25  61  1   
 61  26  28  1   
 62  26  62  1   
 63  26  63  1   
 64  27  28  1   
 65  27  64  1   
 66  27  65  1   
 67  28  29  1   
 68  28  66  1   
 69  29  30  1   
 70  29  67  1   
 71  29  68  1   
 72  30  69  1   
 73  30  70  1   
 74  30  71  1   
@<TRIPOS>SUBSTRUCTURE
  1 ****  10 GROUP 4 **** **** 0

# MOE 2024.06 (io_trps.svl 2023.06)
