@<TRIPOS>MOLECULE
NONAME
56 60 1 0 0 
SMALL
USER_CHARGES


@<TRIPOS>ATOM
  1 O       -0.9950     0.5580    -1.1650 O.2   1 <1>  -0.5700 
  2 C       -1.9790     1.1960    -0.8410 C.2   1 <1>   0.7030 
  3 N       -3.2300     0.6840    -1.1120 N.am  1 <1>  -0.6600 
  4 C       -1.7760     2.4750    -0.1810 C.2   1 <1>   0.2770 
  5 C       -3.4290    -0.3030    -2.2170 C.3   1 <1>   0.1400 
  6 C       -4.3970     0.7920    -0.1890 C.3   1 <1>   0.1400 
  7 N       -0.6100     2.8510     0.4670 N.pl3 1 <1>  -0.7000 
  8 C       -2.6070     3.5410    -0.0850 C.2   1 <1>   0.2000 
  9 C       -3.7430    -1.6810    -1.6320 C.3   1 <1>  -0.1600 
 10 C       -4.7070    -0.5830     0.4080 C.3   1 <1>  -0.1600 
 11 C       -0.7440     4.0950     0.9380 C.cat 1 <1>   0.7910 
 12 N       -1.9790     4.5470     0.6170 N.pl3 1 <1>  -0.6290 
 13 C       -4.9480    -1.6400    -0.6830 C.3   1 <1>   0.4240 
 14 C        0.1550     4.9090     1.6480 C.2   1 <1>  -0.1410 
 15 C       -2.3740     5.8180     0.9810 C.2   1 <1>   0.2290 
 16 O       -6.0290    -1.2010    -1.4710 O.3   1 <1>  -0.5600 
 17 C       -5.2010    -3.0340    -0.0720 C.ar  1 <1>  -0.1430 
 18 C       -0.2250     6.1710     2.0180 C.2   1 <1>  -0.1500 
 19 C       -1.5160     6.6230     1.6730 C.2   1 <1>  -0.1500 
 20 C       -7.3170    -1.5140    -1.0340 C.3   1 <1>   0.1200 
 21 C       -6.4090    -3.6930    -0.2570 C.ar  1 <1>  -0.1440 
 22 C       -4.2200    -3.6600     0.6840 C.ar  1 <1>  -0.1500 
 23 C       -7.4990    -3.0280    -1.0730 C.3   1 <1>  -0.0170 
 24 C       -6.6230    -4.9450     0.2990 C.ar  1 <1>  -0.1500 
 25 C       -4.4130    -4.9120     1.2430 C.ar  1 <1>   0.0830 
 26 C       -5.6390    -5.5700     1.0610 C.ar  1 <1>   0.0830 
 27 O       -3.3500    -5.3940     1.9470 O.3   1 <1>  -0.3630 
 28 O       -5.8540    -6.7870     1.6420 O.3   1 <1>  -0.3620 
 29 C       -3.0560    -6.7730     1.9610 C.3   1 <1>   0.0400 
 30 C       -7.1200    -7.4090     1.6360 C.3   1 <1>   0.0400 
 31 H       -2.5490    -0.3650    -2.8350 H     1 <1>   0.0800 
 32 H       -4.2460     0.0230    -2.8390 H     1 <1>   0.0800 
 33 H       -5.2520     1.1510    -0.7390 H     1 <1>   0.0800 
 34 H       -4.1950     1.4790     0.6130 H     1 <1>   0.0800 
 35 H        0.2230     2.2540     0.5130 H     1 <1>   0.4500 
 36 H       -3.6030     3.6440    -0.4850 H     1 <1>   0.1500 
 37 H       -2.8710    -2.0350    -1.1150 H     1 <1>   0.0800 
 38 H       -3.9480    -2.3760    -2.4270 H     1 <1>   0.0800 
 39 H       -5.5650    -0.5230     1.0500 H     1 <1>   0.0800 
 40 H       -3.8780    -0.8850     1.0210 H     1 <1>   0.0800 
 41 H        1.1270     4.5200     1.8860 H     1 <1>   0.1500 
 42 H       -3.3640     6.1460     0.7040 H     1 <1>   0.1500 
 43 H        0.4360     6.8260     2.5650 H     1 <1>   0.1500 
 44 H       -1.8080     7.6180     1.9660 H     1 <1>   0.1500 
 45 H       -8.0160    -1.0340    -1.6970 H     1 <1>   0.0800 
 46 H       -7.4560    -1.1340    -0.0380 H     1 <1>   0.0800 
 47 H       -3.2710    -3.1850     0.8540 H     1 <1>   0.1500 
 48 H       -7.4510    -3.3700    -2.0920 H     1 <1>   0.0800 
 49 H       -8.4670    -3.2780    -0.6770 H     1 <1>   0.0800 
 50 H       -7.5690    -5.4180     0.1260 H     1 <1>   0.1500 
 51 H       -2.0220    -6.8930     2.2270 H     1 <1>   0.0800 
 52 H       -3.2360    -7.1820     0.9820 H     1 <1>   0.0800 
 53 H       -3.6780    -7.2530     2.6950 H     1 <1>   0.0800 
 54 H       -7.0500    -8.3130     2.2140 H     1 <1>   0.0800 
 55 H       -7.3890    -7.6460     0.6220 H     1 <1>   0.0800 
 56 H       -7.8380    -6.7450     2.0830 H     1 <1>   0.0800 
@<TRIPOS>BOND
  1   1   2  2   
  2   2   3  am  
  3   2   4  1   
  4   3   5  1   
  5   3   6  1   
  6   4   7  1   
  7   4   8  2   
  8   5   9  1   
  9   5  31  1   
 10   5  32  1   
 11   6  10  1   
 12   6  33  1   
 13   6  34  1   
 14   7  11  ar  
 15   7  35  1   
 16   8  12  1   
 17   8  36  1   
 18   9  13  1   
 19   9  37  1   
 20   9  38  1   
 21  10  13  1   
 22  10  39  1   
 23  10  40  1   
 24  11  12  ar  
 25  11  14  1   
 26  12  15  1   
 27  13  16  1   
 28  13  17  1   
 29  14  18  2   
 30  14  41  1   
 31  15  19  2   
 32  15  42  1   
 33  16  20  1   
 34  17  21  ar  
 35  17  22  ar  
 36  18  19  1   
 37  18  43  1   
 38  19  44  1   
 39  20  23  1   
 40  20  45  1   
 41  20  46  1   
 42  21  23  1   
 43  21  24  ar  
 44  22  25  ar  
 45  22  47  1   
 46  23  48  1   
 47  23  49  1   
 48  24  26  ar  
 49  24  50  1   
 50  25  26  ar  
 51  25  27  1   
 52  26  28  1   
 53  27  29  1   
 54  28  30  1   
 55  29  51  1   
 56  29  52  1   
 57  29  53  1   
 58  30  54  1   
 59  30  55  1   
 60  30  56  1   
@<TRIPOS>SUBSTRUCTURE
  1 ****  10 GROUP 4 **** **** 0

# MOE 2024.06 (io_trps.svl 2023.06)
