@<TRIPOS>MOLECULE
NONAME
40 42 1 0 0 
SMALL
USER_CHARGES


@<TRIPOS>ATOM
  1 F        0.0900    -0.7230    -1.2200 F     1 <1>  -0.1900 
  2 C       -0.5450    -1.8110    -0.8620 C.ar  1 <1>   0.1900 
  3 C        0.1260    -2.9310    -0.3590 C.ar  1 <1>   0.0830 
  4 C       -1.9190    -1.7940    -1.0030 C.ar  1 <1>  -0.1500 
  5 O        1.4710    -3.0680    -0.1740 O.3   1 <1>  -0.3630 
  6 C       -0.6390    -4.0320    -0.0060 C.ar  1 <1>  -0.1500 
  7 C       -2.6500    -2.9090    -0.6390 C.ar  1 <1>  -0.1500 
  8 C        2.4020    -2.0730    -0.5370 C.3   1 <1>   0.0400 
  9 C       -2.0300    -4.0550    -0.1350 C.ar  1 <1>   0.0530 
 10 C       -2.7880    -5.2240     0.2460 C.2   1 <1>   0.0870 
 11 O       -2.2910    -6.0890     1.1000 O.3   1 <1>  -0.0190 
 12 C       -4.0130    -5.6890    -0.1040 C.2   1 <1>  -0.2330 
 13 N       -3.1010    -7.0860     1.3460 N.2   1 <1>  -0.4100 
 14 C       -4.1490    -6.8640     0.6330 C.2   1 <1>   0.3720 
 15 C       -4.9800    -5.1650    -1.0070 C.2   1 <1>   1.0330 
 16 N       -5.2500    -7.7240     0.6400 N.pl3 1 <1>  -0.8210 
 17 O       -5.7970    -4.3100    -0.6210 O.co2 1 <1>  -0.9000 
 18 O       -5.0260    -5.5510    -2.1860 O.co2 1 <1>  -0.9000 
 19 C       -5.4470    -8.4340    -0.6490 C.3   1 <1>   0.2090 
 20 C       -6.5050    -7.0840     1.1120 C.3   1 <1>   0.2090 
 21 C       -6.4430    -9.5720    -0.4300 C.3   1 <1>  -0.1600 
 22 C       -7.5340    -8.1780     1.3890 C.3   1 <1>  -0.1600 
 23 C       -7.7550    -9.0200     0.1310 C.3   1 <1>   0.2000 
 24 O       -8.5690   -10.0850     0.4590 O.3   1 <1>  -0.6800 
 25 H       -2.4130    -0.9230    -1.3920 H     1 <1>   0.1500 
 26 H       -0.1350    -4.8990     0.3790 H     1 <1>   0.1500 
 27 H       -3.7220    -2.8840    -0.7460 H     1 <1>   0.1500 
 28 H        3.3880    -2.4410    -0.3180 H     1 <1>   0.0800 
 29 H        2.2080    -1.1860     0.0400 H     1 <1>   0.0800 
 30 H        2.3110    -1.8770    -1.5910 H     1 <1>   0.0800 
 31 H       -4.5040    -8.8230    -0.9940 H     1 <1>   0.0800 
 32 H       -5.8260    -7.7540    -1.3940 H     1 <1>   0.0800 
 33 H       -6.8840    -6.4090     0.3620 H     1 <1>   0.0800 
 34 H       -6.3070    -6.5200     2.0080 H     1 <1>   0.0800 
 35 H       -6.0050   -10.2760     0.2540 H     1 <1>   0.0800 
 36 H       -6.6280   -10.0620    -1.3690 H     1 <1>   0.0800 
 37 H       -8.4600    -7.7220     1.6870 H     1 <1>   0.0800 
 38 H       -7.1670    -8.7890     2.1940 H     1 <1>   0.0800 
 39 H       -8.2590    -8.4340    -0.6200 H     1 <1>   0.0800 
 40 H       -8.1250   -10.6250     1.1380 H     1 <1>   0.4000 
@<TRIPOS>BOND
  1   1   2  1   
  2   2   3  ar  
  3   2   4  ar  
  4   3   5  1   
  5   3   6  ar  
  6   4   7  ar  
  7   4  25  1   
  8   5   8  1   
  9   6   9  ar  
 10   6  26  1   
 11   7   9  ar  
 12   7  27  1   
 13   8  28  1   
 14   8  29  1   
 15   8  30  1   
 16   9  10  1   
 17  10  11  1   
 18  10  12  2   
 19  11  13  1   
 20  12  14  1   
 21  12  15  1   
 22  13  14  2   
 23  14  16  1   
 24  15  17  ar  
 25  15  18  ar  
 26  16  19  1   
 27  16  20  1   
 28  19  21  1   
 29  19  31  1   
 30  19  32  1   
 31  20  22  1   
 32  20  33  1   
 33  20  34  1   
 34  21  23  1   
 35  21  35  1   
 36  21  36  1   
 37  22  23  1   
 38  22  37  1   
 39  22  38  1   
 40  23  24  1   
 41  23  39  1   
 42  24  40  1   
@<TRIPOS>SUBSTRUCTURE
  1 ****  12 GROUP 4 **** **** 0

# MOE 2024.06 (io_trps.svl 2023.06)
