@<TRIPOS>MOLECULE
NONAME
52 54 1 0 0 
SMALL
USER_CHARGES


@<TRIPOS>ATOM
  1 O       -0.1570     0.4980     1.5040 O.2   1 <1>  -0.5700 
  2 C        0.0920     1.6210     1.1050 C.2   1 <1>   0.6900 
  3 N       -0.9180     2.5350     0.9440 N.am  1 <1>  -0.6600 
  4 N        1.3650     1.9960     0.7890 N.am  1 <1>  -0.5470 
  5 C       -2.3460     2.0850     1.0170 C.3   1 <1>   0.1400 
  6 C       -0.6760     3.9950     0.7440 C.3   1 <1>   0.1400 
  7 C        2.6240     1.3740     0.8590 C.ar  1 <1>   0.1170 
  8 C       -3.2840     2.9550     0.1470 C.3   1 <1>   0.0000 
  9 C       -1.8560     4.8160     1.2660 C.3   1 <1>  -0.1600 
 10 C        3.7060     2.0190     0.2490 C.ar  1 <1>   0.0830 
 11 C        2.8440     0.1650     1.5080 C.ar  1 <1>  -0.1500 
 12 C       -4.7180     2.3910     0.2340 C.3   1 <1>   0.2000 
 13 C       -3.1930     4.4380     0.6000 C.3   1 <1>  -0.1600 
 14 C       -2.9550     2.7630    -1.3490 C.3   1 <1>  -0.1600 
 15 O        3.4500     3.2120    -0.3710 O.3   1 <1>  -0.3630 
 16 C        4.9740     1.4460     0.2920 C.ar  1 <1>  -0.1500 
 17 C        4.1060    -0.4010     1.5470 C.ar  1 <1>  -0.1500 
 18 O       -5.6270     3.3530    -0.2260 O.3   1 <1>  -0.5600 
 19 C       -4.7440     1.2020    -0.7340 C.3   1 <1>  -0.1600 
 20 C       -3.6470     1.4640    -1.7740 C.3   1 <1>  -0.1600 
 21 C        4.4560     3.9000    -1.0780 C.3   1 <1>   0.1200 
 22 C        5.1710     0.2390     0.9390 C.ar  1 <1>  -0.1500 
 23 C       -6.9260     3.2150     0.2540 C.3   1 <1>   0.0400 
 24 C        3.8310     5.1550    -1.6790 C.3   1 <1>  -0.2400 
 25 H        1.4110     2.8890     0.3090 H     1 <1>   0.3700 
 26 H       -2.4070     1.0560     0.7080 H     1 <1>   0.0800 
 27 H       -2.6610     2.1350     2.0450 H     1 <1>   0.0800 
 28 H        0.2160     4.2920     1.2710 H     1 <1>   0.0800 
 29 H       -0.5350     4.1900    -0.3050 H     1 <1>   0.0800 
 30 H       -1.9280     4.6550     2.3280 H     1 <1>   0.0800 
 31 H       -1.6630     5.8630     1.1140 H     1 <1>   0.0800 
 32 H        2.0310    -0.3450     1.9890 H     1 <1>   0.1500 
 33 H       -4.9750     2.1150     1.2430 H     1 <1>   0.0800 
 34 H       -3.3700     5.0830    -0.2430 H     1 <1>   0.0800 
 35 H       -3.9750     4.6440     1.3110 H     1 <1>   0.0800 
 36 H       -3.3860     3.5700    -1.9160 H     1 <1>   0.0800 
 37 H       -1.9000     2.7300    -1.5520 H     1 <1>   0.0800 
 38 H        5.8210     1.9190    -0.1680 H     1 <1>   0.1500 
 39 H        4.2560    -1.3390     2.0520 H     1 <1>   0.1500 
 40 H       -4.5080     0.3020    -0.1950 H     1 <1>   0.0800 
 41 H       -5.7060     1.0800    -1.1990 H     1 <1>   0.0800 
 42 H       -2.9400     0.6510    -1.7740 H     1 <1>   0.0800 
 43 H       -4.0630     1.5650    -2.7610 H     1 <1>   0.0800 
 44 H        5.2420     4.1580    -0.3900 H     1 <1>   0.0800 
 45 H        4.8320     3.2540    -1.8530 H     1 <1>   0.0800 
 46 H        6.1520    -0.2040     0.9710 H     1 <1>   0.1500 
 47 H       -7.5290     3.9860    -0.1920 H     1 <1>   0.0800 
 48 H       -6.9230     3.3320     1.3230 H     1 <1>   0.0800 
 49 H       -7.3120     2.2490    -0.0210 H     1 <1>   0.0800 
 50 H        3.4480     5.7880    -0.8990 H     1 <1>   0.0800 
 51 H        3.0360     4.8880    -2.3510 H     1 <1>   0.0800 
 52 H        4.5750     5.7030    -2.2290 H     1 <1>   0.0800 
@<TRIPOS>BOND
  1   1   2  2   
  2   2   3  am  
  3   2   4  am  
  4   3   5  1   
  5   3   6  1   
  6   4   7  1   
  7   4  25  1   
  8   5   8  1   
  9   5  26  1   
 10   5  27  1   
 11   6   9  1   
 12   6  28  1   
 13   6  29  1   
 14   7  10  ar  
 15   7  11  ar  
 16   8  12  1   
 17   8  13  1   
 18   8  14  1   
 19   9  13  1   
 20   9  30  1   
 21   9  31  1   
 22  10  15  1   
 23  10  16  ar  
 24  11  17  ar  
 25  11  32  1   
 26  12  18  1   
 27  12  19  1   
 28  12  33  1   
 29  13  34  1   
 30  13  35  1   
 31  14  20  1   
 32  14  36  1   
 33  14  37  1   
 34  15  21  1   
 35  16  22  ar  
 36  16  38  1   
 37  17  22  ar  
 38  17  39  1   
 39  18  23  1   
 40  19  20  1   
 41  19  40  1   
 42  19  41  1   
 43  20  42  1   
 44  20  43  1   
 45  21  24  1   
 46  21  44  1   
 47  21  45  1   
 48  22  46  1   
 49  23  47  1   
 50  23  48  1   
 51  23  49  1   
 52  24  50  1   
 53  24  51  1   
 54  24  52  1   
@<TRIPOS>SUBSTRUCTURE
  1 ****   3 GROUP 4 **** **** 0

# MOE 2024.06 (io_trps.svl 2023.06)
