@<TRIPOS>MOLECULE
NONAME
41 43 1 0 0 
SMALL
USER_CHARGES


@<TRIPOS>ATOM
  1 S       -0.1520     0.5100    -1.9130 S.o2  1 <1>   1.4470 
  2 O        0.3000    -0.5930    -2.7390 O.2   1 <1>  -0.6500 
  3 O       -0.5840     1.6950    -2.6250 O.2   1 <1>  -0.6500 
  4 N       -1.4670    -0.0950    -1.0270 N.am  1 <1>  -0.8490 
  5 C        1.1280     0.8620    -0.6840 C.ar  1 <1>  -0.0090 
  6 C       -1.1470    -1.3770    -0.3720 C.3   1 <1>   0.1960 
  7 C       -2.6610    -0.2050    -1.8660 C.3   1 <1>   0.1960 
  8 C        1.0160     1.9830     0.1640 C.ar  1 <1>   0.3100 
  9 C        2.2070     0.0170    -0.5500 C.ar  1 <1>  -0.1500 
 10 C       -2.3010    -1.8480     0.5140 C.3   1 <1>  -0.1860 
 11 C       -3.8690    -0.6330    -1.0310 C.3   1 <1>  -0.1600 
 12 N       -0.0570     2.8140     0.0700 N.ar  1 <1>  -0.6200 
 13 C        2.0390     2.2230     1.1140 C.ar  1 <1>   0.0000 
 14 C        3.2110     0.2410     0.3950 C.ar  1 <1>  -0.1430 
 15 C       -1.9720    -3.1830     1.1450 C.2   1 <1>   0.9060 
 16 C       -3.5740    -1.9490    -0.3210 C.3   1 <1>   0.2000 
 17 C       -0.1220     3.8420     0.8560 C.ar  1 <1>   0.1600 
 18 C        3.1230     1.3330     1.2100 C.ar  1 <1>  -0.1500 
 19 C        1.9370     3.3520     1.9470 C.ar  1 <1>  -0.1500 
 20 C        4.3620    -0.7440     0.4910 C.3   1 <1>  -0.0960 
 21 O       -0.8380    -3.6550     1.0180 O.co2 1 <1>  -0.9000 
 22 O       -2.8660    -3.7730     1.7660 O.co2 1 <1>  -0.9000 
 23 O       -4.6290    -2.2490     0.5100 O.3   1 <1>  -0.6800 
 24 C        0.8510     4.1600     1.8110 C.ar  1 <1>  -0.1500 
 25 H       -0.9340    -2.1310    -1.1140 H     1 <1>   0.0800 
 26 H       -0.2710    -1.2660     0.2450 H     1 <1>   0.0800 
 27 H       -2.8750     0.7510    -2.3150 H     1 <1>   0.0800 
 28 H       -2.4850    -0.9180    -2.6550 H     1 <1>   0.0800 
 29 H        2.2880    -0.8520    -1.1840 H     1 <1>   0.1500 
 30 H       -2.4360    -1.1350     1.3040 H     1 <1>   0.0800 
 31 H       -4.7230    -0.7530    -1.6700 H     1 <1>   0.0800 
 32 H       -4.0800     0.1330    -0.3070 H     1 <1>   0.0800 
 33 H       -3.4800    -2.7520    -1.0340 H     1 <1>   0.0800 
 34 H       -0.9770     4.4900     0.7680 H     1 <1>   0.1500 
 35 H        3.8830     1.5300     1.9450 H     1 <1>   0.1500 
 36 H        2.7070     3.5550     2.6690 H     1 <1>   0.1500 
 37 H        5.0550    -0.4540     1.2600 H     1 <1>   0.0800 
 38 H        4.8860    -0.7890    -0.4470 H     1 <1>   0.0800 
 39 H        3.9840    -1.7240     0.7240 H     1 <1>   0.0800 
 40 H       -4.2740    -2.9340     1.1510 H     1 <1>   0.4000 
 41 H        0.7190     5.0360     2.4200 H     1 <1>   0.1500 
@<TRIPOS>BOND
  1   1   2  2   
  2   1   3  2   
  3   1   4  am  
  4   1   5  1   
  5   4   6  1   
  6   4   7  1   
  7   5   8  ar  
  8   5   9  ar  
  9   6  10  1   
 10   6  25  1   
 11   6  26  1   
 12   7  11  1   
 13   7  27  1   
 14   7  28  1   
 15   8  12  ar  
 16   8  13  ar  
 17   9  14  ar  
 18   9  29  1   
 19  10  15  1   
 20  10  16  1   
 21  10  30  1   
 22  11  16  1   
 23  11  31  1   
 24  11  32  1   
 25  12  17  ar  
 26  13  18  ar  
 27  13  19  ar  
 28  14  18  ar  
 29  14  20  1   
 30  15  21  ar  
 31  15  22  ar  
 32  16  23  1   
 33  16  33  1   
 34  17  24  ar  
 35  17  34  1   
 36  18  35  1   
 37  19  24  ar  
 38  19  36  1   
 39  20  37  1   
 40  20  38  1   
 41  20  39  1   
 42  23  40  1   
 43  24  41  1   
@<TRIPOS>SUBSTRUCTURE
  1 ****   4 GROUP 4 **** **** 0

# MOE 2024.06 (io_trps.svl 2023.06)
