@<TRIPOS>MOLECULE
NONAME
52 55 1 0 0 
SMALL
USER_CHARGES


@<TRIPOS>ATOM
  1 CL      -2.2140    -1.8470    -2.6320 Cl    1 <1>  -0.1770 
  2 C       -2.9670    -0.5000    -1.8200 C.ar  1 <1>   0.1770 
  3 C       -3.9660    -0.7210    -0.9150 C.ar  1 <1>  -0.1500 
  4 C       -2.5290     0.7900    -2.1190 C.ar  1 <1>  -0.1500 
  5 C       -4.5940     0.3590    -0.2560 C.ar  1 <1>   0.0000 
  6 C       -3.1210     1.8510    -1.4890 C.ar  1 <1>  -0.1500 
  7 C       -4.1580     1.6720    -0.5550 C.ar  1 <1>   0.3100 
  8 C       -5.6480     0.2070     0.6770 C.ar  1 <1>   0.0860 
  9 N       -4.6990     2.7750     0.0110 N.ar  1 <1>  -0.6200 
 10 C       -6.1810    -1.0890     1.0310 C.2   1 <1>   0.5440 
 11 C       -6.1630     1.3560     1.2200 C.ar  1 <1>  -0.1500 
 12 C       -5.6610     2.6080     0.8620 C.ar  1 <1>   0.1660 
 13 O       -5.4660    -1.9320     1.5440 O.2   1 <1>  -0.5700 
 14 N       -7.4930    -1.4160     0.7770 N.am  1 <1>  -0.6600 
 15 C       -6.2500     3.8570     1.4850 C.3   1 <1>  -0.0970 
 16 C       -8.0810    -2.6860     1.2970 C.3   1 <1>   0.1400 
 17 C       -8.2410    -0.8610    -0.3870 C.3   1 <1>   0.1400 
 18 C       -8.0100    -3.7550     0.1810 C.3   1 <1>   0.4230 
 19 C       -8.2180    -1.9040    -1.5150 C.3   1 <1>  -0.1600 
 20 N       -8.4710    -5.1240     0.5980 N.4   1 <1>  -0.9590 
 21 C       -8.8010    -3.2730    -1.0570 C.3   1 <1>  -0.1060 
 22 C       -8.2650    -6.1310    -0.4740 C.3   1 <1>   0.3430 
 23 C       -7.9650    -5.5880     1.9180 C.3   1 <1>   0.2630 
 24 C      -10.2840    -3.1240    -0.6660 C.2   1 <1>   0.9060 
 25 C       -8.6360    -4.2970    -2.2050 C.3   1 <1>  -0.1600 
 26 C       -9.0040    -5.7170    -1.7490 C.3   1 <1>  -0.1600 
 27 O      -10.7540    -3.8750     0.2040 O.co2 1 <1>  -0.9000 
 28 O      -10.9700    -2.2580    -1.2070 O.co2 1 <1>  -0.9000 
 29 H       -4.2680    -1.7310    -0.7070 H     1 <1>   0.1500 
 30 H       -1.7370     0.9240    -2.8340 H     1 <1>   0.1500 
 31 H       -2.8090     2.8600    -1.6930 H     1 <1>   0.1500 
 32 H       -6.9660     1.2940     1.9330 H     1 <1>   0.1500 
 33 H       -7.1120     3.6270     2.0830 H     1 <1>   0.0800 
 34 H       -6.5400     4.5430     0.7100 H     1 <1>   0.0800 
 35 H       -5.5100     4.3310     2.1040 H     1 <1>   0.0800 
 36 H       -7.5280    -3.0030     2.1610 H     1 <1>   0.0800 
 37 H       -9.1000    -2.5080     1.5960 H     1 <1>   0.0800 
 38 H       -9.2570    -0.6470    -0.0950 H     1 <1>   0.0800 
 39 H       -7.8000     0.0570    -0.7340 H     1 <1>   0.0800 
 40 H       -6.9730    -3.8310    -0.0970 H     1 <1>   0.0800 
 41 H       -8.7950    -1.5260    -2.3420 H     1 <1>   0.0800 
 42 H       -7.2050    -2.0200    -1.8570 H     1 <1>   0.0800 
 43 H       -9.5150    -4.9680     0.6590 H     1 <1>   0.4500 
 44 H       -7.2120    -6.2240    -0.6830 H     1 <1>   0.0800 
 45 H       -8.6350    -7.0900    -0.1480 H     1 <1>   0.0800 
 46 H       -6.8890    -5.6340     1.9090 H     1 <1>   0.0800 
 47 H       -8.3590    -6.5650     2.1420 H     1 <1>   0.0800 
 48 H       -8.2800    -4.9110     2.6950 H     1 <1>   0.0800 
 49 H       -9.2690    -4.0110    -3.0300 H     1 <1>   0.0800 
 50 H       -7.6180    -4.2930    -2.5540 H     1 <1>   0.0800 
 51 H       -8.7730    -6.4150    -2.5330 H     1 <1>   0.0800 
 52 H      -10.0650    -5.7790    -1.5720 H     1 <1>   0.0800 
@<TRIPOS>BOND
  1   1   2  1   
  2   2   3  ar  
  3   2   4  ar  
  4   3   5  ar  
  5   3  29  1   
  6   4   6  ar  
  7   4  30  1   
  8   5   7  ar  
  9   5   8  ar  
 10   6   7  ar  
 11   6  31  1   
 12   7   9  ar  
 13   8  10  1   
 14   8  11  ar  
 15   9  12  ar  
 16  10  13  2   
 17  10  14  am  
 18  11  12  ar  
 19  11  32  1   
 20  12  15  1   
 21  14  16  1   
 22  14  17  1   
 23  15  33  1   
 24  15  34  1   
 25  15  35  1   
 26  16  18  1   
 27  16  36  1   
 28  16  37  1   
 29  17  19  1   
 30  17  38  1   
 31  17  39  1   
 32  18  20  1   
 33  18  21  1   
 34  18  40  1   
 35  19  21  1   
 36  19  41  1   
 37  19  42  1   
 38  20  22  1   
 39  20  23  1   
 40  20  43  1   
 41  21  24  1   
 42  21  25  1   
 43  22  26  1   
 44  22  44  1   
 45  22  45  1   
 46  23  46  1   
 47  23  47  1   
 48  23  48  1   
 49  24  27  ar  
 50  24  28  ar  
 51  25  26  1   
 52  25  49  1   
 53  25  50  1   
 54  26  51  1   
 55  26  52  1   
@<TRIPOS>SUBSTRUCTURE
  1 ****  14 GROUP 4 **** **** 0

# MOE 2024.06 (io_trps.svl 2023.06)
