@<TRIPOS>MOLECULE
NONAME
44 45 1 0 0 
SMALL
USER_CHARGES


@<TRIPOS>ATOM
  1 O        0.4550     2.1050     3.2300 O.co2 1 <1>  -0.9000 
  2 C        0.0190     3.1350     2.6800 C.2   1 <1>   1.0330 
  3 O       -1.0280     3.6430     3.1310 O.co2 1 <1>  -0.9000 
  4 C        0.6810     3.7770     1.5420 C.2   1 <1>  -0.0060 
  5 N        1.8460     3.4080     0.9040 N.2   1 <1>  -0.5650 
  6 C        0.2270     4.8820     0.9210 C.2   1 <1>  -0.0100 
  7 C        1.9920     4.2920    -0.0190 C.2   1 <1>   0.5620 
  8 O        1.0440     5.2070    -0.0460 O.3   1 <1>  -0.2800 
  9 N        3.0410     4.3610    -0.9240 N.pl3 1 <1>  -0.8220 
 10 C        3.3030     5.5860    -1.7150 C.3   1 <1>   0.2090 
 11 C        3.8670     3.1530    -1.1980 C.3   1 <1>   0.1290 
 12 C        3.7460     6.7390    -0.7900 C.3   1 <1>  -0.0800 
 13 C        4.0960     8.0000    -1.5950 C.3   1 <1>  -0.1600 
 14 C        4.9330     6.3590     0.1140 C.3   1 <1>  -0.1600 
 15 C        4.5350     9.1400    -0.6750 C.3   1 <1>   0.3430 
 16 C        5.3510     7.5270     1.0020 C.3   1 <1>   0.3430 
 17 N        5.7010     8.7060     0.1550 N.4   1 <1>  -0.9590 
 18 C        6.2180     9.8150     1.0240 C.3   1 <1>   0.3430 
 19 C        6.8650    10.9540     0.2260 C.3   1 <1>   0.1200 
 20 O        7.3320    11.8810     1.1450 O.3   1 <1>  -0.5600 
 21 C        7.9730    12.9830     0.5820 C.3   1 <1>   0.0400 
 22 H       -0.6530     5.4670     1.1200 H     1 <1>   0.1500 
 23 H        2.4030     5.8600    -2.2400 H     1 <1>   0.0800 
 24 H        4.0670     5.3820    -2.4450 H     1 <1>   0.0800 
 25 H        3.5010     2.3060    -0.6420 H     1 <1>   0.0800 
 26 H        4.8870     3.3360    -0.9120 H     1 <1>   0.0800 
 27 H        3.8250     2.9130    -2.2460 H     1 <1>   0.0800 
 28 H        2.9090     6.9810    -0.1570 H     1 <1>   0.0800 
 29 H        3.2290     8.3180    -2.1490 H     1 <1>   0.0800 
 30 H        4.8760     7.7890    -2.3060 H     1 <1>   0.0800 
 31 H        5.7690     6.0270    -0.4770 H     1 <1>   0.0800 
 32 H        4.6490     5.5420     0.7570 H     1 <1>   0.0800 
 33 H        3.7140     9.4150    -0.0310 H     1 <1>   0.0800 
 34 H        4.7990     9.9970    -1.2720 H     1 <1>   0.0800 
 35 H        6.1970     7.2340     1.6030 H     1 <1>   0.0800 
 36 H        4.5370     7.7780     1.6640 H     1 <1>   0.0800 
 37 H        6.4530     8.4080    -0.4790 H     1 <1>   0.4500 
 38 H        6.9630     9.4220     1.6960 H     1 <1>   0.0800 
 39 H        5.4130    10.2200     1.6140 H     1 <1>   0.0800 
 40 H        6.1480    11.4440    -0.4100 H     1 <1>   0.0800 
 41 H        7.7020    10.5940    -0.3470 H     1 <1>   0.0800 
 42 H        8.2900    13.6310     1.3810 H     1 <1>   0.0800 
 43 H        7.2850    13.5120    -0.0560 H     1 <1>   0.0800 
 44 H        8.8330    12.6540     0.0240 H     1 <1>   0.0800 
@<TRIPOS>BOND
  1   1   2  ar  
  2   2   3  ar  
  3   2   4  1   
  4   4   5  1   
  5   4   6  2   
  6   5   7  2   
  7   6   8  1   
  8   6  22  1   
  9   7   8  1   
 10   7   9  1   
 11   9  10  1   
 12   9  11  1   
 13  10  12  1   
 14  10  23  1   
 15  10  24  1   
 16  11  25  1   
 17  11  26  1   
 18  11  27  1   
 19  12  13  1   
 20  12  14  1   
 21  12  28  1   
 22  13  15  1   
 23  13  29  1   
 24  13  30  1   
 25  14  16  1   
 26  14  31  1   
 27  14  32  1   
 28  15  17  1   
 29  15  33  1   
 30  15  34  1   
 31  16  17  1   
 32  16  35  1   
 33  16  36  1   
 34  17  18  1   
 35  17  37  1   
 36  18  19  1   
 37  18  38  1   
 38  18  39  1   
 39  19  20  1   
 40  19  40  1   
 41  19  41  1   
 42  20  21  1   
 43  21  42  1   
 44  21  43  1   
 45  21  44  1   
@<TRIPOS>SUBSTRUCTURE
  1 ****  12 GROUP 4 **** **** 0

# MOE 2024.06 (io_trps.svl 2023.06)
