@<TRIPOS>MOLECULE
NONAME
49 51 1 0 0 
SMALL
USER_CHARGES


@<TRIPOS>ATOM
  1 O       -0.7100     0.3900     0.9840 O.2   1 <1>  -0.5700 
  2 C       -1.6220     0.8950     0.3550 C.2   1 <1>   0.6900 
  3 N       -2.9220     0.5270     0.5830 N.am  1 <1>  -0.6600 
  4 N       -1.3580     1.8410    -0.5790 N.am  1 <1>  -0.7300 
  5 C       -3.2920    -0.2950     1.7680 C.3   1 <1>   0.1400 
  6 C       -4.0190     0.6680    -0.4100 C.3   1 <1>   0.1400 
  7 C       -0.0290     2.3520    -0.9240 C.3   1 <1>   0.2200 
  8 C       -3.6950    -1.6960     1.3030 C.3   1 <1>  -0.1600 
  9 C       -4.4220    -0.7240    -0.9040 C.3   1 <1>  -0.1600 
 10 C        0.0740     3.7890    -0.4260 C.3   1 <1>  -0.2400 
 11 C        0.1300     2.2750    -2.4380 C.3   1 <1>  -0.2400 
 12 C       -4.8190    -1.6530     0.2570 C.3   1 <1>   0.4240 
 13 O       -5.9210    -1.0750     0.9190 O.3   1 <1>  -0.5600 
 14 C       -5.1370    -3.0770    -0.2510 C.ar  1 <1>  -0.1430 
 15 C       -7.1890    -1.3170     0.3930 C.3   1 <1>   0.1200 
 16 C       -6.4100    -3.6230    -0.1190 C.ar  1 <1>  -0.1430 
 17 C       -4.1490    -3.8420    -0.8610 C.ar  1 <1>  -0.1500 
 18 C       -7.5050    -2.8020     0.5330 C.3   1 <1>  -0.0170 
 19 C       -6.6830    -4.9020    -0.5750 C.ar  1 <1>  -0.1500 
 20 C       -4.4210    -5.1180    -1.3200 C.ar  1 <1>  -0.1500 
 21 C       -5.6860    -5.6590    -1.1810 C.ar  1 <1>   0.0820 
 22 O       -5.8690    -6.9160    -1.6550 O.3   1 <1>  -0.3620 
 23 C       -7.1150    -7.5680    -1.5430 C.3   1 <1>   0.0400 
 24 H       -2.1420     2.3810    -0.9220 H     1 <1>   0.3700 
 25 H       -4.1140     0.1750     2.2800 H     1 <1>   0.0800 
 26 H       -2.4670    -0.3620     2.4570 H     1 <1>   0.0800 
 27 H       -3.7100     1.2660    -1.2480 H     1 <1>   0.0800 
 28 H       -4.8590     1.1520     0.0590 H     1 <1>   0.0800 
 29 H        0.7310     1.7500    -0.4510 H     1 <1>   0.0800 
 30 H       -4.0180    -2.2810     2.1440 H     1 <1>   0.0800 
 31 H       -2.8230    -2.1710     0.8960 H     1 <1>   0.0800 
 32 H       -3.5850    -1.1450    -1.4290 H     1 <1>   0.0800 
 33 H       -5.2280    -0.6470    -1.6080 H     1 <1>   0.0800 
 34 H       -0.6720     4.4110    -0.8870 H     1 <1>   0.0800 
 35 H        1.0460     4.1870    -0.6590 H     1 <1>   0.0800 
 36 H       -0.0500     3.8130     0.6420 H     1 <1>   0.0800 
 37 H       -0.6150     2.8720    -2.9330 H     1 <1>   0.0800 
 38 H        0.0420     1.2530    -2.7610 H     1 <1>   0.0800 
 39 H        1.1030     2.6350    -2.7210 H     1 <1>   0.0800 
 40 H       -7.2110    -1.0110    -0.6380 H     1 <1>   0.0800 
 41 H       -7.8950    -0.7280     0.9520 H     1 <1>   0.0800 
 42 H       -3.1540    -3.4520    -0.9860 H     1 <1>   0.1500 
 43 H       -8.4520    -3.0070     0.0670 H     1 <1>   0.0800 
 44 H       -7.5770    -3.0560     1.5750 H     1 <1>   0.0800 
 45 H       -7.6730    -5.2970    -0.4540 H     1 <1>   0.1500 
 46 H       -3.6510    -5.7030    -1.7890 H     1 <1>   0.1500 
 47 H       -7.0190    -8.5470    -1.9750 H     1 <1>   0.0800 
 48 H       -7.8540    -7.0010    -2.0800 H     1 <1>   0.0800 
 49 H       -7.3720    -7.6510    -0.5020 H     1 <1>   0.0800 
@<TRIPOS>BOND
  1   1   2  2   
  2   2   3  am  
  3   2   4  am  
  4   3   5  1   
  5   3   6  1   
  6   4   7  1   
  7   4  24  1   
  8   5   8  1   
  9   5  25  1   
 10   5  26  1   
 11   6   9  1   
 12   6  27  1   
 13   6  28  1   
 14   7  10  1   
 15   7  11  1   
 16   7  29  1   
 17   8  12  1   
 18   8  30  1   
 19   8  31  1   
 20   9  12  1   
 21   9  32  1   
 22   9  33  1   
 23  10  34  1   
 24  10  35  1   
 25  10  36  1   
 26  11  37  1   
 27  11  38  1   
 28  11  39  1   
 29  12  13  1   
 30  12  14  1   
 31  13  15  1   
 32  14  16  ar  
 33  14  17  ar  
 34  15  18  1   
 35  15  40  1   
 36  15  41  1   
 37  16  18  1   
 38  16  19  ar  
 39  17  20  ar  
 40  17  42  1   
 41  18  43  1   
 42  18  44  1   
 43  19  21  ar  
 44  19  45  1   
 45  20  21  ar  
 46  20  46  1   
 47  21  22  1   
 48  22  23  1   
 49  23  47  1   
 50  23  48  1   
 51  23  49  1   
@<TRIPOS>SUBSTRUCTURE
  1 ****  12 GROUP 4 **** **** 0

# MOE 2024.06 (io_trps.svl 2023.06)
