@<TRIPOS>MOLECULE
NONAME
46 49 1 0 0 
SMALL
USER_CHARGES


@<TRIPOS>ATOM
  1 S       -0.0050    -0.1220     0.5900 S.3   1 <1>  -0.0800 
  2 C       -1.3560     0.9120     0.1190 C.2   1 <1>   0.3250 
  3 C        1.0280     1.2620     0.7240 C.2   1 <1>  -0.1100 
  4 N       -1.0050     2.1600     0.0870 N.2   1 <1>  -0.5650 
  5 C       -2.6420     0.2830    -0.1660 C.ar  1 <1>   0.6730 
  6 C        0.3170     2.3580     0.4190 C.2   1 <1>   0.0460 
  7 N       -3.6910     1.0790    -0.4300 N.ar  1 <1>  -0.6200 
  8 N       -2.7110    -1.0590    -0.1490 N.ar  1 <1>  -0.6200 
  9 C        0.7930     3.8010     0.3910 C.3   1 <1>   0.0210 
 10 C       -4.8410     0.5050    -0.6840 C.ar  1 <1>   0.1600 
 11 C       -3.8730    -1.6080    -0.4070 C.ar  1 <1>   0.1600 
 12 C        2.2810     3.9390     0.7240 C.3   1 <1>   0.2090 
 13 C       -4.9870    -0.8590    -0.6850 C.ar  1 <1>  -0.1500 
 14 N        2.7110     5.3580     0.6660 N.pl3 1 <1>  -0.8690 
 15 C        2.7760     6.0750    -0.5010 C.ar  1 <1>   0.4100 
 16 N        2.3970     7.3260    -0.3540 N.ar  1 <1>  -0.6200 
 17 C        3.1990     5.5410    -1.7290 C.ar  1 <1>   0.1600 
 18 C        2.4460     8.0470    -1.4900 C.ar  1 <1>   0.3960 
 19 N        3.2470     6.2110    -2.8610 N.ar  1 <1>  -0.6200 
 20 C        2.0670     9.4630    -1.5120 C.2   1 <1>   0.5440 
 21 C        2.8560     7.4680    -2.6970 C.ar  1 <1>   0.1600 
 22 O        1.6140     9.9370    -2.5410 O.2   1 <1>  -0.5700 
 23 N        2.2160    10.3240    -0.4390 N.am  1 <1>  -0.6600 
 24 C        1.8030    11.7440    -0.4900 C.3   1 <1>   0.1400 
 25 C        2.8730    10.0110     0.8500 C.3   1 <1>   0.1400 
 26 C        2.0260    12.2680     0.9240 C.3   1 <1>  -0.1600 
 27 C        3.1120    11.3660     1.5040 C.3   1 <1>  -0.1600 
 28 H        2.0480     1.0920     1.0150 H     1 <1>   0.1500 
 29 H        0.2130     4.3670     1.0970 H     1 <1>   0.0800 
 30 H        0.6070     4.1960    -0.5920 H     1 <1>   0.0800 
 31 H       -5.6860     1.1380    -0.8970 H     1 <1>   0.1500 
 32 H       -3.9370    -2.6840    -0.3950 H     1 <1>   0.1500 
 33 H        2.8660     3.3540     0.0360 H     1 <1>   0.0800 
 34 H        2.4630     3.5630     1.7170 H     1 <1>   0.0800 
 35 H       -5.9340    -1.3190    -0.8950 H     1 <1>   0.1500 
 36 H        2.3270     5.9350     1.4210 H     1 <1>   0.4000 
 37 H        3.5070     4.5140    -1.7540 H     1 <1>   0.1500 
 38 H        2.8620     8.0890    -3.5760 H     1 <1>   0.1500 
 39 H        0.7720    11.8310    -0.7910 H     1 <1>   0.0800 
 40 H        2.4290    12.2650    -1.1930 H     1 <1>   0.0800 
 41 H        3.7950     9.4760     0.6990 H     1 <1>   0.0800 
 42 H        2.2020     9.4180     1.4490 H     1 <1>   0.0800 
 43 H        1.1150    12.1530     1.4860 H     1 <1>   0.0800 
 44 H        2.3080    13.3060     0.9250 H     1 <1>   0.0800 
 45 H        4.0820    11.7280     1.2120 H     1 <1>   0.0800 
 46 H        3.0670    11.3060     2.5770 H     1 <1>   0.0800 
@<TRIPOS>BOND
  1   1   2  1   
  2   1   3  1   
  3   2   4  2   
  4   2   5  1   
  5   3   6  2   
  6   3  28  1   
  7   4   6  1   
  8   5   7  ar  
  9   5   8  ar  
 10   6   9  1   
 11   7  10  ar  
 12   8  11  ar  
 13   9  12  1   
 14   9  29  1   
 15   9  30  1   
 16  10  13  ar  
 17  10  31  1   
 18  11  13  ar  
 19  11  32  1   
 20  12  14  1   
 21  12  33  1   
 22  12  34  1   
 23  13  35  1   
 24  14  15  1   
 25  14  36  1   
 26  15  16  ar  
 27  15  17  ar  
 28  16  18  ar  
 29  17  19  ar  
 30  17  37  1   
 31  18  20  1   
 32  18  21  ar  
 33  19  21  ar  
 34  20  22  2   
 35  20  23  am  
 36  21  38  1   
 37  23  24  1   
 38  23  25  1   
 39  24  26  1   
 40  24  39  1   
 41  24  40  1   
 42  25  27  1   
 43  25  41  1   
 44  25  42  1   
 45  26  27  1   
 46  26  43  1   
 47  26  44  1   
 48  27  45  1   
 49  27  46  1   
@<TRIPOS>SUBSTRUCTURE
  1 ****   9 GROUP 4 **** **** 0

# MOE 2024.06 (io_trps.svl 2023.06)
