@<TRIPOS>MOLECULE
NONAME
49 51 1 0 0 
SMALL
USER_CHARGES


@<TRIPOS>ATOM
  1 O       -1.1140     0.7150    -2.0360 O.2   1 <1>  -0.5700 
  2 C       -1.6720     1.0790    -1.0190 C.2   1 <1>   0.5440 
  3 N       -2.8610     0.4930    -0.6540 N.am  1 <1>  -0.6600 
  4 C       -1.0730     2.1230    -0.2210 C.ar  1 <1>   0.0860 
  5 C       -3.3790    -0.7180    -1.3820 C.3   1 <1>   0.1400 
  6 C       -3.6810     0.9710     0.5090 C.3   1 <1>   0.1400 
  7 C       -0.4290     1.8680     0.9840 C.ar  1 <1>   0.1660 
  8 C       -1.1170     3.4520    -0.6150 C.ar  1 <1>   0.1660 
  9 C       -4.2520    -1.5610    -0.4470 C.3   1 <1>   0.2000 
 10 C       -5.1620     0.7190     0.2280 C.3   1 <1>  -0.1600 
 11 N        0.0970     2.8250     1.7180 N.ar  1 <1>  -0.6200 
 12 C       -0.2890     0.4630     1.5490 C.3   1 <1>  -0.0960 
 13 N       -0.5950     4.4230     0.1030 N.ar  1 <1>  -0.6200 
 14 C       -1.7840     3.8640    -1.9170 C.3   1 <1>  -0.0970 
 15 O       -4.6340    -2.7460    -1.0550 O.3   1 <1>  -0.6800 
 16 C       -5.4950    -0.7990     0.0800 C.3   1 <1>  -0.1060 
 17 C       -0.0170     4.0480     1.2310 C.ar  1 <1>   0.4700 
 18 C       -5.7590    -1.4860     1.4220 C.2   1 <1>   0.9060 
 19 C       -6.7310    -0.9440    -0.8590 C.3   1 <1>  -0.0170 
 20 O       -5.4870    -0.9090     2.4810 O.co2 1 <1>  -0.9000 
 21 O       -6.1500    -2.6620     1.4020 O.co2 1 <1>  -0.9000 
 22 C       -7.8990    -0.0210    -0.5160 C.ar  1 <1>  -0.1440 
 23 C       -8.2240     1.0430    -1.3450 C.ar  1 <1>  -0.1500 
 24 C       -8.6530    -0.2410     0.6270 C.ar  1 <1>  -0.1500 
 25 C       -9.2830     1.8790    -1.0330 C.ar  1 <1>  -0.1500 
 26 C       -9.7100     0.5940     0.9420 C.ar  1 <1>  -0.1500 
 27 C      -10.0260     1.6560     0.1120 C.ar  1 <1>  -0.1500 
 28 H       -3.9570    -0.3980    -2.2310 H     1 <1>   0.0800 
 29 H       -2.5520    -1.3150    -1.7260 H     1 <1>   0.0800 
 30 H       -3.3930     0.4420     1.4030 H     1 <1>   0.0800 
 31 H       -3.5270     2.0230     0.6710 H     1 <1>   0.0800 
 32 H       -3.6290    -1.8440     0.3860 H     1 <1>   0.0800 
 33 H       -5.7550     1.1430     1.0200 H     1 <1>   0.0800 
 34 H       -5.4140     1.2500    -0.6720 H     1 <1>   0.0800 
 35 H       -0.3800    -0.2890     0.7860 H     1 <1>   0.0800 
 36 H       -1.0460     0.2970     2.2930 H     1 <1>   0.0800 
 37 H        0.6750     0.3520     2.0120 H     1 <1>   0.0800 
 38 H       -2.7830     3.4700    -1.9640 H     1 <1>   0.0800 
 39 H       -1.2180     3.4860    -2.7490 H     1 <1>   0.0800 
 40 H       -1.8350     4.9350    -1.9940 H     1 <1>   0.0800 
 41 H       -5.2170    -3.2050    -0.3960 H     1 <1>   0.4000 
 42 H        0.4150     4.8360     1.8260 H     1 <1>   0.1500 
 43 H       -6.4210    -0.7500    -1.8690 H     1 <1>   0.0800 
 44 H       -7.0940    -1.9570    -0.8400 H     1 <1>   0.0800 
 45 H       -7.6500     1.2240    -2.2360 H     1 <1>   0.1500 
 46 H       -8.4130    -1.0660     1.2800 H     1 <1>   0.1500 
 47 H       -9.5260     2.7020    -1.6810 H     1 <1>   0.1500 
 48 H      -10.2790     0.4130     1.8360 H     1 <1>   0.1500 
 49 H      -10.8480     2.3040     0.3590 H     1 <1>   0.1500 
@<TRIPOS>BOND
  1   1   2  2   
  2   2   3  am  
  3   2   4  1   
  4   3   5  1   
  5   3   6  1   
  6   4   7  ar  
  7   4   8  ar  
  8   5   9  1   
  9   5  28  1   
 10   5  29  1   
 11   6  10  1   
 12   6  30  1   
 13   6  31  1   
 14   7  11  ar  
 15   7  12  1   
 16   8  13  ar  
 17   8  14  1   
 18   9  15  1   
 19   9  16  1   
 20   9  32  1   
 21  10  16  1   
 22  10  33  1   
 23  10  34  1   
 24  11  17  ar  
 25  12  35  1   
 26  12  36  1   
 27  12  37  1   
 28  13  17  ar  
 29  14  38  1   
 30  14  39  1   
 31  14  40  1   
 32  15  41  1   
 33  16  18  1   
 34  16  19  1   
 35  17  42  1   
 36  18  20  ar  
 37  18  21  ar  
 38  19  22  1   
 39  19  43  1   
 40  19  44  1   
 41  22  23  ar  
 42  22  24  ar  
 43  23  25  ar  
 44  23  45  1   
 45  24  26  ar  
 46  24  46  1   
 47  25  27  ar  
 48  25  47  1   
 49  26  27  ar  
 50  26  48  1   
 51  27  49  1   
@<TRIPOS>SUBSTRUCTURE
  1 ****   6 GROUP 4 **** **** 0

# MOE 2024.06 (io_trps.svl 2023.06)
