@<TRIPOS>MOLECULE
NONAME
53 55 1 0 0 
SMALL
USER_CHARGES


@<TRIPOS>ATOM
  1 F       -0.4470     1.4520     0.7950 F     1 <1>  -0.1900 
  2 C       -0.0980     2.6880     0.5490 C.ar  1 <1>   0.1900 
  3 C       -0.2400     3.6310     1.5490 C.ar  1 <1>  -0.1500 
  4 C        0.3980     3.0030    -0.7010 C.ar  1 <1>  -0.1500 
  5 C        0.1340     4.9370     1.2810 C.ar  1 <1>  -0.1500 
  6 C        0.7710     4.3120    -0.9610 C.ar  1 <1>  -0.1500 
  7 C        0.6430     5.2830     0.0350 C.ar  1 <1>   0.0830 
  8 O        0.9950     6.5820    -0.1320 O.3   1 <1>  -0.3630 
  9 C        1.5820     7.0370    -1.3430 C.3   1 <1>   0.1810 
 10 C        1.9470     8.5200    -1.2720 C.2   1 <1>   0.5690 
 11 O        1.6340     9.2030    -2.2180 O.2   1 <1>  -0.5700 
 12 N        2.6470     9.0750    -0.2210 N.am  1 <1>  -0.6600 
 13 C        3.3390     8.3140     0.8680 C.3   1 <1>   0.1400 
 14 C        2.6640    10.5550    -0.0530 C.3   1 <1>   0.1400 
 15 C        4.8800     8.3730     0.7570 C.3   1 <1>   0.3430 
 16 C        3.8630    11.1650    -0.7840 C.3   1 <1>  -0.1600 
 17 N        5.4340     9.7520     0.5250 N.4   1 <1>  -0.9590 
 18 C        5.1020    10.2740    -0.8350 C.3   1 <1>   0.3430 
 19 C        6.9180     9.8180     0.7660 C.3   1 <1>   0.5240 
 20 C        7.3950    11.2660     0.8770 C.2   1 <1>   0.3350 
 21 N        6.7200    12.2080     1.4050 N.2   1 <1>  -0.4100 
 22 N        8.5630    11.6530     0.3960 N.2   1 <1>  -0.5650 
 23 O        7.4350    13.2880     1.3030 O.3   1 <1>  -0.0190 
 24 C        8.5280    12.8950     0.6910 C.2   1 <1>   0.2980 
 25 C        9.6050    13.9440     0.4050 C.3   1 <1>   0.1000 
 26 C        9.1430    14.9060    -0.7000 C.3   1 <1>  -0.2400 
 27 C       10.9520    13.3150     0.0150 C.3   1 <1>  -0.2400 
 28 H       -0.6350     3.3470     2.5070 H     1 <1>   0.1500 
 29 H        0.4870     2.2370    -1.4510 H     1 <1>   0.1500 
 30 H        0.0300     5.6940     2.0370 H     1 <1>   0.1500 
 31 H        1.1490     4.5490    -1.9370 H     1 <1>   0.1500 
 32 H        0.8680     6.8870    -2.1330 H     1 <1>   0.0800 
 33 H        2.4650     6.4580    -1.5360 H     1 <1>   0.0800 
 34 H        3.0490     7.2800     0.8550 H     1 <1>   0.0800 
 35 H        3.0320     8.7060     1.8220 H     1 <1>   0.0800 
 36 H        2.7040    10.7990     0.9940 H     1 <1>   0.0800 
 37 H        1.7520    10.9790    -0.4430 H     1 <1>   0.0800 
 38 H        5.1860     7.7270    -0.0490 H     1 <1>   0.0800 
 39 H        5.2910     7.9680     1.6670 H     1 <1>   0.0800 
 40 H        4.1090    12.1140    -0.3410 H     1 <1>   0.0800 
 41 H        3.5640    11.3680    -1.7980 H     1 <1>   0.0800 
 42 H        5.0190    10.4130     1.1980 H     1 <1>   0.4500 
 43 H        5.9230    10.8520    -1.2310 H     1 <1>   0.0800 
 44 H        4.9190     9.4510    -1.5090 H     1 <1>   0.0800 
 45 H        7.4470     9.3380    -0.0400 H     1 <1>   0.0800 
 46 H        7.1670     9.3150     1.6840 H     1 <1>   0.0800 
 47 H        9.7540    14.5110     1.3080 H     1 <1>   0.0800 
 48 H        8.9770    14.3700    -1.6170 H     1 <1>   0.0800 
 49 H        9.8880    15.6630    -0.8730 H     1 <1>   0.0800 
 50 H        8.2270    15.3910    -0.4140 H     1 <1>   0.0800 
 51 H       10.8570    12.7490    -0.8950 H     1 <1>   0.0800 
 52 H       11.2910    12.6550     0.7940 H     1 <1>   0.0800 
 53 H       11.6960    14.0780    -0.1300 H     1 <1>   0.0800 
@<TRIPOS>BOND
  1   1   2  1   
  2   2   3  ar  
  3   2   4  ar  
  4   3   5  ar  
  5   3  28  1   
  6   4   6  ar  
  7   4  29  1   
  8   5   7  ar  
  9   5  30  1   
 10   6   7  ar  
 11   6  31  1   
 12   7   8  1   
 13   8   9  1   
 14   9  10  1   
 15   9  32  1   
 16   9  33  1   
 17  10  11  2   
 18  10  12  am  
 19  12  13  1   
 20  12  14  1   
 21  13  15  1   
 22  13  34  1   
 23  13  35  1   
 24  14  16  1   
 25  14  36  1   
 26  14  37  1   
 27  15  17  1   
 28  15  38  1   
 29  15  39  1   
 30  16  18  1   
 31  16  40  1   
 32  16  41  1   
 33  17  18  1   
 34  17  19  1   
 35  17  42  1   
 36  18  43  1   
 37  18  44  1   
 38  19  20  1   
 39  19  45  1   
 40  19  46  1   
 41  20  21  2   
 42  20  22  1   
 43  21  23  1   
 44  22  24  2   
 45  23  24  1   
 46  24  25  1   
 47  25  26  1   
 48  25  27  1   
 49  25  47  1   
 50  26  48  1   
 51  26  49  1   
 52  26  50  1   
 53  27  51  1   
 54  27  52  1   
 55  27  53  1   
@<TRIPOS>SUBSTRUCTURE
  1 ****  15 GROUP 4 **** **** 0

# MOE 2024.06 (io_trps.svl 2023.06)
