@<TRIPOS>MOLECULE
NONAME
35 36 1 0 0 
SMALL
USER_CHARGES


@<TRIPOS>ATOM
  1 F        2.6130     1.2410    -2.1910 F     1 <1>  -0.1900 
  2 C        2.7720     0.1550    -1.4730 C.ar  1 <1>   0.1900 
  3 C        3.3260     0.2650    -0.1990 C.ar  1 <1>   0.1170 
  4 C        2.3810    -1.0490    -2.0240 C.ar  1 <1>  -0.1500 
  5 N        3.6980     1.5290     0.2990 N.am  1 <1>  -0.5470 
  6 C        3.4740    -0.9150     0.5240 C.ar  1 <1>  -0.1500 
  7 C        2.5440    -2.2050    -1.2800 C.ar  1 <1>  -0.1500 
  8 C        4.4420     1.9360     1.3690 C.2   1 <1>   0.5690 
  9 C        3.0920    -2.1390    -0.0070 C.ar  1 <1>  -0.1440 
 10 O        4.9420     1.1880     2.1750 O.2   1 <1>  -0.5700 
 11 C        4.6470     3.4440     1.5270 C.3   1 <1>   0.1710 
 12 C        3.2680    -3.4090     0.8060 C.3   1 <1>  -0.0960 
 13 N        4.4910     4.2180     0.2570 N.3   1 <1>  -0.8100 
 14 C        5.6080     3.9760    -0.6980 C.3   1 <1>   0.1100 
 15 C        4.4840     5.6740     0.5100 C.3   1 <1>   0.1100 
 16 C        6.0980     5.3450    -1.1930 C.3   1 <1>   0.2600 
 17 C        4.9940     6.3110    -0.7820 C.3   1 <1>   0.2000 
 18 F        7.1860     5.6600    -0.4910 F     1 <1>  -0.3400 
 19 O        3.9650     6.2620    -1.7160 O.3   1 <1>  -0.6800 
 20 H        1.9590    -1.0800    -3.0120 H     1 <1>   0.1500 
 21 H        3.4250     2.3220    -0.2910 H     1 <1>   0.3700 
 22 H        3.8900    -0.8810     1.5140 H     1 <1>   0.1500 
 23 H        2.2450    -3.1530    -1.6930 H     1 <1>   0.1500 
 24 H        5.6240     3.6160     1.9440 H     1 <1>   0.0800 
 25 H        3.9200     3.7900     2.2400 H     1 <1>   0.0800 
 26 H        3.5590    -4.2240     0.1690 H     1 <1>   0.0800 
 27 H        2.3430    -3.6600     1.2930 H     1 <1>   0.0800 
 28 H        4.0280    -3.2770     1.5550 H     1 <1>   0.0800 
 29 H        6.4190     3.4260    -0.2480 H     1 <1>   0.0800 
 30 H        5.2280     3.4110    -1.5310 H     1 <1>   0.0800 
 31 H        3.5020     6.0280     0.7720 H     1 <1>   0.0800 
 32 H        5.1700     5.9130     1.3060 H     1 <1>   0.0800 
 33 H        6.3700     5.3860    -2.2320 H     1 <1>   0.0800 
 34 H        5.3280     7.3290    -0.6810 H     1 <1>   0.0800 
 35 H        3.4910     5.4120    -1.5920 H     1 <1>   0.4000 
@<TRIPOS>BOND
  1   1   2  1   
  2   2   3  ar  
  3   2   4  ar  
  4   3   5  1   
  5   3   6  ar  
  6   4   7  ar  
  7   4  20  1   
  8   5   8  am  
  9   5  21  1   
 10   6   9  ar  
 11   6  22  1   
 12   7   9  ar  
 13   7  23  1   
 14   8  10  2   
 15   8  11  1   
 16   9  12  1   
 17  11  13  1   
 18  11  24  1   
 19  11  25  1   
 20  12  26  1   
 21  12  27  1   
 22  12  28  1   
 23  13  14  1   
 24  13  15  1   
 25  14  16  1   
 26  14  29  1   
 27  14  30  1   
 28  15  17  1   
 29  15  31  1   
 30  15  32  1   
 31  16  17  1   
 32  16  18  1   
 33  16  33  1   
 34  17  19  1   
 35  17  34  1   
 36  19  35  1   
@<TRIPOS>SUBSTRUCTURE
  1 ****   5 GROUP 4 **** **** 0

# MOE 2024.06 (io_trps.svl 2023.06)
