@<TRIPOS>MOLECULE
NONAME
48 50 1 0 0 
SMALL
USER_CHARGES


@<TRIPOS>ATOM
  1 O        1.0490     0.2910     0.3730 O.2   1 <1>  -0.5700 
  2 C        1.9160    -0.4460    -0.0370 C.2   1 <1>   0.5690 
  3 N        3.0970     0.0540    -0.5290 N.am  1 <1>  -0.6600 
  4 C        1.6770    -1.9520     0.0090 C.3   1 <1>  -0.0990 
  5 C        3.2660     1.5250    -0.6990 C.3   1 <1>   0.1400 
  6 C        4.2770    -0.7580    -0.9430 C.3   1 <1>   0.0600 
  7 C        0.2170    -2.3540     0.3010 C.3   1 <1>  -0.1600 
  8 C        3.7350     2.1650     0.6080 C.3   1 <1>   0.0200 
  9 C        0.0410    -3.8780     0.3040 C.3   1 <1>   0.0960 
 10 C        3.6810     3.6730     0.4900 C.2   1 <1>   0.0060 
 11 N       -1.3640    -4.2430     0.5690 N.pl3 1 <1>   0.0480 
 12 N        2.5290     4.3660     0.6870 N.pl3 1 <1>   0.0330 
 13 N        4.6920     4.4110     0.1920 N.2   1 <1>  -0.5650 
 14 C       -1.9130    -4.6460     1.7380 C.2   1 <1>   0.0360 
 15 C       -2.3820    -4.2690    -0.3100 C.2   1 <1>  -0.3020 
 16 C        2.8450     5.6710     0.4960 C.ar  1 <1>  -0.1520 
 17 C        4.1930     5.6800     0.1900 C.ar  1 <1>   0.2270 
 18 N       -3.1750    -4.9210     1.6620 N.2   1 <1>  -0.5650 
 19 C       -3.4730    -4.6820     0.3710 C.2   1 <1>   0.0770 
 20 C        2.1080     6.8550     0.5530 C.ar  1 <1>  -0.1500 
 21 C        4.8380     6.8880    -0.0660 C.ar  1 <1>  -0.1500 
 22 C        2.7460     8.0510     0.3000 C.ar  1 <1>   0.0820 
 23 C        4.1210     8.0650    -0.0110 C.ar  1 <1>  -0.1500 
 24 O        1.9880     9.1770     0.3680 O.3   1 <1>  -0.3630 
 25 C        2.5470    10.4510     0.1380 C.3   1 <1>   0.0400 
 26 H        2.3160    -2.3640     0.7690 H     1 <1>   0.0800 
 27 H        1.9640    -2.3660    -0.9400 H     1 <1>   0.0800 
 28 H        2.3230     1.9570    -0.9910 H     1 <1>   0.0800 
 29 H        3.9750     1.7340    -1.4820 H     1 <1>   0.0800 
 30 H        4.2230    -1.7570    -0.5510 H     1 <1>   0.0800 
 31 H        5.1800    -0.3020    -0.5760 H     1 <1>   0.0800 
 32 H        4.3230    -0.8040    -2.0180 H     1 <1>   0.0800 
 33 H       -0.4230    -1.9210    -0.4490 H     1 <1>   0.0800 
 34 H       -0.0750    -1.9600     1.2600 H     1 <1>   0.0800 
 35 H        4.7460     1.8620     0.8150 H     1 <1>   0.0800 
 36 H        3.1070     1.8500     1.4220 H     1 <1>   0.0800 
 37 H        0.6600    -4.3230     1.0630 H     1 <1>   0.0800 
 38 H        0.3220    -4.2870    -0.6500 H     1 <1>   0.0800 
 39 H        1.6100     3.9850     0.9270 H     1 <1>   0.2700 
 40 H       -1.3340    -4.7260     2.6410 H     1 <1>   0.1500 
 41 H       -2.2820    -3.9990    -1.3450 H     1 <1>   0.1500 
 42 H       -4.4730    -4.8210    -0.0050 H     1 <1>   0.1500 
 43 H        1.0610     6.8400     0.7910 H     1 <1>   0.1500 
 44 H        5.8860     6.8680    -0.3000 H     1 <1>   0.1500 
 45 H        4.6300     8.9880    -0.2110 H     1 <1>   0.1500 
 46 H        1.7670    11.1820     0.2510 H     1 <1>   0.0800 
 47 H        2.9380    10.4850    -0.8630 H     1 <1>   0.0800 
 48 H        3.3210    10.6290     0.8630 H     1 <1>   0.0800 
@<TRIPOS>BOND
  1   1   2  2   
  2   2   3  am  
  3   2   4  1   
  4   3   5  1   
  5   3   6  1   
  6   4   7  1   
  7   4  26  1   
  8   4  27  1   
  9   5   8  1   
 10   5  28  1   
 11   5  29  1   
 12   6  30  1   
 13   6  31  1   
 14   6  32  1   
 15   7   9  1   
 16   7  33  1   
 17   7  34  1   
 18   8  10  1   
 19   8  35  1   
 20   8  36  1   
 21   9  11  1   
 22   9  37  1   
 23   9  38  1   
 24  10  12  1   
 25  10  13  2   
 26  11  14  1   
 27  11  15  1   
 28  12  16  1   
 29  12  39  1   
 30  13  17  1   
 31  14  18  2   
 32  14  40  1   
 33  15  19  2   
 34  15  41  1   
 35  16  17  ar  
 36  16  20  ar  
 37  17  21  ar  
 38  18  19  1   
 39  19  42  1   
 40  20  22  ar  
 41  20  43  1   
 42  21  23  ar  
 43  21  44  1   
 44  22  23  ar  
 45  22  24  1   
 46  23  45  1   
 47  24  25  1   
 48  25  46  1   
 49  25  47  1   
 50  25  48  1   
@<TRIPOS>SUBSTRUCTURE
  1 ****   1 GROUP 4 **** **** 0

# MOE 2024.06 (io_trps.svl 2023.06)
