@<TRIPOS>MOLECULE
NONAME
51 53 1 0 0 
SMALL
USER_CHARGES


@<TRIPOS>ATOM
  1 O        0.7240    -0.0020    -0.7060 O.co2 1 <1>  -0.9000 
  2 C        1.5520    -0.1610     0.2100 C.2   1 <1>   0.9790 
  3 O        1.3570    -1.0710     1.0370 O.co2 1 <1>  -0.9000 
  4 C        2.7250     0.7000     0.3090 C.ar  1 <1>  -0.1790 
  5 C        3.6670     0.5400     1.3290 C.ar  1 <1>  -0.1500 
  6 C        2.9590     1.7250    -0.6110 C.ar  1 <1>  -0.1500 
  7 C        4.7790     1.3560     1.4240 C.ar  1 <1>  -0.1500 
  8 C        4.0680     2.5470    -0.5250 C.ar  1 <1>  -0.1500 
  9 C        4.9920     2.3660     0.5010 C.ar  1 <1>   0.0830 
 10 O        6.1050     3.1240     0.6600 O.3   1 <1>  -0.3630 
 11 C        6.4090     4.1700    -0.2240 C.3   1 <1>   0.1200 
 12 C        7.7210     4.7940     0.2520 C.3   1 <1>  -0.1600 
 13 C        8.1410     5.9450    -0.6600 C.3   1 <1>   0.3430 
 14 N        9.3610     6.6120    -0.1260 N.4   1 <1>  -0.9590 
 15 C        9.5500     7.9420    -0.7930 C.3   1 <1>   0.3430 
 16 C       10.5820     5.7600    -0.2670 C.3   1 <1>   0.3430 
 17 C       10.7390     8.7070    -0.1960 C.3   1 <1>  -0.0190 
 18 C       11.7830     6.4680     0.3630 C.3   1 <1>  -0.1600 
 19 C       10.9220    10.0240    -0.9520 C.2   1 <1>   0.4230 
 20 C       12.0190     7.8530    -0.2550 C.3   1 <1>  -0.1600 
 21 O       10.5110    10.0500    -2.0880 O.2   1 <1>  -0.5700 
 22 C       11.5620    11.1550    -0.2960 C.ar  1 <1>   0.3960 
 23 N       11.9370    11.0360     0.9880 N.ar  1 <1>  -0.6200 
 24 C       11.7740    12.3380    -1.0070 C.ar  1 <1>  -0.1500 
 25 C       12.5150    12.0850     1.5460 C.ar  1 <1>   0.1600 
 26 C       12.3770    13.4250    -0.4140 C.ar  1 <1>  -0.1500 
 27 C       12.7550    13.2840     0.9010 C.ar  1 <1>  -0.1500 
 28 H        3.5080    -0.2440     2.0510 H     1 <1>   0.1500 
 29 H        2.2440     1.8650    -1.4050 H     1 <1>   0.1500 
 30 H        5.4850     1.2080     2.2190 H     1 <1>   0.1500 
 31 H        4.1850     3.3130    -1.2640 H     1 <1>   0.1500 
 32 H        5.6010     4.8810    -0.1940 H     1 <1>   0.0800 
 33 H        6.5070     3.7540    -1.2130 H     1 <1>   0.0800 
 34 H        8.4720     4.0240     0.2530 H     1 <1>   0.0800 
 35 H        7.5770     5.1580     1.2540 H     1 <1>   0.0800 
 36 H        7.3340     6.6590    -0.7090 H     1 <1>   0.0800 
 37 H        8.3260     5.5790    -1.6580 H     1 <1>   0.0800 
 38 H        9.2180     6.7840     0.8780 H     1 <1>   0.4500 
 39 H        8.6600     8.5410    -0.6870 H     1 <1>   0.0800 
 40 H        9.7250     7.7970    -1.8470 H     1 <1>   0.0800 
 41 H       10.7810     5.5780    -1.3120 H     1 <1>   0.0800 
 42 H       10.4350     4.8100     0.2210 H     1 <1>   0.0800 
 43 H       10.5010     8.9260     0.8300 H     1 <1>   0.0800 
 44 H       12.6610     5.8620     0.2170 H     1 <1>   0.0800 
 45 H       11.6310     6.5580     1.4250 H     1 <1>   0.0800 
 46 H       12.8170     8.3520     0.2720 H     1 <1>   0.0800 
 47 H       12.3280     7.7390    -1.2820 H     1 <1>   0.0800 
 48 H       11.4610    12.4000    -2.0350 H     1 <1>   0.1500 
 49 H       12.8180    11.9900     2.5760 H     1 <1>   0.1500 
 50 H       12.5450    14.3420    -0.9550 H     1 <1>   0.1500 
 51 H       13.2320    14.0950     1.4240 H     1 <1>   0.1500 
@<TRIPOS>BOND
  1   1   2  ar  
  2   2   3  ar  
  3   2   4  1   
  4   4   5  ar  
  5   4   6  ar  
  6   5   7  ar  
  7   5  28  1   
  8   6   8  ar  
  9   6  29  1   
 10   7   9  ar  
 11   7  30  1   
 12   8   9  ar  
 13   8  31  1   
 14   9  10  1   
 15  10  11  1   
 16  11  12  1   
 17  11  32  1   
 18  11  33  1   
 19  12  13  1   
 20  12  34  1   
 21  12  35  1   
 22  13  14  1   
 23  13  36  1   
 24  13  37  1   
 25  14  15  1   
 26  14  16  1   
 27  14  38  1   
 28  15  17  1   
 29  15  39  1   
 30  15  40  1   
 31  16  18  1   
 32  16  41  1   
 33  16  42  1   
 34  17  19  1   
 35  17  20  1   
 36  17  43  1   
 37  18  20  1   
 38  18  44  1   
 39  18  45  1   
 40  19  21  2   
 41  19  22  1   
 42  20  46  1   
 43  20  47  1   
 44  22  23  ar  
 45  22  24  ar  
 46  23  25  ar  
 47  24  26  ar  
 48  24  48  1   
 49  25  27  ar  
 50  25  49  1   
 51  26  27  ar  
 52  26  50  1   
 53  27  51  1   
@<TRIPOS>SUBSTRUCTURE
  1 ****  13 GROUP 4 **** **** 0

# MOE 2024.06 (io_trps.svl 2023.06)
