@<TRIPOS>MOLECULE
NONAME
52 54 1 0 0 
SMALL
USER_CHARGES


@<TRIPOS>ATOM
  1 O       -0.4180     0.2560    -1.6490 O.2   1 <1>  -0.5700 
  2 C        0.0130    -0.2330    -0.6310 C.2   1 <1>   0.5690 
  3 N        1.0600     0.2920     0.0780 N.am  1 <1>  -0.4940 
  4 C       -0.5830    -1.5530    -0.1460 C.3   1 <1>   0.2610 
  5 C        1.8450     1.4330    -0.1880 C.2   1 <1>  -0.0880 
  6 O       -0.0920    -1.8340     1.1600 O.3   1 <1>  -0.2170 
  7 C       -0.0710    -2.7390    -0.9630 C.3   1 <1>  -0.0990 
  8 N        3.2100     1.4630    -0.2240 N.pl3 1 <1>   0.3140 
  9 C        1.4000     2.6940    -0.4600 C.2   1 <1>  -0.0540 
 10 N        0.8820    -2.7230     1.1280 N.2   1 <1>  -0.5130 
 11 C        0.9520    -3.2680    -0.0020 C.2   1 <1>   0.3280 
 12 N        3.6450     2.7190    -0.5210 N.2   1 <1>  -0.7070 
 13 C        4.1750     0.3060    -0.0180 C.3   1 <1>   0.2560 
 14 C        0.0590     3.2190    -0.5160 C.ar  1 <1>   0.0540 
 15 C        2.5710     3.4240    -0.6590 C.2   1 <1>   0.1390 
 16 C        1.9360    -4.3450    -0.4670 C.3   1 <1>  -0.0190 
 17 C        3.9380    -0.7790    -1.0850 C.3   1 <1>  -0.2400 
 18 C        4.0010    -0.2990     1.3880 C.3   1 <1>  -0.2400 
 19 C        5.6400     0.7740    -0.1450 C.3   1 <1>  -0.2400 
 20 C       -0.3720     3.9790    -1.6000 C.ar  1 <1>  -0.1500 
 21 C       -0.8450     2.9910     0.5190 C.ar  1 <1>  -0.1500 
 22 C        1.2260    -5.6920    -0.6650 C.3   1 <1>  -0.2400 
 23 C        3.1110    -4.5190     0.5090 C.3   1 <1>  -0.2400 
 24 C       -1.6540     4.4950    -1.6490 C.ar  1 <1>  -0.1500 
 25 C       -2.1290     3.5030     0.4770 C.ar  1 <1>  -0.1500 
 26 C       -2.5360     4.2590    -0.6090 C.ar  1 <1>  -0.1500 
 27 H        1.3400    -0.2980     0.8710 H     1 <1>   0.3700 
 28 H       -1.6560    -1.5010    -0.1140 H     1 <1>   0.0800 
 29 H        0.3600    -2.4300    -1.8990 H     1 <1>   0.0800 
 30 H       -0.8520    -3.4570    -1.1290 H     1 <1>   0.0800 
 31 H        2.5800     4.4740    -0.8960 H     1 <1>   0.1500 
 32 H        2.3430    -4.0310    -1.4130 H     1 <1>   0.0800 
 33 H        2.9610    -1.2120    -0.9910 H     1 <1>   0.0800 
 34 H        4.6600    -1.5690    -0.9820 H     1 <1>   0.0800 
 35 H        4.0370    -0.3550    -2.0680 H     1 <1>   0.0800 
 36 H        3.0440    -0.7700     1.5040 H     1 <1>   0.0800 
 37 H        4.1090     0.4680     2.1350 H     1 <1>   0.0800 
 38 H        4.7510    -1.0490     1.5660 H     1 <1>   0.0800 
 39 H        5.8170     1.1880    -1.1230 H     1 <1>   0.0800 
 40 H        6.3190    -0.0450     0.0010 H     1 <1>   0.0800 
 41 H        5.8570     1.5280     0.5910 H     1 <1>   0.0800 
 42 H        0.3060     4.1560    -2.4150 H     1 <1>   0.1500 
 43 H       -0.5290     2.4050     1.3630 H     1 <1>   0.1500 
 44 H        0.7860    -6.0210     0.2600 H     1 <1>   0.0800 
 45 H        1.9260    -6.4390    -0.9970 H     1 <1>   0.0800 
 46 H        0.4500    -5.6080    -1.4040 H     1 <1>   0.0800 
 47 H        2.7550    -4.8470     1.4700 H     1 <1>   0.0800 
 48 H        3.6270    -3.5850     0.6410 H     1 <1>   0.0800 
 49 H        3.8100    -5.2450     0.1340 H     1 <1>   0.0800 
 50 H       -1.9680     5.0770    -2.4980 H     1 <1>   0.1500 
 51 H       -2.8110     3.3140     1.2870 H     1 <1>   0.1500 
 52 H       -3.5340     4.6580    -0.6460 H     1 <1>   0.1500 
@<TRIPOS>BOND
  1   1   2  2   
  2   2   3  am  
  3   2   4  1   
  4   3   5  1   
  5   3  27  1   
  6   4   6  1   
  7   4   7  1   
  8   4  28  1   
  9   5   8  1   
 10   5   9  2   
 11   6  10  1   
 12   7  11  1   
 13   7  29  1   
 14   7  30  1   
 15   8  12  1   
 16   8  13  1   
 17   9  14  1   
 18   9  15  1   
 19  10  11  2   
 20  11  16  1   
 21  12  15  2   
 22  13  17  1   
 23  13  18  1   
 24  13  19  1   
 25  14  20  ar  
 26  14  21  ar  
 27  15  31  1   
 28  16  22  1   
 29  16  23  1   
 30  16  32  1   
 31  17  33  1   
 32  17  34  1   
 33  17  35  1   
 34  18  36  1   
 35  18  37  1   
 36  18  38  1   
 37  19  39  1   
 38  19  40  1   
 39  19  41  1   
 40  20  24  ar  
 41  20  42  1   
 42  21  25  ar  
 43  21  43  1   
 44  22  44  1   
 45  22  45  1   
 46  22  46  1   
 47  23  47  1   
 48  23  48  1   
 49  23  49  1   
 50  24  26  ar  
 51  24  50  1   
 52  25  26  ar  
 53  25  51  1   
 54  26  52  1   
@<TRIPOS>SUBSTRUCTURE
  1 ****   3 GROUP 4 **** **** 0

# MOE 2024.06 (io_trps.svl 2023.06)
