@<TRIPOS>MOLECULE
NONAME
55 58 1 0 0 
SMALL
USER_CHARGES


@<TRIPOS>ATOM
  1 O        0.3160    -0.2590     0.9770 O.3   1 <1>  -0.0190 
  2 N       -0.5940     0.6280     0.7180 N.2   1 <1>  -0.4100 
  3 C        1.3350     0.1020     0.2340 C.2   1 <1>   0.2980 
  4 C       -0.0950     1.4430    -0.1220 C.2   1 <1>   0.3350 
  5 N        1.1520     1.1520    -0.4670 N.2   1 <1>  -0.5650 
  6 C        2.5990    -0.7640     0.2470 C.3   1 <1>   0.3700 
  7 C       -0.8170     2.6380    -0.7060 C.3   1 <1>   0.0210 
  8 N        2.3300    -2.1550    -0.2120 N.3   1 <1>  -0.8100 
  9 C        3.1960    -0.7850     1.6660 C.3   1 <1>  -0.1600 
 10 C       -0.1620     3.9340    -0.2420 C.3   1 <1>   0.1200 
 11 C        3.5480    -2.9880    -0.1950 C.3   1 <1>   0.1100 
 12 C        1.7470    -2.1710    -1.5790 C.3   1 <1>   0.2900 
 13 C        4.4500    -1.6620     1.7550 C.3   1 <1>  -0.1600 
 14 O       -0.8690     4.9990    -0.7900 O.3   1 <1>  -0.5600 
 15 C        4.1330    -3.0590     1.2160 C.3   1 <1>  -0.1600 
 16 C        1.1820    -3.5400    -1.9290 C.2   1 <1>   0.0070 
 17 C       -0.3650     6.2480    -0.4430 C.3   1 <1>   0.0400 
 18 N        1.5360    -4.2100    -2.9800 N.2   1 <1>  -0.5650 
 19 N        0.2540    -4.1690    -1.1630 N.pl3 1 <1>   0.0480 
 20 C        0.8070    -5.3380    -2.9020 C.2   1 <1>   0.0770 
 21 C        0.0230    -5.3320    -1.8040 C.2   1 <1>  -0.3020 
 22 C       -0.3240    -3.6860     0.1170 C.3   1 <1>   0.2390 
 23 C       -1.6250    -4.3990     0.4650 C.ar  1 <1>  -0.1440 
 24 C       -2.8270    -3.9530    -0.0630 C.ar  1 <1>  -0.1500 
 25 C       -1.6190    -5.4970     1.3130 C.ar  1 <1>  -0.1500 
 26 C       -4.0100    -4.5980     0.2520 C.ar  1 <1>  -0.1500 
 27 C       -2.8020    -6.1420     1.6280 C.ar  1 <1>  -0.1500 
 28 C       -3.9990    -5.6920     1.0980 C.ar  1 <1>  -0.1500 
 29 H        3.3150    -0.3140    -0.4190 H     1 <1>   0.0800 
 30 H       -1.8430     2.6220    -0.3870 H     1 <1>   0.0800 
 31 H       -0.7810     2.5780    -1.7770 H     1 <1>   0.0800 
 32 H        2.4550    -1.1560     2.3530 H     1 <1>   0.0800 
 33 H        3.4410     0.2200     1.9610 H     1 <1>   0.0800 
 34 H        0.8590     3.9820    -0.5820 H     1 <1>   0.0800 
 35 H       -0.1960     4.0090     0.8320 H     1 <1>   0.0800 
 36 H        4.2800    -2.5830    -0.8740 H     1 <1>   0.0800 
 37 H        3.3120    -3.9890    -0.5210 H     1 <1>   0.0800 
 38 H        2.4960    -1.8990    -2.3050 H     1 <1>   0.0800 
 39 H        0.9400    -1.4660    -1.6630 H     1 <1>   0.0800 
 40 H        4.7810    -1.7290     2.7770 H     1 <1>   0.0800 
 41 H        5.2420    -1.2220     1.1730 H     1 <1>   0.0800 
 42 H        5.0310    -3.6510     1.1980 H     1 <1>   0.0800 
 43 H        3.4280    -3.5530     1.8610 H     1 <1>   0.0800 
 44 H       -0.9770     6.9980    -0.9140 H     1 <1>   0.0800 
 45 H        0.6480     6.3340    -0.7960 H     1 <1>   0.0800 
 46 H       -0.4070     6.3650     0.6260 H     1 <1>   0.0800 
 47 H        0.8860    -6.1070    -3.6520 H     1 <1>   0.1500 
 48 H       -0.6720    -6.0740    -1.4530 H     1 <1>   0.1500 
 49 H       -0.5080    -2.6310     0.0350 H     1 <1>   0.0800 
 50 H        0.4020    -3.8370     0.8940 H     1 <1>   0.0800 
 51 H       -2.8460    -3.1040    -0.7240 H     1 <1>   0.1500 
 52 H       -0.6930    -5.8570     1.7280 H     1 <1>   0.1500 
 53 H       -4.9400    -4.2480    -0.1620 H     1 <1>   0.1500 
 54 H       -2.7920    -6.9940     2.2860 H     1 <1>   0.1500 
 55 H       -4.9190    -6.1930     1.3430 H     1 <1>   0.1500 
@<TRIPOS>BOND
  1   1   2  1   
  2   1   3  1   
  3   2   4  2   
  4   3   5  2   
  5   3   6  1   
  6   4   5  1   
  7   4   7  1   
  8   6   8  1   
  9   6   9  1   
 10   6  29  1   
 11   7  10  1   
 12   7  30  1   
 13   7  31  1   
 14   8  11  1   
 15   8  12  1   
 16   9  13  1   
 17   9  32  1   
 18   9  33  1   
 19  10  14  1   
 20  10  34  1   
 21  10  35  1   
 22  11  15  1   
 23  11  36  1   
 24  11  37  1   
 25  12  16  1   
 26  12  38  1   
 27  12  39  1   
 28  13  15  1   
 29  13  40  1   
 30  13  41  1   
 31  14  17  1   
 32  15  42  1   
 33  15  43  1   
 34  16  18  2   
 35  16  19  1   
 36  17  44  1   
 37  17  45  1   
 38  17  46  1   
 39  18  20  1   
 40  19  21  1   
 41  19  22  1   
 42  20  21  2   
 43  20  47  1   
 44  21  48  1   
 45  22  23  1   
 46  22  49  1   
 47  22  50  1   
 48  23  24  ar  
 49  23  25  ar  
 50  24  26  ar  
 51  24  51  1   
 52  25  27  ar  
 53  25  52  1   
 54  26  28  ar  
 55  26  53  1   
 56  27  28  ar  
 57  27  54  1   
 58  28  55  1   
@<TRIPOS>SUBSTRUCTURE
  1 ****   1 GROUP 4 **** **** 0

# MOE 2024.06 (io_trps.svl 2023.06)
