@<TRIPOS>MOLECULE
NONAME
43 45 1 0 0 
SMALL
USER_CHARGES


@<TRIPOS>ATOM
  1 F        0.1540     0.4260     0.4750 F     1 <1>  -0.3400 
  2 C        1.2800    -0.0840    -0.0090 C.3   1 <1>   1.1640 
  3 F        2.2640     0.4300     0.7160 F     1 <1>  -0.3400 
  4 F        1.4160     0.4170    -1.2320 F     1 <1>  -0.3400 
  5 C        1.2920    -1.6210     0.0110 C.ar  1 <1>  -0.1440 
  6 C        0.6150    -2.3270     1.0000 C.ar  1 <1>  -0.1500 
  7 C        1.9920    -2.3450    -0.9490 C.ar  1 <1>  -0.1500 
  8 C        0.6280    -3.7100     1.0170 C.ar  1 <1>  -0.1500 
  9 C        2.0000    -3.7280    -0.9260 C.ar  1 <1>  -0.1500 
 10 C        1.3100    -4.4440     0.0490 C.ar  1 <1>   0.0860 
 11 C        1.3120    -5.8960     0.0450 C.2   1 <1>   0.5440 
 12 O        2.3600    -6.4970    -0.0920 O.2   1 <1>  -0.5700 
 13 N        0.1480    -6.6190     0.1710 N.am  1 <1>  -0.6600 
 14 C       -1.2090    -6.0870    -0.1160 C.3   1 <1>   0.1400 
 15 C        0.1370    -8.1040     0.1550 C.3   1 <1>   0.1400 
 16 C       -1.9980    -7.2930    -0.6180 C.3   1 <1>   0.2000 
 17 C       -1.3360    -8.5010     0.0370 C.3   1 <1>  -0.0800 
 18 O       -3.3330    -7.2160    -0.2550 O.3   1 <1>  -0.6800 
 19 C       -1.5580    -9.8090    -0.7380 C.3   1 <1>   0.0210 
 20 C       -0.8120   -10.9550    -0.0850 C.2   1 <1>   0.1080 
 21 N       -1.0910   -11.3880     1.1050 N.2   1 <1>  -0.7070 
 22 C        0.2430   -11.6530    -0.6650 C.2   1 <1>  -0.1500 
 23 N       -0.2140   -12.3870     1.3180 N.pl3 1 <1>   0.3000 
 24 C        0.6060   -12.5650     0.2610 C.2   1 <1>  -0.3320 
 25 C        1.7040   -13.6110     0.1990 C.3   1 <1>  -0.0600 
 26 H        0.0720    -1.8000     1.7690 H     1 <1>   0.1500 
 27 H        2.5410    -1.8350    -1.7250 H     1 <1>   0.1500 
 28 H        0.1060    -4.2380     1.7970 H     1 <1>   0.1500 
 29 H        2.5510    -4.2750    -1.6720 H     1 <1>   0.1500 
 30 H       -1.6380    -5.7070     0.7930 H     1 <1>   0.0800 
 31 H       -1.1710    -5.3160    -0.8660 H     1 <1>   0.0800 
 32 H        0.7010    -8.4510    -0.6950 H     1 <1>   0.0800 
 33 H        0.5790    -8.4990     1.0540 H     1 <1>   0.0800 
 34 H       -1.9390    -7.3430    -1.6920 H     1 <1>   0.0800 
 35 H       -1.7100    -8.6200     1.0390 H     1 <1>   0.0800 
 36 H       -3.4370    -7.4090     0.6970 H     1 <1>   0.4000 
 37 H       -1.2270    -9.6990    -1.7540 H     1 <1>   0.0800 
 38 H       -2.6070   -10.0450    -0.7510 H     1 <1>   0.0800 
 39 H        0.6600   -11.4800    -1.6410 H     1 <1>   0.1500 
 40 H       -0.2010   -12.9250     2.1920 H     1 <1>   0.2700 
 41 H        2.2170   -13.5520    -0.7440 H     1 <1>   0.0800 
 42 H        1.2860   -14.5960     0.3020 H     1 <1>   0.0800 
 43 H        2.4180   -13.4470     0.9870 H     1 <1>   0.0800 
@<TRIPOS>BOND
  1   1   2  1   
  2   2   3  1   
  3   2   4  1   
  4   2   5  1   
  5   5   6  ar  
  6   5   7  ar  
  7   6   8  ar  
  8   6  26  1   
  9   7   9  ar  
 10   7  27  1   
 11   8  10  ar  
 12   8  28  1   
 13   9  10  ar  
 14   9  29  1   
 15  10  11  1   
 16  11  12  2   
 17  11  13  am  
 18  13  14  1   
 19  13  15  1   
 20  14  16  1   
 21  14  30  1   
 22  14  31  1   
 23  15  17  1   
 24  15  32  1   
 25  15  33  1   
 26  16  17  1   
 27  16  18  1   
 28  16  34  1   
 29  17  19  1   
 30  17  35  1   
 31  18  36  1   
 32  19  20  1   
 33  19  37  1   
 34  19  38  1   
 35  20  21  2   
 36  20  22  1   
 37  21  23  1   
 38  22  24  2   
 39  22  39  1   
 40  23  24  1   
 41  23  40  1   
 42  24  25  1   
 43  25  41  1   
 44  25  42  1   
 45  25  43  1   
@<TRIPOS>SUBSTRUCTURE
  1 ****  13 GROUP 4 **** **** 0

# MOE 2024.06 (io_trps.svl 2023.06)
