@<TRIPOS>MOLECULE
NONAME
48 51 1 0 0 
SMALL
USER_CHARGES


@<TRIPOS>ATOM
  1 S        0.5460    -1.1490     1.0840 S.o2  1 <1>   1.5760 
  2 O        1.5570    -1.7690     0.2610 O.2   1 <1>  -0.6500 
  3 O        0.8240    -0.7380     2.4370 O.2   1 <1>  -0.6500 
  4 N       -0.1350     0.1340     0.2340 N.am  1 <1>  -0.8490 
  5 N       -0.7780    -2.1580     1.1350 N.am  1 <1>  -0.9140 
  6 C       -1.1220     0.8850     0.9910 C.3   1 <1>   0.1960 
  7 C        0.8520     1.1100    -0.1830 C.3   1 <1>   0.1960 
  8 C       -1.0300    -2.8460    -0.1230 C.3   1 <1>   0.2760 
  9 C       -1.2840     2.1820     0.2080 C.3   1 <1>  -0.1600 
 10 C        0.0360     2.3450    -0.5480 C.3   1 <1>  -0.1600 
 11 C       -2.4640    -3.3550    -0.1550 C.3   1 <1>  -0.0800 
 12 C       -0.2790    -4.1770    -0.1570 C.3   1 <1>   0.1200 
 13 C       -2.3770    -4.6830     0.6070 C.3   1 <1>   0.1200 
 14 C       -3.5340    -2.3860     0.3860 C.3   1 <1>  -0.0170 
 15 O       -1.0230    -5.0270     0.6610 O.3   1 <1>  -0.5600 
 16 C       -4.9310    -2.9800     0.2470 C.ar  1 <1>  -0.1430 
 17 C       -5.6250    -3.0130    -0.9860 C.ar  1 <1>   0.0000 
 18 C       -5.5550    -3.5140     1.3360 C.ar  1 <1>  -0.1500 
 19 C       -6.9040    -3.6220    -1.0040 C.ar  1 <1>   0.3100 
 20 C       -5.1290    -2.4800    -2.1990 C.ar  1 <1>  -0.1500 
 21 C       -6.8270    -4.0840     1.2120 C.ar  1 <1>   0.1600 
 22 N       -7.4880    -4.1500     0.1010 N.ar  1 <1>  -0.6200 
 23 C       -7.6090    -3.6870    -2.2160 C.ar  1 <1>  -0.1500 
 24 C       -5.8440    -2.5570    -3.3630 C.ar  1 <1>  -0.1500 
 25 C       -7.0990    -3.1700    -3.3750 C.ar  1 <1>  -0.1500 
 26 H       -0.5120    -2.8870     1.7940 H     1 <1>   0.4200 
 27 H       -2.0470     0.3400     1.0710 H     1 <1>   0.0800 
 28 H       -0.7500     1.1060     1.9790 H     1 <1>   0.0800 
 29 H        1.5130     1.3390     0.6380 H     1 <1>   0.0800 
 30 H        1.4290     0.7440    -1.0170 H     1 <1>   0.0800 
 31 H       -0.8080    -2.2140    -0.9690 H     1 <1>   0.0800 
 32 H       -2.1010     2.0840    -0.4850 H     1 <1>   0.0800 
 33 H       -1.4790     3.0070     0.8700 H     1 <1>   0.0800 
 34 H        0.5570     3.2420    -0.2630 H     1 <1>   0.0800 
 35 H       -0.1410     2.3640    -1.6090 H     1 <1>   0.0800 
 36 H       -2.7040    -3.5940    -1.1760 H     1 <1>   0.0800 
 37 H        0.7310    -4.1160     0.2070 H     1 <1>   0.0800 
 38 H       -0.2800    -4.5880    -1.1510 H     1 <1>   0.0800 
 39 H       -2.9200    -5.4670     0.1070 H     1 <1>   0.0800 
 40 H       -2.7270    -4.5850     1.6200 H     1 <1>   0.0800 
 41 H       -3.4790    -1.4460    -0.1340 H     1 <1>   0.0800 
 42 H       -3.3440    -2.1760     1.4240 H     1 <1>   0.0800 
 43 H       -5.0920    -3.5180     2.3070 H     1 <1>   0.1500 
 44 H       -4.1700    -2.0000    -2.2120 H     1 <1>   0.1500 
 45 H       -7.2840    -4.4950     2.0970 H     1 <1>   0.1500 
 46 H       -8.5740    -4.1590    -2.2000 H     1 <1>   0.1500 
 47 H       -5.4540    -2.1490    -4.2800 H     1 <1>   0.1500 
 48 H       -7.6520    -3.2270    -4.2970 H     1 <1>   0.1500 
@<TRIPOS>BOND
  1   1   2  2   
  2   1   3  2   
  3   1   4  am  
  4   1   5  am  
  5   4   6  1   
  6   4   7  1   
  7   5   8  1   
  8   5  26  1   
  9   6   9  1   
 10   6  27  1   
 11   6  28  1   
 12   7  10  1   
 13   7  29  1   
 14   7  30  1   
 15   8  11  1   
 16   8  12  1   
 17   8  31  1   
 18   9  10  1   
 19   9  32  1   
 20   9  33  1   
 21  10  34  1   
 22  10  35  1   
 23  11  13  1   
 24  11  14  1   
 25  11  36  1   
 26  12  15  1   
 27  12  37  1   
 28  12  38  1   
 29  13  15  1   
 30  13  39  1   
 31  13  40  1   
 32  14  16  1   
 33  14  41  1   
 34  14  42  1   
 35  16  17  ar  
 36  16  18  ar  
 37  17  19  ar  
 38  17  20  ar  
 39  18  21  ar  
 40  18  43  1   
 41  19  22  ar  
 42  19  23  ar  
 43  20  24  ar  
 44  20  44  1   
 45  21  22  ar  
 46  21  45  1   
 47  23  25  ar  
 48  23  46  1   
 49  24  25  ar  
 50  24  47  1   
 51  25  48  1   
@<TRIPOS>SUBSTRUCTURE
  1 ****  14 GROUP 4 **** **** 0

# MOE 2024.06 (io_trps.svl 2023.06)
