@<TRIPOS>MOLECULE
NONAME
51 54 1 0 0 
SMALL
USER_CHARGES


@<TRIPOS>ATOM
  1 O        2.4330     0.4060    -2.3300 O.2   1 <1>  -0.5700 
  2 C        2.5400     1.0750    -1.3260 C.2   1 <1>   0.7800 
  3 O        3.3450     2.1240    -1.2720 O.3   1 <1>  -0.4300 
  4 N        1.8950     0.8710    -0.1550 N.am  1 <1>  -0.6600 
  5 C        3.2890     2.7590    -0.0090 C.3   1 <1>   0.2800 
  6 C        2.3200     1.8760     0.8180 C.3   1 <1>   0.1400 
  7 C        0.9290    -0.2070     0.1620 C.3   1 <1>   0.0600 
  8 C        4.7130     2.7090     0.5710 C.3   1 <1>  -0.1600 
  9 C        2.7090     4.1670    -0.2750 C.3   1 <1>  -0.1600 
 10 C        5.6440     3.7800     0.0070 C.3   1 <1>   0.2090 
 11 C        3.0370     5.2350     0.7850 C.3   1 <1>  -0.1600 
 12 N        5.5260     4.9990     0.8510 N.pl3 1 <1>  -0.8380 
 13 C        4.3930     5.9170     0.5550 C.3   1 <1>   0.2090 
 14 C        6.6810     5.5110     1.4290 C.ar  1 <1>   0.4100 
 15 N        7.0110     6.7500     1.1060 N.ar  1 <1>  -0.6200 
 16 C        7.4560     4.7310     2.3010 C.ar  1 <1>   0.1600 
 17 C        8.1440     7.1880     1.6810 C.ar  1 <1>   0.3960 
 18 N        8.5720     5.1210     2.8800 N.ar  1 <1>  -0.6200 
 19 C        8.6560     8.5400     1.4330 C.2   1 <1>   0.5440 
 20 C        8.8790     6.3670     2.5430 C.ar  1 <1>   0.1600 
 21 O        9.3410     9.0740     2.2910 O.2   1 <1>  -0.5700 
 22 N        8.4420     9.2600     0.2680 N.am  1 <1>  -0.6600 
 23 C        7.7350     8.7780    -0.9420 C.3   1 <1>   0.1400 
 24 C        9.0610    10.5810     0.0210 C.3   1 <1>   0.1400 
 25 C        7.8360     9.9210    -1.9470 C.3   1 <1>  -0.1600 
 26 C        9.0400    10.7400    -1.4940 C.3   1 <1>  -0.1600 
 27 H        2.8190     1.4040     1.6460 H     1 <1>   0.0800 
 28 H        1.4770     2.4360     1.1830 H     1 <1>   0.0800 
 29 H        0.7810    -0.8310    -0.7040 H     1 <1>   0.0800 
 30 H       -0.0160     0.2210     0.4480 H     1 <1>   0.0800 
 31 H        1.3070    -0.8130     0.9660 H     1 <1>   0.0800 
 32 H        5.1300     1.7400     0.3620 H     1 <1>   0.0800 
 33 H        4.6810     2.8150     1.6410 H     1 <1>   0.0800 
 34 H        1.6390     4.0860    -0.3600 H     1 <1>   0.0800 
 35 H        3.0620     4.5200    -1.2290 H     1 <1>   0.0800 
 36 H        5.4070     4.0030    -1.0200 H     1 <1>   0.0800 
 37 H        6.6580     3.4200     0.0360 H     1 <1>   0.0800 
 38 H        2.9920     4.8300     1.7800 H     1 <1>   0.0800 
 39 H        2.2880     6.0030     0.7200 H     1 <1>   0.0800 
 40 H        4.4540     6.7740     1.2050 H     1 <1>   0.0800 
 41 H        4.4720     6.2690    -0.4590 H     1 <1>   0.0800 
 42 H        7.1070     3.7390     2.5160 H     1 <1>   0.1500 
 43 H        9.7760     6.7700     2.9800 H     1 <1>   0.1500 
 44 H        6.7050     8.5540    -0.7210 H     1 <1>   0.0800 
 45 H        8.2280     7.8970    -1.3150 H     1 <1>   0.0800 
 46 H       10.0640    10.6220     0.4100 H     1 <1>   0.0800 
 47 H        8.4600    11.3410     0.4920 H     1 <1>   0.0800 
 48 H        6.9440    10.5200    -1.8830 H     1 <1>   0.0800 
 49 H        7.9410     9.5580    -2.9540 H     1 <1>   0.0800 
 50 H        9.9430    10.3200    -1.9000 H     1 <1>   0.0800 
 51 H        8.9700    11.7730    -1.7860 H     1 <1>   0.0800 
@<TRIPOS>BOND
  1   1   2  2   
  2   2   3  1   
  3   2   4  am  
  4   3   5  1   
  5   4   6  1   
  6   4   7  1   
  7   5   6  1   
  8   5   8  1   
  9   5   9  1   
 10   6  27  1   
 11   6  28  1   
 12   7  29  1   
 13   7  30  1   
 14   7  31  1   
 15   8  10  1   
 16   8  32  1   
 17   8  33  1   
 18   9  11  1   
 19   9  34  1   
 20   9  35  1   
 21  10  12  1   
 22  10  36  1   
 23  10  37  1   
 24  11  13  1   
 25  11  38  1   
 26  11  39  1   
 27  12  13  1   
 28  12  14  1   
 29  13  40  1   
 30  13  41  1   
 31  14  15  ar  
 32  14  16  ar  
 33  15  17  ar  
 34  16  18  ar  
 35  16  42  1   
 36  17  19  1   
 37  17  20  ar  
 38  18  20  ar  
 39  19  21  2   
 40  19  22  am  
 41  20  43  1   
 42  22  23  1   
 43  22  24  1   
 44  23  25  1   
 45  23  44  1   
 46  23  45  1   
 47  24  26  1   
 48  24  46  1   
 49  24  47  1   
 50  25  26  1   
 51  25  48  1   
 52  25  49  1   
 53  26  50  1   
 54  26  51  1   
@<TRIPOS>SUBSTRUCTURE
  1 ****  12 GROUP 4 **** **** 0

# MOE 2024.06 (io_trps.svl 2023.06)
