@<TRIPOS>MOLECULE
NONAME
52 54 1 0 0 
SMALL
USER_CHARGES


@<TRIPOS>ATOM
  1 S       -1.8340     1.8680     0.0080 S.3   1 <1>  -0.4600 
  2 C       -1.1060     3.4810    -0.3560 C.3   1 <1>   0.0700 
  3 C       -3.6220     2.1780    -0.0190 C.3   1 <1>  -0.0100 
  4 C        0.4120     3.2720    -0.3850 C.3   1 <1>   0.3430 
  5 N        1.1660     4.5290    -0.7010 N.4   1 <1>  -0.9590 
  6 C        2.5900     4.1960    -1.0070 C.3   1 <1>   0.3430 
  7 C        1.0560     5.5400     0.3970 C.3   1 <1>   0.3430 
  8 C        3.3430     5.4560    -1.4240 C.3   1 <1>  -0.1600 
  9 C        1.7830     6.8200    -0.0010 C.3   1 <1>  -0.1600 
 10 C        3.2420     6.5290    -0.3440 C.3   1 <1>   0.2890 
 11 N        3.8640     7.7550    -0.8490 N.pl3 1 <1>  -0.8690 
 12 C        4.4470     8.6210     0.0370 C.ar  1 <1>   0.4100 
 13 N        3.8290     9.7780     0.1100 N.ar  1 <1>  -0.6200 
 14 C        5.5810     8.2990     0.7980 C.ar  1 <1>   0.1600 
 15 C        4.3790    10.6250     1.0010 C.ar  1 <1>   0.3960 
 16 N        6.1320     9.0940     1.6880 N.ar  1 <1>  -0.6200 
 17 C        3.8260    11.9620     1.2240 C.2   1 <1>   0.5440 
 18 C        5.4940    10.2560     1.7620 C.ar  1 <1>   0.1600 
 19 O        3.8490    12.4240     2.3530 O.2   1 <1>  -0.5700 
 20 N        3.3020    12.7590     0.2220 N.am  1 <1>  -0.6600 
 21 C        3.3190    12.4530    -1.2270 C.3   1 <1>   0.1400 
 22 C        2.8390    14.1440     0.4610 C.3   1 <1>   0.1400 
 23 C        2.7170    13.6810    -1.9020 C.3   1 <1>  -0.1600 
 24 C        2.9170    14.8170    -0.9040 C.3   1 <1>  -0.1600 
 25 H       -1.4180     4.1470     0.4280 H     1 <1>   0.0800 
 26 H       -1.4900     3.7930    -1.3110 H     1 <1>   0.0800 
 27 H       -4.1170     1.2470     0.1950 H     1 <1>   0.0800 
 28 H       -3.8900     2.5320    -0.9980 H     1 <1>   0.0800 
 29 H       -3.8500     2.9100     0.7360 H     1 <1>   0.0800 
 30 H        0.6290     2.5250    -1.1310 H     1 <1>   0.0800 
 31 H        0.7290     2.8840     0.5700 H     1 <1>   0.0800 
 32 H        0.7600     4.9390    -1.5550 H     1 <1>   0.4500 
 33 H        2.6370     3.4720    -1.8060 H     1 <1>   0.0800 
 34 H        3.0600     3.7670    -0.1360 H     1 <1>   0.0800 
 35 H        1.4900     5.1450     1.3020 H     1 <1>   0.0800 
 36 H        0.0200     5.7670     0.5930 H     1 <1>   0.0800 
 37 H        2.9450     5.8210    -2.3540 H     1 <1>   0.0800 
 38 H        4.3790     5.2110    -1.5800 H     1 <1>   0.0800 
 39 H        1.7440     7.5130     0.8220 H     1 <1>   0.0800 
 40 H        1.2800     7.2710    -0.8390 H     1 <1>   0.0800 
 41 H        3.7610     6.1970     0.5420 H     1 <1>   0.0800 
 42 H        3.2370     8.2830    -1.4630 H     1 <1>   0.4000 
 43 H        6.0320     7.3370     0.6430 H     1 <1>   0.1500 
 44 H        5.8760    10.9700     2.4710 H     1 <1>   0.1500 
 45 H        2.7350    11.5750    -1.4410 H     1 <1>   0.0800 
 46 H        4.3360    12.3030    -1.5480 H     1 <1>   0.0800 
 47 H        3.4580    14.6450     1.1860 H     1 <1>   0.0800 
 48 H        1.8220    14.1160     0.8130 H     1 <1>   0.0800 
 49 H        1.6660    13.5130    -2.0560 H     1 <1>   0.0800 
 50 H        3.1810    13.8830    -2.8510 H     1 <1>   0.0800 
 51 H        3.8970    15.2450    -1.0250 H     1 <1>   0.0800 
 52 H        2.1800    15.5930    -1.0090 H     1 <1>   0.0800 
@<TRIPOS>BOND
  1   1   2  1   
  2   1   3  1   
  3   2   4  1   
  4   2  25  1   
  5   2  26  1   
  6   3  27  1   
  7   3  28  1   
  8   3  29  1   
  9   4   5  1   
 10   4  30  1   
 11   4  31  1   
 12   5   6  1   
 13   5   7  1   
 14   5  32  1   
 15   6   8  1   
 16   6  33  1   
 17   6  34  1   
 18   7   9  1   
 19   7  35  1   
 20   7  36  1   
 21   8  10  1   
 22   8  37  1   
 23   8  38  1   
 24   9  10  1   
 25   9  39  1   
 26   9  40  1   
 27  10  11  1   
 28  10  41  1   
 29  11  12  1   
 30  11  42  1   
 31  12  13  ar  
 32  12  14  ar  
 33  13  15  ar  
 34  14  16  ar  
 35  14  43  1   
 36  15  17  1   
 37  15  18  ar  
 38  16  18  ar  
 39  17  19  2   
 40  17  20  am  
 41  18  44  1   
 42  20  21  1   
 43  20  22  1   
 44  21  23  1   
 45  21  45  1   
 46  21  46  1   
 47  22  24  1   
 48  22  47  1   
 49  22  48  1   
 50  23  24  1   
 51  23  49  1   
 52  23  50  1   
 53  24  51  1   
 54  24  52  1   
@<TRIPOS>SUBSTRUCTURE
  1 ****  11 GROUP 4 **** **** 0

# MOE 2024.06 (io_trps.svl 2023.06)
