@<TRIPOS>MOLECULE
NONAME
56 59 1 0 0 
SMALL
USER_CHARGES


@<TRIPOS>ATOM
  1 O       -0.7580    -0.7930     0.9950 O.3   1 <1>  -0.6800 
  2 C        0.4260    -1.1010     0.3390 C.3   1 <1>   0.2000 
  3 C        1.0090    -2.3520     1.0060 C.3   1 <1>  -0.0800 
  4 C        1.4200     0.0340     0.6300 C.3   1 <1>   0.3430 
  5 C        1.8440    -1.7590     2.1420 C.3   1 <1>   0.3430 
  6 C        1.8170    -3.2590     0.0390 C.3   1 <1>  -0.0170 
  7 N        2.4410    -0.5290     1.5660 N.4   1 <1>  -0.9590 
  8 C        3.2380    -2.8040    -0.2850 C.ar  1 <1>   0.1670 
  9 C        3.0140     0.4380     2.5290 C.3   1 <1>   0.4860 
 10 N        3.3860    -1.6650    -0.8920 N.ar  1 <1>  -0.6200 
 11 C        4.3190    -3.6180     0.0950 C.ar  1 <1>  -0.1500 
 12 C        4.0450     1.2640     1.8000 C.ar  1 <1>  -0.1440 
 13 C        4.6490    -1.2540    -1.1910 C.ar  1 <1>   0.3100 
 14 C        5.5940    -3.2220    -0.1710 C.ar  1 <1>  -0.1500 
 15 C        5.3580     0.8570     1.7290 C.ar  1 <1>   0.1600 
 16 C        3.7270     2.4470     1.1720 C.ar  1 <1>   0.1600 
 17 C        5.7910    -1.9990    -0.8320 C.ar  1 <1>   0.0000 
 18 C        4.8280    -0.0310    -1.8570 C.ar  1 <1>  -0.1500 
 19 N        6.2660     1.5440     1.0870 N.ar  1 <1>  -0.6200 
 20 N        4.6130     3.1450     0.5080 N.ar  1 <1>  -0.6200 
 21 C        7.0670    -1.4910    -1.1460 C.ar  1 <1>  -0.1500 
 22 C        6.0770     0.4460    -2.1500 C.ar  1 <1>  -0.1500 
 23 C        5.8430     2.6520     0.4890 C.ar  1 <1>   0.7200 
 24 C        7.2080    -0.2920    -1.7910 C.ar  1 <1>  -0.1500 
 25 N        6.7280     3.3820    -0.2230 N.pl3 1 <1>  -0.8690 
 26 C        8.1900     3.1880    -0.2430 C.3   1 <1>   0.2090 
 27 C        8.7240     3.6230    -1.6070 C.3   1 <1>  -0.1600 
 28 C       10.2410     3.4250    -1.7060 C.3   1 <1>  -0.2400 
 29 H       -1.5000    -1.3490     0.6720 H     1 <1>   0.4000 
 30 H        0.2230    -1.2090    -0.7140 H     1 <1>   0.0800 
 31 H        0.2170    -2.9550     1.4160 H     1 <1>   0.0800 
 32 H        0.8950     0.8650     1.0720 H     1 <1>   0.0800 
 33 H        1.8990     0.3520    -0.2820 H     1 <1>   0.0800 
 34 H        2.5980    -2.4480     2.4870 H     1 <1>   0.0800 
 35 H        1.1910    -1.4970     2.9600 H     1 <1>   0.0800 
 36 H        1.2790    -3.3660    -0.8870 H     1 <1>   0.0800 
 37 H        1.8670    -4.2430     0.4710 H     1 <1>   0.0800 
 38 H        3.1980    -0.8460     0.9260 H     1 <1>   0.4500 
 39 H        2.2390     1.0670     2.9380 H     1 <1>   0.0800 
 40 H        3.4920    -0.0880     3.3390 H     1 <1>   0.0800 
 41 H        4.1370    -4.5560     0.5890 H     1 <1>   0.1500 
 42 H        6.4470    -3.8200     0.1030 H     1 <1>   0.1500 
 43 H        5.6810    -0.0540     2.2050 H     1 <1>   0.1500 
 44 H        2.7230     2.8350     1.2040 H     1 <1>   0.1500 
 45 H        3.9560     0.5310    -2.1330 H     1 <1>   0.1500 
 46 H        7.9360    -2.0620    -0.8700 H     1 <1>   0.1500 
 47 H        6.2050     1.3920    -2.6490 H     1 <1>   0.1500 
 48 H        8.1830     0.1000    -2.0260 H     1 <1>   0.1500 
 49 H        6.3740     4.2930    -0.5060 H     1 <1>   0.4000 
 50 H        8.6390     3.7770     0.5400 H     1 <1>   0.0800 
 51 H        8.4300     2.1520    -0.0740 H     1 <1>   0.0800 
 52 H        8.2430     3.0420    -2.3740 H     1 <1>   0.0800 
 53 H        8.4930     4.6610    -1.7670 H     1 <1>   0.0800 
 54 H       10.4960     2.3880    -1.5680 H     1 <1>   0.0800 
 55 H       10.7480     4.0100    -0.9580 H     1 <1>   0.0800 
 56 H       10.5900     3.7350    -2.6760 H     1 <1>   0.0800 
@<TRIPOS>BOND
  1   1   2  1   
  2   1  29  1   
  3   2   3  1   
  4   2   4  1   
  5   2  30  1   
  6   3   5  1   
  7   3   6  1   
  8   3  31  1   
  9   4   7  1   
 10   4  32  1   
 11   4  33  1   
 12   5   7  1   
 13   5  34  1   
 14   5  35  1   
 15   6   8  1   
 16   6  36  1   
 17   6  37  1   
 18   7   9  1   
 19   7  38  1   
 20   8  10  ar  
 21   8  11  ar  
 22   9  12  1   
 23   9  39  1   
 24   9  40  1   
 25  10  13  ar  
 26  11  14  ar  
 27  11  41  1   
 28  12  15  ar  
 29  12  16  ar  
 30  13  17  ar  
 31  13  18  ar  
 32  14  17  ar  
 33  14  42  1   
 34  15  19  ar  
 35  15  43  1   
 36  16  20  ar  
 37  16  44  1   
 38  17  21  ar  
 39  18  22  ar  
 40  18  45  1   
 41  19  23  ar  
 42  20  23  ar  
 43  21  24  ar  
 44  21  46  1   
 45  22  24  ar  
 46  22  47  1   
 47  23  25  1   
 48  24  48  1   
 49  25  26  1   
 50  25  49  1   
 51  26  27  1   
 52  26  50  1   
 53  26  51  1   
 54  27  28  1   
 55  27  52  1   
 56  27  53  1   
 57  28  54  1   
 58  28  55  1   
 59  28  56  1   
@<TRIPOS>SUBSTRUCTURE
  1 ****  13 GROUP 4 **** **** 0

# MOE 2024.06 (io_trps.svl 2023.06)
