@<TRIPOS>MOLECULE
NONAME
46 48 1 0 0 
SMALL
USER_CHARGES


@<TRIPOS>ATOM
  1 S       -0.5480    -0.2450    -0.4140 S.3   1 <1>  -0.0800 
  2 C       -1.1760    -1.3000     0.8430 C.2   1 <1>  -0.1400 
  3 C       -0.9950     1.1890     0.4940 C.2   1 <1>  -0.1400 
  4 C       -1.6700    -0.5730     1.8630 C.2   1 <1>  -0.1500 
  5 C       -1.0620    -2.7910     0.6160 C.3   1 <1>   0.5230 
  6 C       -1.5700     0.8400     1.6610 C.2   1 <1>  -0.1500 
  7 C       -0.6710     2.5270    -0.1490 C.3   1 <1>   0.0200 
  8 N       -2.3010    -3.2790    -0.0460 N.4   1 <1>  -0.9590 
  9 C       -1.1010     3.7090     0.7240 C.3   1 <1>  -0.2400 
 10 C       -2.3950    -4.7790    -0.0490 C.3   1 <1>   0.5660 
 11 C       -2.5070    -2.6940    -1.4130 C.3   1 <1>   0.3430 
 12 C       -1.0870    -5.3890    -0.5580 C.ar  1 <1>  -0.1440 
 13 C       -3.6520    -5.2910    -0.8160 C.3   1 <1>   0.2000 
 14 C       -3.6980    -3.3390    -2.1610 C.3   1 <1>   0.1200 
 15 C       -0.2460    -5.9960     0.3670 C.ar  1 <1>  -0.1500 
 16 C       -0.7000    -5.3590    -1.8950 C.ar  1 <1>  -0.1500 
 17 O       -4.4090    -4.2200    -1.3360 O.3   1 <1>  -0.5600 
 18 C       -4.5870    -6.1000     0.0930 C.3   1 <1>   0.1200 
 19 C        0.9630    -6.5390    -0.0280 C.ar  1 <1>  -0.1500 
 20 C        0.5100    -5.9020    -2.2880 C.ar  1 <1>  -0.1500 
 21 O       -3.8400    -6.9260     0.9240 O.3   1 <1>  -0.6800 
 22 C        1.3430    -6.4900    -1.3560 C.ar  1 <1>  -0.1500 
 23 H       -2.1080    -0.9550     2.7700 H     1 <1>   0.1500 
 24 H       -0.9430    -3.2800     1.5680 H     1 <1>   0.0800 
 25 H       -0.1950    -3.0090     0.0130 H     1 <1>   0.0800 
 26 H       -1.9340     1.5260     2.4070 H     1 <1>   0.1500 
 27 H        0.3900     2.5830    -0.3240 H     1 <1>   0.0800 
 28 H       -1.1680     2.5900    -1.1010 H     1 <1>   0.0800 
 29 H       -3.1000    -2.9540     0.5090 H     1 <1>   0.4500 
 30 H       -0.5940     3.6760     1.6720 H     1 <1>   0.0800 
 31 H       -2.1630     3.6820     0.8930 H     1 <1>   0.0800 
 32 H       -0.8550     4.6350     0.2360 H     1 <1>   0.0800 
 33 H       -2.4980    -5.1020     0.9730 H     1 <1>   0.0800 
 34 H       -2.6880    -1.6350    -1.3290 H     1 <1>   0.0800 
 35 H       -1.6150    -2.8160    -2.0050 H     1 <1>   0.0800 
 36 H       -3.3570    -5.9200    -1.6380 H     1 <1>   0.0800 
 37 H       -3.3610    -3.8770    -3.0300 H     1 <1>   0.0800 
 38 H       -4.3800    -2.5740    -2.4890 H     1 <1>   0.0800 
 39 H       -0.5230    -6.0620     1.4060 H     1 <1>   0.1500 
 40 H       -1.3230    -4.9250    -2.6540 H     1 <1>   0.1500 
 41 H       -5.2410    -6.7150    -0.5010 H     1 <1>   0.0800 
 42 H       -5.1720    -5.4460     0.7180 H     1 <1>   0.0800 
 43 H        1.6090    -7.0070     0.6960 H     1 <1>   0.1500 
 44 H        0.8070    -5.8760    -3.3240 H     1 <1>   0.1500 
 45 H       -4.4190    -7.5750     1.3810 H     1 <1>   0.4000 
 46 H        2.2850    -6.9140    -1.6630 H     1 <1>   0.1500 
@<TRIPOS>BOND
  1   1   2  1   
  2   1   3  1   
  3   2   4  2   
  4   2   5  1   
  5   3   6  2   
  6   3   7  1   
  7   4   6  1   
  8   4  23  1   
  9   5   8  1   
 10   5  24  1   
 11   5  25  1   
 12   6  26  1   
 13   7   9  1   
 14   7  27  1   
 15   7  28  1   
 16   8  10  1   
 17   8  11  1   
 18   8  29  1   
 19   9  30  1   
 20   9  31  1   
 21   9  32  1   
 22  10  12  1   
 23  10  13  1   
 24  10  33  1   
 25  11  14  1   
 26  11  34  1   
 27  11  35  1   
 28  12  15  ar  
 29  12  16  ar  
 30  13  17  1   
 31  13  18  1   
 32  13  36  1   
 33  14  17  1   
 34  14  37  1   
 35  14  38  1   
 36  15  19  ar  
 37  15  39  1   
 38  16  20  ar  
 39  16  40  1   
 40  18  21  1   
 41  18  41  1   
 42  18  42  1   
 43  19  22  ar  
 44  19  43  1   
 45  20  22  ar  
 46  20  44  1   
 47  21  45  1   
 48  22  46  1   
@<TRIPOS>SUBSTRUCTURE
  1 ****   8 GROUP 4 **** **** 0

# MOE 2024.06 (io_trps.svl 2023.06)
