@<TRIPOS>MOLECULE
NONAME
35 37 1 0 0 
SMALL
USER_CHARGES


@<TRIPOS>ATOM
  1 O        0.6200     0.6450    -0.2980 O.3   1 <1>  -0.0190 
  2 N        1.6430     1.4490    -0.1830 N.2   1 <1>  -0.4100 
  3 C        1.1050    -0.5260     0.0290 C.2   1 <1>   0.3930 
  4 C        2.6360     0.7370     0.1950 C.2   1 <1>   0.5990 
  5 N        2.3330    -0.5450     0.3450 N.2   1 <1>  -0.5650 
  6 C        0.1690    -1.7240     0.0020 C.3   1 <1>  -0.0150 
  7 N        3.9290     1.2250     0.4180 N.pl3 1 <1>  -0.8210 
  8 C        0.6750    -3.1100    -0.2660 C.3   1 <1>  -0.2000 
  9 C       -0.1550    -2.4020    -1.2950 C.3   1 <1>  -0.2000 
 10 C        4.0680     2.6910     0.6680 C.3   1 <1>   0.2090 
 11 C        4.9340     0.3710     1.1100 C.3   1 <1>   0.2090 
 12 C        4.2620     3.4200    -0.6580 C.3   1 <1>   0.0960 
 13 C        6.2560     0.4480     0.3520 C.3   1 <1>  -0.2400 
 14 N        4.3510     4.8650    -0.4120 N.pl3 1 <1>   0.3140 
 15 N        5.3860     5.4120     0.2530 N.2   1 <1>  -0.7070 
 16 C        3.4540     5.8030    -0.7760 C.2   1 <1>  -0.3020 
 17 C        5.1240     6.6830     0.2900 C.2   1 <1>   0.1390 
 18 C        3.9240     6.9910    -0.3400 C.2   1 <1>  -0.1500 
 19 H       -0.6250    -1.6240     0.7200 H     1 <1>   0.1000 
 20 H        0.2420    -3.9300     0.2810 H     1 <1>   0.1000 
 21 H        1.7270    -3.2470    -0.4510 H     1 <1>   0.1000 
 22 H        0.3270    -2.0600    -2.1950 H     1 <1>   0.1000 
 23 H       -1.1650    -2.7330    -1.4670 H     1 <1>   0.1000 
 24 H        4.9150     2.8820     1.3050 H     1 <1>   0.0800 
 25 H        3.1860     3.0630     1.1630 H     1 <1>   0.0800 
 26 H        4.6180    -0.6570     1.1440 H     1 <1>   0.0800 
 27 H        5.0640     0.7100     2.1240 H     1 <1>   0.0800 
 28 H        3.4340     3.2270    -1.3130 H     1 <1>   0.0800 
 29 H        5.1730     3.0970    -1.1240 H     1 <1>   0.0800 
 30 H        6.1120     0.1270    -0.6640 H     1 <1>   0.0800 
 31 H        6.9760    -0.1990     0.8170 H     1 <1>   0.0800 
 32 H        6.6440     1.4500     0.3600 H     1 <1>   0.0800 
 33 H        2.5520     5.5770    -1.3140 H     1 <1>   0.1500 
 34 H        5.7690     7.4080     0.7580 H     1 <1>   0.1500 
 35 H        3.4910     7.9700    -0.4400 H     1 <1>   0.1500 
@<TRIPOS>BOND
  1   1   2  1   
  2   1   3  1   
  3   2   4  2   
  4   3   5  2   
  5   3   6  1   
  6   4   5  1   
  7   4   7  1   
  8   6   8  1   
  9   6   9  1   
 10   6  19  1   
 11   7  10  1   
 12   7  11  1   
 13   8   9  1   
 14   8  20  1   
 15   8  21  1   
 16   9  22  1   
 17   9  23  1   
 18  10  12  1   
 19  10  24  1   
 20  10  25  1   
 21  11  13  1   
 22  11  26  1   
 23  11  27  1   
 24  12  14  1   
 25  12  28  1   
 26  12  29  1   
 27  13  30  1   
 28  13  31  1   
 29  13  32  1   
 30  14  15  1   
 31  14  16  1   
 32  15  17  2   
 33  16  18  2   
 34  16  33  1   
 35  17  18  1   
 36  17  34  1   
 37  18  35  1   
@<TRIPOS>SUBSTRUCTURE
  1 ****   7 GROUP 4 **** **** 0

# MOE 2024.06 (io_trps.svl 2023.06)
