@<TRIPOS>MOLECULE
NONAME
59 62 1 0 0 
SMALL
USER_CHARGES


@<TRIPOS>ATOM
  1 O        2.6950    -0.5380    -1.7100 O.2   1 <1>  -0.5700 
  2 C        2.0150    -1.1040    -0.8880 C.2   1 <1>   0.5690 
  3 N        1.5360    -0.5000     0.2340 N.am  1 <1>  -0.7300 
  4 C        1.6600    -2.5760    -1.1120 C.3   1 <1>   0.1710 
  5 C        1.6880     0.9020     0.6710 C.3   1 <1>   0.2200 
  6 N        0.3400    -2.9930    -0.5490 N.3   1 <1>  -0.8100 
  7 C        0.8990     1.8090    -0.2830 C.3   1 <1>  -0.1600 
  8 C        3.1780     1.2460     0.8220 C.3   1 <1>  -0.1600 
  9 C       -0.7910    -2.3310    -1.2210 C.3   1 <1>   0.1100 
 10 C        0.1060    -4.4420    -0.6810 C.3   1 <1>   0.1100 
 11 C        0.9560     3.3080     0.0570 C.3   1 <1>  -0.1600 
 12 C        3.4040     2.5130     1.6620 C.3   1 <1>  -0.1600 
 13 C       -1.9800    -3.2300    -0.9110 C.3   1 <1>   0.2000 
 14 C       -1.3710    -4.6250    -1.0740 C.3   1 <1>  -0.0800 
 15 C        2.3250     3.9260    -0.2610 C.3   1 <1>  -0.1600 
 16 C        3.3600     3.8310     0.8720 C.3   1 <1>  -0.1600 
 17 O       -2.3160    -3.0190     0.4140 O.3   1 <1>  -0.6800 
 18 C       -2.0900    -5.7470    -0.2940 C.3   1 <1>  -0.0170 
 19 C       -1.5660    -7.1730    -0.5140 C.ar  1 <1>  -0.1440 
 20 C       -1.9720    -8.2150     0.3580 C.ar  1 <1>   0.0000 
 21 C       -0.7160    -7.5150    -1.5290 C.ar  1 <1>  -0.1500 
 22 C       -1.4430    -9.5110     0.1380 C.ar  1 <1>   0.3100 
 23 C       -2.8790    -8.0510     1.4320 C.ar  1 <1>  -0.1500 
 24 C       -0.2600    -8.8310    -1.6630 C.ar  1 <1>   0.1600 
 25 N       -0.5880    -9.8010    -0.8730 N.ar  1 <1>  -0.6200 
 26 C       -1.8170   -10.5570     0.9970 C.ar  1 <1>  -0.1500 
 27 C       -3.2260    -9.0920     2.2500 C.ar  1 <1>  -0.1500 
 28 C       -2.6880   -10.3620     2.0340 C.ar  1 <1>  -0.1500 
 29 H        0.9060    -1.0750     0.7990 H     1 <1>   0.3700 
 30 H        2.4350    -3.1640    -0.6550 H     1 <1>   0.0800 
 31 H        1.6810    -2.7700    -2.1700 H     1 <1>   0.0800 
 32 H        1.2350     0.9780     1.6450 H     1 <1>   0.0800 
 33 H        1.2550     1.6660    -1.2880 H     1 <1>   0.0800 
 34 H       -0.1310     1.5000    -0.2560 H     1 <1>   0.0800 
 35 H        3.6540     0.4280     1.3320 H     1 <1>   0.0800 
 36 H        3.6460     1.3470    -0.1420 H     1 <1>   0.0800 
 37 H       -0.9430    -1.3270    -0.8620 H     1 <1>   0.0800 
 38 H       -0.6290    -2.3070    -2.2860 H     1 <1>   0.0800 
 39 H        0.7430    -4.8720    -1.4350 H     1 <1>   0.0800 
 40 H        0.3180    -4.9190     0.2620 H     1 <1>   0.0800 
 41 H        0.2220     3.8050    -0.5540 H     1 <1>   0.0800 
 42 H        0.6870     3.4810     1.0850 H     1 <1>   0.0800 
 43 H        2.6800     2.5500     2.4570 H     1 <1>   0.0800 
 44 H        4.3720     2.4460     2.1300 H     1 <1>   0.0800 
 45 H       -2.8420    -3.0490    -1.5300 H     1 <1>   0.0800 
 46 H       -1.4130    -4.8540    -2.1240 H     1 <1>   0.0800 
 47 H        2.7270     3.4680    -1.1490 H     1 <1>   0.0800 
 48 H        2.1870     4.9690    -0.4900 H     1 <1>   0.0800 
 49 H        3.1830     4.6300     1.5710 H     1 <1>   0.0800 
 50 H        4.3310     4.0040     0.4400 H     1 <1>   0.0800 
 51 H       -1.4710    -3.0000     0.9110 H     1 <1>   0.4000 
 52 H       -3.1360    -5.7280    -0.5460 H     1 <1>   0.0800 
 53 H       -2.0060    -5.5200     0.7540 H     1 <1>   0.0800 
 54 H       -0.3660    -6.8110    -2.2580 H     1 <1>   0.1500 
 55 H       -3.3160    -7.0870     1.6180 H     1 <1>   0.1500 
 56 H        0.4110    -9.0500    -2.4770 H     1 <1>   0.1500 
 57 H       -1.3920   -11.5250     0.8080 H     1 <1>   0.1500 
 58 H       -3.9150    -8.9480     3.0640 H     1 <1>   0.1500 
 59 H       -2.9660   -11.1730     2.6850 H     1 <1>   0.1500 
@<TRIPOS>BOND
  1   1   2  2   
  2   2   3  am  
  3   2   4  1   
  4   3   5  1   
  5   3  29  1   
  6   4   6  1   
  7   4  30  1   
  8   4  31  1   
  9   5   7  1   
 10   5   8  1   
 11   5  32  1   
 12   6   9  1   
 13   6  10  1   
 14   7  11  1   
 15   7  33  1   
 16   7  34  1   
 17   8  12  1   
 18   8  35  1   
 19   8  36  1   
 20   9  13  1   
 21   9  37  1   
 22   9  38  1   
 23  10  14  1   
 24  10  39  1   
 25  10  40  1   
 26  11  15  1   
 27  11  41  1   
 28  11  42  1   
 29  12  16  1   
 30  12  43  1   
 31  12  44  1   
 32  13  14  1   
 33  13  17  1   
 34  13  45  1   
 35  14  18  1   
 36  14  46  1   
 37  15  16  1   
 38  15  47  1   
 39  15  48  1   
 40  16  49  1   
 41  16  50  1   
 42  17  51  1   
 43  18  19  1   
 44  18  52  1   
 45  18  53  1   
 46  19  20  ar  
 47  19  21  ar  
 48  20  22  ar  
 49  20  23  ar  
 50  21  24  ar  
 51  21  54  1   
 52  22  25  ar  
 53  22  26  ar  
 54  23  27  ar  
 55  23  55  1   
 56  24  25  ar  
 57  24  56  1   
 58  26  28  ar  
 59  26  57  1   
 60  27  28  ar  
 61  27  58  1   
 62  28  59  1   
@<TRIPOS>SUBSTRUCTURE
  1 ****   6 GROUP 4 **** **** 0

# MOE 2024.06 (io_trps.svl 2023.06)
