@<TRIPOS>MOLECULE
NONAME
55 58 1 0 0 
SMALL
USER_CHARGES


@<TRIPOS>ATOM
  1 S       -0.3220     0.2080     1.6940 S.o2  1 <1>   1.4470 
  2 O       -1.1590    -0.9170     2.0530 O.2   1 <1>  -0.6500 
  3 O        0.5780     0.7730     2.6770 O.2   1 <1>  -0.6500 
  4 N       -1.3550     1.4530     1.1860 N.am  1 <1>  -0.8490 
  5 C        0.6220    -0.1740     0.1900 C.ar  1 <1>  -0.0090 
  6 C       -2.3980     0.9630     0.2810 C.3   1 <1>   0.1960 
  7 C       -1.9710     2.1220     2.3360 C.3   1 <1>   0.1960 
  8 C        0.5230    -1.4210    -0.4270 C.ar  1 <1>  -0.1500 
  9 C        1.4550     0.7840    -0.3850 C.ar  1 <1>  -0.1500 
 10 C       -3.1850     2.1460    -0.2860 C.3   1 <1>  -0.1600 
 11 C       -2.7530     3.3480     1.8650 C.3   1 <1>  -0.1600 
 12 C        1.2290    -1.7090    -1.5830 C.ar  1 <1>  -0.1500 
 13 C        2.1700     0.5160    -1.5410 C.ar  1 <1>  -0.1500 
 14 C       -3.8280     2.9790     0.8330 C.3   1 <1>   0.2800 
 15 C        2.0410    -0.7310    -2.1210 C.ar  1 <1>   0.1900 
 16 O       -4.7390     2.1520     1.5080 O.3   1 <1>  -0.5600 
 17 C       -4.4840     4.2620     0.2570 C.3   1 <1>   0.1400 
 18 F        2.7080    -0.9920    -3.2110 F     1 <1>  -0.1900 
 19 C       -6.0510     2.0970     1.0490 C.3   1 <1>   0.1200 
 20 N       -5.2840     5.0390     1.2520 N.am  1 <1>  -0.6600 
 21 C       -6.8960     3.1280     1.7970 C.3   1 <1>  -0.0990 
 22 C       -6.3650     4.5470     1.9390 C.2   1 <1>   0.5690 
 23 C       -4.8620     6.4600     1.4210 C.3   1 <1>   0.2840 
 24 O       -6.9820     5.2490     2.7050 O.2   1 <1>  -0.5700 
 25 C       -4.9590     7.1980     0.0930 C.ar  1 <1>  -0.1430 
 26 C       -6.1990     7.3920    -0.4980 C.ar  1 <1>  -0.1500 
 27 C       -3.8220     7.6790    -0.5400 C.ar  1 <1>  -0.1500 
 28 C       -6.3020     8.0550    -1.7080 C.ar  1 <1>  -0.1500 
 29 C       -3.9240     8.3410    -1.7510 C.ar  1 <1>  -0.1500 
 30 C       -5.1640     8.5300    -2.3360 C.ar  1 <1>  -0.1500 
 31 H       -3.0630     0.2940     0.8060 H     1 <1>   0.0800 
 32 H       -1.9510     0.4200    -0.5340 H     1 <1>   0.0800 
 33 H       -1.2090     2.4470     3.0250 H     1 <1>   0.0800 
 34 H       -2.6240     1.4390     2.8570 H     1 <1>   0.0800 
 35 H       -0.1140    -2.1760     0.0060 H     1 <1>   0.1500 
 36 H        1.5410     1.7510     0.0830 H     1 <1>   0.1500 
 37 H       -3.9400     1.7870    -0.9600 H     1 <1>   0.0800 
 38 H       -2.5090     2.7600    -0.8530 H     1 <1>   0.0800 
 39 H       -2.0590     4.0480     1.4370 H     1 <1>   0.0800 
 40 H       -3.2170     3.8230     2.7110 H     1 <1>   0.0800 
 41 H        1.1540    -2.6700    -2.0600 H     1 <1>   0.1500 
 42 H        2.8140     1.2540    -1.9850 H     1 <1>   0.1500 
 43 H       -5.1100     4.0240    -0.5840 H     1 <1>   0.0800 
 44 H       -3.6960     4.8830    -0.1310 H     1 <1>   0.0800 
 45 H       -6.4230     1.1100     1.2660 H     1 <1>   0.0800 
 46 H       -6.0860     2.2340    -0.0170 H     1 <1>   0.0800 
 47 H       -7.0600     2.7530     2.7900 H     1 <1>   0.0800 
 48 H       -7.8590     3.1860     1.3270 H     1 <1>   0.0800 
 49 H       -3.8510     6.4840     1.7880 H     1 <1>   0.0800 
 50 H       -5.4790     6.9650     2.1440 H     1 <1>   0.0800 
 51 H       -7.0850     7.0230    -0.0100 H     1 <1>   0.1500 
 52 H       -2.8520     7.5420    -0.0950 H     1 <1>   0.1500 
 53 H       -7.2680     8.2020    -2.1590 H     1 <1>   0.1500 
 54 H       -3.0390     8.7130    -2.2380 H     1 <1>   0.1500 
 55 H       -5.2440     9.0460    -3.2760 H     1 <1>   0.1500 
@<TRIPOS>BOND
  1   1   2  2   
  2   1   3  2   
  3   1   4  am  
  4   1   5  1   
  5   4   6  1   
  6   4   7  1   
  7   5   8  ar  
  8   5   9  ar  
  9   6  10  1   
 10   6  31  1   
 11   6  32  1   
 12   7  11  1   
 13   7  33  1   
 14   7  34  1   
 15   8  12  ar  
 16   8  35  1   
 17   9  13  ar  
 18   9  36  1   
 19  10  14  1   
 20  10  37  1   
 21  10  38  1   
 22  11  14  1   
 23  11  39  1   
 24  11  40  1   
 25  12  15  ar  
 26  12  41  1   
 27  13  15  ar  
 28  13  42  1   
 29  14  16  1   
 30  14  17  1   
 31  15  18  1   
 32  16  19  1   
 33  17  20  1   
 34  17  43  1   
 35  17  44  1   
 36  19  21  1   
 37  19  45  1   
 38  19  46  1   
 39  20  22  am  
 40  20  23  1   
 41  21  22  1   
 42  21  47  1   
 43  21  48  1   
 44  22  24  2   
 45  23  25  1   
 46  23  49  1   
 47  23  50  1   
 48  25  26  ar  
 49  25  27  ar  
 50  26  28  ar  
 51  26  51  1   
 52  27  29  ar  
 53  27  52  1   
 54  28  30  ar  
 55  28  53  1   
 56  29  30  ar  
 57  29  54  1   
 58  30  55  1   
@<TRIPOS>SUBSTRUCTURE
  1 ****  10 GROUP 4 **** **** 0

# MOE 2024.06 (io_trps.svl 2023.06)
