@<TRIPOS>MOLECULE
NONAME
57 59 1 0 0 
SMALL
USER_CHARGES


@<TRIPOS>ATOM
  1 O       -0.5030     0.3410    -0.8240 O.2   1 <1>  -0.5700 
  2 C       -1.5510     0.9600    -0.8010 C.2   1 <1>   0.5440 
  3 N       -2.7300     0.2540    -0.7170 N.am  1 <1>  -0.6600 
  4 C       -1.5350     2.4090    -0.8530 C.ar  1 <1>   0.0860 
  5 C       -4.0370     0.8230    -0.3190 C.3   1 <1>   0.1400 
  6 C       -2.7700    -1.2230    -0.6830 C.3   1 <1>   0.1400 
  7 C       -0.7070     3.1460    -0.0110 C.ar  1 <1>  -0.1500 
  8 C       -2.3360     3.1220    -1.7440 C.ar  1 <1>  -0.1500 
  9 C       -4.7860    -0.3300     0.3620 C.3   1 <1>  -0.0800 
 10 C       -4.2010    -1.5990    -0.2880 C.3   1 <1>  -0.0800 
 11 C       -0.6790     4.5290    -0.0300 C.ar  1 <1>   0.0830 
 12 C       -2.3320     4.5040    -1.7750 C.ar  1 <1>  -0.1500 
 13 C       -6.3440    -0.2400     0.3520 C.3   1 <1>   0.2800 
 14 C       -5.0480    -2.0390    -1.4920 C.3   1 <1>  -0.1600 
 15 O        0.1860     5.1030     0.8520 O.3   1 <1>  -0.3630 
 16 C       -1.5130     5.2320    -0.9150 C.ar  1 <1>   0.0830 
 17 O       -6.7780     0.4960    -0.7350 O.3   1 <1>  -0.6800 
 18 C       -6.9540    -1.6450     0.1980 C.3   1 <1>  -0.1600 
 19 C       -6.9110     0.4450     1.6150 C.3   1 <1>  -0.1600 
 20 C       -6.4900    -2.3850    -1.0760 C.3   1 <1>  -0.1600 
 21 C        0.9020     6.2650     0.5050 C.3   1 <1>   0.1200 
 22 O       -1.5190     6.5920    -0.9060 O.3   1 <1>  -0.3630 
 23 C       -6.4520     1.8950     1.8500 C.3   1 <1>  -0.2400 
 24 C        2.1540     6.3260     1.3740 C.3   1 <1>  -0.2400 
 25 C       -2.3930     7.3560    -1.7040 C.3   1 <1>   0.1200 
 26 C       -2.1400     8.8290    -1.3980 C.3   1 <1>  -0.2400 
 27 H       -3.9110     1.6600     0.3450 H     1 <1>   0.0800 
 28 H       -4.5410     1.1480    -1.2120 H     1 <1>   0.0800 
 29 H       -2.4950    -1.6260    -1.6420 H     1 <1>   0.0800 
 30 H       -2.0720    -1.5740     0.0590 H     1 <1>   0.0800 
 31 H       -0.0660     2.6220     0.6740 H     1 <1>   0.1500 
 32 H       -2.9700     2.5750    -2.4210 H     1 <1>   0.1500 
 33 H       -4.4620    -0.3490     1.3870 H     1 <1>   0.0800 
 34 H       -4.1710    -2.4080     0.4210 H     1 <1>   0.0800 
 35 H       -2.9770     4.9930    -2.4800 H     1 <1>   0.1500 
 36 H       -5.0740    -1.2340    -2.2070 H     1 <1>   0.0800 
 37 H       -4.5980    -2.8890    -1.9760 H     1 <1>   0.0800 
 38 H       -7.7510     0.4650    -0.7740 H     1 <1>   0.4000 
 39 H       -6.6560    -2.2290     1.0510 H     1 <1>   0.0800 
 40 H       -8.0280    -1.5960     0.2160 H     1 <1>   0.0800 
 41 H       -7.9860     0.4310     1.5660 H     1 <1>   0.0800 
 42 H       -6.6340    -0.1380     2.4760 H     1 <1>   0.0800 
 43 H       -6.5720    -3.4450    -0.9070 H     1 <1>   0.0800 
 44 H       -7.1460    -2.1370    -1.8930 H     1 <1>   0.0800 
 45 H        1.1620     6.2130    -0.5390 H     1 <1>   0.0800 
 46 H        0.2720     7.1180     0.6870 H     1 <1>   0.0800 
 47 H       -6.6610     2.5070     0.9890 H     1 <1>   0.0800 
 48 H       -5.3990     1.9360     2.0580 H     1 <1>   0.0800 
 49 H       -6.9740     2.3110     2.6940 H     1 <1>   0.0800 
 50 H        2.7690     5.4620     1.1950 H     1 <1>   0.0800 
 51 H        1.8790     6.3640     2.4130 H     1 <1>   0.0800 
 52 H        2.7200     7.2070     1.1350 H     1 <1>   0.0800 
 53 H       -2.1870     7.1430    -2.7380 H     1 <1>   0.0800 
 54 H       -3.4050     7.0850    -1.4580 H     1 <1>   0.0800 
 55 H       -1.1230     9.0870    -1.6320 H     1 <1>   0.0800 
 56 H       -2.3310     9.0280    -0.3580 H     1 <1>   0.0800 
 57 H       -2.7940     9.4430    -1.9900 H     1 <1>   0.0800 
@<TRIPOS>BOND
  1   1   2  2   
  2   2   3  am  
  3   2   4  1   
  4   3   5  1   
  5   3   6  1   
  6   4   7  ar  
  7   4   8  ar  
  8   5   9  1   
  9   5  27  1   
 10   5  28  1   
 11   6  10  1   
 12   6  29  1   
 13   6  30  1   
 14   7  11  ar  
 15   7  31  1   
 16   8  12  ar  
 17   8  32  1   
 18   9  10  1   
 19   9  13  1   
 20   9  33  1   
 21  10  14  1   
 22  10  34  1   
 23  11  15  1   
 24  11  16  ar  
 25  12  16  ar  
 26  12  35  1   
 27  13  17  1   
 28  13  18  1   
 29  13  19  1   
 30  14  20  1   
 31  14  36  1   
 32  14  37  1   
 33  15  21  1   
 34  16  22  1   
 35  17  38  1   
 36  18  20  1   
 37  18  39  1   
 38  18  40  1   
 39  19  23  1   
 40  19  41  1   
 41  19  42  1   
 42  20  43  1   
 43  20  44  1   
 44  21  24  1   
 45  21  45  1   
 46  21  46  1   
 47  22  25  1   
 48  23  47  1   
 49  23  48  1   
 50  23  49  1   
 51  24  50  1   
 52  24  51  1   
 53  24  52  1   
 54  25  26  1   
 55  25  53  1   
 56  25  54  1   
 57  26  55  1   
 58  26  56  1   
 59  26  57  1   
@<TRIPOS>SUBSTRUCTURE
  1 ****   4 GROUP 4 **** **** 0

# MOE 2024.06 (io_trps.svl 2023.06)
