@<TRIPOS>MOLECULE
NONAME
49 52 1 0 0 
SMALL
USER_CHARGES


@<TRIPOS>ATOM
  1 S        0.4020    -1.0980     0.3010 S.3   1 <1>  -0.0800 
  2 C       -1.2610    -1.5480     0.1690 C.2   1 <1>   0.1980 
  3 C        0.3660    -1.7710     1.8940 C.2   1 <1>   0.1980 
  4 N       -1.7050    -2.1170     1.2170 N.2   1 <1>  -0.3380 
  5 C       -1.9940    -1.2400    -1.1300 C.3   1 <1>   0.5230 
  6 N       -0.7730    -2.2420     2.2060 N.2   1 <1>  -0.3380 
  7 C        1.6340    -1.7310     2.7170 C.3   1 <1>  -0.0600 
  8 N       -3.4410    -1.6110    -1.0260 N.4   1 <1>  -0.9590 
  9 C       -4.0960    -1.9120    -2.3350 C.3   1 <1>   0.3430 
 10 C       -4.2440    -0.7400    -0.1190 C.3   1 <1>   0.3430 
 11 C       -5.3510    -2.7960    -2.1480 C.3   1 <1>   0.1400 
 12 C       -5.0680    -1.5840     0.8670 C.3   1 <1>  -0.1600 
 13 N       -5.4340    -3.4030    -0.7760 N.am  1 <1>  -0.6600 
 14 C       -6.0910    -2.5450     0.2440 C.3   1 <1>   0.1400 
 15 C       -4.5790    -4.4190    -0.4020 C.2   1 <1>   0.5440 
 16 O       -3.5570    -4.5420    -1.0500 O.2   1 <1>  -0.5700 
 17 C       -4.8060    -5.2270     0.7800 C.ar  1 <1>   0.0860 
 18 C       -5.9410    -6.0190     0.9420 C.ar  1 <1>  -0.1430 
 19 C       -3.8750    -5.2330     1.8210 C.ar  1 <1>  -0.1500 
 20 C       -6.1550    -6.7700     2.0820 C.ar  1 <1>   0.0860 
 21 C       -7.0830    -6.2150    -0.0440 C.3   1 <1>  -0.0160 
 22 C       -4.0780    -5.9780     2.9720 C.ar  1 <1>  -0.1500 
 23 C       -7.3850    -7.4920     1.9940 C.2   1 <1>   0.4230 
 24 C       -5.2200    -6.7470     3.1080 C.ar  1 <1>  -0.1500 
 25 C       -8.0350    -7.2060     0.6580 C.3   1 <1>  -0.0990 
 26 O       -7.8820    -8.2190     2.8120 O.2   1 <1>  -0.5700 
 27 H       -1.5310    -1.8130    -1.9170 H     1 <1>   0.0800 
 28 H       -1.8950    -0.1940    -1.3640 H     1 <1>   0.0800 
 29 H        2.4130    -2.2770     2.2160 H     1 <1>   0.0800 
 30 H        1.4580    -2.1790     3.6780 H     1 <1>   0.0800 
 31 H        1.9490    -0.7140     2.8580 H     1 <1>   0.0800 
 32 H       -3.4240    -2.5450    -0.5660 H     1 <1>   0.4500 
 33 H       -3.4060    -2.4610    -2.9550 H     1 <1>   0.0800 
 34 H       -4.3560    -1.0040    -2.8540 H     1 <1>   0.0800 
 35 H       -4.8960    -0.1040    -0.6960 H     1 <1>   0.0800 
 36 H       -3.5830    -0.1080     0.4540 H     1 <1>   0.0800 
 37 H       -5.3280    -3.5860    -2.8800 H     1 <1>   0.0800 
 38 H       -6.2350    -2.2130    -2.3430 H     1 <1>   0.0800 
 39 H       -5.6030    -0.9100     1.5120 H     1 <1>   0.0800 
 40 H       -4.4040    -2.1390     1.5050 H     1 <1>   0.0800 
 41 H       -6.8950    -1.9900    -0.2110 H     1 <1>   0.0800 
 42 H       -6.5220    -3.1610     1.0160 H     1 <1>   0.0800 
 43 H       -2.9760    -4.6470     1.7280 H     1 <1>   0.1500 
 44 H       -6.7160    -6.6270    -0.9680 H     1 <1>   0.0800 
 45 H       -7.5840    -5.2830    -0.2390 H     1 <1>   0.0800 
 46 H       -3.3440    -5.9600     3.7600 H     1 <1>   0.1500 
 47 H       -5.3940    -7.3330     3.9950 H     1 <1>   0.1500 
 48 H       -8.1270    -8.1200     0.0990 H     1 <1>   0.0800 
 49 H       -9.0070    -6.7750     0.8110 H     1 <1>   0.0800 
@<TRIPOS>BOND
  1   1   2  1   
  2   1   3  1   
  3   2   4  2   
  4   2   5  1   
  5   3   6  2   
  6   3   7  1   
  7   4   6  1   
  8   5   8  1   
  9   5  27  1   
 10   5  28  1   
 11   7  29  1   
 12   7  30  1   
 13   7  31  1   
 14   8   9  1   
 15   8  10  1   
 16   8  32  1   
 17   9  11  1   
 18   9  33  1   
 19   9  34  1   
 20  10  12  1   
 21  10  35  1   
 22  10  36  1   
 23  11  13  1   
 24  11  37  1   
 25  11  38  1   
 26  12  14  1   
 27  12  39  1   
 28  12  40  1   
 29  13  14  1   
 30  13  15  am  
 31  14  41  1   
 32  14  42  1   
 33  15  16  2   
 34  15  17  1   
 35  17  18  ar  
 36  17  19  ar  
 37  18  20  ar  
 38  18  21  1   
 39  19  22  ar  
 40  19  43  1   
 41  20  23  1   
 42  20  24  ar  
 43  21  25  1   
 44  21  44  1   
 45  21  45  1   
 46  22  24  ar  
 47  22  46  1   
 48  23  25  1   
 49  23  26  2   
 50  24  47  1   
 51  25  48  1   
 52  25  49  1   
@<TRIPOS>SUBSTRUCTURE
  1 ****  15 GROUP 4 **** **** 0

# MOE 2024.06 (io_trps.svl 2023.06)
