@<TRIPOS>MOLECULE
NONAME
52 56 1 0 0 
SMALL
USER_CHARGES


@<TRIPOS>ATOM
  1 N        0.5490     0.0300     0.3090 N.ar  1 <1>  -0.6200 
  2 C       -0.3910     0.8520     0.8000 C.ar  1 <1>   0.6200 
  3 C        1.3130     0.5440    -0.6220 C.ar  1 <1>   0.1660 
  4 N       -0.5830     2.1220     0.4150 N.ar  1 <1>  -0.6200 
  5 C       -1.2660     0.3250     1.8350 C.ar  1 <1>   0.0000 
  6 C        1.1920     1.8200    -1.0750 C.ar  1 <1>  -0.1430 
  7 C        2.4400    -0.1930    -1.3060 C.3   1 <1>   0.1440 
  8 C        0.2080     2.5970    -0.5210 C.ar  1 <1>   0.1600 
  9 C       -1.7340     1.1310     2.8760 C.ar  1 <1>  -0.1500 
 10 C       -1.6770    -1.0110     1.8370 C.ar  1 <1>  -0.1500 
 11 C        2.2130     2.1360    -2.1390 C.3   1 <1>  -0.0160 
 12 C        3.3040    -0.8620    -0.2250 C.3   1 <1>   0.3430 
 13 C        1.8780    -1.2570    -2.2740 C.3   1 <1>  -0.1600 
 14 C        3.1880     0.9460    -2.0500 C.3   1 <1>  -0.1600 
 15 C       -2.5610     0.6330     3.8660 C.ar  1 <1>  -0.1500 
 16 C       -2.5040    -1.5160     2.8240 C.ar  1 <1>  -0.1500 
 17 N        4.3730    -1.7280    -0.8300 N.4   1 <1>  -0.9590 
 18 C        2.9750    -2.2010    -2.8020 C.3   1 <1>  -0.1600 
 19 C       -2.9480    -0.6940     3.8430 C.ar  1 <1>  -0.1500 
 20 C        3.8100    -2.8150    -1.6730 C.3   1 <1>   0.3430 
 21 C        5.3420    -2.1900     0.2020 C.3   1 <1>   0.5230 
 22 C        6.2360    -1.0140     0.5680 C.2   1 <1>   0.0060 
 23 N        6.9890    -0.9220     1.6690 N.pl3 1 <1>   0.0330 
 24 N        6.3570     0.0400    -0.1680 N.2   1 <1>  -0.3380 
 25 C        7.5660     0.2730     1.5420 C.2   1 <1>   0.0060 
 26 N        7.1980     0.8580     0.4560 N.2   1 <1>  -0.3380 
 27 C        8.5310     0.8610     2.5520 C.3   1 <1>  -0.0600 
 28 H        0.0670     3.6150    -0.8420 H     1 <1>   0.1500 
 29 H       -1.4440     2.1670     2.9080 H     1 <1>   0.1500 
 30 H       -1.3450    -1.6640     1.0480 H     1 <1>   0.1500 
 31 H        2.7100     3.0720    -1.9480 H     1 <1>   0.0800 
 32 H        1.7340     2.1690    -3.1020 H     1 <1>   0.0800 
 33 H        2.6650    -1.4580     0.4050 H     1 <1>   0.0800 
 34 H        3.7490    -0.0920     0.3850 H     1 <1>   0.0800 
 35 H        1.3740    -0.7760    -3.0970 H     1 <1>   0.0800 
 36 H        1.1400    -1.8440    -1.7520 H     1 <1>   0.0800 
 37 H        3.5340     0.6580    -3.0270 H     1 <1>   0.0800 
 38 H        4.0400     1.2620    -1.4710 H     1 <1>   0.0800 
 39 H       -2.9060     1.2790     4.6550 H     1 <1>   0.1500 
 40 H       -2.8050    -2.5490     2.7990 H     1 <1>   0.1500 
 41 H        4.9380    -1.0950    -1.4230 H     1 <1>   0.4500 
 42 H        3.6260    -1.6740    -3.4780 H     1 <1>   0.0800 
 43 H        2.5140    -2.9940    -3.3640 H     1 <1>   0.0800 
 44 H       -3.5920    -1.0840     4.6120 H     1 <1>   0.1500 
 45 H        3.1840    -3.4570    -1.0730 H     1 <1>   0.0800 
 46 H        4.6040    -3.4090    -2.0970 H     1 <1>   0.0800 
 47 H        5.9560    -2.9810    -0.1960 H     1 <1>   0.0800 
 48 H        4.8190    -2.5540     1.0710 H     1 <1>   0.0800 
 49 H        7.1200    -1.5800     2.4420 H     1 <1>   0.2700 
 50 H        9.3980     0.2330     2.6480 H     1 <1>   0.0800 
 51 H        8.0540     0.9620     3.5100 H     1 <1>   0.0800 
 52 H        8.8500     1.8350     2.2250 H     1 <1>   0.0800 
@<TRIPOS>BOND
  1   1   2  ar  
  2   1   3  ar  
  3   2   4  ar  
  4   2   5  1   
  5   3   6  ar  
  6   3   7  1   
  7   4   8  ar  
  8   5   9  ar  
  9   5  10  ar  
 10   6   8  ar  
 11   6  11  1   
 12   7  12  1   
 13   7  13  1   
 14   7  14  1   
 15   8  28  1   
 16   9  15  ar  
 17   9  29  1   
 18  10  16  ar  
 19  10  30  1   
 20  11  14  1   
 21  11  31  1   
 22  11  32  1   
 23  12  17  1   
 24  12  33  1   
 25  12  34  1   
 26  13  18  1   
 27  13  35  1   
 28  13  36  1   
 29  14  37  1   
 30  14  38  1   
 31  15  19  ar  
 32  15  39  1   
 33  16  19  ar  
 34  16  40  1   
 35  17  20  1   
 36  17  21  1   
 37  17  41  1   
 38  18  20  1   
 39  18  42  1   
 40  18  43  1   
 41  19  44  1   
 42  20  45  1   
 43  20  46  1   
 44  21  22  1   
 45  21  47  1   
 46  21  48  1   
 47  22  23  1   
 48  22  24  2   
 49  23  25  1   
 50  23  49  1   
 51  24  26  1   
 52  25  26  2   
 53  25  27  1   
 54  27  50  1   
 55  27  51  1   
 56  27  52  1   
@<TRIPOS>SUBSTRUCTURE
  1 ****  12 GROUP 4 **** **** 0

# MOE 2024.06 (io_trps.svl 2023.06)
