@<TRIPOS>MOLECULE
Untitled Document
50 53 1 0 0 
SMALL
USER_CHARGES


@<TRIPOS>ATOM
  1 S       -2.2940     1.2640     2.3880 S.3   1 <1>  -0.0800 
  2 C       -2.1740     1.0780     0.6330 C.2   1 <1>  -0.0050 
  3 C       -1.8260     2.9490     2.3150 C.2   1 <1>  -0.1100 
  4 C       -2.4670    -0.1990     0.0420 C.2   1 <1>   0.1450 
  5 C       -1.7960     2.2670     0.0980 C.2   1 <1>  -0.1500 
  6 C       -1.6010     3.3180     1.0420 C.2   1 <1>  -0.1500 
  7 N       -2.8030    -1.2570     0.8560 N.pl3 1 <1>  -0.5500 
  8 C       -2.4430    -0.4680    -1.2900 C.2   1 <1>  -0.1360 
  9 C       -3.0880    -2.4950     0.3630 C.2   1 <1>   0.4390 
 10 C       -2.7550    -1.7580    -1.7610 C.2   1 <1>   0.7670 
 11 N       -3.0810    -2.7630    -0.8920 N.2   1 <1>  -0.6610 
 12 C       -3.4370    -3.6140     1.3420 C.3   1 <1>  -0.0190 
 13 O       -2.7470    -2.0420    -2.9480 O.2   1 <1>  -0.5700 
 14 C       -2.6100    -4.8670     0.9920 C.3   1 <1>   0.3430 
 15 C       -4.9600    -3.9050     1.3270 C.3   1 <1>  -0.1600 
 16 N       -3.2010    -5.5120    -0.2280 N.4   1 <1>  -0.9590 
 17 C       -5.2710    -5.4080     1.2020 C.3   1 <1>  -0.1600 
 18 C       -4.5690    -6.0740     0.0040 C.3   1 <1>   0.3430 
 19 C       -2.2960    -6.4540    -0.9490 C.3   1 <1>   0.4860 
 20 C       -0.9190    -5.8450    -1.0960 C.ar  1 <1>  -0.1430 
 21 C        0.1430    -6.3230    -0.3620 C.ar  1 <1>   0.1600 
 22 C       -0.6680    -4.7830    -1.9360 C.ar  1 <1>   0.1600 
 23 N        1.3310    -5.7820    -0.4230 N.ar  1 <1>  -0.6200 
 24 N        0.5140    -4.2260    -2.0140 N.ar  1 <1>  -0.6200 
 25 C        1.4570    -4.7490    -1.2480 C.ar  1 <1>   0.7200 
 26 N        2.6580    -4.1390    -1.3450 N.pl3 1 <1>  -0.8690 
 27 C        3.9500    -4.7110    -0.8920 C.3   1 <1>   0.1290 
 28 H       -1.7680     3.4940     3.2410 H     1 <1>   0.1500 
 29 H       -1.6430     2.4480    -0.9510 H     1 <1>   0.1500 
 30 H       -1.3010     4.3020     0.7240 H     1 <1>   0.1500 
 31 H       -2.8400    -1.0690     1.8630 H     1 <1>   0.4000 
 32 H       -2.1930     0.2700    -2.0260 H     1 <1>   0.1500 
 33 H       -3.1460    -3.3090     2.3320 H     1 <1>   0.0800 
 34 H       -2.6240    -5.5610     1.8160 H     1 <1>   0.0800 
 35 H       -1.5900    -4.5670     0.8130 H     1 <1>   0.0800 
 36 H       -5.4230    -3.3960     0.4960 H     1 <1>   0.0800 
 37 H       -5.4130    -3.5140     2.2230 H     1 <1>   0.0800 
 38 H       -3.3250    -4.6960    -0.8640 H     1 <1>   0.4500 
 39 H       -6.3340    -5.5520     1.1070 H     1 <1>   0.0800 
 40 H       -4.9700    -5.9120     2.1050 H     1 <1>   0.0800 
 41 H       -4.5100    -7.1350     0.1850 H     1 <1>   0.0800 
 42 H       -5.1640    -5.9210    -0.8830 H     1 <1>   0.0800 
 43 H       -2.6970    -6.6740    -1.9250 H     1 <1>   0.0800 
 44 H       -2.2200    -7.3780    -0.3990 H     1 <1>   0.0800 
 45 H        0.0240    -7.1650     0.3000 H     1 <1>   0.1500 
 46 H       -1.4480    -4.3670    -2.5550 H     1 <1>   0.1500 
 47 H        2.6930    -3.4600    -2.1060 H     1 <1>   0.4000 
 48 H        3.8210    -5.2360     0.0400 H     1 <1>   0.0800 
 49 H        4.6660    -3.9210    -0.7460 H     1 <1>   0.0800 
 50 H        4.3230    -5.3970    -1.6320 H     1 <1>   0.0800 
@<TRIPOS>BOND
  1   1   2  1   
  2   1   3  1   
  3   2   4  1   
  4   2   5  2   
  5   3   6  2   
  6   3  28  1   
  7   4   7  1   
  8   4   8  2   
  9   5   6  1   
 10   5  29  1   
 11   6  30  1   
 12   7   9  1   
 13   7  31  1   
 14   8  10  1   
 15   8  32  1   
 16   9  11  2   
 17   9  12  1   
 18  10  11  1   
 19  10  13  2   
 20  12  14  1   
 21  12  15  1   
 22  12  33  1   
 23  14  16  1   
 24  14  34  1   
 25  14  35  1   
 26  15  17  1   
 27  15  36  1   
 28  15  37  1   
 29  16  18  1   
 30  16  19  1   
 31  16  38  1   
 32  17  18  1   
 33  17  39  1   
 34  17  40  1   
 35  18  41  1   
 36  18  42  1   
 37  19  20  1   
 38  19  43  1   
 39  19  44  1   
 40  20  21  ar  
 41  20  22  ar  
 42  21  23  ar  
 43  21  45  1   
 44  22  24  ar  
 45  22  46  1   
 46  23  25  ar  
 47  24  25  ar  
 48  25  26  1   
 49  26  27  1   
 50  26  47  1   
 51  27  48  1   
 52  27  49  1   
 53  27  50  1   
@<TRIPOS>SUBSTRUCTURE
  1 ****   9 GROUP 4 **** **** 0

# MOE 2024.06 (io_trps.svl 2023.06)
