@<TRIPOS>MOLECULE
NONAME
48 50 1 0 0 
SMALL
USER_CHARGES


@<TRIPOS>ATOM
  1 S       -0.1310    -0.5590     0.1400 S.3   1 <1>  -0.3320 
  2 C       -0.0520     1.2410     0.1610 C.ar  1 <1>   0.1020 
  3 C       -1.8850    -1.0050    -0.2180 C.3   1 <1>   0.0700 
  4 C        1.1850     1.8130     0.3940 C.ar  1 <1>  -0.1500 
  5 C       -1.1710     2.0340    -0.0450 C.ar  1 <1>  -0.1500 
  6 C       -1.9850    -2.5300    -0.2490 C.3   1 <1>  -0.1600 
  7 C        1.3080     3.1920     0.4210 C.ar  1 <1>  -0.1500 
  8 C       -1.0400     3.4120    -0.0170 C.ar  1 <1>  -0.1500 
  9 C       -3.4080    -2.9710    -0.5820 C.3   1 <1>   0.1400 
 10 C        0.1970     3.9960     0.2140 C.ar  1 <1>  -0.1430 
 11 N       -3.4750    -4.4430    -0.5520 N.am  1 <1>  -0.7300 
 12 C        0.3330     5.5080     0.2450 C.3   1 <1>  -0.0970 
 13 C       -4.3560    -5.2110     0.1590 C.2   1 <1>   0.7160 
 14 O       -5.2060    -4.6570     0.8350 O.2   1 <1>  -0.5700 
 15 C       -4.2490    -6.6610     0.0850 C.2   1 <1>   0.2030 
 16 N       -3.3550    -7.3270    -0.6270 N.2   1 <1>  -0.7070 
 17 C       -5.0750    -7.5560     0.7580 C.2   1 <1>  -0.1500 
 18 N       -3.6130    -8.6200    -0.4070 N.pl3 1 <1>   0.3140 
 19 C       -4.6540    -8.8070     0.4380 C.2   1 <1>  -0.2370 
 20 C       -2.7860    -9.6540    -1.0430 C.3   1 <1>   0.0960 
 21 C       -5.1970   -10.0630     0.8680 C.2   1 <1>   0.7150 
 22 C       -2.2230   -10.5850     0.0280 C.3   1 <1>   0.2000 
 23 O       -6.2810   -10.0980     1.4070 O.2   1 <1>  -0.5700 
 24 N       -4.5950   -11.2710     0.7210 N.am  1 <1>  -0.7300 
 25 O       -1.0720   -11.1850    -0.4680 O.3   1 <1>  -0.6800 
 26 C       -3.1950   -11.6980     0.4480 C.3   1 <1>   0.1400 
 27 H       -2.1370    -0.5710    -1.1690 H     1 <1>   0.0800 
 28 H       -2.4900    -0.5850     0.5670 H     1 <1>   0.0800 
 29 H        2.0410     1.1840     0.5530 H     1 <1>   0.1500 
 30 H       -2.1360     1.6050    -0.2240 H     1 <1>   0.1500 
 31 H       -1.7070    -2.9180     0.7160 H     1 <1>   0.0800 
 32 H       -1.3050    -2.9130    -0.9900 H     1 <1>   0.0800 
 33 H        2.2710     3.6350     0.6030 H     1 <1>   0.1500 
 34 H       -1.9060     4.0300    -0.1750 H     1 <1>   0.1500 
 35 H       -3.6870    -2.6250    -1.5630 H     1 <1>   0.0800 
 36 H       -4.0990    -2.5590     0.1360 H     1 <1>   0.0800 
 37 H       -2.7850    -4.9660    -1.0980 H     1 <1>   0.3700 
 38 H        1.3150     5.8040    -0.0790 H     1 <1>   0.0800 
 39 H        0.1750     5.8660     1.2460 H     1 <1>   0.0800 
 40 H       -0.3900     5.9640    -0.4070 H     1 <1>   0.0800 
 41 H       -5.8920    -7.2810     1.4040 H     1 <1>   0.1500 
 42 H       -1.9810    -9.1590    -1.5560 H     1 <1>   0.0800 
 43 H       -3.3870   -10.1910    -1.7520 H     1 <1>   0.0800 
 44 H       -1.9200   -10.0130     0.8900 H     1 <1>   0.0800 
 45 H       -5.1940   -12.0220     1.0730 H     1 <1>   0.3700 
 46 H       -1.2470   -11.6910    -1.2860 H     1 <1>   0.4000 
 47 H       -2.8050   -12.1700     1.3350 H     1 <1>   0.0800 
 48 H       -3.2310   -12.4380    -0.3320 H     1 <1>   0.0800 
@<TRIPOS>BOND
  1   1   2  1   
  2   1   3  1   
  3   2   4  ar  
  4   2   5  ar  
  5   3   6  1   
  6   3  27  1   
  7   3  28  1   
  8   4   7  ar  
  9   4  29  1   
 10   5   8  ar  
 11   5  30  1   
 12   6   9  1   
 13   6  31  1   
 14   6  32  1   
 15   7  10  ar  
 16   7  33  1   
 17   8  10  ar  
 18   8  34  1   
 19   9  11  1   
 20   9  35  1   
 21   9  36  1   
 22  10  12  1   
 23  11  13  am  
 24  11  37  1   
 25  12  38  1   
 26  12  39  1   
 27  12  40  1   
 28  13  14  2   
 29  13  15  1   
 30  15  16  2   
 31  15  17  1   
 32  16  18  1   
 33  17  19  2   
 34  17  41  1   
 35  18  19  1   
 36  18  20  1   
 37  19  21  1   
 38  20  22  1   
 39  20  42  1   
 40  20  43  1   
 41  21  23  2   
 42  21  24  am  
 43  22  25  1   
 44  22  26  1   
 45  22  44  1   
 46  24  26  1   
 47  24  45  1   
 48  25  46  1   
 49  26  47  1   
 50  26  48  1   
@<TRIPOS>SUBSTRUCTURE
  1 ****  11 GROUP 4 **** **** 0

# MOE 2024.06 (io_trps.svl 2023.06)
