@<TRIPOS>MOLECULE
NONAME
47 50 1 0 0 
SMALL
USER_CHARGES


@<TRIPOS>ATOM
  1 O       -0.4420    -0.3320     0.0180 O.2   1 <1>  -0.5700 
  2 C       -0.8130     0.5920    -0.6800 C.2   1 <1>   0.6900 
  3 N       -2.1500     0.7900    -0.9210 N.am  1 <1>  -0.6600 
  4 N        0.0810     1.4510    -1.2530 N.am  1 <1>  -0.5470 
  5 C       -2.7350     2.1370    -1.2140 C.3   1 <1>   0.1400 
  6 C       -3.1650    -0.2290    -0.5330 C.3   1 <1>   0.1400 
  7 C        1.3830     1.8290    -0.9070 C.ar  1 <1>   0.1170 
  8 C       -3.5070     2.6780     0.0050 C.3   1 <1>   0.1430 
  9 C       -3.9720     0.2640     0.6760 C.3   1 <1>  -0.1600 
 10 C        1.9960     1.4720     0.2890 C.ar  1 <1>  -0.1500 
 11 C        2.1000     2.6310    -1.7880 C.ar  1 <1>  -0.1500 
 12 C       -4.0860     4.0300    -0.3690 C.ar  1 <1>   0.1670 
 13 C       -4.5830     1.6560     0.4310 C.3   1 <1>  -0.1600 
 14 C       -2.5560     3.0420     1.1790 C.3   1 <1>  -0.1600 
 15 C        3.2720     1.9090     0.5920 C.ar  1 <1>  -0.1500 
 16 C        3.3750     3.0660    -1.4820 C.ar  1 <1>  -0.1500 
 17 N       -5.1070     4.2270    -1.1690 N.ar  1 <1>  -0.6200 
 18 C       -3.3890     5.0500     0.2110 C.ar  1 <1>  -0.1440 
 19 C       -2.2500     4.5440     1.0600 C.3   1 <1>  -0.0170 
 20 C        3.9990     2.7230    -0.2810 C.ar  1 <1>  -0.1790 
 21 C       -5.4040     5.5040    -1.3580 C.ar  1 <1>   0.7200 
 22 C       -3.7970     6.3350    -0.0520 C.ar  1 <1>   0.1600 
 23 C        5.3410     3.1920     0.0420 C.2   1 <1>   0.9790 
 24 N       -4.8200     6.5760    -0.8420 N.ar  1 <1>  -0.6200 
 25 N       -6.4430     5.7430    -2.1580 N.pl3 1 <1>  -0.9000 
 26 O        5.8800     2.8930     1.1230 O.co2 1 <1>  -0.9000 
 27 O        5.9710     3.9090    -0.7580 O.co2 1 <1>  -0.9000 
 28 H       -0.2900     1.8930    -2.0850 H     1 <1>   0.3700 
 29 H       -3.4120     2.0470    -2.0470 H     1 <1>   0.0800 
 30 H       -1.9730     2.8440    -1.4880 H     1 <1>   0.0800 
 31 H       -2.6890    -1.1670    -0.2970 H     1 <1>   0.0800 
 32 H       -3.8250    -0.3970    -1.3680 H     1 <1>   0.0800 
 33 H       -3.3220     0.2900     1.5340 H     1 <1>   0.0800 
 34 H       -4.7560    -0.4420     0.8860 H     1 <1>   0.0800 
 35 H        1.4780     0.8490     0.9940 H     1 <1>   0.1500 
 36 H        1.6620     2.9210    -2.7240 H     1 <1>   0.1500 
 37 H       -5.3170     1.5780    -0.3540 H     1 <1>   0.0800 
 38 H       -5.0930     1.9990     1.3140 H     1 <1>   0.0800 
 39 H       -1.6540     2.4550     1.1900 H     1 <1>   0.0800 
 40 H       -3.0660     2.8820     2.1130 H     1 <1>   0.0800 
 41 H        3.7330     1.6230     1.5230 H     1 <1>   0.1500 
 42 H        3.9170     3.6870    -2.1760 H     1 <1>   0.1500 
 43 H       -1.3150     4.7010     0.5490 H     1 <1>   0.0800 
 44 H       -2.2230     5.0200     2.0250 H     1 <1>   0.0800 
 45 H       -3.2810     7.1720     0.3870 H     1 <1>   0.1500 
 46 H       -6.8540     6.6670    -2.0630 H     1 <1>   0.4000 
 47 H       -7.0850     4.9650    -2.2770 H     1 <1>   0.4000 
@<TRIPOS>BOND
  1   1   2  2   
  2   2   3  am  
  3   2   4  am  
  4   3   5  1   
  5   3   6  1   
  6   4   7  1   
  7   4  28  1   
  8   5   8  1   
  9   5  29  1   
 10   5  30  1   
 11   6   9  1   
 12   6  31  1   
 13   6  32  1   
 14   7  10  ar  
 15   7  11  ar  
 16   8  12  1   
 17   8  13  1   
 18   8  14  1   
 19   9  13  1   
 20   9  33  1   
 21   9  34  1   
 22  10  15  ar  
 23  10  35  1   
 24  11  16  ar  
 25  11  36  1   
 26  12  17  ar  
 27  12  18  ar  
 28  13  37  1   
 29  13  38  1   
 30  14  19  1   
 31  14  39  1   
 32  14  40  1   
 33  15  20  ar  
 34  15  41  1   
 35  16  20  ar  
 36  16  42  1   
 37  17  21  ar  
 38  18  19  1   
 39  18  22  ar  
 40  19  43  1   
 41  19  44  1   
 42  20  23  1   
 43  21  24  ar  
 44  21  25  1   
 45  22  24  ar  
 46  22  45  1   
 47  23  26  ar  
 48  23  27  ar  
 49  25  46  1   
 50  25  47  1   
@<TRIPOS>SUBSTRUCTURE
  1 ****   4 GROUP 4 **** **** 0

# MOE 2024.06 (io_trps.svl 2023.06)
