@<TRIPOS>MOLECULE
NONAME
37 38 1 0 0 
SMALL
USER_CHARGES


@<TRIPOS>ATOM
  1 O       -0.4210     1.0090     1.2340 O.3   1 <1>  -0.5600 
  2 C        0.0790     1.2480    -0.0380 C.3   1 <1>   0.1200 
  3 C       -1.8170     1.0030     1.1820 C.3   1 <1>   0.1200 
  4 C       -0.8500     2.3370    -0.5640 C.3   1 <1>   0.4230 
  5 C       -2.1980     1.8200    -0.0670 C.3   1 <1>  -0.0800 
  6 N       -0.5450     3.6070     0.1500 N.4   1 <1>  -0.9060 
  7 C       -2.9030     0.9550    -1.1320 C.3   1 <1>  -0.0170 
  8 C        0.6540     4.3210    -0.3060 C.3   1 <1>   0.4230 
  9 C       -4.2470     0.4570    -0.6250 C.ar  1 <1>  -0.1430 
 10 C        0.9770     5.3770     0.7420 C.3   1 <1>  -0.2400 
 11 C        0.3700     4.9660    -1.6590 C.3   1 <1>  -0.2400 
 12 C       -5.3560     1.2780    -0.5730 C.ar  1 <1>  -0.1500 
 13 C       -4.4320    -0.8420    -0.1930 C.ar  1 <1>  -0.1500 
 14 C       -6.5570     0.7800    -0.0940 C.ar  1 <1>   0.1600 
 15 C       -5.6750    -1.2410     0.2680 C.ar  1 <1>   0.1600 
 16 N       -6.7390    -0.4580     0.3320 N.ar  1 <1>  -0.6200 
 17 H        1.1110     1.5450     0.0260 H     1 <1>   0.0800 
 18 H       -0.0040     0.3410    -0.6120 H     1 <1>   0.0800 
 19 H       -2.1460    -0.0210     1.1260 H     1 <1>   0.0800 
 20 H       -2.1940     1.4460     2.0890 H     1 <1>   0.0800 
 21 H       -0.8110     2.4560    -1.6340 H     1 <1>   0.0800 
 22 H       -2.8590     2.6250     0.1990 H     1 <1>   0.0800 
 23 H       -1.3450     4.2440     0.1230 H     1 <1>   0.4500 
 24 H       -0.4040     3.3310     1.1330 H     1 <1>   0.4500 
 25 H       -2.2910     0.1120    -1.4050 H     1 <1>   0.0800 
 26 H       -3.0710     1.5350    -2.0230 H     1 <1>   0.0800 
 27 H        1.4870     3.6400    -0.3910 H     1 <1>   0.0800 
 28 H        0.1720     6.0810     0.8530 H     1 <1>   0.0800 
 29 H        1.8560     5.9230     0.4440 H     1 <1>   0.0800 
 30 H        1.1880     4.9180     1.6920 H     1 <1>   0.0800 
 31 H       -0.4680     5.6390    -1.6040 H     1 <1>   0.0800 
 32 H        0.1880     4.2250    -2.4150 H     1 <1>   0.0800 
 33 H        1.2290     5.5350    -1.9700 H     1 <1>   0.0800 
 34 H       -5.3090     2.3000    -0.9000 H     1 <1>   0.1500 
 35 H       -3.6280    -1.5550    -0.2090 H     1 <1>   0.1500 
 36 H       -7.4130     1.4320    -0.0600 H     1 <1>   0.1500 
 37 H       -5.8020    -2.2570     0.6020 H     1 <1>   0.1500 
@<TRIPOS>BOND
  1   1   2  1   
  2   1   3  1   
  3   2   4  1   
  4   2  17  1   
  5   2  18  1   
  6   3   5  1   
  7   3  19  1   
  8   3  20  1   
  9   4   5  1   
 10   4   6  1   
 11   4  21  1   
 12   5   7  1   
 13   5  22  1   
 14   6   8  1   
 15   6  23  1   
 16   6  24  1   
 17   7   9  1   
 18   7  25  1   
 19   7  26  1   
 20   8  10  1   
 21   8  11  1   
 22   8  27  1   
 23   9  12  ar  
 24   9  13  ar  
 25  10  28  1   
 26  10  29  1   
 27  10  30  1   
 28  11  31  1   
 29  11  32  1   
 30  11  33  1   
 31  12  14  ar  
 32  12  34  1   
 33  13  15  ar  
 34  13  35  1   
 35  14  16  ar  
 36  14  36  1   
 37  15  16  ar  
 38  15  37  1   
@<TRIPOS>SUBSTRUCTURE
  1 ****   5 GROUP 4 **** **** 0

# MOE 2024.06 (io_trps.svl 2023.06)
