@<TRIPOS>MOLECULE
NONAME
50 54 1 0 0 
SMALL
USER_CHARGES


@<TRIPOS>ATOM
  1 O       -1.1180    -2.3270     2.0880 O.2   1 <1>  -0.5700 
  2 C       -0.3720    -2.1060     1.1600 C.2   1 <1>   0.7800 
  3 O       -0.4330    -0.9850     0.4570 O.3   1 <1>  -0.4300 
  4 N        0.5770    -2.9410     0.6890 N.am  1 <1>  -0.6600 
  5 C        0.5040    -1.0050    -0.6050 C.3   1 <1>   0.1200 
  6 C        1.2080    -2.3640    -0.5000 C.3   1 <1>   0.1400 
  7 C        0.7950    -4.3610     1.1000 C.3   1 <1>   0.2010 
  8 C        0.4570    -5.3660    -0.0060 C.2   1 <1>   0.5690 
  9 O        1.3920    -5.8300    -0.6200 O.2   1 <1>  -0.5700 
 10 N       -0.8410    -5.7170    -0.3020 N.am  1 <1>  -0.6600 
 11 C       -2.0520    -5.1910     0.3910 C.3   1 <1>   0.1400 
 12 C       -1.1600    -6.6280    -1.4380 C.3   1 <1>   0.1400 
 13 C       -2.8740    -6.3640     0.9260 C.3   1 <1>  -0.1600 
 14 C       -1.9780    -7.8140    -0.9250 C.3   1 <1>  -0.1600 
 15 C       -3.2390    -7.3520    -0.1900 C.3   1 <1>   0.4600 
 16 O       -4.0370    -6.6930    -1.1500 O.3   1 <1>  -0.5600 
 17 C       -4.0020    -8.5500     0.3600 C.2   1 <1>  -0.3320 
 18 C       -5.4120    -6.5480    -0.8830 C.3   1 <1>   0.1200 
 19 N       -3.5100    -9.5170     1.1930 N.pl3 1 <1>   0.0330 
 20 C       -5.2950    -8.8170     0.0860 C.2   1 <1>  -0.1810 
 21 C       -6.1100    -7.9160    -0.8070 C.3   1 <1>   0.0210 
 22 C       -4.5180   -10.4160     1.4440 C.ar  1 <1>  -0.1520 
 23 C       -5.6570   -10.0030     0.7580 C.ar  1 <1>   0.0000 
 24 C       -4.5330   -11.5750     2.2240 C.ar  1 <1>  -0.1500 
 25 C       -6.8310   -10.7580     0.8480 C.ar  1 <1>  -0.1500 
 26 C       -5.6950   -12.3070     2.3050 C.ar  1 <1>  -0.1500 
 27 C       -6.8440   -11.8990     1.6160 C.ar  1 <1>  -0.1500 
 28 H        1.1920    -0.1890    -0.4730 H     1 <1>   0.0800 
 29 H       -0.0250    -0.9010    -1.5360 H     1 <1>   0.0800 
 30 H        1.0170    -2.9690    -1.3700 H     1 <1>   0.0800 
 31 H        2.2680    -2.2490    -0.3550 H     1 <1>   0.0800 
 32 H        0.2130    -4.5810     1.9750 H     1 <1>   0.0800 
 33 H        1.8300    -4.4840     1.3630 H     1 <1>   0.0800 
 34 H       -2.6390    -4.6200    -0.3090 H     1 <1>   0.0800 
 35 H       -1.7930    -4.5470     1.2080 H     1 <1>   0.0800 
 36 H       -0.2610    -6.9880    -1.9080 H     1 <1>   0.0800 
 37 H       -1.7260    -6.0850    -2.1760 H     1 <1>   0.0800 
 38 H       -3.7640    -6.0030     1.4050 H     1 <1>   0.0800 
 39 H       -2.2970    -6.8730     1.6750 H     1 <1>   0.0800 
 40 H       -1.3600    -8.3930    -0.2650 H     1 <1>   0.0800 
 41 H       -2.2610    -8.4460    -1.7460 H     1 <1>   0.0800 
 42 H       -5.8390    -5.9570    -1.6740 H     1 <1>   0.0800 
 43 H       -5.5270    -6.0180     0.0450 H     1 <1>   0.0800 
 44 H       -2.5570    -9.5820     1.5630 H     1 <1>   0.2700 
 45 H       -6.1820    -8.3470    -1.7890 H     1 <1>   0.0800 
 46 H       -7.1010    -7.7960    -0.4090 H     1 <1>   0.0800 
 47 H       -3.6470   -11.8820     2.7490 H     1 <1>   0.1500 
 48 H       -7.7040   -10.4330     0.3130 H     1 <1>   0.1500 
 49 H       -5.7320   -13.2030     2.8990 H     1 <1>   0.1500 
 50 H       -7.7400   -12.4900     1.6950 H     1 <1>   0.1500 
@<TRIPOS>BOND
  1   1   2  2   
  2   2   3  1   
  3   2   4  am  
  4   3   5  1   
  5   4   6  1   
  6   4   7  1   
  7   5   6  1   
  8   5  28  1   
  9   5  29  1   
 10   6  30  1   
 11   6  31  1   
 12   7   8  1   
 13   7  32  1   
 14   7  33  1   
 15   8   9  2   
 16   8  10  am  
 17  10  11  1   
 18  10  12  1   
 19  11  13  1   
 20  11  34  1   
 21  11  35  1   
 22  12  14  1   
 23  12  36  1   
 24  12  37  1   
 25  13  15  1   
 26  13  38  1   
 27  13  39  1   
 28  14  15  1   
 29  14  40  1   
 30  14  41  1   
 31  15  16  1   
 32  15  17  1   
 33  16  18  1   
 34  17  19  1   
 35  17  20  2   
 36  18  21  1   
 37  18  42  1   
 38  18  43  1   
 39  19  22  1   
 40  19  44  1   
 41  20  21  1   
 42  20  23  1   
 43  21  45  1   
 44  21  46  1   
 45  22  23  ar  
 46  22  24  ar  
 47  23  25  ar  
 48  24  26  ar  
 49  24  47  1   
 50  25  27  ar  
 51  25  48  1   
 52  26  27  ar  
 53  26  49  1   
 54  27  50  1   
@<TRIPOS>SUBSTRUCTURE
  1 ****  13 GROUP 4 **** **** 0

# MOE 2024.06 (io_trps.svl 2023.06)
