@<TRIPOS>MOLECULE
NONAME
52 55 1 0 0 
SMALL
USER_CHARGES


@<TRIPOS>ATOM
  1 F       -0.5230    -0.4600    -1.1490 F     1 <1>  -0.1900 
  2 C       -1.6330    -1.1450    -1.0500 C.ar  1 <1>   0.1900 
  3 C       -1.6220    -2.3650    -0.3280 C.ar  1 <1>   0.3100 
  4 C       -2.7440    -0.6290    -1.6580 C.ar  1 <1>  -0.1500 
  5 N       -0.4800    -2.8060     0.2670 N.ar  1 <1>  -0.6200 
  6 C       -2.8410    -3.0840    -0.2550 C.ar  1 <1>   0.0000 
  7 C       -3.9240    -1.3580    -1.5470 C.ar  1 <1>   0.1900 
  8 C       -0.5280    -3.9260     0.9230 C.ar  1 <1>   0.1660 
  9 C       -2.8460    -4.3160     0.4430 C.ar  1 <1>   0.1000 
 10 C       -3.9920    -2.5430    -0.8700 C.ar  1 <1>  -0.1500 
 11 F       -4.9970    -0.8810    -2.1160 F     1 <1>  -0.1900 
 12 C       -1.6770    -4.7060     1.0370 C.ar  1 <1>  -0.1500 
 13 C        0.7570    -4.3780     1.5840 C.3   1 <1>  -0.0960 
 14 N       -3.9730    -5.1160     0.5290 N.pl3 1 <1>  -0.8380 
 15 C       -4.3520    -5.9970    -0.6110 C.3   1 <1>   0.2090 
 16 C       -4.8670    -5.0240     1.7200 C.3   1 <1>   0.2090 
 17 C       -5.3800    -7.0390    -0.1290 C.3   1 <1>   0.4230 
 18 C       -6.3300    -5.1160     1.2680 C.3   1 <1>  -0.1600 
 19 N       -5.6220    -8.2210    -1.0560 N.4   1 <1>  -0.9590 
 20 C       -6.6810    -6.3750     0.4080 C.3   1 <1>   0.0000 
 21 C       -6.8340    -9.0280    -0.6820 C.3   1 <1>   0.3430 
 22 C       -5.6360    -7.8900    -2.5190 C.3   1 <1>   0.2630 
 23 C       -7.3910    -7.4480     1.2820 C.3   1 <1>  -0.1600 
 24 C       -7.6010    -5.9140    -0.7580 C.3   1 <1>   0.1200 
 25 C       -7.1500    -8.9030     0.8140 C.3   1 <1>  -0.1600 
 26 O       -8.7000    -5.2110    -0.2920 O.3   1 <1>  -0.6800 
 27 H       -2.7220     0.2990    -2.1990 H     1 <1>   0.1500 
 28 H       -4.9280    -3.0620    -0.8000 H     1 <1>   0.1500 
 29 H       -1.6420    -5.6230     1.5920 H     1 <1>   0.1500 
 30 H        0.6180    -5.2940     2.1270 H     1 <1>   0.0800 
 31 H        1.0950    -3.6180     2.2650 H     1 <1>   0.0800 
 32 H        1.5120    -4.5270     0.8340 H     1 <1>   0.0800 
 33 H       -4.7640    -5.3930    -1.3990 H     1 <1>   0.0800 
 34 H       -3.4650    -6.4890    -0.9690 H     1 <1>   0.0800 
 35 H       -4.6350    -5.8200     2.4070 H     1 <1>   0.0800 
 36 H       -4.6980    -4.0860     2.2250 H     1 <1>   0.0800 
 37 H       -4.9140    -7.4610     0.7470 H     1 <1>   0.0800 
 38 H       -6.9700    -5.0560     2.1300 H     1 <1>   0.0800 
 39 H       -6.5180    -4.2180     0.7040 H     1 <1>   0.0800 
 40 H       -4.8140    -8.8440    -0.9030 H     1 <1>   0.4500 
 41 H       -7.6890    -8.6850    -1.2410 H     1 <1>   0.0800 
 42 H       -6.6760   -10.0650    -0.9340 H     1 <1>   0.0800 
 43 H       -6.4480    -7.2200    -2.7510 H     1 <1>   0.0800 
 44 H       -5.7590    -8.7880    -3.1040 H     1 <1>   0.0800 
 45 H       -4.7100    -7.4220    -2.8110 H     1 <1>   0.0800 
 46 H       -7.0400    -7.3790     2.2990 H     1 <1>   0.0800 
 47 H       -8.4500    -7.2550     1.3180 H     1 <1>   0.0800 
 48 H       -7.9770    -6.7350    -1.3370 H     1 <1>   0.0800 
 49 H       -7.0680    -5.2480    -1.4150 H     1 <1>   0.0800 
 50 H       -8.0220    -9.4930     1.0390 H     1 <1>   0.0800 
 51 H       -6.3360    -9.3320     1.3720 H     1 <1>   0.0800 
 52 H       -9.2860    -5.7580     0.2680 H     1 <1>   0.4000 
@<TRIPOS>BOND
  1   1   2  1   
  2   2   3  ar  
  3   2   4  ar  
  4   3   5  ar  
  5   3   6  ar  
  6   4   7  ar  
  7   4  27  1   
  8   5   8  ar  
  9   6   9  ar  
 10   6  10  ar  
 11   7  10  ar  
 12   7  11  1   
 13   8  12  ar  
 14   8  13  1   
 15   9  12  ar  
 16   9  14  1   
 17  10  28  1   
 18  12  29  1   
 19  13  30  1   
 20  13  31  1   
 21  13  32  1   
 22  14  15  1   
 23  14  16  1   
 24  15  17  1   
 25  15  33  1   
 26  15  34  1   
 27  16  18  1   
 28  16  35  1   
 29  16  36  1   
 30  17  19  1   
 31  17  20  1   
 32  17  37  1   
 33  18  20  1   
 34  18  38  1   
 35  18  39  1   
 36  19  21  1   
 37  19  22  1   
 38  19  40  1   
 39  20  23  1   
 40  20  24  1   
 41  21  25  1   
 42  21  41  1   
 43  21  42  1   
 44  22  43  1   
 45  22  44  1   
 46  22  45  1   
 47  23  25  1   
 48  23  46  1   
 49  23  47  1   
 50  24  26  1   
 51  24  48  1   
 52  24  49  1   
 53  25  50  1   
 54  25  51  1   
 55  26  52  1   
@<TRIPOS>SUBSTRUCTURE
  1 ****  14 GROUP 4 **** **** 0

# MOE 2024.06 (io_trps.svl 2023.06)
