@<TRIPOS>MOLECULE
NONAME
46 49 1 0 0 
SMALL
USER_CHARGES


@<TRIPOS>ATOM
  1 CL      -0.7800     0.0360    -1.5570 Cl    1 <1>  -0.1770 
  2 C       -2.0960    -0.0380    -0.4060 C.ar  1 <1>   0.1770 
  3 C       -2.6270    -1.2690     0.0100 C.ar  1 <1>  -0.1520 
  4 C       -2.5940     1.1440     0.0870 C.ar  1 <1>  -0.1500 
  5 N       -2.3400    -2.5810    -0.3070 N.pl3 1 <1>   0.0480 
  6 C       -3.6600    -1.2660     0.9420 C.ar  1 <1>   0.0000 
  7 C       -3.6380     1.1330     1.0190 C.ar  1 <1>  -0.1500 
  8 C       -3.1760    -3.4030     0.4250 C.2   1 <1>  -0.2370 
  9 C       -1.3440    -3.0190    -1.3130 C.3   1 <1>   0.0160 
 10 C       -4.1680    -0.0610     1.4450 C.ar  1 <1>  -0.1500 
 11 C       -3.9800    -2.6080     1.1890 C.2   1 <1>  -0.1500 
 12 C       -3.1550    -4.8450     0.3690 C.2   1 <1>   0.7150 
 13 O       -2.0990    -5.4490     0.3690 O.2   1 <1>  -0.5700 
 14 N       -4.3240    -5.5630     0.3020 N.am  1 <1>  -0.6600 
 15 C       -5.6310    -5.0030    -0.1230 C.3   1 <1>   0.1400 
 16 C       -4.3430    -7.0440     0.2480 C.3   1 <1>   0.1400 
 17 C       -6.3870    -6.1940    -0.7090 C.3   1 <1>   0.2000 
 18 C       -5.8030    -7.4220    -0.0140 C.3   1 <1>  -0.0800 
 19 O       -7.7490    -6.1080    -0.4670 O.3   1 <1>  -0.6800 
 20 C       -5.9690    -8.7110    -0.8320 C.3   1 <1>   0.0200 
 21 C       -5.3040    -9.8840    -0.1390 C.2   1 <1>  -0.0400 
 22 O       -5.7190   -10.2660     1.0400 O.3   1 <1>  -0.0190 
 23 C       -4.2880   -10.6820    -0.4980 C.2   1 <1>  -0.1500 
 24 N       -5.0310   -11.2750     1.4900 N.2   1 <1>  -0.4100 
 25 C       -4.1620   -11.5490     0.5840 C.2   1 <1>   0.1080 
 26 C       -3.1450   -12.6620     0.6910 C.3   1 <1>  -0.0590 
 27 H       -2.1800     2.0810    -0.2400 H     1 <1>   0.1500 
 28 H       -4.0180     2.0670     1.3960 H     1 <1>   0.1500 
 29 H       -1.4590    -4.0630    -1.5340 H     1 <1>   0.0800 
 30 H       -0.3560    -2.8450    -0.9290 H     1 <1>   0.0800 
 31 H       -1.4840    -2.4630    -2.2200 H     1 <1>   0.0800 
 32 H       -4.9680    -0.0910     2.1630 H     1 <1>   0.1500 
 33 H       -4.7360    -2.9240     1.8860 H     1 <1>   0.1500 
 34 H       -6.1430    -4.6120     0.7380 H     1 <1>   0.0800 
 35 H       -5.4960    -4.2310    -0.8610 H     1 <1>   0.0800 
 36 H       -3.7070    -7.3740    -0.5560 H     1 <1>   0.0800 
 37 H       -3.9880    -7.4630     1.1750 H     1 <1>   0.0800 
 38 H       -6.2330    -6.2320    -1.7740 H     1 <1>   0.0800 
 39 H       -6.2730    -7.5470     0.9460 H     1 <1>   0.0800 
 40 H       -7.9310    -6.1480     0.4920 H     1 <1>   0.4000 
 41 H       -5.5350    -8.5860    -1.8090 H     1 <1>   0.0800 
 42 H       -7.0160    -8.9260    -0.9580 H     1 <1>   0.0800 
 43 H       -3.6900   -10.6830    -1.3900 H     1 <1>   0.1500 
 44 H       -3.2640   -13.3460    -0.1290 H     1 <1>   0.0800 
 45 H       -3.2820   -13.1980     1.6130 H     1 <1>   0.0800 
 46 H       -2.1520   -12.2520     0.6710 H     1 <1>   0.0800 
@<TRIPOS>BOND
  1   1   2  1   
  2   2   3  ar  
  3   2   4  ar  
  4   3   5  1   
  5   3   6  ar  
  6   4   7  ar  
  7   4  27  1   
  8   5   8  1   
  9   5   9  1   
 10   6  10  ar  
 11   6  11  1   
 12   7  10  ar  
 13   7  28  1   
 14   8  11  2   
 15   8  12  1   
 16   9  29  1   
 17   9  30  1   
 18   9  31  1   
 19  10  32  1   
 20  11  33  1   
 21  12  13  2   
 22  12  14  am  
 23  14  15  1   
 24  14  16  1   
 25  15  17  1   
 26  15  34  1   
 27  15  35  1   
 28  16  18  1   
 29  16  36  1   
 30  16  37  1   
 31  17  18  1   
 32  17  19  1   
 33  17  38  1   
 34  18  20  1   
 35  18  39  1   
 36  19  40  1   
 37  20  21  1   
 38  20  41  1   
 39  20  42  1   
 40  21  22  1   
 41  21  23  2   
 42  22  24  1   
 43  23  25  1   
 44  23  43  1   
 45  24  25  2   
 46  25  26  1   
 47  26  44  1   
 48  26  45  1   
 49  26  46  1   
@<TRIPOS>SUBSTRUCTURE
  1 ****  14 GROUP 4 **** **** 0

# MOE 2024.06 (io_trps.svl 2023.06)
