@<TRIPOS>MOLECULE
NONAME
60 63 1 0 0 
SMALL
USER_CHARGES


@<TRIPOS>ATOM
  1 O       -3.5190    -0.3730    -2.7930 O.2   1 <1>  -0.5700 
  2 C       -3.2070    -0.8250    -1.7260 C.2   1 <1>   0.5690 
  3 N       -2.8710    -0.0070    -0.7140 N.am  1 <1>  -0.7300 
  4 C       -3.2270    -2.3140    -1.5110 C.3   1 <1>  -0.0190 
  5 C       -2.4790    -0.4340     0.6490 C.3   1 <1>   0.2200 
  6 C       -1.8250    -2.8540    -1.1500 C.3   1 <1>   0.1200 
  7 C       -4.3710    -2.6560    -0.5440 C.3   1 <1>   0.3430 
  8 C       -1.2110    -1.3220     0.5910 C.3   1 <1>   0.1200 
  9 C       -3.6810    -1.1060     1.3740 C.3   1 <1>   0.3430 
 10 O       -1.4800    -2.6440     0.1950 O.3   1 <1>  -0.5600 
 11 N       -4.0100    -2.5010     0.9070 N.4   1 <1>  -0.9590 
 12 C       -4.9610    -3.1980     1.8120 C.3   1 <1>   0.4860 
 13 C       -4.9550    -4.6790     1.4830 C.ar  1 <1>  -0.1430 
 14 C       -6.1020    -5.2860     0.9960 C.ar  1 <1>  -0.1500 
 15 C       -3.8070    -5.4400     1.6610 C.ar  1 <1>  -0.1500 
 16 C       -6.1120    -6.6360     0.6840 C.ar  1 <1>   0.0820 
 17 C       -3.8090    -6.7870     1.3450 C.ar  1 <1>  -0.1500 
 18 O       -7.2820    -7.1450     0.2260 O.3   1 <1>  -0.3630 
 19 C       -4.9540    -7.3890     0.8560 C.ar  1 <1>  -0.1500 
 20 C       -7.4670    -8.5320     0.0770 C.3   1 <1>   0.1200 
 21 C       -8.9320    -8.7580    -0.3170 C.3   1 <1>   0.3430 
 22 N       -9.2640   -10.2030    -0.5400 N.4   1 <1>  -0.9590 
 23 C      -10.6060   -10.3200    -1.1840 C.3   1 <1>   0.3430 
 24 C       -9.2020   -11.0050     0.7220 C.3   1 <1>   0.3430 
 25 C      -10.8820   -11.7820    -1.5430 C.3   1 <1>  -0.1600 
 26 C       -9.4460   -12.4820     0.4070 C.3   1 <1>  -0.1600 
 27 C      -10.7820   -12.6960    -0.3150 C.3   1 <1>  -0.1600 
 28 H       -2.8220     0.9930    -0.9420 H     1 <1>   0.3700 
 29 H       -3.4870    -2.7420    -2.4630 H     1 <1>   0.0800 
 30 H       -2.2260     0.4600     1.1940 H     1 <1>   0.0800 
 31 H       -1.0690    -2.4090    -1.7760 H     1 <1>   0.0800 
 32 H       -1.8020    -3.9190    -1.3120 H     1 <1>   0.0800 
 33 H       -4.6450    -3.6830    -0.7240 H     1 <1>   0.0800 
 34 H       -5.2290    -2.0470    -0.7780 H     1 <1>   0.0800 
 35 H       -0.7760    -1.3800     1.5740 H     1 <1>   0.0800 
 36 H       -0.4730    -0.8990    -0.0700 H     1 <1>   0.0800 
 37 H       -4.5450    -0.4720     1.2680 H     1 <1>   0.0800 
 38 H       -3.4380    -1.1500     2.4230 H     1 <1>   0.0800 
 39 H       -3.1070    -3.0120     0.9730 H     1 <1>   0.4500 
 40 H       -4.6600    -3.0670     2.8390 H     1 <1>   0.0800 
 41 H       -5.9530    -2.7960     1.6910 H     1 <1>   0.0800 
 42 H       -7.0100    -4.7250     0.8540 H     1 <1>   0.1500 
 43 H       -2.9010    -5.0030     2.0470 H     1 <1>   0.1500 
 44 H       -2.9130    -7.3720     1.4830 H     1 <1>   0.1500 
 45 H       -4.9170    -8.4350     0.6180 H     1 <1>   0.1500 
 46 H       -6.8040    -8.8770    -0.6970 H     1 <1>   0.0800 
 47 H       -7.2400    -8.9990     1.0180 H     1 <1>   0.0800 
 48 H       -9.1200    -8.2080    -1.2240 H     1 <1>   0.0800 
 49 H       -9.5660    -8.3590     0.4580 H     1 <1>   0.0800 
 50 H       -8.5870   -10.6090    -1.2000 H     1 <1>   0.4500 
 51 H      -11.3680    -9.9670    -0.5070 H     1 <1>   0.0800 
 52 H      -10.6430    -9.7200    -2.0790 H     1 <1>   0.0800 
 53 H       -8.2360   -10.8980     1.1880 H     1 <1>   0.0800 
 54 H       -9.9530   -10.6570     1.4130 H     1 <1>   0.0800 
 55 H      -11.8700   -11.8600    -1.9630 H     1 <1>   0.0800 
 56 H      -10.1870   -12.1030    -2.2990 H     1 <1>   0.0800 
 57 H       -8.6370   -12.8590    -0.1960 H     1 <1>   0.0800 
 58 H       -9.4470   -13.0420     1.3260 H     1 <1>   0.0800 
 59 H      -10.8750   -13.7270    -0.6170 H     1 <1>   0.0800 
 60 H      -11.5940   -12.4810     0.3600 H     1 <1>   0.0800 
@<TRIPOS>BOND
  1   1   2  2   
  2   2   3  am  
  3   2   4  1   
  4   3   5  1   
  5   3  28  1   
  6   4   6  1   
  7   4   7  1   
  8   4  29  1   
  9   5   8  1   
 10   5   9  1   
 11   5  30  1   
 12   6  10  1   
 13   6  31  1   
 14   6  32  1   
 15   7  11  1   
 16   7  33  1   
 17   7  34  1   
 18   8  10  1   
 19   8  35  1   
 20   8  36  1   
 21   9  11  1   
 22   9  37  1   
 23   9  38  1   
 24  11  12  1   
 25  11  39  1   
 26  12  13  1   
 27  12  40  1   
 28  12  41  1   
 29  13  14  ar  
 30  13  15  ar  
 31  14  16  ar  
 32  14  42  1   
 33  15  17  ar  
 34  15  43  1   
 35  16  18  1   
 36  16  19  ar  
 37  17  19  ar  
 38  17  44  1   
 39  18  20  1   
 40  19  45  1   
 41  20  21  1   
 42  20  46  1   
 43  20  47  1   
 44  21  22  1   
 45  21  48  1   
 46  21  49  1   
 47  22  23  1   
 48  22  24  1   
 49  22  50  1   
 50  23  25  1   
 51  23  51  1   
 52  23  52  1   
 53  24  26  1   
 54  24  53  1   
 55  24  54  1   
 56  25  27  1   
 57  25  55  1   
 58  25  56  1   
 59  26  27  1   
 60  26  57  1   
 61  26  58  1   
 62  27  59  1   
 63  27  60  1   
@<TRIPOS>SUBSTRUCTURE
  1 ****  14 GROUP 4 **** **** 0

# MOE 2024.06 (io_trps.svl 2023.06)
