@<TRIPOS>MOLECULE
NONAME
44 45 1 0 0 
SMALL
USER_CHARGES


@<TRIPOS>ATOM
  1 S        1.0450     0.0210    -0.2950 S.o2  1 <1>   1.3330 
  2 O        2.1530    -0.2240     0.6000 O.2   1 <1>  -0.6500 
  3 O        1.2730     0.0870    -1.7200 O.2   1 <1>  -0.6500 
  4 N       -0.1430    -1.1580    -0.0110 N.am  1 <1>  -0.8490 
  5 C        0.2420     1.5310     0.2360 C.3   1 <1>  -0.0550 
  6 C       -1.1130    -1.2840    -1.1050 C.3   1 <1>   0.1160 
  7 C        0.4360    -2.4690     0.2940 C.3   1 <1>   0.1160 
  8 C        1.1690     2.7580     0.1920 C.3   1 <1>  -0.0800 
  9 C        0.4880     4.0170     0.7210 C.3   1 <1>   0.2000 
 10 C        1.6320     3.1530    -1.2120 C.3   1 <1>   0.1400 
 11 O        0.5490     4.0470     2.1030 O.3   1 <1>  -0.6800 
 12 C        1.2490     5.1830     0.0930 C.3   1 <1>   0.1400 
 13 N        1.8470     4.6190    -1.1430 N.am  1 <1>  -0.6600 
 14 C        2.6060     5.2940    -2.0620 C.2   1 <1>   0.5690 
 15 O        3.0930     4.7280    -3.0110 O.2   1 <1>  -0.5700 
 16 C        2.8610     6.7890    -1.9200 C.3   1 <1>   0.0440 
 17 C        3.6800     7.1480    -0.6810 C.ar  1 <1>  -0.1440 
 18 C        4.8370     6.4350    -0.3850 C.ar  1 <1>  -0.1500 
 19 C        3.2720     8.1850     0.1540 C.ar  1 <1>  -0.1500 
 20 C        5.5600     6.7660     0.7460 C.ar  1 <1>   0.1900 
 21 C        4.0010     8.5150     1.2880 C.ar  1 <1>  -0.1500 
 22 F        6.6430     6.0870     1.0250 F     1 <1>  -0.1900 
 23 C        5.1460     7.7950     1.5750 C.ar  1 <1>   0.1900 
 24 F        5.8330     8.1030     2.6450 F     1 <1>  -0.1900 
 25 H       -0.6200     1.7120    -0.3760 H     1 <1>   0.0800 
 26 H       -0.0960     1.3990     1.2460 H     1 <1>   0.0800 
 27 H       -1.8900    -1.9770    -0.8320 H     1 <1>   0.0800 
 28 H       -0.6270    -1.6360    -2.0010 H     1 <1>   0.0800 
 29 H       -1.5670    -0.3300    -1.3110 H     1 <1>   0.0800 
 30 H       -0.3430    -3.1880     0.4840 H     1 <1>   0.0800 
 31 H        1.0540    -2.4040     1.1750 H     1 <1>   0.0800 
 32 H        1.0430    -2.8110    -0.5290 H     1 <1>   0.0800 
 33 H        2.0530     2.5590     0.7750 H     1 <1>   0.0800 
 34 H       -0.5470     4.0590     0.4260 H     1 <1>   0.0800 
 35 H        0.8740     2.9460    -1.9480 H     1 <1>   0.0800 
 36 H        2.5410     2.6430    -1.4900 H     1 <1>   0.0800 
 37 H        1.4720     3.9440     2.4100 H     1 <1>   0.4000 
 38 H        2.0330     5.5190     0.7480 H     1 <1>   0.0800 
 39 H        0.5810     5.9940    -0.1430 H     1 <1>   0.0800 
 40 H        3.3900     7.1290    -2.7920 H     1 <1>   0.0800 
 41 H        1.9120     7.2910    -1.9050 H     1 <1>   0.0800 
 42 H        5.1780     5.6310    -1.0160 H     1 <1>   0.1500 
 43 H        2.3820     8.7470    -0.0740 H     1 <1>   0.1500 
 44 H        3.6920     9.3150     1.9370 H     1 <1>   0.1500 
@<TRIPOS>BOND
  1   1   2  2   
  2   1   3  2   
  3   1   4  am  
  4   1   5  1   
  5   4   6  1   
  6   4   7  1   
  7   5   8  1   
  8   5  25  1   
  9   5  26  1   
 10   6  27  1   
 11   6  28  1   
 12   6  29  1   
 13   7  30  1   
 14   7  31  1   
 15   7  32  1   
 16   8   9  1   
 17   8  10  1   
 18   8  33  1   
 19   9  11  1   
 20   9  12  1   
 21   9  34  1   
 22  10  13  1   
 23  10  35  1   
 24  10  36  1   
 25  11  37  1   
 26  12  13  1   
 27  12  38  1   
 28  12  39  1   
 29  13  14  am  
 30  14  15  2   
 31  14  16  1   
 32  16  17  1   
 33  16  40  1   
 34  16  41  1   
 35  17  18  ar  
 36  17  19  ar  
 37  18  20  ar  
 38  18  42  1   
 39  19  21  ar  
 40  19  43  1   
 41  20  22  1   
 42  20  23  ar  
 43  21  23  ar  
 44  21  44  1   
 45  23  24  1   
@<TRIPOS>SUBSTRUCTURE
  1 ****  13 GROUP 4 **** **** 0

# MOE 2024.06 (io_trps.svl 2023.06)
