@<TRIPOS>MOLECULE
NONAME
51 54 1 0 0 
SMALL
USER_CHARGES


@<TRIPOS>ATOM
  1 O       -3.2680     2.4500    -2.0990 O.2   1 <1>  -0.5700 
  2 C       -2.6000     2.1700    -1.1320 C.2   1 <1>   0.5690 
  3 N       -2.3610     0.8830    -0.7760 N.am  1 <1>  -0.7300 
  4 C       -2.0260     3.2910    -0.2930 C.3   1 <1>   0.1570 
  5 C       -2.7920    -0.3280    -1.5050 C.3   1 <1>   0.2200 
  6 N       -0.6690     2.9320     0.1510 N.pl3 1 <1>   0.3140 
  7 C       -3.6230    -1.1930    -0.5740 C.3   1 <1>  -0.0800 
  8 C       -1.5810    -1.2180    -1.7990 C.3   1 <1>   0.1200 
  9 N       -0.4820     2.0760     1.1780 N.2   1 <1>  -0.7070 
 10 C        0.5110     3.3120    -0.3900 C.2   1 <1>  -0.3320 
 11 C       -2.5340    -1.9840     0.1490 C.3   1 <1>   0.1200 
 12 C       -4.5800    -2.1090    -1.3620 C.3   1 <1>  -0.0160 
 13 O       -1.5230    -2.1860    -0.7890 O.3   1 <1>  -0.5600 
 14 C        0.8020     1.9410     1.2700 C.2   1 <1>   0.1080 
 15 C        1.4790     2.6900     0.3160 C.2   1 <1>  -0.1500 
 16 C        0.6710     4.2500    -1.5750 C.3   1 <1>  -0.0600 
 17 C       -5.4380    -2.9620    -0.4310 C.ar  1 <1>  -0.1440 
 18 C        1.4520     1.0560     2.3070 C.3   1 <1>  -0.0590 
 19 C       -6.5490    -2.4380     0.2720 C.ar  1 <1>   0.0000 
 20 C       -5.1430    -4.2810    -0.2510 C.ar  1 <1>  -0.1500 
 21 C       -7.2610    -3.3170     1.1240 C.ar  1 <1>   0.3100 
 22 C       -6.9960    -1.0990     0.1790 C.ar  1 <1>  -0.1500 
 23 C       -5.9170    -5.0660     0.6130 C.ar  1 <1>   0.1600 
 24 N       -6.9330    -4.6240     1.2830 N.ar  1 <1>  -0.6200 
 25 C       -8.3620    -2.8230     1.8420 C.ar  1 <1>  -0.1500 
 26 C       -8.0750    -0.6500     0.8920 C.ar  1 <1>  -0.1500 
 27 C       -8.7680    -1.5210     1.7360 C.ar  1 <1>  -0.1500 
 28 H       -1.7100     0.7270     0.0110 H     1 <1>   0.3700 
 29 H       -2.6420     3.4420     0.5700 H     1 <1>   0.0800 
 30 H       -1.9910     4.1960    -0.8660 H     1 <1>   0.0800 
 31 H       -3.3150    -0.0510    -2.4050 H     1 <1>   0.0800 
 32 H       -4.1860    -0.5960     0.1210 H     1 <1>   0.0800 
 33 H       -0.6600    -0.6610    -1.8120 H     1 <1>   0.0800 
 34 H       -1.7080    -1.7350    -2.7330 H     1 <1>   0.0800 
 35 H       -2.8690    -2.9350     0.5240 H     1 <1>   0.0800 
 36 H       -2.1190    -1.4070     0.9580 H     1 <1>   0.0800 
 37 H       -4.0100    -2.7520    -2.0110 H     1 <1>   0.0800 
 38 H       -5.2200    -1.5190    -1.9930 H     1 <1>   0.0800 
 39 H        2.5450     2.7400     0.1890 H     1 <1>   0.1500 
 40 H        1.7130     4.3580    -1.8220 H     1 <1>   0.0800 
 41 H        0.2750     5.2220    -1.3390 H     1 <1>   0.0800 
 42 H        0.1570     3.8580    -2.4340 H     1 <1>   0.0800 
 43 H        2.5220     1.1270     2.2450 H     1 <1>   0.0800 
 44 H        1.1560     0.0360     2.1440 H     1 <1>   0.0800 
 45 H        1.1340     1.3600     3.2870 H     1 <1>   0.0800 
 46 H       -4.3160    -4.7480    -0.7550 H     1 <1>   0.1500 
 47 H       -6.4810    -0.4120    -0.4660 H     1 <1>   0.1500 
 48 H       -5.6480    -6.1020     0.7260 H     1 <1>   0.1500 
 49 H       -8.8800    -3.5120     2.4840 H     1 <1>   0.1500 
 50 H       -8.4030     0.3720     0.8120 H     1 <1>   0.1500 
 51 H       -9.6150    -1.1570     2.2920 H     1 <1>   0.1500 
@<TRIPOS>BOND
  1   1   2  2   
  2   2   3  am  
  3   2   4  1   
  4   3   5  1   
  5   3  28  1   
  6   4   6  1   
  7   4  29  1   
  8   4  30  1   
  9   5   7  1   
 10   5   8  1   
 11   5  31  1   
 12   6   9  1   
 13   6  10  1   
 14   7  11  1   
 15   7  12  1   
 16   7  32  1   
 17   8  13  1   
 18   8  33  1   
 19   8  34  1   
 20   9  14  2   
 21  10  15  2   
 22  10  16  1   
 23  11  13  1   
 24  11  35  1   
 25  11  36  1   
 26  12  17  1   
 27  12  37  1   
 28  12  38  1   
 29  14  15  1   
 30  14  18  1   
 31  15  39  1   
 32  16  40  1   
 33  16  41  1   
 34  16  42  1   
 35  17  19  ar  
 36  17  20  ar  
 37  18  43  1   
 38  18  44  1   
 39  18  45  1   
 40  19  21  ar  
 41  19  22  ar  
 42  20  23  ar  
 43  20  46  1   
 44  21  24  ar  
 45  21  25  ar  
 46  22  26  ar  
 47  22  47  1   
 48  23  24  ar  
 49  23  48  1   
 50  25  27  ar  
 51  25  49  1   
 52  26  27  ar  
 53  26  50  1   
 54  27  51  1   
@<TRIPOS>SUBSTRUCTURE
  1 ****   7 GROUP 4 **** **** 0

# MOE 2024.06 (io_trps.svl 2023.06)
