@<TRIPOS>MOLECULE
NONAME
22 22 1 0 0 
SMALL
USER_CHARGES


@<TRIPOS>ATOM
  1 S        0.1770     0.5660     0.6090 S.3   1 <1>  -0.3710 
  2 C       -1.0970     1.7480     0.2140 C.2   1 <1>   0.5300 
  3 C        1.7030     1.3290    -0.0980 C.3   1 <1>  -0.0100 
  4 N       -0.9150     2.8050    -0.4270 N.2   1 <1>  -0.6960 
  5 C       -2.4860     1.4460     0.6830 C.3   1 <1>  -0.0990 
  6 C       -2.1900     3.5380    -0.5480 C.3   1 <1>   0.2270 
  7 C       -3.2670     2.5550    -0.0270 C.3   1 <1>  -0.1600 
  8 C       -2.1780     4.8900     0.1950 C.2   1 <1>   0.6590 
  9 O       -2.4680     4.9950     1.3630 O.2   1 <1>  -0.5700 
 10 O       -1.8470     5.9510    -0.5360 O.3   1 <1>  -0.4300 
 11 C       -1.7800     7.2470     0.0220 C.3   1 <1>   0.0400 
 12 H        2.5280     0.6700     0.1050 H     1 <1>   0.0800 
 13 H        1.8430     2.2840     0.3760 H     1 <1>   0.0800 
 14 H        1.5520     1.4470    -1.1560 H     1 <1>   0.0800 
 15 H       -2.8000     0.4660     0.3740 H     1 <1>   0.0800 
 16 H       -2.5360     1.5480     1.7520 H     1 <1>   0.0800 
 17 H       -2.3700     3.7380    -1.5890 H     1 <1>   0.0800 
 18 H       -3.9770     3.0290     0.6280 H     1 <1>   0.0800 
 19 H       -3.8000     2.1460    -0.8680 H     1 <1>   0.0800 
 20 H       -1.4890     7.9360    -0.7490 H     1 <1>   0.0800 
 21 H       -1.0510     7.2450     0.8140 H     1 <1>   0.0800 
 22 H       -2.7490     7.5090     0.4110 H     1 <1>   0.0800 
@<TRIPOS>BOND
  1   1   2  1   
  2   1   3  1   
  3   2   4  2   
  4   2   5  1   
  5   3  12  1   
  6   3  13  1   
  7   3  14  1   
  8   4   6  1   
  9   5   7  1   
 10   5  15  1   
 11   5  16  1   
 12   6   7  1   
 13   6   8  1   
 14   6  17  1   
 15   7  18  1   
 16   7  19  1   
 17   8   9  2   
 18   8  10  1   
 19  10  11  1   
 20  11  20  1   
 21  11  21  1   
 22  11  22  1   
@<TRIPOS>SUBSTRUCTURE
  1 ****   4 GROUP 4 **** **** 0

# MOE 2024.06 (io_trps.svl 2023.06)
