@<TRIPOS>MOLECULE
NONAME
58 60 1 0 0 
SMALL
USER_CHARGES


@<TRIPOS>ATOM
  1 F       -0.1770    -1.5800     2.0330 F     1 <1>  -0.3400 
  2 C       -0.5160    -1.9620     0.8110 C.3   1 <1>   1.1640 
  3 F        0.2230    -1.2460    -0.0270 F     1 <1>  -0.3400 
  4 F       -1.7720    -1.5820     0.6250 F     1 <1>  -0.3400 
  5 C       -0.3350    -3.4800     0.6080 C.ar  1 <1>  -0.1440 
  6 C        0.5040    -4.0130    -0.3480 C.ar  1 <1>  -0.1500 
  7 C       -1.0500    -4.3660     1.4240 C.ar  1 <1>  -0.1500 
  8 C        0.6500    -5.3990    -0.5120 C.ar  1 <1>   0.3610 
  9 C       -0.9200    -5.7230     1.2790 C.ar  1 <1>  -0.1500 
 10 N        1.4930    -5.9070    -1.4750 N.ar  1 <1>  -0.1790 
 11 C       -0.0680    -6.2890     0.3100 C.ar  1 <1>   0.0000 
 12 C        1.6570    -7.2280    -1.6650 C.ar  1 <1>   0.2180 
 13 C        0.0940    -7.6980     0.1240 C.ar  1 <1>   0.1000 
 14 C        0.9700    -8.1190    -0.8810 C.ar  1 <1>  -0.1500 
 15 C        2.6110    -7.6900    -2.7540 C.3   1 <1>  -0.0970 
 16 N       -0.5810    -8.5680     0.9080 N.pl3 1 <1>  -0.8690 
 17 C       -0.6240   -10.0510     0.9000 C.3   1 <1>   0.2090 
 18 C       -2.0890   -10.4770     0.8010 C.3   1 <1>  -0.1600 
 19 C       -2.2480   -12.0040     0.7290 C.3   1 <1>   0.2200 
 20 N       -3.6740   -12.4010     0.6670 N.am  1 <1>  -0.6600 
 21 C       -1.7170   -12.7260     1.9820 C.3   1 <1>  -0.1600 
 22 C       -3.9550   -13.4070     1.5370 C.2   1 <1>   0.5690 
 23 C       -4.5930   -11.7880    -0.3440 C.3   1 <1>   0.1400 
 24 C       -2.7360   -13.8250     2.3080 C.3   1 <1>  -0.0990 
 25 O       -5.0310   -13.9320     1.6850 O.2   1 <1>  -0.5700 
 26 C       -5.9230   -12.5520    -0.5100 C.3   1 <1>   0.3430 
 27 N       -6.8170   -11.9930    -1.5820 N.4   1 <1>  -0.9590 
 28 C       -7.3310   -10.6310    -1.2310 C.3   1 <1>   0.2630 
 29 C       -7.9600   -12.9320    -1.8020 C.3   1 <1>   0.2630 
 30 H        1.0670    -3.3560    -0.9900 H     1 <1>   0.1500 
 31 H       -1.7130    -3.9720     2.1800 H     1 <1>   0.1500 
 32 H       -1.4890    -6.3650     1.9280 H     1 <1>   0.1500 
 33 H        2.0060    -5.2420    -2.0580 H     1 <1>   0.4570 
 34 H        1.1140    -9.1700    -1.0410 H     1 <1>   0.1500 
 35 H        3.6050    -7.3280    -2.5620 H     1 <1>   0.0800 
 36 H        2.2860    -7.3320    -3.7160 H     1 <1>   0.0800 
 37 H        2.6500    -8.7640    -2.7950 H     1 <1>   0.0800 
 38 H       -1.1620    -8.1910     1.6660 H     1 <1>   0.4000 
 39 H       -0.1820   -10.4180     1.8120 H     1 <1>   0.0800 
 40 H       -0.0730   -10.4540     0.0710 H     1 <1>   0.0800 
 41 H       -2.4960   -10.0370    -0.0900 H     1 <1>   0.0800 
 42 H       -2.6250   -10.1050     1.6560 H     1 <1>   0.0800 
 43 H       -1.7500   -12.3880    -0.1460 H     1 <1>   0.0800 
 44 H       -1.6710   -12.0430     2.8130 H     1 <1>   0.0800 
 45 H       -0.7330   -13.1300     1.8180 H     1 <1>   0.0800 
 46 H       -4.0840   -11.7660    -1.2920 H     1 <1>   0.0800 
 47 H       -4.8010   -10.7790    -0.0370 H     1 <1>   0.0800 
 48 H       -2.9500   -13.8780     3.3610 H     1 <1>   0.0800 
 49 H       -2.4060   -14.7830     1.9510 H     1 <1>   0.0800 
 50 H       -6.4460   -12.5430     0.4330 H     1 <1>   0.0800 
 51 H       -5.6880   -13.5790    -0.7420 H     1 <1>   0.0800 
 52 H       -6.2780   -11.9370    -2.4600 H     1 <1>   0.4500 
 53 H       -7.8810   -10.6660    -0.3040 H     1 <1>   0.0800 
 54 H       -7.9870   -10.2690    -2.0060 H     1 <1>   0.0800 
 55 H       -6.5160    -9.9340    -1.1220 H     1 <1>   0.0800 
 56 H       -8.5430   -13.0310    -0.9010 H     1 <1>   0.0800 
 57 H       -7.5950   -13.9080    -2.0810 H     1 <1>   0.0800 
 58 H       -8.6000   -12.5670    -2.5900 H     1 <1>   0.0800 
@<TRIPOS>BOND
  1   1   2  1   
  2   2   3  1   
  3   2   4  1   
  4   2   5  1   
  5   5   6  ar  
  6   5   7  ar  
  7   6   8  ar  
  8   6  30  1   
  9   7   9  ar  
 10   7  31  1   
 11   8  10  ar  
 12   8  11  ar  
 13   9  11  ar  
 14   9  32  1   
 15  10  12  ar  
 16  10  33  1   
 17  11  13  ar  
 18  12  14  ar  
 19  12  15  1   
 20  13  14  ar  
 21  13  16  1   
 22  14  34  1   
 23  15  35  1   
 24  15  36  1   
 25  15  37  1   
 26  16  17  1   
 27  16  38  1   
 28  17  18  1   
 29  17  39  1   
 30  17  40  1   
 31  18  19  1   
 32  18  41  1   
 33  18  42  1   
 34  19  20  1   
 35  19  21  1   
 36  19  43  1   
 37  20  22  am  
 38  20  23  1   
 39  21  24  1   
 40  21  44  1   
 41  21  45  1   
 42  22  24  1   
 43  22  25  2   
 44  23  26  1   
 45  23  46  1   
 46  23  47  1   
 47  24  48  1   
 48  24  49  1   
 49  26  27  1   
 50  26  50  1   
 51  26  51  1   
 52  27  28  1   
 53  27  29  1   
 54  27  52  1   
 55  28  53  1   
 56  28  54  1   
 57  28  55  1   
 58  29  56  1   
 59  29  57  1   
 60  29  58  1   
@<TRIPOS>SUBSTRUCTURE
  1 ****  16 GROUP 4 **** **** 0

# MOE 2024.06 (io_trps.svl 2023.06)
