@<TRIPOS>MOLECULE
NONAME
53 55 1 0 0 
SMALL
USER_CHARGES


@<TRIPOS>ATOM
  1 O       -4.4010     2.0590    -2.3740 O.2   1 <1>  -0.5700 
  2 C       -3.6650     1.7240    -1.4650 C.2   1 <1>   0.5440 
  3 N       -3.6670     0.4060    -1.0640 N.am  1 <1>  -0.6600 
  4 C       -2.8230     2.7170    -0.8270 C.ar  1 <1>   0.0860 
  5 C       -2.7030    -0.1000    -0.0230 C.3   1 <1>   0.3640 
  6 C       -4.6820    -0.5330    -1.6280 C.3   1 <1>   0.1400 
  7 C       -1.6260     3.1290    -1.4070 C.ar  1 <1>  -0.1500 
  8 C       -3.1790     3.2830     0.3950 C.ar  1 <1>  -0.1500 
  9 C       -1.2780    -0.0550    -0.5840 C.ar  1 <1>  -0.1430 
 10 C       -2.9870    -1.5300     0.5360 C.3   1 <1>   0.2000 
 11 C       -4.4270    -1.9930    -1.2510 C.3   1 <1>   0.1200 
 12 C       -0.8100     4.0560    -0.7850 C.ar  1 <1>  -0.1500 
 13 C       -2.3660     4.2100     1.0210 C.ar  1 <1>  -0.1500 
 14 C       -0.2510     0.4660     0.1900 C.ar  1 <1>  -0.1500 
 15 C       -0.9850    -0.5260    -1.8570 C.ar  1 <1>  -0.1500 
 16 O       -4.2080    -2.0800     0.1190 O.3   1 <1>  -0.5600 
 17 C       -2.9970    -1.5620     2.0710 C.3   1 <1>   0.1200 
 18 C       -1.1720     4.6010     0.4360 C.ar  1 <1>  -0.1430 
 19 C        1.0440     0.5110    -0.2940 C.ar  1 <1>  -0.1500 
 20 C        0.3100    -0.4820    -2.3440 C.ar  1 <1>  -0.1500 
 21 O       -1.7900    -1.1000     2.5900 O.3   1 <1>  -0.6800 
 22 C       -0.2750     5.6190     1.1290 C.3   1 <1>  -0.0170 
 23 C        1.3270     0.0350    -1.5610 C.ar  1 <1>  -0.1500 
 24 C        0.5100     5.0080     2.3050 C.3   1 <1>  -0.0800 
 25 C        1.3120     6.0940     3.0330 C.3   1 <1>  -0.2400 
 26 C        1.4570     3.8930     1.8400 C.3   1 <1>  -0.2400 
 27 H       -2.7470     0.5820     0.8080 H     1 <1>   0.0800 
 28 H       -5.6540    -0.2440    -1.2660 H     1 <1>   0.0800 
 29 H       -4.6950    -0.4410    -2.7000 H     1 <1>   0.0800 
 30 H       -1.3350     2.7050    -2.3520 H     1 <1>   0.1500 
 31 H       -4.1060     2.9880     0.8540 H     1 <1>   0.1500 
 32 H       -2.2190    -2.2020     0.1930 H     1 <1>   0.0800 
 33 H       -3.5750    -2.3900    -1.7740 H     1 <1>   0.0800 
 34 H       -5.2890    -2.5910    -1.4880 H     1 <1>   0.0800 
 35 H        0.1130     4.3460    -1.2560 H     1 <1>   0.1500 
 36 H       -2.6640     4.6280     1.9660 H     1 <1>   0.1500 
 37 H       -0.4570     0.8460     1.1770 H     1 <1>   0.1500 
 38 H       -1.7650    -0.9230    -2.4810 H     1 <1>   0.1500 
 39 H       -3.1530    -2.5660     2.4250 H     1 <1>   0.0800 
 40 H       -3.7790    -0.9250     2.4460 H     1 <1>   0.0800 
 41 H        1.8320     0.9180     0.3160 H     1 <1>   0.1500 
 42 H        0.5260    -0.8490    -3.3320 H     1 <1>   0.1500 
 43 H       -1.0600    -1.7150     2.3770 H     1 <1>   0.4000 
 44 H        0.4130     6.0410     0.4170 H     1 <1>   0.0800 
 45 H       -0.8900     6.4240     1.4910 H     1 <1>   0.0800 
 46 H        2.3340     0.0710    -1.9390 H     1 <1>   0.1500 
 47 H       -0.1950     4.5850     3.0020 H     1 <1>   0.0800 
 48 H        2.0340     6.5410     2.3730 H     1 <1>   0.0800 
 49 H        1.8320     5.6720     3.8750 H     1 <1>   0.0800 
 50 H        0.6550     6.8650     3.3970 H     1 <1>   0.0800 
 51 H        2.1620     4.2680     1.1200 H     1 <1>   0.0800 
 52 H        0.8980     3.0920     1.3900 H     1 <1>   0.0800 
 53 H        1.9990     3.4900     2.6770 H     1 <1>   0.0800 
@<TRIPOS>BOND
  1   1   2  2   
  2   2   3  am  
  3   2   4  1   
  4   3   5  1   
  5   3   6  1   
  6   4   7  ar  
  7   4   8  ar  
  8   5   9  1   
  9   5  10  1   
 10   5  27  1   
 11   6  11  1   
 12   6  28  1   
 13   6  29  1   
 14   7  12  ar  
 15   7  30  1   
 16   8  13  ar  
 17   8  31  1   
 18   9  14  ar  
 19   9  15  ar  
 20  10  16  1   
 21  10  17  1   
 22  10  32  1   
 23  11  16  1   
 24  11  33  1   
 25  11  34  1   
 26  12  18  ar  
 27  12  35  1   
 28  13  18  ar  
 29  13  36  1   
 30  14  19  ar  
 31  14  37  1   
 32  15  20  ar  
 33  15  38  1   
 34  17  21  1   
 35  17  39  1   
 36  17  40  1   
 37  18  22  1   
 38  19  23  ar  
 39  19  41  1   
 40  20  23  ar  
 41  20  42  1   
 42  21  43  1   
 43  22  24  1   
 44  22  44  1   
 45  22  45  1   
 46  23  46  1   
 47  24  25  1   
 48  24  26  1   
 49  24  47  1   
 50  25  48  1   
 51  25  49  1   
 52  25  50  1   
 53  26  51  1   
 54  26  52  1   
 55  26  53  1   
@<TRIPOS>SUBSTRUCTURE
  1 ****   9 GROUP 4 **** **** 0

# MOE 2024.06 (io_trps.svl 2023.06)
