@<TRIPOS>MOLECULE
NONAME
47 49 1 0 0 
SMALL
USER_CHARGES


@<TRIPOS>ATOM
  1 CL      -1.6990    -0.2430     3.2910 Cl    1 <1>  -0.1770 
  2 C       -2.7270    -0.7090     1.9630 C.ar  1 <1>   0.1770 
  3 C       -2.7210    -2.0210     1.5280 C.ar  1 <1>  -0.1500 
  4 C       -3.5330     0.2390     1.3640 C.ar  1 <1>  -0.1500 
  5 C       -3.5410    -2.3910     0.4750 C.ar  1 <1>  -0.1500 
  6 C       -4.3510    -0.1330     0.3110 C.ar  1 <1>  -0.1500 
  7 C       -4.3620    -1.4500    -0.1350 C.ar  1 <1>  -0.1430 
  8 C       -5.2710    -1.8620    -1.2800 C.3   1 <1>   0.4870 
  9 N       -6.6830    -1.7760    -0.8300 N.4   1 <1>  -0.9590 
 10 C       -7.0080    -2.6440     0.3290 C.3   1 <1>   0.3430 
 11 C       -7.6700    -1.9280    -1.9320 C.3   1 <1>   0.3430 
 12 C       -8.3230    -2.1780     0.9620 C.3   1 <1>  -0.1600 
 13 C       -9.1070    -1.8670    -1.3980 C.3   1 <1>  -0.1600 
 14 C       -9.2110    -1.3150     0.0390 C.3   1 <1>   0.2800 
 15 O       -8.6100    -0.0320     0.0040 O.3   1 <1>  -0.5600 
 16 C      -10.6730    -1.2770     0.5850 C.3   1 <1>   0.2000 
 17 C       -9.3590     1.0830     0.4090 C.3   1 <1>   0.1200 
 18 O      -11.2960    -2.5200     0.4360 O.3   1 <1>  -0.6800 
 19 C      -11.5450    -0.1170     0.0150 C.3   1 <1>   0.2800 
 20 C      -10.6810     1.0980    -0.3580 C.3   1 <1>  -0.1600 
 21 O      -12.3820     0.2760     1.0390 O.3   1 <1>  -0.6800 
 22 C      -12.4820    -0.4890    -1.1450 C.3   1 <1>  -0.2400 
 23 H       -2.0780    -2.7360     2.0110 H     1 <1>   0.1500 
 24 H       -3.5130     1.2540     1.7210 H     1 <1>   0.1500 
 25 H       -3.5260    -3.4150     0.1420 H     1 <1>   0.1500 
 26 H       -4.9720     0.6160    -0.1530 H     1 <1>   0.1500 
 27 H       -5.0410    -2.8690    -1.5900 H     1 <1>   0.0800 
 28 H       -5.1090    -1.2010    -2.1160 H     1 <1>   0.0800 
 29 H       -6.8460    -0.8180    -0.4690 H     1 <1>   0.4500 
 30 H       -7.1060    -3.6660    -0.0020 H     1 <1>   0.0800 
 31 H       -6.2250    -2.6000     1.0690 H     1 <1>   0.0800 
 32 H       -7.5300    -1.1280    -2.6420 H     1 <1>   0.0800 
 33 H       -7.5180    -2.8640    -2.4450 H     1 <1>   0.0800 
 34 H       -8.1150    -1.6330     1.8650 H     1 <1>   0.0800 
 35 H       -8.8600    -3.0630     1.2570 H     1 <1>   0.0800 
 36 H       -9.5160    -2.8610    -1.4250 H     1 <1>   0.0800 
 37 H       -9.6990    -1.2750    -2.0690 H     1 <1>   0.0800 
 38 H      -10.5910    -1.1200     1.6470 H     1 <1>   0.0800 
 39 H       -9.5200     1.0340     1.4740 H     1 <1>   0.0800 
 40 H       -8.7830     1.9650     0.1860 H     1 <1>   0.0800 
 41 H      -12.1930    -2.4660     0.8290 H     1 <1>   0.4000 
 42 H      -10.4490     1.0830    -1.4080 H     1 <1>   0.0800 
 43 H      -11.2090     2.0150    -0.1630 H     1 <1>   0.0800 
 44 H      -13.0320     0.9250     0.7080 H     1 <1>   0.4000 
 45 H      -11.9240    -0.8870    -1.9700 H     1 <1>   0.0800 
 46 H      -13.0160     0.3760    -1.4940 H     1 <1>   0.0800 
 47 H      -13.1940    -1.2350    -0.8400 H     1 <1>   0.0800 
@<TRIPOS>BOND
  1   1   2  1   
  2   2   3  ar  
  3   2   4  ar  
  4   3   5  ar  
  5   3  23  1   
  6   4   6  ar  
  7   4  24  1   
  8   5   7  ar  
  9   5  25  1   
 10   6   7  ar  
 11   6  26  1   
 12   7   8  1   
 13   8   9  1   
 14   8  27  1   
 15   8  28  1   
 16   9  10  1   
 17   9  11  1   
 18   9  29  1   
 19  10  12  1   
 20  10  30  1   
 21  10  31  1   
 22  11  13  1   
 23  11  32  1   
 24  11  33  1   
 25  12  14  1   
 26  12  34  1   
 27  12  35  1   
 28  13  14  1   
 29  13  36  1   
 30  13  37  1   
 31  14  15  1   
 32  14  16  1   
 33  15  17  1   
 34  16  18  1   
 35  16  19  1   
 36  16  38  1   
 37  17  20  1   
 38  17  39  1   
 39  17  40  1   
 40  18  41  1   
 41  19  20  1   
 42  19  21  1   
 43  19  22  1   
 44  20  42  1   
 45  20  43  1   
 46  21  44  1   
 47  22  45  1   
 48  22  46  1   
 49  22  47  1   
@<TRIPOS>SUBSTRUCTURE
  1 ****   9 GROUP 4 **** **** 0

# MOE 2024.06 (io_trps.svl 2023.06)
