@<TRIPOS>MOLECULE
NONAME
52 55 1 0 0 
SMALL
USER_CHARGES


@<TRIPOS>ATOM
  1 O        4.3400    -1.4340    -1.6860 O.2   1 <1>  -0.5700 
  2 C        3.4590    -1.4900    -0.8450 C.2   1 <1>   0.5440 
  3 N        3.2060    -0.3190    -0.1760 N.am  1 <1>  -0.6600 
  4 C        2.7740    -2.7280    -0.5200 C.ar  1 <1>   0.0860 
  5 C        3.9230    -0.1170     1.1320 C.3   1 <1>   0.2200 
  6 C        2.7950     0.8750    -0.9780 C.3   1 <1>   0.1400 
  7 C        3.2260    -3.9570    -1.0040 C.ar  1 <1>  -0.1500 
  8 C        1.6390    -2.7580     0.2940 C.ar  1 <1>  -0.1500 
  9 C        3.2380     0.9190     2.0370 C.3   1 <1>   0.1200 
 10 C        5.4140     0.2480     0.9070 C.3   1 <1>   0.3430 
 11 C        3.5670     2.1720    -0.6670 C.3   1 <1>  -0.0800 
 12 C        2.5900    -5.1420    -0.6890 C.ar  1 <1>  -0.1500 
 13 C        1.0040    -3.9430     0.6100 C.ar  1 <1>  -0.1500 
 14 O        3.6950     2.2060     1.7470 O.3   1 <1>  -0.5600 
 15 N        5.6950     0.7480    -0.4840 N.4   1 <1>  -0.9590 
 16 C        3.1100     2.8210     0.6490 C.3   1 <1>   0.1200 
 17 C        5.1040     2.0900    -0.7810 C.3   1 <1>   0.3430 
 18 C        1.4580    -5.1670     0.1240 C.ar  1 <1>   0.1000 
 19 C        7.1480     0.6970    -0.8080 C.3   1 <1>   0.2630 
 20 N        0.8040    -6.3540     0.4590 N.pl3 1 <1>  -0.8380 
 21 C       -0.6610    -6.4040     0.6960 C.3   1 <1>   0.2090 
 22 C        1.3060    -7.7000     0.0890 C.3   1 <1>   0.2090 
 23 C       -1.0850    -7.8130     0.3000 C.3   1 <1>  -0.1600 
 24 C        0.1770    -8.6520     0.4590 C.3   1 <1>  -0.1600 
 25 H        3.8910    -1.0510     1.6660 H     1 <1>   0.0800 
 26 H        2.9130     0.6490    -2.0250 H     1 <1>   0.0800 
 27 H        1.7430     1.0430    -0.8160 H     1 <1>   0.0800 
 28 H        4.0930    -3.9820    -1.6410 H     1 <1>   0.1500 
 29 H        1.2420    -1.8400     0.6870 H     1 <1>   0.1500 
 30 H        3.5080     0.7260     3.0610 H     1 <1>   0.0800 
 31 H        2.1650     0.8760     1.9590 H     1 <1>   0.0800 
 32 H        5.9960    -0.6420     1.0790 H     1 <1>   0.0800 
 33 H        5.7210     0.9800     1.6350 H     1 <1>   0.0800 
 34 H        3.2590     2.8720    -1.4240 H     1 <1>   0.0800 
 35 H        2.9820    -6.0590    -1.0850 H     1 <1>   0.1500 
 36 H        0.1430    -3.9250     1.2500 H     1 <1>   0.1500 
 37 H        5.2000     0.0600    -1.0990 H     1 <1>   0.4500 
 38 H        2.0380     2.7940     0.7590 H     1 <1>   0.0800 
 39 H        3.4190     3.8530     0.6720 H     1 <1>   0.0800 
 40 H        5.5410     2.8280    -0.1280 H     1 <1>   0.0800 
 41 H        5.3710     2.3560    -1.7910 H     1 <1>   0.0800 
 42 H        7.6970     1.3720    -0.1730 H     1 <1>   0.0800 
 43 H        7.3100     0.9760    -1.8360 H     1 <1>   0.0800 
 44 H        7.5240    -0.3030    -0.6640 H     1 <1>   0.0800 
 45 H       -0.8500    -6.2380     1.7430 H     1 <1>   0.0800 
 46 H       -1.1760    -5.6630     0.1090 H     1 <1>   0.0800 
 47 H        1.4820    -7.7380    -0.9720 H     1 <1>   0.0800 
 48 H        2.2120    -7.9300     0.6230 H     1 <1>   0.0800 
 49 H       -1.8970    -8.1720     0.9070 H     1 <1>   0.0800 
 50 H       -1.3920    -7.8050    -0.7310 H     1 <1>   0.0800 
 51 H        0.1720    -9.5290    -0.1630 H     1 <1>   0.0800 
 52 H        0.2950    -8.9470     1.4870 H     1 <1>   0.0800 
@<TRIPOS>BOND
  1   1   2  2   
  2   2   3  am  
  3   2   4  1   
  4   3   5  1   
  5   3   6  1   
  6   4   7  ar  
  7   4   8  ar  
  8   5   9  1   
  9   5  10  1   
 10   5  25  1   
 11   6  11  1   
 12   6  26  1   
 13   6  27  1   
 14   7  12  ar  
 15   7  28  1   
 16   8  13  ar  
 17   8  29  1   
 18   9  14  1   
 19   9  30  1   
 20   9  31  1   
 21  10  15  1   
 22  10  32  1   
 23  10  33  1   
 24  11  16  1   
 25  11  17  1   
 26  11  34  1   
 27  12  18  ar  
 28  12  35  1   
 29  13  18  ar  
 30  13  36  1   
 31  14  16  1   
 32  15  17  1   
 33  15  19  1   
 34  15  37  1   
 35  16  38  1   
 36  16  39  1   
 37  17  40  1   
 38  17  41  1   
 39  18  20  1   
 40  19  42  1   
 41  19  43  1   
 42  19  44  1   
 43  20  21  1   
 44  20  22  1   
 45  21  23  1   
 46  21  45  1   
 47  21  46  1   
 48  22  24  1   
 49  22  47  1   
 50  22  48  1   
 51  23  24  1   
 52  23  49  1   
 53  23  50  1   
 54  24  51  1   
 55  24  52  1   
@<TRIPOS>SUBSTRUCTURE
  1 ****   4 GROUP 4 **** **** 0

# MOE 2024.06 (io_trps.svl 2023.06)
