@<TRIPOS>MOLECULE
NONAME
44 46 1 0 0 
SMALL
USER_CHARGES


@<TRIPOS>ATOM
  1 O       -0.4330     0.3050    -0.0180 O.2   1 <1>  -0.5700 
  2 C       -1.4890     0.8800     0.1680 C.2   1 <1>   0.5440 
  3 N       -2.6320     0.1280     0.3190 N.am  1 <1>  -0.6600 
  4 C       -1.5240     2.3310     0.2060 C.ar  1 <1>   0.0860 
  5 C       -4.0090     0.6360     0.0930 C.3   1 <1>   0.1400 
  6 C       -2.6120    -1.3560     0.2730 C.3   1 <1>   0.1400 
  7 C       -2.1740     3.0240     1.2260 C.ar  1 <1>  -0.1500 
  8 C       -0.9020     3.0850    -0.7870 C.ar  1 <1>  -0.1500 
  9 C       -4.7950    -0.5800    -0.3920 C.3   1 <1>   0.2000 
 10 C       -4.0790    -1.7830     0.2150 C.3   1 <1>  -0.0800 
 11 C       -2.2200     4.4070     1.2440 C.ar  1 <1>  -0.1500 
 12 C       -0.9440     4.4670    -0.7750 C.ar  1 <1>  -0.1500 
 13 O       -6.1130    -0.5360     0.0320 O.3   1 <1>  -0.6800 
 14 C       -4.3090    -3.0830    -0.5690 C.3   1 <1>   0.0210 
 15 C       -1.6070     5.1390     0.2390 C.ar  1 <1>  -0.1430 
 16 C       -3.5090    -4.2230     0.0300 C.2   1 <1>   0.1080 
 17 C       -1.6530     6.6580     0.2480 C.3   1 <1>   0.2630 
 18 N       -3.7210    -4.6780     1.2250 N.2   1 <1>  -0.7070 
 19 C       -2.4690    -4.8890    -0.6100 C.2   1 <1>  -0.1500 
 20 O       -0.3710     7.1180     0.4620 O.3   1 <1>  -0.6800 
 21 N       -2.8140    -5.6600     1.3810 N.pl3 1 <1>   0.3000 
 22 C       -2.0430    -5.8060     0.2830 C.2   1 <1>  -0.3320 
 23 C       -0.9280    -6.8270     0.1540 C.3   1 <1>  -0.0600 
 24 H       -4.4080     0.9990     1.0230 H     1 <1>   0.0800 
 25 H       -4.0150     1.4160    -0.6490 H     1 <1>   0.0800 
 26 H       -2.0800    -1.6730    -0.6090 H     1 <1>   0.0800 
 27 H       -2.1210    -1.7580     1.1440 H     1 <1>   0.0800 
 28 H       -2.6430     2.4660     2.0170 H     1 <1>   0.1500 
 29 H       -0.3780     2.5700    -1.5740 H     1 <1>   0.1500 
 30 H       -4.7830    -0.6130    -1.4680 H     1 <1>   0.0800 
 31 H       -4.4050    -1.9240     1.2310 H     1 <1>   0.0800 
 32 H       -2.7320     4.9100     2.0460 H     1 <1>   0.1500 
 33 H       -0.4530     5.0240    -1.5560 H     1 <1>   0.1500 
 34 H       -6.1670    -0.7240     0.9890 H     1 <1>   0.4000 
 35 H       -4.0280    -2.9510    -1.5980 H     1 <1>   0.0800 
 36 H       -5.3520    -3.3420    -0.5370 H     1 <1>   0.0800 
 37 H       -2.2810     7.0270     1.0410 H     1 <1>   0.0800 
 38 H       -1.9990     7.0460    -0.6950 H     1 <1>   0.0800 
 39 H       -2.1040    -4.6940    -1.6020 H     1 <1>   0.1500 
 40 H        0.0860     6.5030     1.0690 H     1 <1>   0.4000 
 41 H       -2.7470    -6.2100     2.2460 H     1 <1>   0.2700 
 42 H       -0.4630    -6.7460    -0.8130 H     1 <1>   0.0800 
 43 H       -1.3200    -7.8230     0.2620 H     1 <1>   0.0800 
 44 H       -0.1800    -6.6590     0.9080 H     1 <1>   0.0800 
@<TRIPOS>BOND
  1   1   2  2   
  2   2   3  am  
  3   2   4  1   
  4   3   5  1   
  5   3   6  1   
  6   4   7  ar  
  7   4   8  ar  
  8   5   9  1   
  9   5  24  1   
 10   5  25  1   
 11   6  10  1   
 12   6  26  1   
 13   6  27  1   
 14   7  11  ar  
 15   7  28  1   
 16   8  12  ar  
 17   8  29  1   
 18   9  10  1   
 19   9  13  1   
 20   9  30  1   
 21  10  14  1   
 22  10  31  1   
 23  11  15  ar  
 24  11  32  1   
 25  12  15  ar  
 26  12  33  1   
 27  13  34  1   
 28  14  16  1   
 29  14  35  1   
 30  14  36  1   
 31  15  17  1   
 32  16  18  2   
 33  16  19  1   
 34  17  20  1   
 35  17  37  1   
 36  17  38  1   
 37  18  21  1   
 38  19  22  2   
 39  19  39  1   
 40  20  40  1   
 41  21  22  1   
 42  21  41  1   
 43  22  23  1   
 44  23  42  1   
 45  23  43  1   
 46  23  44  1   
@<TRIPOS>SUBSTRUCTURE
  1 ****   3 GROUP 4 **** **** 0

# MOE 2024.06 (io_trps.svl 2023.06)
