@<TRIPOS>MOLECULE
NONAME
44 45 1 0 0 
SMALL
USER_CHARGES


@<TRIPOS>ATOM
  1 O        0.3160    -0.4730    -0.1120 O.3   1 <1>  -0.3630 
  2 C        1.3490     0.3510    -0.4200 C.ar  1 <1>   0.0830 
  3 C        0.3950    -1.8580    -0.3320 C.3   1 <1>   0.1200 
  4 C        1.1810     1.6940    -0.1250 C.ar  1 <1>  -0.1500 
  5 C        2.5380    -0.0800    -1.0020 C.ar  1 <1>  -0.1500 
  6 C       -0.9290    -2.4620     0.1450 C.3   1 <1>   0.3430 
  7 C        2.1800     2.6120    -0.4020 C.ar  1 <1>  -0.1440 
  8 C        3.5390     0.8350    -1.2780 C.ar  1 <1>  -0.1500 
  9 N       -1.0130    -3.9500    -0.0660 N.4   1 <1>  -0.9590 
 10 C        3.3610     2.1740    -0.9790 C.ar  1 <1>  -0.1500 
 11 C        1.9850     4.0840    -0.0740 C.3   1 <1>  -0.0170 
 12 C       -2.4310    -4.3830     0.1950 C.3   1 <1>   0.3430 
 13 C       -0.0440    -4.6790     0.8200 C.3   1 <1>   0.2630 
 14 C        2.4920     4.3920     1.3370 C.3   1 <1>  -0.2400 
 15 C       -2.7250    -5.8310    -0.2180 C.3   1 <1>   0.0960 
 16 N       -4.1360    -6.1280     0.0710 N.pl3 1 <1>   0.3140 
 17 N       -4.8600    -5.3700     0.9150 N.2   1 <1>  -0.7070 
 18 C       -4.8690    -7.1410    -0.4290 C.2   1 <1>  -0.3020 
 19 C       -6.0370    -5.9210     0.9310 C.2   1 <1>   0.1390 
 20 C       -6.1030    -7.0360     0.1060 C.2   1 <1>  -0.1500 
 21 H        1.2270    -2.2340     0.2360 H     1 <1>   0.0800 
 22 H        0.5370    -2.0190    -1.3860 H     1 <1>   0.0800 
 23 H        0.2610     2.0190     0.3250 H     1 <1>   0.1500 
 24 H        2.7110    -1.1080    -1.2490 H     1 <1>   0.1500 
 25 H       -1.7260    -1.9810    -0.3990 H     1 <1>   0.0800 
 26 H       -1.0560    -2.2380     1.1920 H     1 <1>   0.0800 
 27 H        4.4610     0.5080    -1.7280 H     1 <1>   0.1500 
 28 H       -0.7900    -4.1400    -1.0550 H     1 <1>   0.4500 
 29 H        4.1480     2.8760    -1.1960 H     1 <1>   0.1500 
 30 H        0.9420     4.3370    -0.1460 H     1 <1>   0.0800 
 31 H        2.5170     4.6880    -0.7890 H     1 <1>   0.0800 
 32 H       -3.1070    -3.7400    -0.3480 H     1 <1>   0.0800 
 33 H       -2.6530    -4.2720     1.2450 H     1 <1>   0.0800 
 34 H       -0.2670    -4.4850     1.8580 H     1 <1>   0.0800 
 35 H        0.9660    -4.3590     0.6210 H     1 <1>   0.0800 
 36 H       -0.1010    -5.7420     0.6510 H     1 <1>   0.0800 
 37 H        1.9540     3.8040     2.0590 H     1 <1>   0.0800 
 38 H        2.3500     5.4340     1.5620 H     1 <1>   0.0800 
 39 H        3.5390     4.1590     1.4140 H     1 <1>   0.0800 
 40 H       -2.1250    -6.5220     0.3430 H     1 <1>   0.0800 
 41 H       -2.5620    -5.9670    -1.2700 H     1 <1>   0.0800 
 42 H       -4.4890    -7.8700    -1.1220 H     1 <1>   0.1500 
 43 H       -6.8620    -5.5500     1.5190 H     1 <1>   0.1500 
 44 H       -6.9660    -7.6600    -0.0490 H     1 <1>   0.1500 
@<TRIPOS>BOND
  1   1   2  1   
  2   1   3  1   
  3   2   4  ar  
  4   2   5  ar  
  5   3   6  1   
  6   3  21  1   
  7   3  22  1   
  8   4   7  ar  
  9   4  23  1   
 10   5   8  ar  
 11   5  24  1   
 12   6   9  1   
 13   6  25  1   
 14   6  26  1   
 15   7  10  ar  
 16   7  11  1   
 17   8  10  ar  
 18   8  27  1   
 19   9  12  1   
 20   9  13  1   
 21   9  28  1   
 22  10  29  1   
 23  11  14  1   
 24  11  30  1   
 25  11  31  1   
 26  12  15  1   
 27  12  32  1   
 28  12  33  1   
 29  13  34  1   
 30  13  35  1   
 31  13  36  1   
 32  14  37  1   
 33  14  38  1   
 34  14  39  1   
 35  15  16  1   
 36  15  40  1   
 37  15  41  1   
 38  16  17  1   
 39  16  18  1   
 40  17  19  2   
 41  18  20  2   
 42  18  42  1   
 43  19  20  1   
 44  19  43  1   
 45  20  44  1   
@<TRIPOS>SUBSTRUCTURE
  1 ****   6 GROUP 4 **** **** 0

# MOE 2024.06 (io_trps.svl 2023.06)
