@<TRIPOS>MOLECULE
NONAME
40 42 1 0 0 
SMALL
USER_CHARGES


@<TRIPOS>ATOM
  1 S       -0.1600    -0.0090     1.5810 S.3   1 <1>  -0.0800 
  2 C       -1.2300     0.9750     0.5950 C.2   1 <1>  -0.1400 
  3 C       -1.4180    -1.2190     1.7940 C.2   1 <1>  -0.1100 
  4 C       -2.4310     0.3950     0.4760 C.2   1 <1>  -0.1810 
  5 C       -0.7920     2.2990    -0.0240 C.3   1 <1>   0.4600 
  6 C       -2.5470    -0.8600     1.1530 C.2   1 <1>  -0.1500 
  7 C       -3.5110     1.0810    -0.3290 C.3   1 <1>   0.0210 
  8 O       -1.8300     2.7750    -0.8590 O.3   1 <1>  -0.5600 
  9 C       -0.5290     3.3550     1.0610 C.3   1 <1>  -0.1600 
 10 C        0.4220     2.0950    -0.9520 C.3   1 <1>  -0.1600 
 11 C       -3.1670     2.5780    -0.4550 C.3   1 <1>   0.1200 
 12 C        0.2630     4.5310     0.4930 C.3   1 <1>   0.1400 
 13 C        1.7250     2.6220    -0.3490 C.3   1 <1>   0.1400 
 14 N        1.5940     4.0740    -0.0130 N.am  1 <1>  -0.6600 
 15 C        2.6650     4.9140    -0.1820 C.2   1 <1>   0.5690 
 16 O        3.7520     4.5030    -0.5140 O.2   1 <1>  -0.5700 
 17 C        2.5060     6.4120     0.0520 C.3   1 <1>  -0.0990 
 18 C        3.6970     7.2530    -0.4650 C.3   1 <1>  -0.1600 
 19 C        3.5230     8.7560    -0.2550 C.3   1 <1>   1.0200 
 20 F        2.4460     9.2260    -0.8700 F     1 <1>  -0.3400 
 21 F        4.5550     9.4510    -0.7100 F     1 <1>  -0.3400 
 22 F        3.3870     9.0710     1.0260 F     1 <1>  -0.3400 
 23 H       -1.1760    -2.0840     2.3850 H     1 <1>   0.1500 
 24 H       -3.4610    -1.4270     1.1260 H     1 <1>   0.1500 
 25 H       -4.4620     0.9740     0.1590 H     1 <1>   0.0800 
 26 H       -3.5750     0.6370    -1.3060 H     1 <1>   0.0800 
 27 H        0.0410     2.9220     1.8630 H     1 <1>   0.0800 
 28 H       -1.4520     3.6980     1.4850 H     1 <1>   0.0800 
 29 H        0.2620     2.6080    -1.8830 H     1 <1>   0.0800 
 30 H        0.5380     1.0510    -1.1770 H     1 <1>   0.0800 
 31 H       -3.3170     3.0730     0.4880 H     1 <1>   0.0800 
 32 H       -3.8010     3.0420    -1.1890 H     1 <1>   0.0800 
 33 H        0.3970     5.2690     1.2650 H     1 <1>   0.0800 
 34 H       -0.2890     4.9770    -0.3180 H     1 <1>   0.0800 
 35 H        2.5260     2.4750    -1.0540 H     1 <1>   0.0800 
 36 H        1.9680     2.0750     0.5460 H     1 <1>   0.0800 
 37 H        2.3880     6.5720     1.1080 H     1 <1>   0.0800 
 38 H        1.6090     6.7380    -0.4440 H     1 <1>   0.0800 
 39 H        3.8310     7.0740    -1.5160 H     1 <1>   0.0800 
 40 H        4.5960     6.9480     0.0390 H     1 <1>   0.0800 
@<TRIPOS>BOND
  1   1   2  1   
  2   1   3  1   
  3   2   4  2   
  4   2   5  1   
  5   3   6  2   
  6   3  23  1   
  7   4   6  1   
  8   4   7  1   
  9   5   8  1   
 10   5   9  1   
 11   5  10  1   
 12   6  24  1   
 13   7  11  1   
 14   7  25  1   
 15   7  26  1   
 16   8  11  1   
 17   9  12  1   
 18   9  27  1   
 19   9  28  1   
 20  10  13  1   
 21  10  29  1   
 22  10  30  1   
 23  11  31  1   
 24  11  32  1   
 25  12  14  1   
 26  12  33  1   
 27  12  34  1   
 28  13  14  1   
 29  13  35  1   
 30  13  36  1   
 31  14  15  am  
 32  15  16  2   
 33  15  17  1   
 34  17  18  1   
 35  17  37  1   
 36  17  38  1   
 37  18  19  1   
 38  18  39  1   
 39  18  40  1   
 40  19  20  1   
 41  19  21  1   
 42  19  22  1   
@<TRIPOS>SUBSTRUCTURE
  1 ****  12 GROUP 4 **** **** 0

# MOE 2024.06 (io_trps.svl 2023.06)
