@<TRIPOS>MOLECULE
NONAME
48 50 1 0 0 
SMALL
USER_CHARGES


@<TRIPOS>ATOM
  1 O        1.2910     0.5550     0.9370 O.3   1 <1>  -0.2800 
  2 C        1.5350     1.2190    -0.1790 C.2   1 <1>  -0.0400 
  3 C        1.3990    -0.7320     0.6750 C.2   1 <1>  -0.0100 
  4 C        1.8040     0.3530    -1.1850 C.2   1 <1>  -0.1500 
  5 C        1.4790     2.7430    -0.1280 C.3   1 <1>   0.6030 
  6 C        1.7140    -0.9260    -0.6220 C.2   1 <1>  -0.1500 
  7 N        0.0400     3.1880    -0.2160 N.4   1 <1>  -0.9590 
  8 C        2.3970     3.3370    -1.2350 C.3   1 <1>   0.2090 
  9 C       -0.1630     4.6490    -0.0880 C.3   1 <1>   0.3430 
 10 C       -0.8230     2.5730     0.8250 C.3   1 <1>   0.3430 
 11 N        2.5950     4.8330    -1.2100 N.pl3 1 <1>  -0.8690 
 12 C       -1.6310     4.8050     0.2850 C.3   1 <1>  -0.1600 
 13 C       -2.0620     3.4560     0.8660 C.3   1 <1>  -0.1600 
 14 C        3.2480     5.5140    -0.2560 C.ar  1 <1>   0.4100 
 15 N        3.4940     4.8850     0.8980 N.ar  1 <1>  -0.6200 
 16 C        3.6760     6.8280    -0.4680 C.ar  1 <1>  -0.1500 
 17 C        4.1930     5.5280     1.7930 C.ar  1 <1>   0.5210 
 18 C        4.3950     7.4780     0.4980 C.ar  1 <1>   0.2180 
 19 N        4.6500     6.7900     1.6330 N.ar  1 <1>  -0.1790 
 20 C        4.9360     8.9110     0.3860 C.3   1 <1>   0.0630 
 21 C        4.2940     9.7260    -0.7480 C.3   1 <1>  -0.2400 
 22 C        6.4610     8.9000     0.2020 C.3   1 <1>  -0.2400 
 23 H        1.2390    -1.4450     1.4670 H     1 <1>   0.1500 
 24 H        2.0470     0.5350    -2.2180 H     1 <1>   0.1500 
 25 H        1.8840     3.0430     0.8230 H     1 <1>   0.0800 
 26 H        1.8720    -1.8550    -1.1430 H     1 <1>   0.1500 
 27 H       -0.3310     2.8850    -1.1220 H     1 <1>   0.4500 
 28 H        2.0140     3.0500    -2.1980 H     1 <1>   0.0800 
 29 H        3.3670     2.8780    -1.1340 H     1 <1>   0.0800 
 30 H        0.0730     5.1680    -1.0030 H     1 <1>   0.0800 
 31 H        0.4550     5.0330     0.7080 H     1 <1>   0.0800 
 32 H       -0.3240     2.6040     1.7800 H     1 <1>   0.0800 
 33 H       -1.0670     1.5490     0.5880 H     1 <1>   0.0800 
 34 H        2.4660     5.2760    -2.1300 H     1 <1>   0.4000 
 35 H       -2.2090     5.0370    -0.5940 H     1 <1>   0.0800 
 36 H       -1.7560     5.6040     0.9950 H     1 <1>   0.0800 
 37 H       -2.4230     3.5500     1.8750 H     1 <1>   0.0800 
 38 H       -2.8400     3.0180     0.2650 H     1 <1>   0.0800 
 39 H        3.4360     7.2910    -1.4070 H     1 <1>   0.1500 
 40 H        4.4210     5.0250     2.7220 H     1 <1>   0.1500 
 41 H        5.1990     7.2250     2.3790 H     1 <1>   0.4570 
 42 H        4.7120     9.4300     1.3040 H     1 <1>   0.0800 
 43 H        4.5500     9.3240    -1.7130 H     1 <1>   0.0800 
 44 H        4.6440    10.7440    -0.7140 H     1 <1>   0.0800 
 45 H        3.2230     9.7450    -0.6470 H     1 <1>   0.0800 
 46 H        6.7300     8.3920    -0.7080 H     1 <1>   0.0800 
 47 H        6.9540     8.4140     1.0240 H     1 <1>   0.0800 
 48 H        6.8360     9.9080     0.1440 H     1 <1>   0.0800 
@<TRIPOS>BOND
  1   1   2  1   
  2   1   3  1   
  3   2   4  2   
  4   2   5  1   
  5   3   6  2   
  6   3  23  1   
  7   4   6  1   
  8   4  24  1   
  9   5   7  1   
 10   5   8  1   
 11   5  25  1   
 12   6  26  1   
 13   7   9  1   
 14   7  10  1   
 15   7  27  1   
 16   8  11  1   
 17   8  28  1   
 18   8  29  1   
 19   9  12  1   
 20   9  30  1   
 21   9  31  1   
 22  10  13  1   
 23  10  32  1   
 24  10  33  1   
 25  11  14  1   
 26  11  34  1   
 27  12  13  1   
 28  12  35  1   
 29  12  36  1   
 30  13  37  1   
 31  13  38  1   
 32  14  15  ar  
 33  14  16  ar  
 34  15  17  ar  
 35  16  18  ar  
 36  16  39  1   
 37  17  19  ar  
 38  17  40  1   
 39  18  19  ar  
 40  18  20  1   
 41  19  41  1   
 42  20  21  1   
 43  20  22  1   
 44  20  42  1   
 45  21  43  1   
 46  21  44  1   
 47  21  45  1   
 48  22  46  1   
 49  22  47  1   
 50  22  48  1   
@<TRIPOS>SUBSTRUCTURE
  1 ****  11 GROUP 4 **** **** 0

# MOE 2024.06 (io_trps.svl 2023.06)
