@<TRIPOS>MOLECULE
NONAME
40 41 1 0 0 
SMALL
USER_CHARGES


@<TRIPOS>ATOM
  1 F       -1.4500     2.4560     2.2310 F     1 <1>  -0.1900 
  2 C       -1.9380     2.4240     1.0190 C.ar  1 <1>   0.1900 
  3 C       -1.0990     2.6480    -0.0610 C.ar  1 <1>  -0.1440 
  4 C       -3.2910     2.1630     0.8780 C.ar  1 <1>  -0.1500 
  5 C       -1.6920     2.5990    -1.3130 C.ar  1 <1>   0.1900 
  6 C        0.3830     2.9360     0.1070 C.3   1 <1>   0.2840 
  7 C       -3.8460     2.1210    -0.3920 C.ar  1 <1>  -0.1500 
  8 F       -0.9590     2.8090    -2.3750 F     1 <1>  -0.1900 
  9 C       -3.0400     2.3410    -1.4990 C.ar  1 <1>  -0.1500 
 10 N        0.6080     4.3760    -0.1150 N.am  1 <1>  -0.7300 
 11 C        1.4370     5.1550     0.6220 C.2   1 <1>   0.5690 
 12 O        2.1270     4.6980     1.4990 O.2   1 <1>  -0.5700 
 13 C        1.4900     6.6540     0.3400 C.3   1 <1>  -0.0190 
 14 C        0.1070     7.3170     0.4980 C.3   1 <1>  -0.1600 
 15 C        2.1090     6.9630    -1.0460 C.3   1 <1>  -0.1600 
 16 C        0.1810     8.8530     0.3750 C.3   1 <1>   0.2000 
 17 C        1.7120     8.3430    -1.6070 C.3   1 <1>  -0.1600 
 18 O       -1.0180     9.2990    -0.2090 O.3   1 <1>  -0.5600 
 19 C        1.3790     9.3330    -0.4880 C.3   1 <1>   0.2000 
 20 C       -2.0960     9.4150     0.6680 C.3   1 <1>   0.0400 
 21 O        1.0620    10.5430    -1.0690 O.3   1 <1>  -0.6800 
 22 H       -3.8970     1.9960     1.7510 H     1 <1>   0.1500 
 23 H        0.9520     2.3740    -0.6120 H     1 <1>   0.0800 
 24 H        0.7220     2.6570     1.0910 H     1 <1>   0.0800 
 25 H       -4.8960     1.9190    -0.5180 H     1 <1>   0.1500 
 26 H       -3.4490     2.3120    -2.4930 H     1 <1>   0.1500 
 27 H        0.0630     4.7850    -0.8740 H     1 <1>   0.3700 
 28 H        2.1350     7.0830     1.0880 H     1 <1>   0.0800 
 29 H       -0.3020     7.0590     1.4590 H     1 <1>   0.0800 
 30 H       -0.5480     6.9320    -0.2630 H     1 <1>   0.0800 
 31 H        3.1800     6.9100    -0.9530 H     1 <1>   0.0800 
 32 H        1.8170     6.2140    -1.7620 H     1 <1>   0.0800 
 33 H        0.2820     9.2990     1.3500 H     1 <1>   0.0800 
 34 H        0.8410     8.2300    -2.2300 H     1 <1>   0.0800 
 35 H        2.5130     8.7300    -2.2130 H     1 <1>   0.0800 
 36 H        2.2490     9.4800     0.1280 H     1 <1>   0.0800 
 37 H       -2.9440     9.7700     0.1100 H     1 <1>   0.0800 
 38 H       -1.8510    10.1230     1.4410 H     1 <1>   0.0800 
 39 H       -2.3210     8.4520     1.0930 H     1 <1>   0.0800 
 40 H        0.0860    10.5310    -1.1950 H     1 <1>   0.4000 
@<TRIPOS>BOND
  1   1   2  1   
  2   2   3  ar  
  3   2   4  ar  
  4   3   5  ar  
  5   3   6  1   
  6   4   7  ar  
  7   4  22  1   
  8   5   8  1   
  9   5   9  ar  
 10   6  10  1   
 11   6  23  1   
 12   6  24  1   
 13   7   9  ar  
 14   7  25  1   
 15   9  26  1   
 16  10  11  am  
 17  10  27  1   
 18  11  12  2   
 19  11  13  1   
 20  13  14  1   
 21  13  15  1   
 22  13  28  1   
 23  14  16  1   
 24  14  29  1   
 25  14  30  1   
 26  15  17  1   
 27  15  31  1   
 28  15  32  1   
 29  16  18  1   
 30  16  19  1   
 31  16  33  1   
 32  17  19  1   
 33  17  34  1   
 34  17  35  1   
 35  18  20  1   
 36  19  21  1   
 37  19  36  1   
 38  20  37  1   
 39  20  38  1   
 40  20  39  1   
 41  21  40  1   
@<TRIPOS>SUBSTRUCTURE
  1 ****  10 GROUP 4 **** **** 0

# MOE 2024.06 (io_trps.svl 2023.06)
