@<TRIPOS>MOLECULE
NONAME
50 51 1 0 0 
SMALL
USER_CHARGES


@<TRIPOS>ATOM
  1 O        1.3480    -0.9260     1.8690 O.2   1 <1>  -0.5700 
  2 C        1.6440    -0.8830     0.6970 C.2   1 <1>   0.5690 
  3 N        2.2080     0.2270     0.1520 N.am  1 <1>  -0.7300 
  4 C        1.3410    -2.1330    -0.1730 C.3   1 <1>   0.4840 
  5 C        2.6300     1.4110     0.9250 C.3   1 <1>   0.2840 
  6 N        0.1640    -2.9330     0.3590 N.4   1 <1>  -0.9590 
  7 C        2.5940    -3.0160    -0.2450 C.3   1 <1>  -0.2400 
  8 C        3.7660     2.0570     0.1580 C.ar  1 <1>  -0.1430 
  9 C       -0.0610    -4.2500    -0.3300 C.3   1 <1>   0.3430 
 10 C       -1.0760    -2.0880     0.3780 C.3   1 <1>   0.2630 
 11 C        5.0720     1.6390     0.3640 C.ar  1 <1>  -0.1500 
 12 C        3.5090     3.0590    -0.7660 C.ar  1 <1>  -0.1500 
 13 C       -1.0810    -5.1330     0.3910 C.3   1 <1>   0.0210 
 14 C        6.1100     2.2160    -0.3470 C.ar  1 <1>  -0.1500 
 15 C        4.5470     3.6360    -1.4770 C.ar  1 <1>  -0.1500 
 16 C       -1.0840    -6.4840    -0.2910 C.2   1 <1>  -0.1810 
 17 C        5.8480     3.2140    -1.2680 C.ar  1 <1>  -0.1500 
 18 C       -0.2130    -7.5420    -0.0330 C.2   1 <1>   0.1080 
 19 C       -1.8930    -6.9350    -1.2770 C.2   1 <1>  -0.3320 
 20 N       -0.4440    -8.5590    -0.7960 N.2   1 <1>  -0.7070 
 21 C        0.8910    -7.5710     1.0010 C.3   1 <1>  -0.0590 
 22 N       -1.4870    -8.1920    -1.5580 N.pl3 1 <1>   0.3000 
 23 C       -3.0550    -6.2760    -2.0030 C.3   1 <1>  -0.0600 
 24 H        2.5350     0.2710    -0.8180 H     1 <1>   0.3700 
 25 H        1.1090    -1.7880    -1.1660 H     1 <1>   0.0800 
 26 H        2.9560     1.1210     1.9100 H     1 <1>   0.0800 
 27 H        1.8050     2.0960     1.0240 H     1 <1>   0.0800 
 28 H        0.4150    -3.1040     1.3480 H     1 <1>   0.4500 
 29 H        2.7930    -3.4740     0.7080 H     1 <1>   0.0800 
 30 H        3.4450    -2.4090    -0.5010 H     1 <1>   0.0800 
 31 H        2.5070    -3.7690    -1.0060 H     1 <1>   0.0800 
 32 H        0.8630    -4.8030    -0.3710 H     1 <1>   0.0800 
 33 H       -0.3900    -4.0880    -1.3430 H     1 <1>   0.0800 
 34 H       -1.3750    -1.8340    -0.6250 H     1 <1>   0.0800 
 35 H       -0.9020    -1.1760     0.9300 H     1 <1>   0.0800 
 36 H       -1.8850    -2.6140     0.8580 H     1 <1>   0.0800 
 37 H        5.2890     0.8640     1.0790 H     1 <1>   0.1500 
 38 H        2.5020     3.3990    -0.9370 H     1 <1>   0.1500 
 39 H       -2.0660    -4.7090     0.3340 H     1 <1>   0.0800 
 40 H       -0.8140    -5.2580     1.4240 H     1 <1>   0.0800 
 41 H        7.1220     1.8890    -0.1830 H     1 <1>   0.1500 
 42 H        4.3430     4.4150    -2.1920 H     1 <1>   0.1500 
 43 H        6.6550     3.6640    -1.8210 H     1 <1>   0.1500 
 44 H        1.6410    -6.8410     0.7660 H     1 <1>   0.0800 
 45 H        1.3510    -8.5430     1.0110 H     1 <1>   0.0800 
 46 H        0.4860    -7.3770     1.9770 H     1 <1>   0.0800 
 47 H       -1.8970    -8.8240    -2.2570 H     1 <1>   0.2700 
 48 H       -3.2190    -5.2760    -1.6470 H     1 <1>   0.0800 
 49 H       -3.9560    -6.8430    -1.8450 H     1 <1>   0.0800 
 50 H       -2.8560    -6.2340    -3.0600 H     1 <1>   0.0800 
@<TRIPOS>BOND
  1   1   2  2   
  2   2   3  am  
  3   2   4  1   
  4   3   5  1   
  5   3  24  1   
  6   4   6  1   
  7   4   7  1   
  8   4  25  1   
  9   5   8  1   
 10   5  26  1   
 11   5  27  1   
 12   6   9  1   
 13   6  10  1   
 14   6  28  1   
 15   7  29  1   
 16   7  30  1   
 17   7  31  1   
 18   8  11  ar  
 19   8  12  ar  
 20   9  13  1   
 21   9  32  1   
 22   9  33  1   
 23  10  34  1   
 24  10  35  1   
 25  10  36  1   
 26  11  14  ar  
 27  11  37  1   
 28  12  15  ar  
 29  12  38  1   
 30  13  16  1   
 31  13  39  1   
 32  13  40  1   
 33  14  17  ar  
 34  14  41  1   
 35  15  17  ar  
 36  15  42  1   
 37  16  18  1   
 38  16  19  2   
 39  17  43  1   
 40  18  20  2   
 41  18  21  1   
 42  19  22  1   
 43  19  23  1   
 44  20  22  1   
 45  21  44  1   
 46  21  45  1   
 47  21  46  1   
 48  22  47  1   
 49  23  48  1   
 50  23  49  1   
 51  23  50  1   
@<TRIPOS>SUBSTRUCTURE
  1 ****   4 GROUP 4 **** **** 0

# MOE 2024.06 (io_trps.svl 2023.06)
