@<TRIPOS>MOLECULE
NONAME
43 44 1 0 0 
SMALL
USER_CHARGES


@<TRIPOS>ATOM
  1 O       -0.3320    -0.0560     0.4840 O.2   1 <1>  -0.5700 
  2 C       -1.5170     0.0600     0.2810 C.2   1 <1>   0.5690 
  3 N       -2.1890     1.1890    -0.0670 N.am  1 <1>  -0.6600 
  4 C       -2.4460    -1.1110     0.4210 C.3   1 <1>  -0.0990 
  5 C       -1.6020     2.5530    -0.2210 C.3   1 <1>   0.3000 
  6 C       -3.6330     0.9130    -0.2570 C.3   1 <1>   0.1400 
  7 C       -3.7510    -0.6160    -0.2200 C.3   1 <1>  -0.0800 
  8 C       -2.6760     3.5920    -0.5730 C.3   1 <1>  -0.2400 
  9 C       -0.5670     2.5260    -1.3490 C.3   1 <1>  -0.2400 
 10 C       -0.9490     2.9710     1.1000 C.3   1 <1>  -0.2400 
 11 C       -5.0320    -1.0860     0.4880 C.3   1 <1>   0.1400 
 12 N       -5.1710    -2.5680     0.4130 N.am  1 <1>  -0.6600 
 13 C       -5.7260    -3.1830    -0.7140 C.2   1 <1>   0.5440 
 14 C       -4.8090    -3.3240     1.6470 C.3   1 <1>   0.0600 
 15 O       -5.8790    -2.4630    -1.6980 O.2   1 <1>  -0.5700 
 16 C       -6.0900    -4.5840    -0.7990 C.ar  1 <1>   0.3960 
 17 N       -6.5630    -5.2630     0.2840 N.ar  1 <1>  -0.6200 
 18 C       -5.9450    -5.2330    -2.0350 C.ar  1 <1>   0.1600 
 19 C       -6.8200    -6.5190     0.0380 C.ar  1 <1>   0.1600 
 20 N       -6.1930    -6.4940    -2.2910 N.ar  1 <1>  -0.6200 
 21 C       -6.6410    -7.1590    -1.2120 C.ar  1 <1>   0.1390 
 22 O       -6.8960    -8.3670    -1.3360 O.3   1 <1>  -0.8290 
 23 H       -2.5640    -1.3170     1.4660 H     1 <1>   0.0800 
 24 H       -2.0590    -1.9750    -0.0860 H     1 <1>   0.0800 
 25 H       -3.9800     1.2890    -1.2040 H     1 <1>   0.0800 
 26 H       -4.1880     1.3670     0.5460 H     1 <1>   0.0800 
 27 H       -3.7800    -0.9510    -1.2430 H     1 <1>   0.0800 
 28 H       -3.1350     3.3660    -1.5180 H     1 <1>   0.0800 
 29 H       -2.2290     4.5660    -0.6570 H     1 <1>   0.0800 
 30 H       -3.4270     3.6430     0.1940 H     1 <1>   0.0800 
 31 H       -1.0220     2.1900    -2.2630 H     1 <1>   0.0800 
 32 H        0.2480     1.8690    -1.1040 H     1 <1>   0.0800 
 33 H       -0.1620     3.5080    -1.5080 H     1 <1>   0.0800 
 34 H       -1.6670     2.9370     1.8980 H     1 <1>   0.0800 
 35 H       -0.5660     3.9720     1.0270 H     1 <1>   0.0800 
 36 H       -0.1250     2.3250     1.3430 H     1 <1>   0.0800 
 37 H       -5.8860    -0.6340     0.0130 H     1 <1>   0.0800 
 38 H       -5.0270    -0.7710     1.5170 H     1 <1>   0.0800 
 39 H       -4.1190    -2.7650     2.2510 H     1 <1>   0.0800 
 40 H       -4.3510    -4.2620     1.3830 H     1 <1>   0.0800 
 41 H       -5.6980    -3.5210     2.2210 H     1 <1>   0.0800 
 42 H       -5.5900    -4.6460    -2.8600 H     1 <1>   0.1500 
 43 H       -7.1980    -7.1470     0.8210 H     1 <1>   0.1500 
@<TRIPOS>BOND
  1   1   2  2   
  2   2   3  am  
  3   2   4  1   
  4   3   5  1   
  5   3   6  1   
  6   4   7  1   
  7   4  23  1   
  8   4  24  1   
  9   5   8  1   
 10   5   9  1   
 11   5  10  1   
 12   6   7  1   
 13   6  25  1   
 14   6  26  1   
 15   7  11  1   
 16   7  27  1   
 17   8  28  1   
 18   8  29  1   
 19   8  30  1   
 20   9  31  1   
 21   9  32  1   
 22   9  33  1   
 23  10  34  1   
 24  10  35  1   
 25  10  36  1   
 26  11  12  1   
 27  11  37  1   
 28  11  38  1   
 29  12  13  am  
 30  12  14  1   
 31  13  15  2   
 32  13  16  1   
 33  14  39  1   
 34  14  40  1   
 35  14  41  1   
 36  16  17  ar  
 37  16  18  ar  
 38  17  19  ar  
 39  18  20  ar  
 40  18  42  1   
 41  19  21  ar  
 42  19  43  1   
 43  20  21  ar  
 44  21  22  1   
@<TRIPOS>SUBSTRUCTURE
  1 ****  12 GROUP 4 **** **** 0

# MOE 2024.06 (io_trps.svl 2023.06)
