@<TRIPOS>MOLECULE
NONAME
59 63 1 0 0 
SMALL
USER_CHARGES


@<TRIPOS>ATOM
  1 O        0.3020     1.9380    -3.0400 O.2   1 <1>  -0.5700 
  2 C        0.4230     2.6670    -2.0820 C.2   1 <1>   0.6900 
  3 N       -0.6050     3.3090    -1.4570 N.am  1 <1>  -0.4200 
  4 N        1.6040     2.9210    -1.4840 N.am  1 <1>  -0.7300 
  5 C       -0.1320     3.9510    -0.3560 C.2   1 <1>   0.5690 
  6 C       -2.0230     2.9030    -1.5990 C.3   1 <1>   0.2010 
  7 C        1.3850     3.6980    -0.2570 C.3   1 <1>   0.3610 
  8 O       -0.8000     4.6040     0.4140 O.2   1 <1>  -0.5700 
  9 C       -2.4420     1.8600    -0.5520 C.2   1 <1>   0.5690 
 10 C        1.7640     2.8320     0.9460 C.3   1 <1>  -0.2400 
 11 C        2.2210     4.9780    -0.3290 C.3   1 <1>  -0.2400 
 12 O       -1.5900     1.1060    -0.1340 O.2   1 <1>  -0.5700 
 13 N       -3.7400     1.7780    -0.0990 N.am  1 <1>  -0.6600 
 14 C       -4.8640     2.6970    -0.4710 C.3   1 <1>   0.1400 
 15 C       -4.1390     0.7630     0.9200 C.3   1 <1>   0.1400 
 16 C       -5.3750     3.4610     0.7650 C.3   1 <1>   0.1430 
 17 C       -4.6680     1.4630     2.1790 C.3   1 <1>  -0.1600 
 18 C       -6.5120     4.3660     0.3290 C.ar  1 <1>   0.1670 
 19 C       -5.8030     2.4500     1.8510 C.3   1 <1>  -0.1600 
 20 C       -4.3300     4.4760     1.3040 C.3   1 <1>  -0.1600 
 21 N       -7.7080     3.9620    -0.0230 N.ar  1 <1>  -0.6200 
 22 C       -6.1390     5.6740     0.3190 C.ar  1 <1>  -0.1440 
 23 C       -4.7020     5.8560     0.7380 C.3   1 <1>  -0.0170 
 24 C       -8.5700     4.9250    -0.3790 C.ar  1 <1>   0.6200 
 25 C       -7.0760     6.6000    -0.0600 C.ar  1 <1>   0.1600 
 26 N       -8.2890     6.2360    -0.4080 N.ar  1 <1>  -0.6200 
 27 C       -9.9130     4.5130    -0.7670 C.ar  1 <1>   0.0000 
 28 C      -10.1670     3.2460    -1.3030 C.ar  1 <1>  -0.1500 
 29 C      -11.0130     5.3650    -0.6220 C.ar  1 <1>  -0.1500 
 30 C      -11.4410     2.8520    -1.6720 C.ar  1 <1>  -0.1500 
 31 C      -12.2890     4.9780    -0.9890 C.ar  1 <1>  -0.1500 
 32 C      -12.5060     3.7190    -1.5160 C.ar  1 <1>  -0.1500 
 33 H        2.3780     2.2670    -1.5790 H     1 <1>   0.3700 
 34 H       -2.1790     2.4900    -2.5780 H     1 <1>   0.0800 
 35 H       -2.6160     3.7890    -1.4990 H     1 <1>   0.0800 
 36 H        1.1840     1.9250     0.9490 H     1 <1>   0.0800 
 37 H        1.5530     3.3660     1.8550 H     1 <1>   0.0800 
 38 H        2.8100     2.5880     0.9260 H     1 <1>   0.0800 
 39 H        1.9610     5.5440    -1.2060 H     1 <1>   0.0800 
 40 H        3.2690     4.7430    -0.3550 H     1 <1>   0.0800 
 41 H        2.0260     5.5860     0.5360 H     1 <1>   0.0800 
 42 H       -5.6710     2.1050    -0.8690 H     1 <1>   0.0800 
 43 H       -4.5810     3.3940    -1.2350 H     1 <1>   0.0800 
 44 H       -3.3060     0.1330     1.1840 H     1 <1>   0.0800 
 45 H       -4.9070     0.1330     0.5030 H     1 <1>   0.0800 
 46 H       -3.8520     1.9800     2.6540 H     1 <1>   0.0800 
 47 H       -5.0260     0.7210     2.8700 H     1 <1>   0.0800 
 48 H       -6.6530     1.8930     1.4940 H     1 <1>   0.0800 
 49 H       -6.1130     2.9690     2.7410 H     1 <1>   0.0800 
 50 H       -3.3190     4.2050     1.0590 H     1 <1>   0.0800 
 51 H       -4.4030     4.5300     2.3760 H     1 <1>   0.0800 
 52 H       -4.0950     6.0900    -0.1200 H     1 <1>   0.0800 
 53 H       -4.5960     6.6280     1.4810 H     1 <1>   0.0800 
 54 H       -6.8310     7.6480    -0.0810 H     1 <1>   0.1500 
 55 H       -9.3520     2.5570    -1.4330 H     1 <1>   0.1500 
 56 H      -10.8640     6.3490    -0.2130 H     1 <1>   0.1500 
 57 H      -11.6020     1.8700    -2.0810 H     1 <1>   0.1500 
 58 H      -13.1130     5.6590    -0.8650 H     1 <1>   0.1500 
 59 H      -13.4980     3.4150    -1.8020 H     1 <1>   0.1500 
@<TRIPOS>BOND
  1   1   2  2   
  2   2   3  am  
  3   2   4  am  
  4   3   5  am  
  5   3   6  1   
  6   4   7  1   
  7   4  33  1   
  8   5   7  1   
  9   5   8  2   
 10   6   9  1   
 11   6  34  1   
 12   6  35  1   
 13   7  10  1   
 14   7  11  1   
 15   9  12  2   
 16   9  13  am  
 17  10  36  1   
 18  10  37  1   
 19  10  38  1   
 20  11  39  1   
 21  11  40  1   
 22  11  41  1   
 23  13  14  1   
 24  13  15  1   
 25  14  16  1   
 26  14  42  1   
 27  14  43  1   
 28  15  17  1   
 29  15  44  1   
 30  15  45  1   
 31  16  18  1   
 32  16  19  1   
 33  16  20  1   
 34  17  19  1   
 35  17  46  1   
 36  17  47  1   
 37  18  21  ar  
 38  18  22  ar  
 39  19  48  1   
 40  19  49  1   
 41  20  23  1   
 42  20  50  1   
 43  20  51  1   
 44  21  24  ar  
 45  22  23  1   
 46  22  25  ar  
 47  23  52  1   
 48  23  53  1   
 49  24  26  ar  
 50  24  27  1   
 51  25  26  ar  
 52  25  54  1   
 53  27  28  ar  
 54  27  29  ar  
 55  28  30  ar  
 56  28  55  1   
 57  29  31  ar  
 58  29  56  1   
 59  30  32  ar  
 60  30  57  1   
 61  31  32  ar  
 62  31  58  1   
 63  32  59  1   
@<TRIPOS>SUBSTRUCTURE
  1 ****  14 GROUP 4 **** **** 0

# MOE 2024.06 (io_trps.svl 2023.06)
