@<TRIPOS>MOLECULE
NONAME
25 25 1 0 0 
SMALL
USER_CHARGES


@<TRIPOS>ATOM
  1 O        0.2480    -0.3800    -0.0140 O.3   1 <1>  -0.8500 
  2 C        1.3790    -0.8620     0.1540 C.2   1 <1>  -0.1500 
  3 C        2.3530    -0.2230     0.9020 C.2   1 <1>  -0.1360 
  4 C        1.7160    -2.1120    -0.4270 C.2   1 <1>  -0.1500 
  5 C        3.6210    -0.7710     1.0680 C.2   1 <1>   0.6160 
  6 C        2.9480    -2.6630    -0.2790 C.2   1 <1>  -0.0290 
  7 O        4.5050    -0.1970     1.7360 O.2   1 <1>  -0.5700 
  8 N        3.9370    -1.9980     0.4590 N.am  1 <1>  -0.4690 
  9 C        3.2570    -4.0100    -0.9130 C.3   1 <1>  -0.1020 
 10 C        5.3440    -2.4950     0.5740 C.3   1 <1>   0.1400 
 11 C        6.2790    -1.7450    -0.3910 C.3   1 <1>   0.2000 
 12 O        5.7550    -1.8010    -1.6680 O.3   1 <1>  -0.6800 
 13 C        7.6790    -2.3470    -0.4470 C.3   1 <1>  -0.2400 
 14 H        2.1180     0.7140     1.3580 H     1 <1>   0.1500 
 15 H        0.9260    -2.5780    -0.9830 H     1 <1>   0.1500 
 16 H        3.4990    -4.7270    -0.1510 H     1 <1>   0.0800 
 17 H        4.0770    -3.9240    -1.6020 H     1 <1>   0.0800 
 18 H        2.4020    -4.3710    -1.4550 H     1 <1>   0.0800 
 19 H        5.3950    -3.5490     0.3790 H     1 <1>   0.0800 
 20 H        5.6880    -2.3480     1.5830 H     1 <1>   0.0800 
 21 H        6.3350    -0.7080    -0.1040 H     1 <1>   0.0800 
 22 H        4.8000    -1.5710    -1.6040 H     1 <1>   0.4000 
 23 H        7.6350    -3.3720    -0.7700 H     1 <1>   0.0800 
 24 H        8.1330    -2.3080     0.5260 H     1 <1>   0.0800 
 25 H        8.2900    -1.7850    -1.1300 H     1 <1>   0.0800 
@<TRIPOS>BOND
  1   1   2  1   
  2   2   3  2   
  3   2   4  1   
  4   3   5  1   
  5   3  14  1   
  6   4   6  2   
  7   4  15  1   
  8   5   7  2   
  9   5   8  am  
 10   6   8  1   
 11   6   9  1   
 12   8  10  1   
 13   9  16  1   
 14   9  17  1   
 15   9  18  1   
 16  10  11  1   
 17  10  19  1   
 18  10  20  1   
 19  11  12  1   
 20  11  13  1   
 21  11  21  1   
 22  12  22  1   
 23  13  23  1   
 24  13  24  1   
 25  13  25  1   
@<TRIPOS>SUBSTRUCTURE
  1 ****   8 GROUP 4 **** **** 0

# MOE 2024.06 (io_trps.svl 2023.06)
