@<TRIPOS>MOLECULE
NONAME
47 50 1 0 0 
SMALL
USER_CHARGES


@<TRIPOS>ATOM
  1 O        4.3150    -1.6170    -1.9690 O.2   1 <1>  -0.5700 
  2 C        3.3810    -1.6590    -1.1880 C.2   1 <1>   0.5440 
  3 N        3.1010    -0.4940    -0.5200 N.am  1 <1>  -0.6600 
  4 C        2.6820    -2.8950    -0.8860 C.ar  1 <1>   0.0860 
  5 C        3.5740    -0.4110     0.9070 C.3   1 <1>   0.2200 
  6 C        2.9570     0.7700    -1.3100 C.3   1 <1>   0.1400 
  7 C        3.2620    -4.1360    -1.1460 C.ar  1 <1>  -0.1500 
  8 C        1.4140    -2.9010    -0.3030 C.ar  1 <1>  -0.1500 
  9 C        2.8550     0.6770     1.7210 C.3   1 <1>   0.1200 
 10 C        5.1140    -0.2210     0.9670 C.3   1 <1>   0.3430 
 11 C        3.8110     1.9520    -0.8150 C.3   1 <1>  -0.0800 
 12 C        2.6210    -5.3140    -0.8160 C.ar  1 <1>  -0.1500 
 13 C        0.7730    -4.0800     0.0240 C.ar  1 <1>  -0.1500 
 14 O        3.5060     1.9040     1.5830 O.3   1 <1>  -0.5600 
 15 N        5.6950     0.2720    -0.3320 N.4   1 <1>  -0.9590 
 16 C        3.2110     2.6200     0.4320 C.3   1 <1>   0.1200 
 17 C        5.3250     1.6830    -0.6680 C.3   1 <1>   0.3430 
 18 C        1.3630    -5.3200    -0.2190 C.ar  1 <1>   0.0540 
 19 C        7.1660     0.0550    -0.4000 C.3   1 <1>   0.2630 
 20 C        0.7130    -6.5640     0.1350 C.2   1 <1>   0.2350 
 21 N        1.3600    -7.6670     0.4250 N.2   1 <1>  -0.7070 
 22 C       -0.6690    -6.7710     0.2200 C.2   1 <1>  -0.1500 
 23 N        0.4120    -8.5760     0.6990 N.pl3 1 <1>   0.3000 
 24 C       -0.8250    -8.0590     0.5830 C.2   1 <1>  -0.3020 
 25 H        3.3410    -1.3470     1.3850 H     1 <1>   0.0800 
 26 H        3.2100     0.5710    -2.3400 H     1 <1>   0.0800 
 27 H        1.9180     1.0560    -1.3010 H     1 <1>   0.0800 
 28 H        4.2320    -4.1790    -1.6120 H     1 <1>   0.1500 
 29 H        0.9190    -1.9660    -0.1030 H     1 <1>   0.1500 
 30 H        2.9030     0.4240     2.7660 H     1 <1>   0.0800 
 31 H        1.8180     0.7690     1.4440 H     1 <1>   0.0800 
 32 H        5.5510    -1.1760     1.2040 H     1 <1>   0.0800 
 33 H        5.3640     0.4570     1.7670 H     1 <1>   0.0800 
 34 H        3.7250     2.7030    -1.5800 H     1 <1>   0.0800 
 35 H        3.0970    -6.2590    -1.0210 H     1 <1>   0.1500 
 36 H       -0.2000    -4.0430     0.4810 H     1 <1>   0.1500 
 37 H        5.2420    -0.3290    -1.0600 H     1 <1>   0.4500 
 38 H        2.1420     2.7320     0.3520 H     1 <1>   0.0800 
 39 H        3.6370     3.6010     0.5610 H     1 <1>   0.0800 
 40 H        5.7250     2.3470     0.0810 H     1 <1>   0.0800 
 41 H        5.7940     1.9350    -1.6050 H     1 <1>   0.0800 
 42 H        7.6670     0.6460     0.3500 H     1 <1>   0.0800 
 43 H        7.5390     0.3360    -1.3710 H     1 <1>   0.0800 
 44 H        7.3970    -0.9850    -0.2360 H     1 <1>   0.0800 
 45 H       -1.4300    -6.0380     0.0260 H     1 <1>   0.1500 
 46 H        0.6390    -9.5430     0.9630 H     1 <1>   0.2700 
 47 H       -1.7210    -8.6260     0.7580 H     1 <1>   0.1500 
@<TRIPOS>BOND
  1   1   2  2   
  2   2   3  am  
  3   2   4  1   
  4   3   5  1   
  5   3   6  1   
  6   4   7  ar  
  7   4   8  ar  
  8   5   9  1   
  9   5  10  1   
 10   5  25  1   
 11   6  11  1   
 12   6  26  1   
 13   6  27  1   
 14   7  12  ar  
 15   7  28  1   
 16   8  13  ar  
 17   8  29  1   
 18   9  14  1   
 19   9  30  1   
 20   9  31  1   
 21  10  15  1   
 22  10  32  1   
 23  10  33  1   
 24  11  16  1   
 25  11  17  1   
 26  11  34  1   
 27  12  18  ar  
 28  12  35  1   
 29  13  18  ar  
 30  13  36  1   
 31  14  16  1   
 32  15  17  1   
 33  15  19  1   
 34  15  37  1   
 35  16  38  1   
 36  16  39  1   
 37  17  40  1   
 38  17  41  1   
 39  18  20  1   
 40  19  42  1   
 41  19  43  1   
 42  19  44  1   
 43  20  21  2   
 44  20  22  1   
 45  21  23  1   
 46  22  24  2   
 47  22  45  1   
 48  23  24  1   
 49  23  46  1   
 50  24  47  1   
@<TRIPOS>SUBSTRUCTURE
  1 ****   4 GROUP 4 **** **** 0

# MOE 2024.06 (io_trps.svl 2023.06)
