@<TRIPOS>MOLECULE
NONAME
43 44 1 0 0 
SMALL
USER_CHARGES


@<TRIPOS>ATOM
  1 O        2.3310    -1.3300     1.5060 O.co2 1 <1>  -0.9000 
  2 C        2.0050    -0.1350     1.4890 C.2   1 <1>   0.9060 
  3 O        1.5050     0.4180     2.4700 O.co2 1 <1>  -0.9000 
  4 C        2.3450     0.7080     0.2450 C.3   1 <1>  -0.1060 
  5 C        3.3810    -0.0740    -0.6100 C.3   1 <1>   0.2000 
  6 C        2.9810     2.0560     0.7090 C.3   1 <1>  -0.1600 
  7 C        1.0770     0.9450    -0.6360 C.3   1 <1>  -0.1600 
  8 O        4.4540    -0.4540     0.1960 O.3   1 <1>  -0.6800 
  9 C        3.9610     0.7990    -1.7270 C.3   1 <1>   0.3430 
 10 C        3.6860     2.8400    -0.3960 C.3   1 <1>   0.3430 
 11 C       -0.1070     1.6410     0.0570 C.3   1 <1>  -0.1600 
 12 N        4.6570     1.9290    -1.0590 N.4   1 <1>  -0.9590 
 13 C       -1.2890     1.7980    -0.9050 C.3   1 <1>  -0.2400 
 14 C        5.6880     2.5900    -1.8720 C.3   1 <1>   0.5230 
 15 C        6.5040     3.4590    -0.9500 C.2   1 <1>  -0.3320 
 16 N        7.2810     3.0020     0.0610 N.pl3 1 <1>   0.3140 
 17 C        6.6180     4.8060    -0.9550 C.2   1 <1>  -0.1500 
 18 N        7.8730     4.0160     0.7040 N.2   1 <1>  -0.7070 
 19 C        7.5130     1.6150     0.5060 C.3   1 <1>   0.0160 
 20 C        7.4810     5.0900     0.0950 C.2   1 <1>   0.1390 
 21 H        2.9390    -0.9720    -1.0110 H     1 <1>   0.0800 
 22 H        3.7040     1.8470     1.4800 H     1 <1>   0.0800 
 23 H        2.2410     2.6790     1.1760 H     1 <1>   0.0800 
 24 H        1.3270     1.5180    -1.5080 H     1 <1>   0.0800 
 25 H        0.7270    -0.0170    -0.9720 H     1 <1>   0.0800 
 26 H        4.0330    -1.0130     0.9170 H     1 <1>   0.4000 
 27 H        3.1810     1.1560    -2.3780 H     1 <1>   0.0800 
 28 H        4.6540     0.2080    -2.3010 H     1 <1>   0.0800 
 29 H        4.1990     3.6820     0.0400 H     1 <1>   0.0800 
 30 H        2.9650     3.2050    -1.1100 H     1 <1>   0.0800 
 31 H       -0.4290     1.0590     0.9060 H     1 <1>   0.0800 
 32 H        0.1740     2.6140     0.4180 H     1 <1>   0.0800 
 33 H        5.1260     1.4430    -0.2770 H     1 <1>   0.4500 
 34 H       -1.6190     0.8340    -1.2510 H     1 <1>   0.0800 
 35 H       -1.0150     2.4000    -1.7520 H     1 <1>   0.0800 
 36 H       -2.1090     2.2740    -0.3970 H     1 <1>   0.0800 
 37 H        6.3250     1.8560    -2.3380 H     1 <1>   0.0800 
 38 H        5.2280     3.1910    -2.6400 H     1 <1>   0.0800 
 39 H        6.1670     5.5390    -1.6010 H     1 <1>   0.1500 
 40 H        7.5290     0.9530    -0.3380 H     1 <1>   0.0800 
 41 H        6.7360     1.3250     1.1900 H     1 <1>   0.0800 
 42 H        8.4600     1.5670     1.0120 H     1 <1>   0.0800 
 43 H        7.7960     6.0810     0.3810 H     1 <1>   0.1500 
@<TRIPOS>BOND
  1   1   2  ar  
  2   2   3  ar  
  3   2   4  1   
  4   4   5  1   
  5   4   6  1   
  6   4   7  1   
  7   5   8  1   
  8   5   9  1   
  9   5  21  1   
 10   6  10  1   
 11   6  22  1   
 12   6  23  1   
 13   7  11  1   
 14   7  24  1   
 15   7  25  1   
 16   8  26  1   
 17   9  12  1   
 18   9  27  1   
 19   9  28  1   
 20  10  12  1   
 21  10  29  1   
 22  10  30  1   
 23  11  13  1   
 24  11  31  1   
 25  11  32  1   
 26  12  14  1   
 27  12  33  1   
 28  13  34  1   
 29  13  35  1   
 30  13  36  1   
 31  14  15  1   
 32  14  37  1   
 33  14  38  1   
 34  15  16  1   
 35  15  17  2   
 36  16  18  1   
 37  16  19  1   
 38  17  20  1   
 39  17  39  1   
 40  18  20  2   
 41  19  40  1   
 42  19  41  1   
 43  19  42  1   
 44  20  43  1   
@<TRIPOS>SUBSTRUCTURE
  1 ****  10 GROUP 4 **** **** 0

# MOE 2024.06 (io_trps.svl 2023.06)
