@<TRIPOS>MOLECULE
NONAME
46 47 1 0 0 
SMALL
USER_CHARGES


@<TRIPOS>ATOM
  1 S       -2.1380     0.4570    -0.6960 S.3   1 <1>  -0.3320 
  2 C       -1.1590     1.9510    -0.4440 C.ar  1 <1>   0.1020 
  3 C       -1.2840    -0.9520     0.1750 C.3   1 <1>   0.2110 
  4 C        0.1080     1.9390     0.1170 C.ar  1 <1>  -0.1500 
  5 C       -1.7370     3.1400    -0.8490 C.ar  1 <1>  -0.1500 
  6 C       -1.7270    -2.3290    -0.3590 C.2   1 <1>   0.5690 
  7 C       -1.4470    -0.7790     1.6950 C.3   1 <1>  -0.2400 
  8 C        0.7900     3.1330     0.2790 C.ar  1 <1>  -0.1500 
  9 C       -1.0500     4.3290    -0.6850 C.ar  1 <1>  -0.1500 
 10 O       -0.8190    -3.0700    -0.6640 O.2   1 <1>  -0.5700 
 11 N       -3.0370    -2.7480    -0.4720 N.am  1 <1>  -0.6600 
 12 C        0.2150     4.3310    -0.1180 C.ar  1 <1>  -0.1430 
 13 C       -3.3210    -4.1240    -1.0100 C.3   1 <1>   0.3210 
 14 C       -4.2500    -1.9500    -0.0710 C.3   1 <1>   0.1400 
 15 C        0.9690     5.6380     0.0610 C.3   1 <1>  -0.0970 
 16 C       -4.2490    -4.9200    -0.0940 C.2   1 <1>   0.0460 
 17 C       -5.1190    -1.4840    -1.2540 C.3   1 <1>   0.1200 
 18 N       -5.5940    -4.8750    -0.2370 N.2   1 <1>  -0.5650 
 19 C       -3.9040    -5.7370     0.9290 C.2   1 <1>  -0.3320 
 20 O       -5.7180    -2.5480    -1.9180 O.3   1 <1>  -0.6800 
 21 C       -6.0300    -5.6640     0.6890 C.2   1 <1>   0.0360 
 22 N       -5.0530    -6.2210     1.4330 N.pl3 1 <1>   0.0330 
 23 C       -2.5350    -6.0990     1.4820 C.3   1 <1>  -0.0600 
 24 H       -0.2460    -0.8500    -0.0810 H     1 <1>   0.0800 
 25 H        0.5790     1.0290     0.4280 H     1 <1>   0.1500 
 26 H       -2.7180     3.1330    -1.2890 H     1 <1>   0.1500 
 27 H       -2.4720    -0.8810     1.9940 H     1 <1>   0.0800 
 28 H       -1.0940     0.1870     2.0050 H     1 <1>   0.0800 
 29 H       -0.8720    -1.5320     2.2030 H     1 <1>   0.0800 
 30 H        1.7750     3.1270     0.7140 H     1 <1>   0.1500 
 31 H       -1.5030     5.2520    -1.0020 H     1 <1>   0.1500 
 32 H       -2.4120    -4.6850    -1.1240 H     1 <1>   0.0800 
 33 H       -3.7560    -4.0470    -1.9900 H     1 <1>   0.0800 
 34 H       -3.9540    -1.0750     0.4670 H     1 <1>   0.0800 
 35 H       -4.8550    -2.5180     0.6130 H     1 <1>   0.0800 
 36 H        1.6300     5.5790     0.9060 H     1 <1>   0.0800 
 37 H        0.2820     6.4480     0.2250 H     1 <1>   0.0800 
 38 H        1.5480     5.8470    -0.8200 H     1 <1>   0.0800 
 39 H       -4.5310    -0.9310    -1.9650 H     1 <1>   0.0800 
 40 H       -5.9080    -0.8500    -0.8910 H     1 <1>   0.0800 
 41 H       -5.8030    -3.3320    -1.3140 H     1 <1>   0.4000 
 42 H       -7.0720    -5.8720     0.8660 H     1 <1>   0.1500 
 43 H       -5.1680    -6.8730     2.2140 H     1 <1>   0.2700 
 44 H       -1.7630    -5.5560     0.9670 H     1 <1>   0.0800 
 45 H       -2.3510    -7.1520     1.3610 H     1 <1>   0.0800 
 46 H       -2.4800    -5.8510     2.5270 H     1 <1>   0.0800 
@<TRIPOS>BOND
  1   1   2  1   
  2   1   3  1   
  3   2   4  ar  
  4   2   5  ar  
  5   3   6  1   
  6   3   7  1   
  7   3  24  1   
  8   4   8  ar  
  9   4  25  1   
 10   5   9  ar  
 11   5  26  1   
 12   6  10  2   
 13   6  11  am  
 14   7  27  1   
 15   7  28  1   
 16   7  29  1   
 17   8  12  ar  
 18   8  30  1   
 19   9  12  ar  
 20   9  31  1   
 21  11  13  1   
 22  11  14  1   
 23  12  15  1   
 24  13  16  1   
 25  13  32  1   
 26  13  33  1   
 27  14  17  1   
 28  14  34  1   
 29  14  35  1   
 30  15  36  1   
 31  15  37  1   
 32  15  38  1   
 33  16  18  1   
 34  16  19  2   
 35  17  20  1   
 36  17  39  1   
 37  17  40  1   
 38  18  21  2   
 39  19  22  1   
 40  19  23  1   
 41  20  41  1   
 42  21  22  1   
 43  21  42  1   
 44  22  43  1   
 45  23  44  1   
 46  23  45  1   
 47  23  46  1   
@<TRIPOS>SUBSTRUCTURE
  1 ****   3 GROUP 4 **** **** 0

# MOE 2024.06 (io_trps.svl 2023.06)
