@<TRIPOS>MOLECULE
NONAME
46 48 1 0 0 
SMALL
USER_CHARGES


@<TRIPOS>ATOM
  1 S        0.4360     0.3210    -0.6990 S.o2  1 <1>   1.4470 
  2 O        0.3070     0.4560    -2.1280 O.2   1 <1>  -0.6500 
  3 O       -0.6600    -0.0520     0.1560 O.2   1 <1>  -0.6500 
  4 N        1.0120     1.8370    -0.1250 N.am  1 <1>  -0.7300 
  5 C        1.9570    -0.5090    -0.2560 C.ar  1 <1>  -0.0090 
  6 C        2.3030     1.7430     0.2840 C.2   1 <1>   0.7200 
  7 C        0.3050     3.0710    -0.5340 C.3   1 <1>   0.1960 
  8 C        2.8550     0.4060     0.2590 C.ar  1 <1>   0.0860 
  9 C        2.2940    -1.8480    -0.3690 C.ar  1 <1>  -0.1500 
 10 O        2.9240     2.7270     0.6320 O.2   1 <1>  -0.5700 
 11 C        0.0240     3.9740     0.6720 C.3   1 <1>  -0.0990 
 12 C        4.1140    -0.0230     0.6710 C.ar  1 <1>  -0.1500 
 13 C        3.5480    -2.2710     0.0410 C.ar  1 <1>  -0.1500 
 14 C        0.6570     5.3320     0.4750 C.2   1 <1>   0.5690 
 15 C        4.4550    -1.3600     0.5600 C.ar  1 <1>  -0.1500 
 16 O       -0.0690     6.2740     0.2720 O.2   1 <1>  -0.5700 
 17 N        2.0190     5.4080     0.5110 N.am  1 <1>  -0.4940 
 18 C        2.8630     6.5250     0.3000 C.2   1 <1>  -0.0880 
 19 N        4.2120     6.4640     0.1380 N.pl3 1 <1>   0.3140 
 20 C        2.5360     7.8350     0.2100 C.2   1 <1>  -0.1500 
 21 N        4.7470     7.6910    -0.0490 N.2   1 <1>  -0.7070 
 22 C        5.0620     5.2560     0.1200 C.3   1 <1>   0.0960 
 23 C        3.7360     8.4990    -0.0040 C.2   1 <1>   0.1080 
 24 C        5.0070     4.5670    -1.2520 C.3   1 <1>  -0.1600 
 25 C        3.8860     9.9920    -0.1700 C.3   1 <1>  -0.0590 
 26 C        5.8760     3.3040    -1.2790 C.3   1 <1>  -0.2400 
 27 H       -0.6310     2.8080    -1.0000 H     1 <1>   0.0800 
 28 H        0.8970     3.5870    -1.2730 H     1 <1>   0.0800 
 29 H        1.5870    -2.5550    -0.7730 H     1 <1>   0.1500 
 30 H        0.3880     3.5420     1.5860 H     1 <1>   0.0800 
 31 H       -1.0380     4.1060     0.7700 H     1 <1>   0.0800 
 32 H        4.8150     0.6870     1.0750 H     1 <1>   0.1500 
 33 H        3.8200    -3.3110    -0.0440 H     1 <1>   0.1500 
 34 H        5.4290    -1.6980     0.8770 H     1 <1>   0.1500 
 35 H        2.4940     4.5070     0.6630 H     1 <1>   0.3700 
 36 H        1.5600     8.2790     0.2850 H     1 <1>   0.1500 
 37 H        4.7300     4.5920     0.8950 H     1 <1>   0.0800 
 38 H        6.0710     5.5570     0.3390 H     1 <1>   0.0800 
 39 H        5.3560     5.2540    -2.0040 H     1 <1>   0.0800 
 40 H        3.9900     4.3010    -1.4820 H     1 <1>   0.0800 
 41 H        2.9290    10.4750    -0.1050 H     1 <1>   0.0800 
 42 H        4.3240    10.2030    -1.1280 H     1 <1>   0.0800 
 43 H        4.5290    10.3750     0.6000 H     1 <1>   0.0800 
 44 H        6.9050     3.5530    -1.0830 H     1 <1>   0.0800 
 45 H        5.8170     2.8390    -2.2480 H     1 <1>   0.0800 
 46 H        5.5410     2.5990    -0.5400 H     1 <1>   0.0800 
@<TRIPOS>BOND
  1   1   2  2   
  2   1   3  2   
  3   1   4  am  
  4   1   5  1   
  5   4   6  am  
  6   4   7  1   
  7   5   8  ar  
  8   5   9  ar  
  9   6   8  1   
 10   6  10  2   
 11   7  11  1   
 12   7  27  1   
 13   7  28  1   
 14   8  12  ar  
 15   9  13  ar  
 16   9  29  1   
 17  11  14  1   
 18  11  30  1   
 19  11  31  1   
 20  12  15  ar  
 21  12  32  1   
 22  13  15  ar  
 23  13  33  1   
 24  14  16  2   
 25  14  17  am  
 26  15  34  1   
 27  17  18  1   
 28  17  35  1   
 29  18  19  1   
 30  18  20  2   
 31  19  21  1   
 32  19  22  1   
 33  20  23  1   
 34  20  36  1   
 35  21  23  2   
 36  22  24  1   
 37  22  37  1   
 38  22  38  1   
 39  23  25  1   
 40  24  26  1   
 41  24  39  1   
 42  24  40  1   
 43  25  41  1   
 44  25  42  1   
 45  25  43  1   
 46  26  44  1   
 47  26  45  1   
 48  26  46  1   
@<TRIPOS>SUBSTRUCTURE
  1 ****  10 GROUP 4 **** **** 0

# MOE 2024.06 (io_trps.svl 2023.06)
