@<TRIPOS>MOLECULE
NONAME
48 50 1 0 0 
SMALL
USER_CHARGES


@<TRIPOS>ATOM
  1 O       -0.2080     1.1300    -1.1200 O.2   1 <1>  -0.5700 
  2 C       -0.4460     2.3160    -1.1080 C.2   1 <1>   0.5690 
  3 N       -1.2140     2.9270    -0.1540 N.am  1 <1>  -0.5090 
  4 C        0.1490     3.1860    -2.2070 C.3   1 <1>   0.1810 
  5 C       -1.4490     4.4070    -0.1940 C.3   1 <1>   0.3640 
  6 C       -1.6350     2.2250     1.0840 C.3   1 <1>   0.0490 
  7 O        0.5770     4.4140    -1.6790 O.3   1 <1>  -0.5600 
  8 C       -2.8740     4.7130    -0.6550 C.ar  1 <1>  -0.1440 
  9 C       -0.4500     5.2020    -1.0890 C.3   1 <1>   0.2610 
 10 C       -2.4910     1.0050     0.9560 C.3   1 <1>  -0.2000 
 11 C       -3.0640     2.2560     1.5360 C.3   1 <1>  -0.2000 
 12 C       -3.5330     3.9270    -1.5940 C.ar  1 <1>   0.1600 
 13 C       -3.5360     5.8130    -0.1420 C.ar  1 <1>  -0.1500 
 14 C        0.1610     6.3370    -0.2630 C.2   1 <1>   0.5690 
 15 N       -4.7520     4.1520    -2.0530 N.ar  1 <1>  -0.6200 
 16 C       -4.8100     6.0570    -0.6050 C.ar  1 <1>  -0.1500 
 17 O       -0.5670     7.1690     0.2230 O.2   1 <1>  -0.5700 
 18 N        1.5080     6.3820    -0.0870 N.am  1 <1>  -0.7300 
 19 C       -5.3640     5.2090    -1.5470 C.ar  1 <1>   0.1600 
 20 C        2.2460     7.3890     0.7150 C.3   1 <1>   0.1400 
 21 C        2.5090     8.6400    -0.1200 C.3   1 <1>   0.1200 
 22 O        3.3440     9.4850     0.6060 O.3   1 <1>  -0.5600 
 23 C        3.6120    10.6950    -0.0290 C.3   1 <1>   0.1200 
 24 C        4.5000    11.5350     0.8880 C.3   1 <1>   0.1200 
 25 O        4.8760    12.6990     0.2300 O.3   1 <1>  -0.6800 
 26 H       -0.5770     3.3670    -2.9790 H     1 <1>   0.0800 
 27 H        1.0040     2.6930    -2.6330 H     1 <1>   0.0800 
 28 H       -1.3530     4.7670     0.8170 H     1 <1>   0.0800 
 29 H       -0.8590     2.2140     1.8320 H     1 <1>   0.1000 
 30 H       -0.9910     5.6590    -1.8980 H     1 <1>   0.0800 
 31 H       -2.7970     0.6940    -0.0280 H     1 <1>   0.1000 
 32 H       -2.2990     0.1730     1.6100 H     1 <1>   0.1000 
 33 H       -3.2750     2.2690     2.5900 H     1 <1>   0.1000 
 34 H       -3.8240     2.7560     0.9630 H     1 <1>   0.1000 
 35 H       -3.0390     3.0580    -1.9940 H     1 <1>   0.1500 
 36 H       -3.0830     6.4650     0.5870 H     1 <1>   0.1500 
 37 H       -5.3710     6.8990    -0.2410 H     1 <1>   0.1500 
 38 H        2.0670     5.6640    -0.5630 H     1 <1>   0.3700 
 39 H       -6.3600     5.4110    -1.9030 H     1 <1>   0.1500 
 40 H        1.6610     7.6570     1.5790 H     1 <1>   0.0800 
 41 H        3.1800     6.9660     1.0420 H     1 <1>   0.0800 
 42 H        1.5820     9.1510    -0.3200 H     1 <1>   0.0800 
 43 H        3.0030     8.3810    -1.0400 H     1 <1>   0.0800 
 44 H        4.1170    10.4870    -0.9570 H     1 <1>   0.0800 
 45 H        2.6820    11.2060    -0.2100 H     1 <1>   0.0800 
 46 H        5.3910    10.9960     1.1590 H     1 <1>   0.0800 
 47 H        3.9580    11.8160     1.7750 H     1 <1>   0.0800 
 48 H        5.5030    12.5010    -0.4920 H     1 <1>   0.4000 
@<TRIPOS>BOND
  1   1   2  2   
  2   2   3  am  
  3   2   4  1   
  4   3   5  1   
  5   3   6  1   
  6   4   7  1   
  7   4  26  1   
  8   4  27  1   
  9   5   8  1   
 10   5   9  1   
 11   5  28  1   
 12   6  10  1   
 13   6  11  1   
 14   6  29  1   
 15   7   9  1   
 16   8  12  ar  
 17   8  13  ar  
 18   9  14  1   
 19   9  30  1   
 20  10  11  1   
 21  10  31  1   
 22  10  32  1   
 23  11  33  1   
 24  11  34  1   
 25  12  15  ar  
 26  12  35  1   
 27  13  16  ar  
 28  13  36  1   
 29  14  17  2   
 30  14  18  am  
 31  15  19  ar  
 32  16  19  ar  
 33  16  37  1   
 34  18  20  1   
 35  18  38  1   
 36  19  39  1   
 37  20  21  1   
 38  20  40  1   
 39  20  41  1   
 40  21  22  1   
 41  21  42  1   
 42  21  43  1   
 43  22  23  1   
 44  23  24  1   
 45  23  44  1   
 46  23  45  1   
 47  24  25  1   
 48  24  46  1   
 49  24  47  1   
 50  25  48  1   
@<TRIPOS>SUBSTRUCTURE
  1 ****   9 GROUP 4 **** **** 0

# MOE 2024.06 (io_trps.svl 2023.06)
