@<TRIPOS>MOLECULE
NONAME
52 53 1 0 0 
SMALL
USER_CHARGES


@<TRIPOS>ATOM
  1 O       -1.2730     0.9760    -1.6800 O.2   1 <1>  -0.5700 
  2 C       -2.0870     1.0530    -0.7920 C.2   1 <1>   0.5690 
  3 N       -2.8610    -0.0060    -0.4570 N.am  1 <1>  -0.7300 
  4 C       -2.2650     2.3560    -0.0120 C.3   1 <1>  -0.0190 
  5 C       -2.8230    -1.3080    -1.1360 C.3   1 <1>   0.2840 
  6 C       -1.8810     3.6060    -0.8310 C.3   1 <1>  -0.1600 
  7 C       -1.4800     2.3140     1.3200 C.3   1 <1>  -0.1600 
  8 C       -4.0460    -2.0870    -0.6910 C.ar  1 <1>  -0.1440 
  9 C       -2.2130     4.9170    -0.0850 C.3   1 <1>   0.2000 
 10 C       -1.2130     3.7060     1.9290 C.3   1 <1>  -0.1600 
 11 C       -3.9750    -2.9590     0.3810 C.ar  1 <1>  -0.1500 
 12 C       -5.2550    -1.9230    -1.3430 C.ar  1 <1>  -0.1500 
 13 O       -1.2430     5.8790    -0.4190 O.3   1 <1>  -0.5600 
 14 C       -2.2410     4.7380     1.4560 C.3   1 <1>   0.2000 
 15 C       -5.0980    -3.6540     0.7910 C.ar  1 <1>  -0.1500 
 16 C       -6.3770    -2.6210    -0.9300 C.ar  1 <1>  -0.1500 
 17 C       -1.3910     6.4640    -1.6760 C.3   1 <1>   0.0400 
 18 O       -1.9450     5.9430     2.0590 O.3   1 <1>  -0.6800 
 19 C       -6.3220    -3.5010     0.1480 C.ar  1 <1>  -0.1430 
 20 C       -7.5470    -4.3000     0.6460 C.3   1 <1>   0.1430 
 21 C       -7.2550    -5.8040     0.5440 C.3   1 <1>  -0.2400 
 22 C       -7.8390    -3.9340     2.1090 C.3   1 <1>  -0.2400 
 23 C       -8.8240    -4.0190    -0.1650 C.3   1 <1>  -0.2400 
 24 H       -3.5540     0.0520     0.2900 H     1 <1>   0.3700 
 25 H       -3.3130     2.4380     0.2170 H     1 <1>   0.0800 
 26 H       -2.8300    -1.1650    -2.2030 H     1 <1>   0.0800 
 27 H       -1.9210    -1.8290    -0.8660 H     1 <1>   0.0800 
 28 H       -2.4000     3.5910    -1.7730 H     1 <1>   0.0800 
 29 H       -0.8230     3.5640    -1.0310 H     1 <1>   0.0800 
 30 H       -2.0310     1.7150     2.0250 H     1 <1>   0.0800 
 31 H       -0.5310     1.8300     1.1610 H     1 <1>   0.0800 
 32 H       -3.1790     5.2820    -0.3890 H     1 <1>   0.0800 
 33 H       -0.2360     4.0370     1.6210 H     1 <1>   0.0800 
 34 H       -1.2250     3.6410     3.0030 H     1 <1>   0.0800 
 35 H       -3.0450    -3.1010     0.9040 H     1 <1>   0.1500 
 36 H       -5.3300    -1.2470    -2.1770 H     1 <1>   0.1500 
 37 H       -3.2220     4.4400     1.7810 H     1 <1>   0.0800 
 38 H       -5.0060    -4.3230     1.6270 H     1 <1>   0.1500 
 39 H       -7.2880    -2.4560    -1.4730 H     1 <1>   0.1500 
 40 H       -0.6120     7.1940    -1.7980 H     1 <1>   0.0800 
 41 H       -2.3510     6.9470    -1.7330 H     1 <1>   0.0800 
 42 H       -1.2980     5.7100    -2.4380 H     1 <1>   0.0800 
 43 H       -1.3340     6.4060     1.4410 H     1 <1>   0.4000 
 44 H       -8.1100    -6.3790     0.8520 H     1 <1>   0.0800 
 45 H       -6.4250    -6.0820     1.1670 H     1 <1>   0.0800 
 46 H       -7.0160    -6.0640    -0.4720 H     1 <1>   0.0800 
 47 H       -8.7110    -4.4520     2.4640 H     1 <1>   0.0800 
 48 H       -8.0090    -2.8760     2.1950 H     1 <1>   0.0800 
 49 H       -7.0140    -4.1950     2.7460 H     1 <1>   0.0800 
 50 H       -9.6490    -4.5930     0.2180 H     1 <1>   0.0800 
 51 H       -8.6830    -4.2870    -1.1960 H     1 <1>   0.0800 
 52 H       -9.0880    -2.9780    -0.1050 H     1 <1>   0.0800 
@<TRIPOS>BOND
  1   1   2  2   
  2   2   3  am  
  3   2   4  1   
  4   3   5  1   
  5   3  24  1   
  6   4   6  1   
  7   4   7  1   
  8   4  25  1   
  9   5   8  1   
 10   5  26  1   
 11   5  27  1   
 12   6   9  1   
 13   6  28  1   
 14   6  29  1   
 15   7  10  1   
 16   7  30  1   
 17   7  31  1   
 18   8  11  ar  
 19   8  12  ar  
 20   9  13  1   
 21   9  14  1   
 22   9  32  1   
 23  10  14  1   
 24  10  33  1   
 25  10  34  1   
 26  11  15  ar  
 27  11  35  1   
 28  12  16  ar  
 29  12  36  1   
 30  13  17  1   
 31  14  18  1   
 32  14  37  1   
 33  15  19  ar  
 34  15  38  1   
 35  16  19  ar  
 36  16  39  1   
 37  17  40  1   
 38  17  41  1   
 39  17  42  1   
 40  18  43  1   
 41  19  20  1   
 42  20  21  1   
 43  20  22  1   
 44  20  23  1   
 45  21  44  1   
 46  21  45  1   
 47  21  46  1   
 48  22  47  1   
 49  22  48  1   
 50  22  49  1   
 51  23  50  1   
 52  23  51  1   
 53  23  52  1   
@<TRIPOS>SUBSTRUCTURE
  1 ****   3 GROUP 4 **** **** 0

# MOE 2024.06 (io_trps.svl 2023.06)
