@<TRIPOS>MOLECULE
NONAME
36 37 1 0 0 
SMALL
USER_CHARGES


@<TRIPOS>ATOM
  1 S       -0.8430     0.6820    -1.2880 S.o2  1 <1>   1.4470 
  2 O       -0.8670    -0.4730    -2.1580 O.2   1 <1>  -0.6500 
  3 O       -1.3210     1.9430    -1.8150 O.2   1 <1>  -0.6500 
  4 N       -1.7970     0.3480     0.0760 N.am  1 <1>  -0.8490 
  5 C        0.8310     0.9320    -0.6260 C.ar  1 <1>  -0.0090 
  6 C       -1.3290    -0.7420     0.9510 C.3   1 <1>   0.1960 
  7 C       -3.2410     0.2920    -0.2200 C.3   1 <1>   0.1960 
  8 C        1.2420     2.1800    -0.1770 C.ar  1 <1>  -0.1500 
  9 C        1.7330    -0.1240    -0.5240 C.ar  1 <1>  -0.1500 
 10 C       -1.5940    -2.1330     0.3700 C.3   1 <1>  -0.1860 
 11 C       -3.8840    -1.0720     0.0710 C.3   1 <1>  -0.1600 
 12 C        2.5120     2.3400     0.3420 C.ar  1 <1>   0.1900 
 13 C        3.0050     0.0480     0.0020 C.ar  1 <1>  -0.1500 
 14 C       -1.3810    -3.0860     1.5220 C.2   1 <1>   0.9060 
 15 C       -2.9540    -2.2040    -0.3570 C.3   1 <1>   0.2000 
 16 F        2.8620     3.5310     0.7510 F     1 <1>  -0.1900 
 17 C        3.4150     1.2940     0.4450 C.ar  1 <1>  -0.1440 
 18 O       -0.2170    -3.3260     1.8520 O.co2 1 <1>  -0.9000 
 19 O       -2.3530    -3.5390     2.1400 O.co2 1 <1>  -0.9000 
 20 O       -3.6000    -3.3930    -0.1080 O.3   1 <1>  -0.6800 
 21 C        4.8070     1.4980     1.0250 C.3   1 <1>  -0.0970 
 22 H       -0.2830    -0.6360     1.1800 H     1 <1>   0.0800 
 23 H       -1.8520    -0.6600     1.8900 H     1 <1>   0.0800 
 24 H       -3.7410     1.0460     0.3640 H     1 <1>   0.0800 
 25 H       -3.4080     0.5320    -1.2580 H     1 <1>   0.0800 
 26 H        0.5760     3.0230    -0.2300 H     1 <1>   0.1500 
 27 H        1.4330    -1.1060    -0.8550 H     1 <1>   0.1500 
 28 H       -0.8290    -2.3590    -0.3460 H     1 <1>   0.0800 
 29 H       -4.8150    -1.1450    -0.4590 H     1 <1>   0.0800 
 30 H       -4.0890    -1.1550     1.1240 H     1 <1>   0.0800 
 31 H        3.6650    -0.8000     0.0670 H     1 <1>   0.1500 
 32 H       -2.7970    -2.1450    -1.4210 H     1 <1>   0.0800 
 33 H       -3.3440    -3.6580     0.8290 H     1 <1>   0.4000 
 34 H        5.3630     0.5780     1.0240 H     1 <1>   0.0800 
 35 H        4.7320     1.8520     2.0380 H     1 <1>   0.0800 
 36 H        5.3440     2.2250     0.4430 H     1 <1>   0.0800 
@<TRIPOS>BOND
  1   1   2  2   
  2   1   3  2   
  3   1   4  am  
  4   1   5  1   
  5   4   6  1   
  6   4   7  1   
  7   5   8  ar  
  8   5   9  ar  
  9   6  10  1   
 10   6  22  1   
 11   6  23  1   
 12   7  11  1   
 13   7  24  1   
 14   7  25  1   
 15   8  12  ar  
 16   8  26  1   
 17   9  13  ar  
 18   9  27  1   
 19  10  14  1   
 20  10  15  1   
 21  10  28  1   
 22  11  15  1   
 23  11  29  1   
 24  11  30  1   
 25  12  16  1   
 26  12  17  ar  
 27  13  17  ar  
 28  13  31  1   
 29  14  18  ar  
 30  14  19  ar  
 31  15  20  1   
 32  15  32  1   
 33  17  21  1   
 34  20  33  1   
 35  21  34  1   
 36  21  35  1   
 37  21  36  1   
@<TRIPOS>SUBSTRUCTURE
  1 ****   6 GROUP 4 **** **** 0

# MOE 2024.06 (io_trps.svl 2023.06)
