@<TRIPOS>MOLECULE
NONAME
50 52 1 0 0 
SMALL
USER_CHARGES


@<TRIPOS>ATOM
  1 O       -0.7590     0.5580     2.1110 O.2   1 <1>  -0.5700 
  2 C       -1.4730     1.1130     1.2960 C.2   1 <1>   0.5440 
  3 N       -2.4010     0.3640     0.6150 N.am  1 <1>  -0.6600 
  4 C       -1.3390     2.5310     1.0620 C.ar  1 <1>   0.0860 
  5 C       -3.3240     0.8750    -0.4280 C.3   1 <1>   0.1400 
  6 C       -2.6560    -1.0680     0.8710 C.3   1 <1>   0.1400 
  7 C       -0.8390     3.0770    -0.1330 C.ar  1 <1>   0.0830 
  8 C       -1.7530     3.4210     2.0530 C.ar  1 <1>  -0.1500 
  9 C       -4.2650    -0.2940    -0.7530 C.3   1 <1>   0.2000 
 10 C       -3.4650    -1.5360    -0.3410 C.3   1 <1>  -0.0800 
 11 O       -0.3660     2.3230    -1.1530 O.3   1 <1>  -0.3630 
 12 C       -0.8150     4.4480    -0.3300 C.ar  1 <1>  -0.1500 
 13 C       -1.7120     4.7880     1.8610 C.ar  1 <1>  -0.1500 
 14 O       -5.4180    -0.2180     0.0380 O.3   1 <1>  -0.5600 
 15 C       -4.3200    -2.7870    -0.0650 C.3   1 <1>   0.0200 
 16 C        0.6010     1.3240    -0.8930 C.3   1 <1>   0.0400 
 17 C       -1.2510     5.3140     0.6650 C.ar  1 <1>   0.0830 
 18 C       -6.4270     0.6040    -0.4590 C.3   1 <1>   0.0400 
 19 C       -3.4910    -4.0400     0.1630 C.2   1 <1>  -0.0400 
 20 O       -1.2530     6.6610     0.5460 O.3   1 <1>  -0.3630 
 21 O       -4.1060    -5.1490     0.4810 O.3   1 <1>  -0.0190 
 22 C       -2.1760    -4.3070     0.1090 C.2   1 <1>  -0.1500 
 23 C       -0.7810     7.3010    -0.6180 C.3   1 <1>   0.0400 
 24 N       -3.2770    -6.1390     0.6440 N.2   1 <1>  -0.4100 
 25 C       -2.1050    -5.6600     0.4280 C.2   1 <1>   0.1080 
 26 C       -0.8280    -6.4650     0.5110 C.3   1 <1>  -0.0590 
 27 H       -3.8610     1.7390    -0.0790 H     1 <1>   0.0800 
 28 H       -2.7510     1.1320    -1.3010 H     1 <1>   0.0800 
 29 H       -1.7320    -1.6080     0.9810 H     1 <1>   0.0800 
 30 H       -3.2360    -1.1590     1.7740 H     1 <1>   0.0800 
 31 H       -2.1160     3.0230     2.9850 H     1 <1>   0.1500 
 32 H       -4.5480    -0.3240    -1.7920 H     1 <1>   0.0800 
 33 H       -2.7730    -1.7560    -1.1340 H     1 <1>   0.0800 
 34 H       -0.4430     4.8150    -1.2670 H     1 <1>   0.1500 
 35 H       -2.0390     5.4600     2.6340 H     1 <1>   0.1500 
 36 H       -4.9730    -2.9610    -0.9010 H     1 <1>   0.0800 
 37 H       -4.9370    -2.6220     0.8010 H     1 <1>   0.0800 
 38 H        1.2040     1.2040    -1.7740 H     1 <1>   0.0800 
 39 H        0.1010     0.3990    -0.6690 H     1 <1>   0.0800 
 40 H        1.2170     1.6290    -0.0650 H     1 <1>   0.0800 
 41 H       -7.2470     0.5810     0.2380 H     1 <1>   0.0800 
 42 H       -6.7550     0.2280    -1.4130 H     1 <1>   0.0800 
 43 H       -6.0630     1.6110    -0.5520 H     1 <1>   0.0800 
 44 H       -1.3430    -3.6690    -0.1190 H     1 <1>   0.1500 
 45 H       -0.8760     8.3630    -0.4770 H     1 <1>   0.0800 
 46 H       -1.3790     6.9890    -1.4560 H     1 <1>   0.0800 
 47 H        0.2530     7.0430    -0.7640 H     1 <1>   0.0800 
 48 H       -0.1760    -6.0370     1.2500 H     1 <1>   0.0800 
 49 H       -0.3350    -6.4660    -0.4430 H     1 <1>   0.0800 
 50 H       -1.0520    -7.4790     0.7890 H     1 <1>   0.0800 
@<TRIPOS>BOND
  1   1   2  2   
  2   2   3  am  
  3   2   4  1   
  4   3   5  1   
  5   3   6  1   
  6   4   7  ar  
  7   4   8  ar  
  8   5   9  1   
  9   5  27  1   
 10   5  28  1   
 11   6  10  1   
 12   6  29  1   
 13   6  30  1   
 14   7  11  1   
 15   7  12  ar  
 16   8  13  ar  
 17   8  31  1   
 18   9  10  1   
 19   9  14  1   
 20   9  32  1   
 21  10  15  1   
 22  10  33  1   
 23  11  16  1   
 24  12  17  ar  
 25  12  34  1   
 26  13  17  ar  
 27  13  35  1   
 28  14  18  1   
 29  15  19  1   
 30  15  36  1   
 31  15  37  1   
 32  16  38  1   
 33  16  39  1   
 34  16  40  1   
 35  17  20  1   
 36  18  41  1   
 37  18  42  1   
 38  18  43  1   
 39  19  21  1   
 40  19  22  2   
 41  20  23  1   
 42  21  24  1   
 43  22  25  1   
 44  22  44  1   
 45  23  45  1   
 46  23  46  1   
 47  23  47  1   
 48  24  25  2   
 49  25  26  1   
 50  26  48  1   
 51  26  49  1   
 52  26  50  1   
@<TRIPOS>SUBSTRUCTURE
  1 ****   3 GROUP 4 **** **** 0

# MOE 2024.06 (io_trps.svl 2023.06)
