@<TRIPOS>MOLECULE
NONAME
49 51 1 0 0 
SMALL
USER_CHARGES


@<TRIPOS>ATOM
  1 O       -5.2780    -2.7750     2.4090 O.2   1 <1>  -0.5700 
  2 C       -5.0950    -1.8140     1.7010 C.2   1 <1>   0.6900 
  3 N       -4.1320    -0.8900     1.9050 N.am  1 <1>  -0.4900 
  4 N       -5.7990    -1.5230     0.5920 N.am  1 <1>  -0.7300 
  5 C       -4.1260     0.0300     0.9130 C.2   1 <1>   0.5690 
  6 C       -5.2260    -0.3330    -0.0850 C.3   1 <1>   0.2810 
  7 O       -3.3830     0.9750     0.8390 O.2   1 <1>  -0.5700 
  8 C       -6.2730     0.7730    -0.2570 C.3   1 <1>  -0.0990 
  9 C       -7.3820     0.3760    -1.2120 C.2   1 <1>   0.5690 
 10 O       -7.2180    -0.5980    -1.9110 O.2   1 <1>  -0.5700 
 11 N       -8.5400     1.1030    -1.2710 N.am  1 <1>  -0.6600 
 12 C       -9.7270     0.5330    -1.9690 C.3   1 <1>   0.1400 
 13 C       -8.8110     2.3690    -0.5370 C.3   1 <1>   0.1400 
 14 C      -10.4190    -0.5240    -1.0910 C.3   1 <1>   0.1400 
 15 C       -9.5900     2.1280     0.7640 C.3   1 <1>  -0.1600 
 16 N      -10.5670    -0.1210     0.3500 N.am  1 <1>  -0.6600 
 17 C      -10.8840     1.3120     0.6120 C.3   1 <1>   0.1400 
 18 C      -10.2480    -0.9590     1.4050 C.2   1 <1>   0.5440 
 19 O      -10.2460    -0.5040     2.5350 O.2   1 <1>  -0.5700 
 20 C       -9.8850    -2.3510     1.2160 C.ar  1 <1>   0.0860 
 21 C      -10.6990    -3.2450     0.5230 C.ar  1 <1>  -0.1500 
 22 C       -8.6870    -2.8410     1.7330 C.ar  1 <1>  -0.1500 
 23 C      -10.3240    -4.5610     0.3180 C.ar  1 <1>   0.0820 
 24 C       -8.2990    -4.1530     1.5410 C.ar  1 <1>  -0.1500 
 25 O      -11.1840    -5.3360    -0.3870 O.3   1 <1>  -0.3630 
 26 C       -9.1120    -5.0170     0.8290 C.ar  1 <1>  -0.1500 
 27 C      -10.9030    -6.6940    -0.6430 C.3   1 <1>   0.0400 
 28 H       -3.4970    -0.9130     2.6930 H     1 <1>   0.3700 
 29 H       -6.4710    -2.1500     0.1400 H     1 <1>   0.3700 
 30 H       -4.7890    -0.6130    -1.0280 H     1 <1>   0.0800 
 31 H       -5.7900     1.6480    -0.6480 H     1 <1>   0.0800 
 32 H       -6.6890     1.0110     0.7030 H     1 <1>   0.0800 
 33 H       -9.4190     0.0750    -2.8930 H     1 <1>   0.0800 
 34 H      -10.4230     1.3140    -2.2170 H     1 <1>   0.0800 
 35 H       -9.3780     3.0250    -1.1750 H     1 <1>   0.0800 
 36 H       -7.8860     2.8710    -0.3120 H     1 <1>   0.0800 
 37 H       -9.8310    -1.4210    -1.1620 H     1 <1>   0.0800 
 38 H      -11.3910    -0.7400    -1.4980 H     1 <1>   0.0800 
 39 H       -9.8500     3.0870     1.1710 H     1 <1>   0.0800 
 40 H       -8.9540     1.6490     1.4860 H     1 <1>   0.0800 
 41 H      -11.4990     1.7100    -0.1760 H     1 <1>   0.0800 
 42 H      -11.4500     1.3810     1.5270 H     1 <1>   0.0800 
 43 H      -11.6430    -2.9090     0.1370 H     1 <1>   0.1500 
 44 H       -8.0550    -2.1770     2.2980 H     1 <1>   0.1500 
 45 H       -7.3630    -4.4970     1.9500 H     1 <1>   0.1500 
 46 H       -8.7880    -6.0310     0.6900 H     1 <1>   0.1500 
 47 H      -11.7190    -7.1030    -1.2100 H     1 <1>   0.0800 
 48 H      -10.8120    -7.2140     0.2940 H     1 <1>   0.0800 
 49 H       -9.9930    -6.7610    -1.2130 H     1 <1>   0.0800 
@<TRIPOS>BOND
  1   1   2  2   
  2   2   3  am  
  3   2   4  am  
  4   3   5  am  
  5   3  28  1   
  6   4   6  1   
  7   4  29  1   
  8   5   6  1   
  9   5   7  2   
 10   6   8  1   
 11   6  30  1   
 12   8   9  1   
 13   8  31  1   
 14   8  32  1   
 15   9  10  2   
 16   9  11  am  
 17  11  12  1   
 18  11  13  1   
 19  12  14  1   
 20  12  33  1   
 21  12  34  1   
 22  13  15  1   
 23  13  35  1   
 24  13  36  1   
 25  14  16  1   
 26  14  37  1   
 27  14  38  1   
 28  15  17  1   
 29  15  39  1   
 30  15  40  1   
 31  16  17  1   
 32  16  18  am  
 33  17  41  1   
 34  17  42  1   
 35  18  19  2   
 36  18  20  1   
 37  20  21  ar  
 38  20  22  ar  
 39  21  23  ar  
 40  21  43  1   
 41  22  24  ar  
 42  22  44  1   
 43  23  25  1   
 44  23  26  ar  
 45  24  26  ar  
 46  24  45  1   
 47  25  27  1   
 48  26  46  1   
 49  27  47  1   
 50  27  48  1   
 51  27  49  1   
@<TRIPOS>SUBSTRUCTURE
  1 ****  22 GROUP 4 **** **** 0

# MOE 2024.06 (io_trps.svl 2023.06)
