@<TRIPOS>MOLECULE
NONAME
51 53 1 0 0 
SMALL
USER_CHARGES


@<TRIPOS>ATOM
  1 O       -2.8840     3.2460     2.2450 O.2   1 <1>  -0.5700 
  2 C       -2.5990     2.5300     1.3020 C.2   1 <1>   0.5440 
  3 N       -3.3960     1.4420     1.0120 N.am  1 <1>  -0.6600 
  4 C       -1.4320     2.8570     0.4990 C.ar  1 <1>   0.0860 
  5 C       -3.2530     0.6120    -0.2250 C.3   1 <1>   0.1400 
  6 C       -4.4900     0.9830     1.9160 C.3   1 <1>   0.1400 
  7 C       -0.2680     2.0730     0.4680 C.ar  1 <1>  -0.1440 
  8 C       -1.4760     4.0060    -0.2870 C.ar  1 <1>  -0.1500 
  9 C       -4.5850     0.5890    -0.9880 C.3   1 <1>   0.2000 
 10 C       -5.8210     0.9130     1.1520 C.3   1 <1>  -0.1600 
 11 C        0.7930     2.4270    -0.3630 C.ar  1 <1>  -0.1440 
 12 C       -0.1680     0.8240     1.3490 C.3   1 <1>  -0.0960 
 13 C       -0.4200     4.3660    -1.0980 C.ar  1 <1>  -0.1500 
 14 O       -4.4310    -0.1610    -2.1410 O.3   1 <1>  -0.6800 
 15 C       -5.7420     0.0250    -0.1240 C.3   1 <1>  -0.1060 
 16 C        0.7100     3.5730    -1.1380 C.ar  1 <1>  -0.1500 
 17 C        2.0630     1.5900    -0.4550 C.3   1 <1>  -0.0970 
 18 C       -5.4420    -1.4500     0.2130 C.2   1 <1>   0.9060 
 19 C       -7.0650     0.1120    -0.9330 C.3   1 <1>  -0.0160 
 20 O       -5.0670    -2.2010    -0.7020 O.co2 1 <1>  -0.9000 
 21 O       -5.5560    -1.8750     1.3680 O.co2 1 <1>  -0.9000 
 22 C       -8.3450    -0.0050    -0.1080 C.ar  1 <1>  -0.1440 
 23 C       -9.1710     1.0970     0.0640 C.ar  1 <1>  -0.1500 
 24 C       -8.7010    -1.2110     0.4750 C.ar  1 <1>  -0.1500 
 25 C      -10.3360     0.9940     0.8060 C.ar  1 <1>  -0.1500 
 26 C       -9.8640    -1.3170     1.2170 C.ar  1 <1>  -0.1500 
 27 C      -10.6840    -0.2150     1.3830 C.ar  1 <1>  -0.1500 
 28 H       -2.4940     1.0130    -0.8710 H     1 <1>   0.0800 
 29 H       -2.9760    -0.3890     0.0550 H     1 <1>   0.0800 
 30 H       -4.2380     0.0110     2.3040 H     1 <1>   0.0800 
 31 H       -4.5960     1.6490     2.7550 H     1 <1>   0.0800 
 32 H       -2.3590     4.6200    -0.2520 H     1 <1>   0.1500 
 33 H       -4.8100     1.5940    -1.2990 H     1 <1>   0.0800 
 34 H       -6.5640     0.5150     1.8220 H     1 <1>   0.0800 
 35 H       -6.1200     1.9120     0.8910 H     1 <1>   0.0800 
 36 H        0.8210     0.7170     1.7540 H     1 <1>   0.0800 
 37 H       -0.4050    -0.0500     0.7710 H     1 <1>   0.0800 
 38 H       -0.8420     0.8710     2.1850 H     1 <1>   0.0800 
 39 H       -0.4750     5.2580    -1.6970 H     1 <1>   0.1500 
 40 H       -4.5750    -1.1170    -1.8550 H     1 <1>   0.4000 
 41 H        1.5270     3.8590    -1.7780 H     1 <1>   0.1500 
 42 H        2.6820     1.9160    -1.2720 H     1 <1>   0.0800 
 43 H        1.8170     0.5570    -0.6180 H     1 <1>   0.0800 
 44 H        2.6280     1.6800     0.4550 H     1 <1>   0.0800 
 45 H       -7.0880     1.0470    -1.4620 H     1 <1>   0.0800 
 46 H       -7.0710    -0.6620    -1.6820 H     1 <1>   0.0800 
 47 H       -8.9070     2.0400    -0.3780 H     1 <1>   0.1500 
 48 H       -8.0650    -2.0750     0.3590 H     1 <1>   0.1500 
 49 H      -10.9680     1.8530     0.9340 H     1 <1>   0.1500 
 50 H      -10.1200    -2.2600     1.6670 H     1 <1>   0.1500 
 51 H      -11.5860    -0.2980     1.9610 H     1 <1>   0.1500 
@<TRIPOS>BOND
  1   1   2  2   
  2   2   3  am  
  3   2   4  1   
  4   3   5  1   
  5   3   6  1   
  6   4   7  ar  
  7   4   8  ar  
  8   5   9  1   
  9   5  28  1   
 10   5  29  1   
 11   6  10  1   
 12   6  30  1   
 13   6  31  1   
 14   7  11  ar  
 15   7  12  1   
 16   8  13  ar  
 17   8  32  1   
 18   9  14  1   
 19   9  15  1   
 20   9  33  1   
 21  10  15  1   
 22  10  34  1   
 23  10  35  1   
 24  11  16  ar  
 25  11  17  1   
 26  12  36  1   
 27  12  37  1   
 28  12  38  1   
 29  13  16  ar  
 30  13  39  1   
 31  14  40  1   
 32  15  18  1   
 33  15  19  1   
 34  16  41  1   
 35  17  42  1   
 36  17  43  1   
 37  17  44  1   
 38  18  20  ar  
 39  18  21  ar  
 40  19  22  1   
 41  19  45  1   
 42  19  46  1   
 43  22  23  ar  
 44  22  24  ar  
 45  23  25  ar  
 46  23  47  1   
 47  24  26  ar  
 48  24  48  1   
 49  25  27  ar  
 50  25  49  1   
 51  26  27  ar  
 52  26  50  1   
 53  27  51  1   
@<TRIPOS>SUBSTRUCTURE
  1 ****   5 GROUP 4 **** **** 0

# MOE 2024.06 (io_trps.svl 2023.06)
