@<TRIPOS>MOLECULE
NONAME
39 40 1 0 0 
SMALL
USER_CHARGES


@<TRIPOS>ATOM
  1 O       -2.2520     0.6090    -1.9780 O.2   1 <1>  -0.5700 
  2 C       -1.7960     0.5900    -0.8380 C.2   1 <1>   0.5690 
  3 N       -1.7250    -0.5740    -0.1400 N.am  1 <1>  -0.7300 
  4 C       -1.3130     1.8900    -0.1630 C.3   1 <1>   0.2010 
  5 C       -2.2000    -1.8800    -0.6490 C.3   1 <1>   0.2200 
  6 N       -1.7020     3.1040    -0.8870 N.am  1 <1>  -0.7300 
  7 C       -3.6050    -2.1290    -0.1270 C.3   1 <1>  -0.0800 
  8 C       -1.4190    -3.0010     0.0230 C.3   1 <1>   0.1200 
  9 C       -1.4990     4.3640    -0.5280 C.2   1 <1>   0.5690 
 10 C       -3.3530    -2.7890     1.2370 C.3   1 <1>   0.1200 
 11 C       -4.4080    -3.0360    -1.0770 C.3   1 <1>  -0.0170 
 12 O       -2.0000    -3.1430     1.2810 O.3   1 <1>  -0.5600 
 13 O       -1.8840     5.2680    -1.2490 O.2   1 <1>  -0.5700 
 14 C       -0.7880     4.6710     0.7780 C.3   1 <1>  -0.1790 
 15 C       -5.8320    -3.2300    -0.5790 C.ar  1 <1>  -0.1440 
 16 C       -6.7730    -2.2250    -0.6790 C.ar  1 <1>  -0.1500 
 17 C       -6.2600    -4.4100    -0.0050 C.ar  1 <1>  -0.1500 
 18 C       -8.0570    -2.4390    -0.2070 C.ar  1 <1>   0.1600 
 19 C       -7.5680    -4.5220     0.4350 C.ar  1 <1>   0.1600 
 20 N       -8.4770    -3.5630     0.3500 N.ar  1 <1>  -0.6200 
 21 H       -1.4130    -0.6060     0.8340 H     1 <1>   0.3700 
 22 H       -0.2270     1.8410    -0.0850 H     1 <1>   0.0800 
 23 H       -1.7320     1.9190     0.8430 H     1 <1>   0.0800 
 24 H       -2.1280    -1.9140    -1.7240 H     1 <1>   0.0800 
 25 H       -2.1680     2.9720    -1.7760 H     1 <1>   0.3700 
 26 H       -4.1410    -1.2040    -0.0090 H     1 <1>   0.0800 
 27 H       -0.3720    -2.7790     0.1260 H     1 <1>   0.0800 
 28 H       -1.5470    -3.9290    -0.5070 H     1 <1>   0.0800 
 29 H       -3.9430    -3.6760     1.3860 H     1 <1>   0.0800 
 30 H       -3.5380    -2.0990     2.0420 H     1 <1>   0.0800 
 31 H       -3.9250    -3.9930    -1.1810 H     1 <1>   0.0800 
 32 H       -4.4470    -2.5840    -2.0540 H     1 <1>   0.0800 
 33 H        0.2070     4.2320     0.7630 H     1 <1>   0.0800 
 34 H       -1.3640     4.2660     1.6080 H     1 <1>   0.0800 
 35 H       -0.7040     5.7510     0.8910 H     1 <1>   0.0800 
 36 H       -6.5200    -1.2770    -1.1190 H     1 <1>   0.1500 
 37 H       -5.5910    -5.2440     0.1060 H     1 <1>   0.1500 
 38 H       -8.7770    -1.6430    -0.2930 H     1 <1>   0.1500 
 39 H       -7.8840    -5.4490     0.8820 H     1 <1>   0.1500 
@<TRIPOS>BOND
  1   1   2  2   
  2   2   3  am  
  3   2   4  1   
  4   3   5  1   
  5   3  21  1   
  6   4   6  1   
  7   4  22  1   
  8   4  23  1   
  9   5   7  1   
 10   5   8  1   
 11   5  24  1   
 12   6   9  am  
 13   6  25  1   
 14   7  10  1   
 15   7  11  1   
 16   7  26  1   
 17   8  12  1   
 18   8  27  1   
 19   8  28  1   
 20   9  13  2   
 21   9  14  1   
 22  10  12  1   
 23  10  29  1   
 24  10  30  1   
 25  11  15  1   
 26  11  31  1   
 27  11  32  1   
 28  14  33  1   
 29  14  34  1   
 30  14  35  1   
 31  15  16  ar  
 32  15  17  ar  
 33  16  18  ar  
 34  16  36  1   
 35  17  19  ar  
 36  17  37  1   
 37  18  20  ar  
 38  18  38  1   
 39  19  20  ar  
 40  19  39  1   
@<TRIPOS>SUBSTRUCTURE
  1 ****   7 GROUP 4 **** **** 0

# MOE 2024.06 (io_trps.svl 2023.06)
