@<TRIPOS>MOLECULE
NONAME
54 57 1 0 0 
SMALL
USER_CHARGES


@<TRIPOS>ATOM
  1 O       -2.2120     0.8620    -2.5520 O.2   1 <1>  -0.5700 
  2 C       -2.0630     1.2510    -1.4220 C.2   1 <1>   0.5690 
  3 N       -2.0730     0.4070    -0.3640 N.am  1 <1>  -0.7300 
  4 C       -1.8440     2.7260    -1.1780 C.3   1 <1>  -0.0990 
  5 C       -2.2470    -1.0600    -0.4540 C.3   1 <1>   0.2200 
  6 C       -0.4810     3.1670    -1.7230 C.3   1 <1>   0.0200 
  7 C       -3.6300    -1.4320     0.0550 C.3   1 <1>  -0.0800 
  8 C       -1.3490    -1.7390     0.5720 C.3   1 <1>   0.1200 
  9 C       -0.2140     4.6240    -1.4050 C.2   1 <1>   0.2980 
 10 C       -3.4100    -1.5220     1.5710 C.3   1 <1>   0.1200 
 11 C       -4.1120    -2.7650    -0.5470 C.3   1 <1>  -0.0170 
 12 O       -2.0340    -1.6550     1.7840 O.3   1 <1>  -0.5600 
 13 O       -0.8890     5.5440    -2.0410 O.3   1 <1>  -0.0190 
 14 N        0.6220     5.0480    -0.5520 N.2   1 <1>  -0.5650 
 15 C       -5.5050    -3.1280    -0.0540 C.ar  1 <1>  -0.1440 
 16 N       -0.4430     6.6570    -1.5500 N.2   1 <1>  -0.4100 
 17 C        0.4440     6.3700    -0.6630 C.2   1 <1>   0.4620 
 18 C       -5.7180    -4.1170     0.8850 C.ar  1 <1>  -0.1500 
 19 C       -6.6310    -2.4860    -0.5270 C.ar  1 <1>  -0.1500 
 20 C        1.2220     7.3060     0.1250 C.ar  1 <1>   0.0540 
 21 C       -7.0090    -4.4020     1.2990 C.ar  1 <1>   0.1600 
 22 C       -7.8790    -2.8470    -0.0470 C.ar  1 <1>   0.1600 
 23 C        0.6510     8.4030     0.7870 C.ar  1 <1>   0.0820 
 24 C        2.6010     7.1230     0.2400 C.ar  1 <1>  -0.1500 
 25 N       -8.0950    -3.7890     0.8570 N.ar  1 <1>  -0.6200 
 26 O       -0.6960     8.5670     0.7060 O.3   1 <1>  -0.3630 
 27 C        1.4530     9.2790     1.5150 C.ar  1 <1>  -0.1500 
 28 C        3.3920     7.9920     0.9650 C.ar  1 <1>  -0.1500 
 29 C       -1.3530     9.7080     1.2100 C.3   1 <1>   0.0400 
 30 C        2.8180     9.0750     1.6030 C.ar  1 <1>  -0.1500 
 31 H       -1.9540     0.7530     0.5910 H     1 <1>   0.3700 
 32 H       -2.6270     3.2740    -1.6710 H     1 <1>   0.0800 
 33 H       -1.8990     2.9360    -0.1260 H     1 <1>   0.0800 
 34 H       -2.0550    -1.4020    -1.4580 H     1 <1>   0.0800 
 35 H       -0.4450     3.0250    -2.7890 H     1 <1>   0.0800 
 36 H        0.2950     2.5680    -1.2800 H     1 <1>   0.0800 
 37 H       -4.3490    -0.6680    -0.1840 H     1 <1>   0.0800 
 38 H       -0.3880    -1.2650     0.6630 H     1 <1>   0.0800 
 39 H       -1.2210    -2.7810     0.3390 H     1 <1>   0.0800 
 40 H       -3.9130    -2.3600     2.0210 H     1 <1>   0.0800 
 41 H       -3.7280    -0.6160     2.0580 H     1 <1>   0.0800 
 42 H       -3.4260    -3.5570    -0.3010 H     1 <1>   0.0800 
 43 H       -4.1400    -2.6830    -1.6200 H     1 <1>   0.0800 
 44 H       -4.8950    -4.6690     1.3010 H     1 <1>   0.1500 
 45 H       -6.5510    -1.7080    -1.2650 H     1 <1>   0.1500 
 46 H       -7.1560    -5.1760     2.0330 H     1 <1>   0.1500 
 47 H       -8.7460    -2.3340    -0.4280 H     1 <1>   0.1500 
 48 H        3.0560     6.2820    -0.2540 H     1 <1>   0.1500 
 49 H        1.0350    10.1240     2.0270 H     1 <1>   0.1500 
 50 H        4.4540     7.8270     1.0340 H     1 <1>   0.1500 
 51 H       -2.3960     9.6270     0.9610 H     1 <1>   0.0800 
 52 H       -0.9350    10.5840     0.7470 H     1 <1>   0.0800 
 53 H       -1.2340     9.7380     2.2780 H     1 <1>   0.0800 
 54 H        3.4320     9.7550     2.1670 H     1 <1>   0.1500 
@<TRIPOS>BOND
  1   1   2  2   
  2   2   3  am  
  3   2   4  1   
  4   3   5  1   
  5   3  31  1   
  6   4   6  1   
  7   4  32  1   
  8   4  33  1   
  9   5   7  1   
 10   5   8  1   
 11   5  34  1   
 12   6   9  1   
 13   6  35  1   
 14   6  36  1   
 15   7  10  1   
 16   7  11  1   
 17   7  37  1   
 18   8  12  1   
 19   8  38  1   
 20   8  39  1   
 21   9  13  1   
 22   9  14  2   
 23  10  12  1   
 24  10  40  1   
 25  10  41  1   
 26  11  15  1   
 27  11  42  1   
 28  11  43  1   
 29  13  16  1   
 30  14  17  1   
 31  15  18  ar  
 32  15  19  ar  
 33  16  17  2   
 34  17  20  1   
 35  18  21  ar  
 36  18  44  1   
 37  19  22  ar  
 38  19  45  1   
 39  20  23  ar  
 40  20  24  ar  
 41  21  25  ar  
 42  21  46  1   
 43  22  25  ar  
 44  22  47  1   
 45  23  26  1   
 46  23  27  ar  
 47  24  28  ar  
 48  24  48  1   
 49  26  29  1   
 50  27  30  ar  
 51  27  49  1   
 52  28  30  ar  
 53  28  50  1   
 54  29  51  1   
 55  29  52  1   
 56  29  53  1   
 57  30  54  1   
@<TRIPOS>SUBSTRUCTURE
  1 ****   4 GROUP 4 **** **** 0

# MOE 2024.06 (io_trps.svl 2023.06)
