@<TRIPOS>MOLECULE
NONAME
40 42 1 0 0 
SMALL
USER_CHARGES


@<TRIPOS>ATOM
  1 CL       2.6660    -0.4620     3.7820 Cl    1 <1>  -0.1770 
  2 C        2.5990    -1.0030     2.1250 C.ar  1 <1>   0.1770 
  3 C        2.5300    -2.3580     1.8600 C.ar  1 <1>  -0.1500 
  4 C        2.6140    -0.0620     1.1100 C.ar  1 <1>  -0.1500 
  5 C        2.4640    -2.8190     0.5460 C.ar  1 <1>   0.0860 
  6 C        2.5600    -0.4930    -0.2050 C.ar  1 <1>  -0.1500 
  7 C        2.4890    -1.8520    -0.4600 C.ar  1 <1>   0.1900 
  8 C        2.3740    -4.2310     0.2600 C.2   1 <1>   0.5440 
  9 F        2.4420    -2.2270    -1.7080 F     1 <1>  -0.1900 
 10 O        3.3530    -4.9240     0.4600 O.2   1 <1>  -0.5700 
 11 N        1.2070    -4.8230    -0.1870 N.am  1 <1>  -0.6600 
 12 C       -0.0980    -4.0940    -0.2030 C.3   1 <1>   0.2200 
 13 C        1.2190    -6.2610    -0.5970 C.3   1 <1>   0.0600 
 14 C       -1.2390    -4.8360     0.4890 C.3   1 <1>  -0.1600 
 15 C       -0.6180    -3.8250    -1.6120 C.3   1 <1>  -0.1600 
 16 C       -2.5110    -4.1930    -0.0780 C.3   1 <1>  -0.0800 
 17 C       -2.1160    -3.5540    -1.4230 C.3   1 <1>  -0.0800 
 18 C       -3.0660    -3.0580     0.7950 C.3   1 <1>  -0.1600 
 19 C       -2.4550    -2.0600    -1.3090 C.3   1 <1>  -0.1600 
 20 C       -3.4880    -1.9850    -0.1960 C.3   1 <1>   0.2000 
 21 O       -3.4550    -0.7450     0.4010 O.3   1 <1>  -0.6800 
 22 H        2.5300    -3.0650     2.6720 H     1 <1>   0.1500 
 23 H        2.6700     0.9860     1.3490 H     1 <1>   0.1500 
 24 H        2.5750     0.2080    -1.0210 H     1 <1>   0.1500 
 25 H        0.0040    -3.1440     0.2920 H     1 <1>   0.0800 
 26 H        0.4910    -6.4500    -1.3640 H     1 <1>   0.0800 
 27 H        1.0040    -6.8800     0.2560 H     1 <1>   0.0800 
 28 H        2.1880    -6.5310    -0.9800 H     1 <1>   0.0800 
 29 H       -1.2420    -5.8740     0.2150 H     1 <1>   0.0800 
 30 H       -1.1760    -4.7540     1.5600 H     1 <1>   0.0800 
 31 H       -0.1070    -3.0020    -2.0790 H     1 <1>   0.0800 
 32 H       -0.5010    -4.6990    -2.2260 H     1 <1>   0.0800 
 33 H       -3.2760    -4.9360    -0.2320 H     1 <1>   0.0800 
 34 H       -2.6850    -3.9950    -2.2250 H     1 <1>   0.0800 
 35 H       -2.2960    -2.6730     1.4400 H     1 <1>   0.0800 
 36 H       -3.9000    -3.3900     1.3870 H     1 <1>   0.0800 
 37 H       -2.8500    -1.6770    -2.2330 H     1 <1>   0.0800 
 38 H       -1.5800    -1.4990    -1.0320 H     1 <1>   0.0800 
 39 H       -4.4810    -2.1700    -0.5730 H     1 <1>   0.0800 
 40 H       -2.5660    -0.5700     0.7590 H     1 <1>   0.4000 
@<TRIPOS>BOND
  1   1   2  1   
  2   2   3  ar  
  3   2   4  ar  
  4   3   5  ar  
  5   3  22  1   
  6   4   6  ar  
  7   4  23  1   
  8   5   7  ar  
  9   5   8  1   
 10   6   7  ar  
 11   6  24  1   
 12   7   9  1   
 13   8  10  2   
 14   8  11  am  
 15  11  12  1   
 16  11  13  1   
 17  12  14  1   
 18  12  15  1   
 19  12  25  1   
 20  13  26  1   
 21  13  27  1   
 22  13  28  1   
 23  14  16  1   
 24  14  29  1   
 25  14  30  1   
 26  15  17  1   
 27  15  31  1   
 28  15  32  1   
 29  16  17  1   
 30  16  18  1   
 31  16  33  1   
 32  17  19  1   
 33  17  34  1   
 34  18  20  1   
 35  18  35  1   
 36  18  36  1   
 37  19  20  1   
 38  19  37  1   
 39  19  38  1   
 40  20  21  1   
 41  20  39  1   
 42  21  40  1   
@<TRIPOS>SUBSTRUCTURE
  1 ****  12 GROUP 4 **** **** 0

# MOE 2024.06 (io_trps.svl 2023.06)
