@<TRIPOS>MOLECULE
Untitled Document
45 47 1 0 0 
SMALL
USER_CHARGES


@<TRIPOS>ATOM
  1 O        0.2760     0.2480     0.3540 O.2   1 <1>  -0.5700 
  2 C        1.3590     0.7940     0.2240 C.2   1 <1>   0.6900 
  3 N        1.4220     2.1320    -0.1490 N.am  1 <1>  -0.4200 
  4 N        2.5290     0.0760     0.4490 N.am  1 <1>  -0.4240 
  5 C        2.6440     2.7810    -0.3070 C.2   1 <1>   0.7160 
  6 C        0.1560     2.8880    -0.3740 C.3   1 <1>   0.1400 
  7 C        3.7590     0.7160     0.2820 C.2   1 <1>  -0.0880 
  8 C        2.4730    -1.3550     0.8510 C.3   1 <1>   0.1400 
  9 O        2.6580     3.9620    -0.6270 O.2   1 <1>  -0.5700 
 10 C        3.8480     2.0230    -0.0830 C.2   1 <1>   0.1410 
 11 C       -0.3100     3.5350     0.9340 C.3   1 <1>  -0.1600 
 12 N        5.0100     0.2510     0.4180 N.pl3 1 <1>   0.0330 
 13 C        2.6220    -2.2500    -0.3840 C.3   1 <1>  -0.1600 
 14 N        5.1670     2.3760    -0.1730 N.2   1 <1>  -0.5650 
 15 C       -1.6130     4.3170     0.7350 C.3   1 <1>  -0.2400 
 16 C        5.8200     1.3040     0.1290 C.2   1 <1>   0.0070 
 17 C        2.6270    -3.7340     0.0000 C.3   1 <1>  -0.2400 
 18 C        7.3400     1.1810     0.1640 C.3   1 <1>   0.1000 
 19 C        8.0930     2.5170     0.1600 C.3   1 <1>  -0.0990 
 20 C        7.8920     0.4240    -1.0500 C.3   1 <1>  -0.1600 
 21 C        9.4350     2.1670    -0.4270 C.2   1 <1>   0.4480 
 22 C        9.3640     0.8440    -1.1520 C.3   1 <1>  -0.0990 
 23 O       10.4250     2.8200    -0.3090 O.2   1 <1>  -0.5700 
 24 H       -0.6050     2.2230    -0.7450 H     1 <1>   0.0800 
 25 H        0.3100     3.6470    -1.1230 H     1 <1>   0.0800 
 26 H        1.5360    -1.5640     1.3400 H     1 <1>   0.0800 
 27 H        3.2590    -1.5580     1.5570 H     1 <1>   0.0800 
 28 H        0.4510     4.2070     1.2920 H     1 <1>   0.0800 
 29 H       -0.4700     2.7690     1.6740 H     1 <1>   0.0800 
 30 H        5.2940    -0.6960     0.6760 H     1 <1>   0.2700 
 31 H        3.5370    -2.0160    -0.8990 H     1 <1>   0.0800 
 32 H        1.7980    -2.0640    -1.0520 H     1 <1>   0.0800 
 33 H       -1.4740     5.1010     0.0120 H     1 <1>   0.0800 
 34 H       -1.9200     4.7610     1.6650 H     1 <1>   0.0800 
 35 H       -2.3970     3.6620     0.3940 H     1 <1>   0.0800 
 36 H        3.4480    -3.9560     0.6590 H     1 <1>   0.0800 
 37 H        2.7240    -4.3410    -0.8830 H     1 <1>   0.0800 
 38 H        1.7060    -3.9970     0.4920 H     1 <1>   0.0800 
 39 H        7.6250     0.6500     1.0570 H     1 <1>   0.0800 
 40 H        8.1880     2.9290     1.1480 H     1 <1>   0.0800 
 41 H        7.6190     3.2340    -0.4860 H     1 <1>   0.0800 
 42 H        7.3700     0.7530    -1.9340 H     1 <1>   0.0800 
 43 H        7.7820    -0.6410    -0.9520 H     1 <1>   0.0800 
 44 H        9.6790     0.9530    -2.1740 H     1 <1>   0.0800 
 45 H       10.0020     0.1400    -0.6490 H     1 <1>   0.0800 
@<TRIPOS>BOND
  1   1   2  2   
  2   2   3  am  
  3   2   4  am  
  4   3   5  am  
  5   3   6  1   
  6   4   7  1   
  7   4   8  1   
  8   5   9  2   
  9   5  10  1   
 10   6  11  1   
 11   6  24  1   
 12   6  25  1   
 13   7  10  2   
 14   7  12  1   
 15   8  13  1   
 16   8  26  1   
 17   8  27  1   
 18  10  14  1   
 19  11  15  1   
 20  11  28  1   
 21  11  29  1   
 22  12  16  1   
 23  12  30  1   
 24  13  17  1   
 25  13  31  1   
 26  13  32  1   
 27  14  16  2   
 28  15  33  1   
 29  15  34  1   
 30  15  35  1   
 31  16  18  1   
 32  17  36  1   
 33  17  37  1   
 34  17  38  1   
 35  18  19  1   
 36  18  20  1   
 37  18  39  1   
 38  19  21  1   
 39  19  40  1   
 40  19  41  1   
 41  20  22  1   
 42  20  42  1   
 43  20  43  1   
 44  21  22  1   
 45  21  23  2   
 46  22  44  1   
 47  22  45  1   
@<TRIPOS>SUBSTRUCTURE
  1 ****   7 GROUP 4 **** **** 0

# MOE 2024.06 (io_trps.svl 2023.06)
