@<TRIPOS>MOLECULE
NONAME
42 44 1 0 0 
SMALL
USER_CHARGES


@<TRIPOS>ATOM
  1 CL       1.3250     1.0710    -3.1800 Cl    1 <1>  -0.1770 
  2 C        2.4100     0.8410    -1.8320 C.ar  1 <1>   0.1770 
  3 C        2.7750     1.9470    -1.0540 C.ar  1 <1>   0.0000 
  4 C        2.8980    -0.4110    -1.5450 C.ar  1 <1>  -0.1500 
  5 C        3.6440     1.7540     0.0150 C.ar  1 <1>  -0.1520 
  6 C        2.4660     3.3190    -1.0680 C.2   1 <1>  -0.1500 
  7 C        3.7700    -0.5900    -0.4630 C.ar  1 <1>  -0.1500 
  8 N        3.8510     2.9630     0.6210 N.pl3 1 <1>   0.0330 
  9 C        4.1440     0.4820     0.3170 C.ar  1 <1>  -0.1500 
 10 C        3.1390     3.9310    -0.0500 C.2   1 <1>  -0.2370 
 11 C        3.1510     5.3130     0.3350 C.2   1 <1>   0.7150 
 12 O        2.1160     5.9400     0.4320 O.2   1 <1>  -0.5700 
 13 N        4.3650     5.9010     0.5740 N.am  1 <1>  -0.4940 
 14 C        4.6730     7.1770     1.1060 C.2   1 <1>  -0.0880 
 15 N        5.9130     7.7480     1.1400 N.pl3 1 <1>   0.3140 
 16 C        3.8320     8.0710     1.6790 C.2   1 <1>  -0.1500 
 17 N        5.8730     8.9680     1.7290 N.2   1 <1>  -0.7070 
 18 C        7.2140     7.2050     0.6470 C.3   1 <1>   0.1760 
 19 C        4.6280     9.1470     2.0400 C.2   1 <1>   0.1390 
 20 C        7.1830     6.8700    -0.8640 C.3   1 <1>  -0.1600 
 21 C        7.6490     6.0090     1.5230 C.3   1 <1>  -0.1600 
 22 C        6.6680     8.0270    -1.7340 C.3   1 <1>  -0.2400 
 23 C        9.0800     5.5280     1.2400 C.3   1 <1>  -0.2400 
 24 H        2.6120    -1.2530    -2.1490 H     1 <1>   0.1500 
 25 H        1.8000     3.7810    -1.7780 H     1 <1>   0.1500 
 26 H        4.1440    -1.5770    -0.2490 H     1 <1>   0.1500 
 27 H        4.3730     3.0990     1.4930 H     1 <1>   0.2700 
 28 H        4.8120     0.3490     1.1500 H     1 <1>   0.1500 
 29 H        5.1480     5.3650     0.2090 H     1 <1>   0.3700 
 30 H        2.7710     7.9870     1.8310 H     1 <1>   0.1500 
 31 H        7.9370     7.9900     0.7870 H     1 <1>   0.0800 
 32 H        4.2610    10.0370     2.5250 H     1 <1>   0.1500 
 33 H        6.5870     5.9950    -1.0450 H     1 <1>   0.0800 
 34 H        8.1830     6.6430    -1.1850 H     1 <1>   0.0800 
 35 H        6.9720     5.1850     1.3900 H     1 <1>   0.0800 
 36 H        7.6000     6.3160     2.5550 H     1 <1>   0.0800 
 37 H        5.6330     8.2380    -1.5260 H     1 <1>   0.0800 
 38 H        6.7550     7.7730    -2.7760 H     1 <1>   0.0800 
 39 H        7.2420     8.9190    -1.5510 H     1 <1>   0.0800 
 40 H        9.1620     5.1040     0.2550 H     1 <1>   0.0800 
 41 H        9.3580     4.7710     1.9530 H     1 <1>   0.0800 
 42 H        9.7760     6.3440     1.3270 H     1 <1>   0.0800 
@<TRIPOS>BOND
  1   1   2  1   
  2   2   3  ar  
  3   2   4  ar  
  4   3   5  ar  
  5   3   6  1   
  6   4   7  ar  
  7   4  24  1   
  8   5   8  1   
  9   5   9  ar  
 10   6  10  2   
 11   6  25  1   
 12   7   9  ar  
 13   7  26  1   
 14   8  10  1   
 15   8  27  1   
 16   9  28  1   
 17  10  11  1   
 18  11  12  2   
 19  11  13  am  
 20  13  14  1   
 21  13  29  1   
 22  14  15  1   
 23  14  16  2   
 24  15  17  1   
 25  15  18  1   
 26  16  19  1   
 27  16  30  1   
 28  17  19  2   
 29  18  20  1   
 30  18  21  1   
 31  18  31  1   
 32  19  32  1   
 33  20  22  1   
 34  20  33  1   
 35  20  34  1   
 36  21  23  1   
 37  21  35  1   
 38  21  36  1   
 39  22  37  1   
 40  22  38  1   
 41  22  39  1   
 42  23  40  1   
 43  23  41  1   
 44  23  42  1   
@<TRIPOS>SUBSTRUCTURE
  1 ****  13 GROUP 4 **** **** 0

# MOE 2024.06 (io_trps.svl 2023.06)
