@<TRIPOS>MOLECULE
NONAME
50 53 1 0 0 
SMALL
USER_CHARGES


@<TRIPOS>ATOM
  1 O       -0.5570    -0.2060     0.2950 O.3   1 <1>  -0.5600 
  2 C        0.2630     0.9290     0.2220 C.3   1 <1>   0.1200 
  3 C       -1.7350     0.0130    -0.4100 C.3   1 <1>   0.1200 
  4 C       -0.5800     2.0490    -0.3960 C.3   1 <1>   0.2890 
  5 C       -2.0040     1.5120    -0.2950 C.3   1 <1>  -0.0800 
  6 N       -0.3820     3.3460     0.2900 N.pl3 1 <1>  -0.8690 
  7 C       -2.7220     1.8480     1.0330 C.3   1 <1>  -0.0170 
  8 C        0.5800     4.2230    -0.0630 C.ar  1 <1>   0.7200 
  9 C       -4.1110     1.2200     1.1050 C.ar  1 <1>  -0.1440 
 10 N        0.3080     5.4760     0.2520 N.ar  1 <1>  -0.6200 
 11 N        1.6570     3.7580    -0.6780 N.ar  1 <1>  -0.6200 
 12 C       -5.2160     1.7350     0.3870 C.ar  1 <1>   0.0000 
 13 C       -4.3200     0.1180     1.8820 C.ar  1 <1>  -0.1500 
 14 C        1.2190     6.3650    -0.0690 C.ar  1 <1>   0.1670 
 15 C        2.5530     4.6610    -0.9870 C.ar  1 <1>   0.1600 
 16 C       -6.4520     1.0540     0.5090 C.ar  1 <1>   0.3100 
 17 C       -5.1710     2.8830    -0.4380 C.ar  1 <1>  -0.1500 
 18 C       -5.5860    -0.4740     1.9390 C.ar  1 <1>   0.1600 
 19 C        2.3940     6.0010    -0.7050 C.ar  1 <1>  -0.1430 
 20 C        0.8990     7.8090     0.3050 C.3   1 <1>  -0.0170 
 21 N       -6.6200    -0.0460     1.2860 N.ar  1 <1>  -0.6200 
 22 C       -7.5630     1.5320    -0.2040 C.ar  1 <1>  -0.1500 
 23 C       -6.2740     3.3240    -1.1170 C.ar  1 <1>  -0.1500 
 24 C        3.4840     6.9940    -1.0900 C.3   1 <1>  -0.0970 
 25 C        1.3250     8.1230     1.7440 C.3   1 <1>  -0.2400 
 26 C       -7.4870     2.6400    -1.0020 C.ar  1 <1>  -0.1500 
 27 H        0.5740     1.1800     1.2200 H     1 <1>   0.0800 
 28 H        1.1170     0.7030    -0.3900 H     1 <1>   0.0800 
 29 H       -1.5600    -0.2680    -1.4350 H     1 <1>   0.0800 
 30 H       -2.5150    -0.6040     0.0000 H     1 <1>   0.0800 
 31 H       -0.3060     2.1460    -1.4340 H     1 <1>   0.0800 
 32 H       -2.5910     1.8410    -1.1330 H     1 <1>   0.0800 
 33 H       -1.2160     3.8250     0.6140 H     1 <1>   0.4000 
 34 H       -2.8240     2.9110     1.1560 H     1 <1>   0.0800 
 35 H       -2.1240     1.4970     1.8570 H     1 <1>   0.0800 
 36 H       -3.5260    -0.3230     2.4580 H     1 <1>   0.1500 
 37 H        3.4460     4.3210    -1.4820 H     1 <1>   0.1500 
 38 H       -4.2520     3.4280    -0.5370 H     1 <1>   0.1500 
 39 H       -5.7070    -1.3430     2.5630 H     1 <1>   0.1500 
 40 H        1.3790     8.4910    -0.3720 H     1 <1>   0.0800 
 41 H       -0.1610     7.9630     0.2100 H     1 <1>   0.0800 
 42 H       -8.4860     0.9910    -0.0970 H     1 <1>   0.1500 
 43 H       -6.2250     4.1980    -1.7440 H     1 <1>   0.1500 
 44 H        4.3610     6.4840    -1.4470 H     1 <1>   0.0800 
 45 H        3.7660     7.5870    -0.2390 H     1 <1>   0.0800 
 46 H        3.1310     7.6450    -1.8700 H     1 <1>   0.0800 
 47 H        2.3850     7.9820     1.8620 H     1 <1>   0.0800 
 48 H        0.8150     7.4660     2.4280 H     1 <1>   0.0800 
 49 H        1.0790     9.1390     1.9920 H     1 <1>   0.0800 
 50 H       -8.3480     2.9940    -1.5420 H     1 <1>   0.1500 
@<TRIPOS>BOND
  1   1   2  1   
  2   1   3  1   
  3   2   4  1   
  4   2  27  1   
  5   2  28  1   
  6   3   5  1   
  7   3  29  1   
  8   3  30  1   
  9   4   5  1   
 10   4   6  1   
 11   4  31  1   
 12   5   7  1   
 13   5  32  1   
 14   6   8  1   
 15   6  33  1   
 16   7   9  1   
 17   7  34  1   
 18   7  35  1   
 19   8  10  ar  
 20   8  11  ar  
 21   9  12  ar  
 22   9  13  ar  
 23  10  14  ar  
 24  11  15  ar  
 25  12  16  ar  
 26  12  17  ar  
 27  13  18  ar  
 28  13  36  1   
 29  14  19  ar  
 30  14  20  1   
 31  15  19  ar  
 32  15  37  1   
 33  16  21  ar  
 34  16  22  ar  
 35  17  23  ar  
 36  17  38  1   
 37  18  21  ar  
 38  18  39  1   
 39  19  24  1   
 40  20  25  1   
 41  20  40  1   
 42  20  41  1   
 43  22  26  ar  
 44  22  42  1   
 45  23  26  ar  
 46  23  43  1   
 47  24  44  1   
 48  24  45  1   
 49  24  46  1   
 50  25  47  1   
 51  25  48  1   
 52  25  49  1   
 53  26  50  1   
@<TRIPOS>SUBSTRUCTURE
  1 ****   5 GROUP 4 **** **** 0

# MOE 2024.06 (io_trps.svl 2023.06)
