@<TRIPOS>MOLECULE
NONAME
45 48 1 0 0 
SMALL
USER_CHARGES


@<TRIPOS>ATOM
  1 O        0.9900    -0.5730    -1.2160 O.3   1 <1>  -0.0190 
  2 N        1.1600     0.7170    -1.2510 N.2   1 <1>  -0.4100 
  3 C        1.2880    -1.0730    -0.0450 C.2   1 <1>  -0.0400 
  4 C        1.5750     1.0530    -0.0820 C.2   1 <1>   0.1080 
  5 C        1.6810    -0.0620     0.7450 C.2   1 <1>  -0.1500 
  6 C        1.1620    -2.5660     0.2000 C.3   1 <1>   0.2900 
  7 C        1.8990     2.4710     0.3310 C.3   1 <1>  -0.0590 
  8 N       -0.2010    -2.9330     0.6240 N.3   1 <1>  -0.8100 
  9 C       -1.2310    -2.5830    -0.3650 C.3   1 <1>   0.1100 
 10 C       -0.3390    -4.3790     0.8710 C.3   1 <1>   0.1100 
 11 C       -2.4110    -3.4750    -0.0030 C.3   1 <1>   0.2000 
 12 C       -1.7390    -4.7930     0.3770 C.3   1 <1>  -0.0800 
 13 O       -2.9900    -2.9550     1.1380 O.3   1 <1>  -0.6800 
 14 C       -1.6700    -5.7420    -0.8350 C.3   1 <1>  -0.0170 
 15 C       -0.9990    -7.0610    -0.4880 C.ar  1 <1>   0.1670 
 16 N        0.2330    -7.2260    -0.8620 N.ar  1 <1>  -0.6200 
 17 C       -1.7350    -8.0290     0.2150 C.ar  1 <1>  -0.1500 
 18 C        0.8370    -8.4020    -0.5500 C.ar  1 <1>   0.3100 
 19 C       -1.1540    -9.2160     0.5420 C.ar  1 <1>  -0.1500 
 20 C        0.1790    -9.4330     0.1570 C.ar  1 <1>   0.0000 
 21 C        2.1690    -8.6060    -0.9430 C.ar  1 <1>  -0.1500 
 22 C        0.8800   -10.6210     0.4440 C.ar  1 <1>  -0.1500 
 23 C        2.8330    -9.7690    -0.6550 C.ar  1 <1>  -0.1500 
 24 C        2.1800   -10.7870     0.0480 C.ar  1 <1>  -0.1500 
 25 H        1.9990    -0.0770     1.7700 H     1 <1>   0.1500 
 26 H        1.8490    -2.8450     0.9800 H     1 <1>   0.0800 
 27 H        1.4330    -3.1000    -0.6950 H     1 <1>   0.0800 
 28 H        1.2620     2.7680     1.1430 H     1 <1>   0.0800 
 29 H        1.7430     3.1390    -0.4970 H     1 <1>   0.0800 
 30 H        2.9250     2.5350     0.6420 H     1 <1>   0.0800 
 31 H       -1.4890    -1.5380    -0.3190 H     1 <1>   0.0800 
 32 H       -0.8890    -2.8210    -1.3580 H     1 <1>   0.0800 
 33 H        0.4290    -4.9290     0.3550 H     1 <1>   0.0800 
 34 H       -0.2430    -4.5690     1.9270 H     1 <1>   0.0800 
 35 H       -3.1590    -3.5530    -0.7720 H     1 <1>   0.0800 
 36 H       -2.2860    -5.2830     1.1630 H     1 <1>   0.0800 
 37 H       -2.2470    -2.6680     1.7120 H     1 <1>   0.4000 
 38 H       -1.1290    -5.2740    -1.6390 H     1 <1>   0.0800 
 39 H       -2.6640    -5.9440    -1.1910 H     1 <1>   0.0800 
 40 H       -2.7530    -7.8190     0.4890 H     1 <1>   0.1500 
 41 H       -1.6850    -9.9810     1.0800 H     1 <1>   0.1500 
 42 H        2.6520    -7.8130    -1.4830 H     1 <1>   0.1500 
 43 H        0.3730   -11.4000     0.9840 H     1 <1>   0.1500 
 44 H        3.8540    -9.9130    -0.9620 H     1 <1>   0.1500 
 45 H        2.7130   -11.6970     0.2680 H     1 <1>   0.1500 
@<TRIPOS>BOND
  1   1   2  1   
  2   1   3  1   
  3   2   4  2   
  4   3   5  2   
  5   3   6  1   
  6   4   5  1   
  7   4   7  1   
  8   5  25  1   
  9   6   8  1   
 10   6  26  1   
 11   6  27  1   
 12   7  28  1   
 13   7  29  1   
 14   7  30  1   
 15   8   9  1   
 16   8  10  1   
 17   9  11  1   
 18   9  31  1   
 19   9  32  1   
 20  10  12  1   
 21  10  33  1   
 22  10  34  1   
 23  11  12  1   
 24  11  13  1   
 25  11  35  1   
 26  12  14  1   
 27  12  36  1   
 28  13  37  1   
 29  14  15  1   
 30  14  38  1   
 31  14  39  1   
 32  15  16  ar  
 33  15  17  ar  
 34  16  18  ar  
 35  17  19  ar  
 36  17  40  1   
 37  18  20  ar  
 38  18  21  ar  
 39  19  20  ar  
 40  19  41  1   
 41  20  22  ar  
 42  21  23  ar  
 43  21  42  1   
 44  22  24  ar  
 45  22  43  1   
 46  23  24  ar  
 47  23  44  1   
 48  24  45  1   
@<TRIPOS>SUBSTRUCTURE
  1 ****  10 GROUP 4 **** **** 0

# MOE 2024.06 (io_trps.svl 2023.06)
