@<TRIPOS>MOLECULE
NONAME
60 62 1 0 0 
SMALL
USER_CHARGES


@<TRIPOS>ATOM
  1 O       -1.2170     0.0310     1.9030 O.2   1 <1>  -0.5700 
  2 C       -1.6580     0.9220     1.2080 C.2   1 <1>   0.5690 
  3 N       -2.5410     0.6110     0.2000 N.am  1 <1>  -0.6600 
  4 C       -1.2670     2.3740     1.5440 C.3   1 <1>   0.1710 
  5 C       -2.6630    -0.7830    -0.2560 C.3   1 <1>   0.1400 
  6 C       -3.7740     1.3790    -0.0950 C.3   1 <1>   0.1400 
  7 N       -0.2990     3.0180     0.6120 N.3   1 <1>  -0.8100 
  8 C       -3.8770    -1.3260     0.5140 C.3   1 <1>   0.4230 
  9 C       -5.0110     0.6140     0.4480 C.3   1 <1>  -0.1600 
 10 C        0.2570     4.2500     1.2050 C.3   1 <1>   0.2540 
 11 C       -0.8680     3.2680    -0.7230 C.3   1 <1>   0.0300 
 12 N       -3.7200    -2.7450     1.0060 N.4   1 <1>  -0.9590 
 13 C       -5.2320    -0.8600    -0.2070 C.3   1 <1>   0.0000 
 14 C        1.3960     4.8220     0.3690 C.ar  1 <1>  -0.1440 
 15 C       -3.4690    -3.6950    -0.0920 C.3   1 <1>   0.3430 
 16 C       -2.6540    -2.8250     2.0590 C.3   1 <1>   0.2630 
 17 C       -5.4500    -2.2870    -0.9380 C.3   1 <1>  -0.1600 
 18 C       -6.6130    -0.3610    -0.8460 C.3   1 <1>   0.1200 
 19 C        2.4740     4.0240     0.0190 C.ar  1 <1>  -0.1500 
 20 C        1.3730     6.1440    -0.0470 C.ar  1 <1>  -0.1500 
 21 C       -4.2920    -3.2550    -1.2890 C.3   1 <1>  -0.1600 
 22 O       -6.3430     0.3860    -1.9910 O.3   1 <1>  -0.6800 
 23 C        3.5160     4.5390    -0.7330 C.ar  1 <1>  -0.1500 
 24 C        2.4150     6.6600    -0.8000 C.ar  1 <1>  -0.1500 
 25 C        3.4920     5.8610    -1.1460 C.ar  1 <1>  -0.1440 
 26 C        4.6330     6.4270    -1.9720 C.3   1 <1>  -0.0970 
 27 H       -0.8200     2.3440     2.5220 H     1 <1>   0.0800 
 28 H       -2.1490     2.9800     1.6210 H     1 <1>   0.0800 
 29 H       -2.8300    -0.7950    -1.3190 H     1 <1>   0.0800 
 30 H       -1.7610    -1.3250    -0.0350 H     1 <1>   0.0800 
 31 H       -3.7260     2.3590     0.3480 H     1 <1>   0.0800 
 32 H       -3.8650     1.5070    -1.1620 H     1 <1>   0.0800 
 33 H       -3.8130    -0.7990     1.4480 H     1 <1>   0.0800 
 34 H       -4.9730     0.5770     1.5250 H     1 <1>   0.0800 
 35 H       -5.7720     1.3650     0.3070 H     1 <1>   0.0800 
 36 H       -0.5240     4.9840     1.3130 H     1 <1>   0.0800 
 37 H        0.6460     4.0290     2.1840 H     1 <1>   0.0800 
 38 H       -0.1280     3.7150    -1.3660 H     1 <1>   0.0800 
 39 H       -1.7150     3.9290    -0.6580 H     1 <1>   0.0800 
 40 H       -1.1690     2.3420    -1.1790 H     1 <1>   0.0800 
 41 H       -4.6200    -2.9970     1.4330 H     1 <1>   0.4500 
 42 H       -2.4230    -3.7050    -0.3560 H     1 <1>   0.0800 
 43 H       -3.7560    -4.6890     0.2130 H     1 <1>   0.0800 
 44 H       -1.6930    -2.5560     1.6480 H     1 <1>   0.0800 
 45 H       -2.5920    -3.8230     2.4600 H     1 <1>   0.0800 
 46 H       -2.8710    -2.1420     2.8650 H     1 <1>   0.0800 
 47 H       -6.1720    -2.8510    -0.3670 H     1 <1>   0.0800 
 48 H       -5.8620    -2.1740    -1.9330 H     1 <1>   0.0800 
 49 H       -7.2250     0.2280    -0.1820 H     1 <1>   0.0800 
 50 H       -7.3250    -1.1220    -1.1320 H     1 <1>   0.0800 
 51 H        2.4950     2.9940     0.3320 H     1 <1>   0.1500 
 52 H        0.5460     6.7800     0.2120 H     1 <1>   0.1500 
 53 H       -3.6420    -2.7940    -2.0120 H     1 <1>   0.0800 
 54 H       -4.6890    -4.1340    -1.7670 H     1 <1>   0.0800 
 55 H       -7.1700     0.6780    -2.4270 H     1 <1>   0.4000 
 56 H        4.3420     3.9030    -0.9960 H     1 <1>   0.1500 
 57 H        2.3810     7.6870    -1.1170 H     1 <1>   0.1500 
 58 H        5.5550     5.9300    -1.7290 H     1 <1>   0.0800 
 59 H        4.7530     7.4770    -1.7790 H     1 <1>   0.0800 
 60 H        4.4270     6.2860    -3.0180 H     1 <1>   0.0800 
@<TRIPOS>BOND
  1   1   2  2   
  2   2   3  am  
  3   2   4  1   
  4   3   5  1   
  5   3   6  1   
  6   4   7  1   
  7   4  27  1   
  8   4  28  1   
  9   5   8  1   
 10   5  29  1   
 11   5  30  1   
 12   6   9  1   
 13   6  31  1   
 14   6  32  1   
 15   7  10  1   
 16   7  11  1   
 17   8  12  1   
 18   8  13  1   
 19   8  33  1   
 20   9  13  1   
 21   9  34  1   
 22   9  35  1   
 23  10  14  1   
 24  10  36  1   
 25  10  37  1   
 26  11  38  1   
 27  11  39  1   
 28  11  40  1   
 29  12  15  1   
 30  12  16  1   
 31  12  41  1   
 32  13  17  1   
 33  13  18  1   
 34  14  19  ar  
 35  14  20  ar  
 36  15  21  1   
 37  15  42  1   
 38  15  43  1   
 39  16  44  1   
 40  16  45  1   
 41  16  46  1   
 42  17  21  1   
 43  17  47  1   
 44  17  48  1   
 45  18  22  1   
 46  18  49  1   
 47  18  50  1   
 48  19  23  ar  
 49  19  51  1   
 50  20  24  ar  
 51  20  52  1   
 52  21  53  1   
 53  21  54  1   
 54  22  55  1   
 55  23  25  ar  
 56  23  56  1   
 57  24  25  ar  
 58  24  57  1   
 59  25  26  1   
 60  26  58  1   
 61  26  59  1   
 62  26  60  1   
@<TRIPOS>SUBSTRUCTURE
  1 ****   3 GROUP 4 **** **** 0

# MOE 2024.06 (io_trps.svl 2023.06)
