@<TRIPOS>MOLECULE
NONAME
52 54 1 0 0 
SMALL
USER_CHARGES


@<TRIPOS>ATOM
  1 O       -1.3530     0.7040    -2.4380 O.2   1 <1>  -0.5700 
  2 C       -2.0690     1.2480    -1.6200 C.2   1 <1>   0.6160 
  3 N       -3.1000     0.5300    -1.0420 N.am  1 <1>  -0.6600 
  4 C       -1.8330     2.6360    -1.2940 C.2   1 <1>  -0.0140 
  5 C       -3.4230    -0.8590    -1.4890 C.3   1 <1>   0.1400 
  6 C       -4.0240     1.0760    -0.0100 C.3   1 <1>   0.1400 
  7 C       -0.6400     3.0250    -0.5730 C.ar  1 <1>   0.0280 
  8 C       -2.7260     3.6020    -1.6510 C.2   1 <1>  -0.1360 
  9 C       -3.4750    -1.8850    -0.3300 C.3   1 <1>   0.0000 
 10 C       -4.0540     0.1550     1.2090 C.3   1 <1>  -0.1600 
 11 C       -0.4780     4.3760    -0.2160 C.ar  1 <1>   0.1170 
 12 C        0.3730     2.1320    -0.2060 C.ar  1 <1>  -0.1500 
 13 C       -2.5500     4.9650    -1.3050 C.2   1 <1>   0.6160 
 14 C       -4.3540    -1.2950     0.8090 C.3   1 <1>   0.2000 
 15 C       -4.2280    -3.1370    -0.8520 C.3   1 <1>   0.1200 
 16 C       -2.0400    -2.3450     0.0960 C.3   1 <1>  -0.1600 
 17 N       -1.4450     5.3000    -0.5930 N.am  1 <1>  -0.5470 
 18 C        0.6420     4.7840     0.5020 C.ar  1 <1>  -0.1500 
 19 C        1.4830     2.5410     0.5050 C.ar  1 <1>  -0.1430 
 20 O       -3.3460     5.8350    -1.6000 O.2   1 <1>  -0.5700 
 21 O       -4.2700    -2.0820     1.9410 O.3   1 <1>  -0.6800 
 22 O       -3.5720    -3.7320    -1.9260 O.3   1 <1>  -0.6800 
 23 C       -1.1660    -1.3870     0.9220 C.3   1 <1>  -0.1600 
 24 C        1.6130     3.8770     0.8630 C.ar  1 <1>  -0.1500 
 25 C        2.5670     1.5520     0.8950 C.3   1 <1>  -0.0970 
 26 C        0.2720    -1.9030     1.0220 C.3   1 <1>  -0.2400 
 27 H       -4.3830    -0.8240    -1.9750 H     1 <1>   0.0800 
 28 H       -2.7110    -1.1930    -2.2230 H     1 <1>   0.0800 
 29 H       -3.7190     2.0580     0.3080 H     1 <1>   0.0800 
 30 H       -5.0110     1.1530    -0.4320 H     1 <1>   0.0800 
 31 H       -3.6130     3.3740    -2.2100 H     1 <1>   0.1500 
 32 H       -4.8250     0.4970     1.8750 H     1 <1>   0.0800 
 33 H       -3.1210     0.2430     1.7270 H     1 <1>   0.0800 
 34 H        0.2940     1.0980    -0.4890 H     1 <1>   0.1500 
 35 H       -5.3840    -1.3250     0.4950 H     1 <1>   0.0800 
 36 H       -5.2240    -2.8860    -1.1740 H     1 <1>   0.0800 
 37 H       -4.3040    -3.8770    -0.0730 H     1 <1>   0.0800 
 38 H       -2.1250    -3.2630     0.6520 H     1 <1>   0.0800 
 39 H       -1.4960    -2.5910    -0.8000 H     1 <1>   0.0800 
 40 H       -1.3490     6.2890    -0.3710 H     1 <1>   0.3700 
 41 H        0.7500     5.8180     0.7750 H     1 <1>   0.1500 
 42 H       -3.3320    -2.1800     2.1960 H     1 <1>   0.4000 
 43 H       -3.4930    -3.1230    -2.6850 H     1 <1>   0.4000 
 44 H       -1.1470    -0.4150     0.4680 H     1 <1>   0.0800 
 45 H       -1.5560    -1.2930     1.9180 H     1 <1>   0.0800 
 46 H        2.4760     4.2010     1.4180 H     1 <1>   0.1500 
 47 H        3.5310     1.9310     0.6070 H     1 <1>   0.0800 
 48 H        2.4160     0.6050     0.4080 H     1 <1>   0.0800 
 49 H        2.5560     1.3990     1.9590 H     1 <1>   0.0800 
 50 H        0.7170    -1.9650     0.0440 H     1 <1>   0.0800 
 51 H        0.2920    -2.8790     1.4740 H     1 <1>   0.0800 
 52 H        0.8610    -1.2340     1.6240 H     1 <1>   0.0800 
@<TRIPOS>BOND
  1   1   2  2   
  2   2   3  am  
  3   2   4  1   
  4   3   5  1   
  5   3   6  1   
  6   4   7  1   
  7   4   8  2   
  8   5   9  1   
  9   5  27  1   
 10   5  28  1   
 11   6  10  1   
 12   6  29  1   
 13   6  30  1   
 14   7  11  ar  
 15   7  12  ar  
 16   8  13  1   
 17   8  31  1   
 18   9  14  1   
 19   9  15  1   
 20   9  16  1   
 21  10  14  1   
 22  10  32  1   
 23  10  33  1   
 24  11  17  1   
 25  11  18  ar  
 26  12  19  ar  
 27  12  34  1   
 28  13  17  am  
 29  13  20  2   
 30  14  21  1   
 31  14  35  1   
 32  15  22  1   
 33  15  36  1   
 34  15  37  1   
 35  16  23  1   
 36  16  38  1   
 37  16  39  1   
 38  17  40  1   
 39  18  24  ar  
 40  18  41  1   
 41  19  24  ar  
 42  19  25  1   
 43  21  42  1   
 44  22  43  1   
 45  23  26  1   
 46  23  44  1   
 47  23  45  1   
 48  24  46  1   
 49  25  47  1   
 50  25  48  1   
 51  25  49  1   
 52  26  50  1   
 53  26  51  1   
 54  26  52  1   
@<TRIPOS>SUBSTRUCTURE
  1 ****   2 GROUP 4 **** **** 0

# MOE 2024.06 (io_trps.svl 2023.06)
