@<TRIPOS>MOLECULE
NONAME
43 45 1 0 0 
SMALL
USER_CHARGES


@<TRIPOS>ATOM
  1 CL      -2.1490     1.1080    -1.1680 Cl    1 <1>  -0.1770 
  2 C       -1.0560     2.1510    -0.2820 C.ar  1 <1>   0.1770 
  3 C       -1.4990     2.7510     0.8940 C.ar  1 <1>   0.0860 
  4 C        0.2230     2.3600    -0.7820 C.ar  1 <1>  -0.1440 
  5 C       -2.8330     2.5370     1.4040 C.2   1 <1>   0.5440 
  6 C       -0.6040     3.5750     1.5740 C.ar  1 <1>  -0.1500 
  7 C        1.0860     3.1900    -0.0840 C.ar  1 <1>  -0.1500 
  8 C        0.6860     1.6940    -2.0710 C.3   1 <1>  -0.0960 
  9 O       -2.9920     1.7470     2.3160 O.2   1 <1>  -0.5700 
 10 N       -3.9170     3.2290     0.9070 N.am  1 <1>  -0.6600 
 11 C        0.6730     3.7940     1.0910 C.ar  1 <1>  -0.1500 
 12 C       -5.3060     2.9330     1.3650 C.3   1 <1>   0.1400 
 13 C       -3.8240     4.2100    -0.2180 C.3   1 <1>   0.1400 
 14 C       -6.1150     2.2660     0.2300 C.3   1 <1>   0.0000 
 15 C       -5.1270     4.2690    -1.0340 C.3   1 <1>  -0.1600 
 16 C       -7.6190     2.3350     0.5570 C.3   1 <1>   0.2000 
 17 C       -5.7580     2.8730    -1.1650 C.3   1 <1>  -0.1600 
 18 C       -5.8990     0.7440     0.1900 C.3   1 <1>  -0.1600 
 19 O       -8.1880     3.5420     0.1940 O.3   1 <1>  -0.6800 
 20 C       -8.2770     1.1780    -0.1980 C.3   1 <1>  -0.1600 
 21 C       -7.1500     0.1780    -0.4910 C.3   1 <1>  -0.1600 
 22 H       -0.9210     4.0390     2.4920 H     1 <1>   0.1500 
 23 H        2.0830     3.3700    -0.4470 H     1 <1>   0.1500 
 24 H        1.7010     1.9640    -2.3040 H     1 <1>   0.0800 
 25 H        0.0570     1.9970    -2.8890 H     1 <1>   0.0800 
 26 H        0.6340     0.6250    -1.9710 H     1 <1>   0.0800 
 27 H        1.3500     4.4340     1.6310 H     1 <1>   0.1500 
 28 H       -5.3020     2.3090     2.2410 H     1 <1>   0.0800 
 29 H       -5.7740     3.8630     1.6410 H     1 <1>   0.0800 
 30 H       -3.5960     5.1850     0.1770 H     1 <1>   0.0800 
 31 H       -3.0260     3.9220    -0.8780 H     1 <1>   0.0800 
 32 H       -5.8180     4.9400    -0.5530 H     1 <1>   0.0800 
 33 H       -4.9140     4.6720    -2.0090 H     1 <1>   0.0800 
 34 H       -7.7730     2.2010     1.6150 H     1 <1>   0.0800 
 35 H       -5.0310     2.2480    -1.6540 H     1 <1>   0.0800 
 36 H       -6.6150     2.9070    -1.8130 H     1 <1>   0.0800 
 37 H       -4.9910     0.4590    -0.3130 H     1 <1>   0.0800 
 38 H       -5.8510     0.3600     1.1950 H     1 <1>   0.0800 
 39 H       -7.9880     3.7200    -0.7430 H     1 <1>   0.4000 
 40 H       -9.0360     0.7260     0.4170 H     1 <1>   0.0800 
 41 H       -8.7170     1.5120    -1.1210 H     1 <1>   0.0800 
 42 H       -7.3820    -0.8060    -0.1200 H     1 <1>   0.0800 
 43 H       -6.9860     0.1190    -1.5540 H     1 <1>   0.0800 
@<TRIPOS>BOND
  1   1   2  1   
  2   2   3  ar  
  3   2   4  ar  
  4   3   5  1   
  5   3   6  ar  
  6   4   7  ar  
  7   4   8  1   
  8   5   9  2   
  9   5  10  am  
 10   6  11  ar  
 11   6  22  1   
 12   7  11  ar  
 13   7  23  1   
 14   8  24  1   
 15   8  25  1   
 16   8  26  1   
 17  10  12  1   
 18  10  13  1   
 19  11  27  1   
 20  12  14  1   
 21  12  28  1   
 22  12  29  1   
 23  13  15  1   
 24  13  30  1   
 25  13  31  1   
 26  14  16  1   
 27  14  17  1   
 28  14  18  1   
 29  15  17  1   
 30  15  32  1   
 31  15  33  1   
 32  16  19  1   
 33  16  20  1   
 34  16  34  1   
 35  17  35  1   
 36  17  36  1   
 37  18  21  1   
 38  18  37  1   
 39  18  38  1   
 40  19  39  1   
 41  20  21  1   
 42  20  40  1   
 43  20  41  1   
 44  21  42  1   
 45  21  43  1   
@<TRIPOS>SUBSTRUCTURE
  1 ****  10 GROUP 4 **** **** 0

# MOE 2024.06 (io_trps.svl 2023.06)
