@<TRIPOS>MOLECULE
NONAME
50 53 1 0 0 
SMALL
USER_CHARGES


@<TRIPOS>ATOM
  1 O        0.9060    -0.4070     1.1260 O.3   1 <1>  -0.5600 
  2 C        1.9180    -1.0280     0.3680 C.3   1 <1>   0.4240 
  3 C       -0.4160    -0.7220     0.8180 C.3   1 <1>   0.1200 
  4 C        1.5740    -2.4980     0.0480 C.ar  1 <1>  -0.1440 
  5 C        3.1780    -0.9550     1.2420 C.3   1 <1>  -0.1600 
  6 C        2.1210    -0.2090    -0.9180 C.3   1 <1>  -0.1600 
  7 C       -0.6610    -2.1930     1.1420 C.3   1 <1>  -0.0160 
  8 C        0.3560    -3.0520     0.4170 C.ar  1 <1>  -0.1440 
  9 C        2.4840    -3.3030    -0.6250 C.ar  1 <1>  -0.1500 
 10 C        3.5850     0.4910     1.5160 C.3   1 <1>   0.2090 
 11 C        2.5510     1.2260    -0.6150 C.3   1 <1>   0.2090 
 12 C        0.0630    -4.3740     0.1230 C.ar  1 <1>  -0.1500 
 13 C        2.2130    -4.6280    -0.9210 C.ar  1 <1>   0.0820 
 14 N        3.7910     1.1950     0.2150 N.pl3 1 <1>  -0.8380 
 15 C        0.9760    -5.1800    -0.5520 C.ar  1 <1>   0.0820 
 16 O        3.2200    -5.2800    -1.5710 O.3   1 <1>  -0.3630 
 17 C        4.9720     1.7490    -0.1640 C.ar  1 <1>   0.1000 
 18 O        0.6800    -6.4750    -0.8720 O.3   1 <1>  -0.3630 
 19 C        3.4230    -6.6670    -1.4110 C.3   1 <1>   0.0400 
 20 C        5.0260     2.9520    -0.8800 C.ar  1 <1>  -0.1500 
 21 C        6.1980     1.1450     0.1440 C.ar  1 <1>  -0.1500 
 22 C       -0.6000    -7.0290    -0.6620 C.3   1 <1>   0.0400 
 23 C        6.2250     3.4990    -1.2540 C.ar  1 <1>   0.2110 
 24 C        7.3830     1.7140    -0.2410 C.ar  1 <1>   0.2110 
 25 N        7.3900     2.8810    -0.9340 N.ar  1 <1>  -0.1790 
 26 H       -0.5970    -0.5200    -0.2230 H     1 <1>   0.0800 
 27 H       -1.0530    -0.0940     1.4160 H     1 <1>   0.0800 
 28 H        3.9970    -1.4510     0.7580 H     1 <1>   0.0800 
 29 H        2.9900    -1.4640     2.1690 H     1 <1>   0.0800 
 30 H        1.2210    -0.2100    -1.5010 H     1 <1>   0.0800 
 31 H        2.8860    -0.6660    -1.5170 H     1 <1>   0.0800 
 32 H       -1.6580    -2.4590     0.8420 H     1 <1>   0.0800 
 33 H       -0.5730    -2.3440     2.2030 H     1 <1>   0.0800 
 34 H        3.4350    -2.9120    -0.9350 H     1 <1>   0.1500 
 35 H        4.4790     0.5200     2.1130 H     1 <1>   0.0800 
 36 H        2.8080     0.9920     2.0690 H     1 <1>   0.0800 
 37 H        1.7720     1.7420    -0.0780 H     1 <1>   0.0800 
 38 H        2.7260     1.7420    -1.5430 H     1 <1>   0.0800 
 39 H       -0.8880    -4.7600     0.4320 H     1 <1>   0.1500 
 40 H        4.4280    -6.8950    -1.7140 H     1 <1>   0.0800 
 41 H        2.7270    -7.1940    -2.0380 H     1 <1>   0.0800 
 42 H        3.2790    -6.9260    -0.3770 H     1 <1>   0.0800 
 43 H        4.1050     3.4510    -1.1210 H     1 <1>   0.1500 
 44 H        6.1950     0.2130     0.6810 H     1 <1>   0.1500 
 45 H       -0.5980    -8.0310    -1.0510 H     1 <1>   0.0800 
 46 H       -1.3280    -6.4360    -1.1860 H     1 <1>   0.0800 
 47 H       -0.8040    -7.0490     0.3940 H     1 <1>   0.0800 
 48 H        6.2620     4.4270    -1.8020 H     1 <1>   0.1500 
 49 H        8.3250     1.2440    -0.0040 H     1 <1>   0.1500 
 50 H        8.2830     3.3000    -1.2170 H     1 <1>   0.4570 
@<TRIPOS>BOND
  1   1   2  1   
  2   1   3  1   
  3   2   4  1   
  4   2   5  1   
  5   2   6  1   
  6   3   7  1   
  7   3  26  1   
  8   3  27  1   
  9   4   8  ar  
 10   4   9  ar  
 11   5  10  1   
 12   5  28  1   
 13   5  29  1   
 14   6  11  1   
 15   6  30  1   
 16   6  31  1   
 17   7   8  1   
 18   7  32  1   
 19   7  33  1   
 20   8  12  ar  
 21   9  13  ar  
 22   9  34  1   
 23  10  14  1   
 24  10  35  1   
 25  10  36  1   
 26  11  14  1   
 27  11  37  1   
 28  11  38  1   
 29  12  15  ar  
 30  12  39  1   
 31  13  15  ar  
 32  13  16  1   
 33  14  17  1   
 34  15  18  1   
 35  16  19  1   
 36  17  20  ar  
 37  17  21  ar  
 38  18  22  1   
 39  19  40  1   
 40  19  41  1   
 41  19  42  1   
 42  20  23  ar  
 43  20  43  1   
 44  21  24  ar  
 45  21  44  1   
 46  22  45  1   
 47  22  46  1   
 48  22  47  1   
 49  23  25  ar  
 50  23  48  1   
 51  24  25  ar  
 52  24  49  1   
 53  25  50  1   
@<TRIPOS>SUBSTRUCTURE
  1 ****   2 GROUP 4 **** **** 0

# MOE 2024.06 (io_trps.svl 2023.06)
