@<TRIPOS>MOLECULE
NONAME
39 41 1 0 0 
SMALL
USER_CHARGES


@<TRIPOS>ATOM
  1 F        1.3970    -0.2640     2.2260 F     1 <1>  -0.1900 
  2 C        1.9940    -0.8580     1.2300 C.ar  1 <1>   0.1900 
  3 C        2.6380    -0.0830     0.2870 C.ar  1 <1>  -0.1500 
  4 C        1.9550    -2.2380     1.1610 C.ar  1 <1>  -0.1500 
  5 C        3.2570    -0.7580    -0.7460 C.ar  1 <1>   0.1900 
  6 C        2.5750    -2.9090     0.1040 C.ar  1 <1>   0.0860 
  7 F        3.8820    -0.0660    -1.6580 F     1 <1>  -0.1900 
  8 C        3.2400    -2.1360    -0.8510 C.ar  1 <1>  -0.1500 
  9 C        2.5460    -4.3550    -0.0050 C.2   1 <1>   0.5440 
 10 O        3.5680    -4.9570    -0.2670 O.2   1 <1>  -0.5700 
 11 N        1.3840    -5.0730     0.1660 N.am  1 <1>  -0.6600 
 12 C        0.0140    -4.5260    -0.0080 C.3   1 <1>   0.1400 
 13 C        1.3640    -6.5560     0.0920 C.3   1 <1>   0.1400 
 14 C       -0.8220    -5.7160    -0.4740 C.3   1 <1>   0.2000 
 15 C       -0.1150    -6.9470     0.0870 C.3   1 <1>  -0.0800 
 16 O       -2.1210    -5.6480     0.0030 O.3   1 <1>  -0.6800 
 17 C       -0.4090    -8.2250    -0.7120 C.3   1 <1>   0.0200 
 18 C        0.3710    -9.4010    -0.1570 C.2   1 <1>  -0.0400 
 19 O        0.1460    -9.8190     1.0600 O.3   1 <1>  -0.0190 
 20 C        1.3330   -10.1710    -0.6870 C.2   1 <1>  -0.1500 
 21 N        0.9080   -10.8250     1.3750 N.2   1 <1>  -0.4100 
 22 C        1.6340   -11.0600     0.3410 C.2   1 <1>   0.1080 
 23 C        2.6740   -12.1560     0.2630 C.3   1 <1>  -0.0590 
 24 H        2.6600     0.9880     0.3540 H     1 <1>   0.1500 
 25 H        1.4510    -2.7940     1.9310 H     1 <1>   0.1500 
 26 H        3.7450    -2.6180    -1.6710 H     1 <1>   0.1500 
 27 H       -0.3430    -4.1600     0.9390 H     1 <1>   0.0800 
 28 H        0.0040    -3.7400    -0.7430 H     1 <1>   0.0800 
 29 H        1.8500    -6.8680    -0.8180 H     1 <1>   0.0800 
 30 H        1.8830    -6.9860     0.9330 H     1 <1>   0.0800 
 31 H       -0.8550    -5.7360    -1.5500 H     1 <1>   0.0800 
 32 H       -0.4070    -7.0920     1.1130 H     1 <1>   0.0800 
 33 H       -2.1360    -5.7380     0.9760 H     1 <1>   0.4000 
 34 H       -0.1460    -8.0830    -1.7450 H     1 <1>   0.0800 
 35 H       -1.4610    -8.4480    -0.6630 H     1 <1>   0.0800 
 36 H        1.7880   -10.1400    -1.6590 H     1 <1>   0.1500 
 37 H        2.4320   -12.8330    -0.5350 H     1 <1>   0.0800 
 38 H        2.7000   -12.7030     1.1890 H     1 <1>   0.0800 
 39 H        3.6420   -11.7260     0.0850 H     1 <1>   0.0800 
@<TRIPOS>BOND
  1   1   2  1   
  2   2   3  ar  
  3   2   4  ar  
  4   3   5  ar  
  5   3  24  1   
  6   4   6  ar  
  7   4  25  1   
  8   5   7  1   
  9   5   8  ar  
 10   6   8  ar  
 11   6   9  1   
 12   8  26  1   
 13   9  10  2   
 14   9  11  am  
 15  11  12  1   
 16  11  13  1   
 17  12  14  1   
 18  12  27  1   
 19  12  28  1   
 20  13  15  1   
 21  13  29  1   
 22  13  30  1   
 23  14  15  1   
 24  14  16  1   
 25  14  31  1   
 26  15  17  1   
 27  15  32  1   
 28  16  33  1   
 29  17  18  1   
 30  17  34  1   
 31  17  35  1   
 32  18  19  1   
 33  18  20  2   
 34  19  21  1   
 35  20  22  1   
 36  20  36  1   
 37  21  22  2   
 38  22  23  1   
 39  23  37  1   
 40  23  38  1   
 41  23  39  1   
@<TRIPOS>SUBSTRUCTURE
  1 ****  11 GROUP 4 **** **** 0

# MOE 2024.06 (io_trps.svl 2023.06)
