@<TRIPOS>MOLECULE
NONAME
51 53 1 0 0 
SMALL
USER_CHARGES


@<TRIPOS>ATOM
  1 O       -0.3950    -0.1710    -1.1000 O.2   1 <1>  -0.5700 
  2 C       -1.3640     0.5650    -1.0060 C.2   1 <1>   0.5440 
  3 N       -2.5600    -0.0260    -0.6430 N.am  1 <1>  -0.6600 
  4 C       -1.2050     2.0030    -1.2520 C.ar  1 <1>   0.3960 
  5 C       -3.7800     0.6750    -0.1660 C.3   1 <1>   0.1400 
  6 C       -2.7360    -1.4960    -0.5220 C.3   1 <1>   0.1400 
  7 N       -2.2250     2.7540    -1.6610 N.ar  1 <1>  -0.6200 
  8 C        0.0350     2.5900    -1.0580 C.ar  1 <1>  -0.1500 
  9 C       -4.5010    -0.3640     0.6890 C.3   1 <1>   0.2000 
 10 C       -4.1650    -1.6900    -0.0030 C.3   1 <1>  -0.0800 
 11 C       -1.9670     4.0310    -1.8360 C.ar  1 <1>   0.7200 
 12 C        0.1810     3.9360    -1.2830 C.ar  1 <1>   0.1660 
 13 O       -3.9360    -0.3460     1.9550 O.3   1 <1>  -0.6800 
 14 C       -4.3470    -2.9510     0.8610 C.3   1 <1>  -0.0160 
 15 N       -0.8270     4.6710    -1.6790 N.ar  1 <1>  -0.6200 
 16 N       -2.9900     4.7780    -2.2490 N.pl3 1 <1>  -0.9000 
 17 C        1.5240     4.6210    -1.0790 C.3   1 <1>  -0.0170 
 18 C       -4.0590    -4.2060     0.0530 C.ar  1 <1>  -0.1430 
 19 C        1.5710     5.4650     0.2090 C.3   1 <1>  -0.0800 
 20 C       -5.0050    -4.7650    -0.7830 C.ar  1 <1>  -0.1500 
 21 C       -2.8390    -4.8500     0.1070 C.ar  1 <1>  -0.1500 
 22 C        2.9070     6.2140     0.3060 C.3   1 <1>  -0.2400 
 23 C        1.3700     4.6060     1.4660 C.3   1 <1>  -0.2400 
 24 C       -4.6930    -5.9040    -1.5070 C.ar  1 <1>   0.1600 
 25 C       -2.6280    -5.9840    -0.6590 C.ar  1 <1>   0.1600 
 26 N       -3.5260    -6.5260    -1.4660 N.ar  1 <1>  -0.6200 
 27 H       -3.5460     1.5620     0.3980 H     1 <1>   0.0800 
 28 H       -4.3840     0.9400    -1.0170 H     1 <1>   0.0800 
 29 H       -2.5930    -1.9760    -1.4760 H     1 <1>   0.0800 
 30 H       -2.0130    -1.8780     0.1790 H     1 <1>   0.0800 
 31 H        0.8670     1.9920    -0.7340 H     1 <1>   0.1500 
 32 H       -5.5580    -0.1810     0.7800 H     1 <1>   0.0800 
 33 H       -4.8050    -1.7770    -0.8630 H     1 <1>   0.0800 
 34 H       -2.9620    -0.3480     1.8580 H     1 <1>   0.4000 
 35 H       -5.3570    -2.9890     1.2310 H     1 <1>   0.0800 
 36 H       -3.6950    -2.9190     1.7160 H     1 <1>   0.0800 
 37 H       -3.7370     4.2830    -2.7270 H     1 <1>   0.4000 
 38 H       -2.7290     5.6830    -2.6320 H     1 <1>   0.4000 
 39 H        2.3070     3.8860    -1.0560 H     1 <1>   0.0800 
 40 H        1.7050     5.2580    -1.9270 H     1 <1>   0.0800 
 41 H        0.7780     6.1940     0.1650 H     1 <1>   0.0800 
 42 H       -5.9810    -4.3260    -0.8790 H     1 <1>   0.1500 
 43 H       -2.0490    -4.4820     0.7360 H     1 <1>   0.1500 
 44 H        3.7290     5.5220     0.3570 H     1 <1>   0.0800 
 45 H        2.9240     6.8330     1.1850 H     1 <1>   0.0800 
 46 H        3.0420     6.8490    -0.5530 H     1 <1>   0.0800 
 47 H        2.1200     3.8380     1.5280 H     1 <1>   0.0800 
 48 H        0.3990     4.1430     1.4560 H     1 <1>   0.0800 
 49 H        1.4330     5.2180     2.3480 H     1 <1>   0.0800 
 50 H       -5.4430    -6.3260    -2.1530 H     1 <1>   0.1500 
 51 H       -1.6690    -6.4720    -0.6050 H     1 <1>   0.1500 
@<TRIPOS>BOND
  1   1   2  2   
  2   2   3  am  
  3   2   4  1   
  4   3   5  1   
  5   3   6  1   
  6   4   7  ar  
  7   4   8  ar  
  8   5   9  1   
  9   5  27  1   
 10   5  28  1   
 11   6  10  1   
 12   6  29  1   
 13   6  30  1   
 14   7  11  ar  
 15   8  12  ar  
 16   8  31  1   
 17   9  10  1   
 18   9  13  1   
 19   9  32  1   
 20  10  14  1   
 21  10  33  1   
 22  11  15  ar  
 23  11  16  1   
 24  12  15  ar  
 25  12  17  1   
 26  13  34  1   
 27  14  18  1   
 28  14  35  1   
 29  14  36  1   
 30  16  37  1   
 31  16  38  1   
 32  17  19  1   
 33  17  39  1   
 34  17  40  1   
 35  18  20  ar  
 36  18  21  ar  
 37  19  22  1   
 38  19  23  1   
 39  19  41  1   
 40  20  24  ar  
 41  20  42  1   
 42  21  25  ar  
 43  21  43  1   
 44  22  44  1   
 45  22  45  1   
 46  22  46  1   
 47  23  47  1   
 48  23  48  1   
 49  23  49  1   
 50  24  26  ar  
 51  24  50  1   
 52  25  26  ar  
 53  25  51  1   
@<TRIPOS>SUBSTRUCTURE
  1 ****   3 GROUP 4 **** **** 0

# MOE 2024.06 (io_trps.svl 2023.06)
