@<TRIPOS>MOLECULE
NONAME
57 61 1 0 0 
SMALL
USER_CHARGES


@<TRIPOS>ATOM
  1 O       -0.9030     0.5900     1.0690 O.2   1 <1>  -0.5700 
  2 C       -1.9490     1.1380     0.7690 C.2   1 <1>   0.7160 
  3 N       -3.1370     0.5360     1.1300 N.am  1 <1>  -0.6600 
  4 C       -1.9270     2.3850     0.0370 C.2   1 <1>  -0.0860 
  5 C       -4.4100     0.7200     0.3850 C.3   1 <1>   0.1400 
  6 C       -3.1920    -0.5380     2.1600 C.3   1 <1>   0.1400 
  7 C       -1.0460     2.7440    -0.9900 C.2   1 <1>   0.1080 
  8 C       -2.7180     3.4890     0.1580 C.2   1 <1>  -0.3020 
  9 C       -4.7720    -0.5930    -0.3110 C.3   1 <1>  -0.1600 
 10 C       -3.5420    -1.8640     1.4850 C.3   1 <1>  -0.1600 
 11 N       -1.2760     3.9280    -1.4600 N.2   1 <1>  -0.7070 
 12 C        0.0710     1.8770    -1.5290 C.3   1 <1>  -0.0590 
 13 N       -2.3080     4.3940    -0.7420 N.pl3 1 <1>   0.3140 
 14 C       -4.8420    -1.7610     0.6820 C.3   1 <1>   0.4600 
 15 C       -2.8620     5.7430    -0.9620 C.3   1 <1>   0.0960 
 16 O       -5.8680    -1.5070     1.6190 O.3   1 <1>  -0.5600 
 17 C       -5.1260    -3.0750    -0.0340 C.2   1 <1>  -0.3320 
 18 C       -2.2870     6.7420     0.0530 C.3   1 <1>  -0.1600 
 19 C       -7.1940    -1.8070     1.2500 C.3   1 <1>   0.1200 
 20 N       -4.2920    -3.7220    -0.9050 N.pl3 1 <1>   0.0330 
 21 C       -6.2610    -3.7860     0.1050 C.2   1 <1>  -0.1810 
 22 C       -2.8570     8.1480    -0.1620 C.3   1 <1>  -0.2400 
 23 C       -7.3760    -3.3140     1.0040 C.3   1 <1>   0.0210 
 24 C       -4.9210    -4.8710    -1.3190 C.ar  1 <1>  -0.1520 
 25 C       -6.1650    -4.9420    -0.6970 C.ar  1 <1>   0.0000 
 26 C       -4.5020    -5.8730    -2.1970 C.ar  1 <1>  -0.1500 
 27 C       -7.0060    -6.0300    -0.9520 C.ar  1 <1>  -0.1500 
 28 C       -5.3400    -6.9380    -2.4410 C.ar  1 <1>  -0.1500 
 29 C       -6.5920    -7.0160    -1.8180 C.ar  1 <1>  -0.1500 
 30 H       -4.3190     1.4960    -0.3540 H     1 <1>   0.0800 
 31 H       -5.1880     0.9990     1.0770 H     1 <1>   0.0800 
 32 H       -3.9430    -0.2880     2.8900 H     1 <1>   0.0800 
 33 H       -2.2480    -0.6250     2.6720 H     1 <1>   0.0800 
 34 H       -3.5280     3.6610     0.8410 H     1 <1>   0.1500 
 35 H       -4.0200    -0.8030    -1.0500 H     1 <1>   0.0800 
 36 H       -5.7050    -0.4930    -0.8310 H     1 <1>   0.0800 
 37 H       -3.6450    -2.6370     2.2240 H     1 <1>   0.0800 
 38 H       -2.7310    -2.1380     0.8370 H     1 <1>   0.0800 
 39 H       -0.3030     0.8970    -1.7600 H     1 <1>   0.0800 
 40 H        0.8480     1.7930    -0.7920 H     1 <1>   0.0800 
 41 H        0.4800     2.3160    -2.4200 H     1 <1>   0.0800 
 42 H       -3.9310     5.6920    -0.8730 H     1 <1>   0.0800 
 43 H       -2.6130     6.0490    -1.9620 H     1 <1>   0.0800 
 44 H       -1.2160     6.7730    -0.0540 H     1 <1>   0.0800 
 45 H       -2.5200     6.4150     1.0520 H     1 <1>   0.0800 
 46 H       -7.4360    -1.2530     0.3620 H     1 <1>   0.0800 
 47 H       -7.8370    -1.4820     2.0480 H     1 <1>   0.0800 
 48 H       -3.3560    -3.4240    -1.1950 H     1 <1>   0.2700 
 49 H       -2.6170     8.5050    -1.1490 H     1 <1>   0.0800 
 50 H       -2.4350     8.8290     0.5570 H     1 <1>   0.0800 
 51 H       -3.9260     8.1470    -0.0440 H     1 <1>   0.0800 
 52 H       -8.3290    -3.4930     0.5400 H     1 <1>   0.0800 
 53 H       -7.3400    -3.8470     1.9370 H     1 <1>   0.0800 
 54 H       -3.5390    -5.8070    -2.6710 H     1 <1>   0.1500 
 55 H       -7.9620    -6.0770    -0.4670 H     1 <1>   0.1500 
 56 H       -5.0410    -7.7220    -3.1130 H     1 <1>   0.1500 
 57 H       -7.2280    -7.8590    -2.0250 H     1 <1>   0.1500 
@<TRIPOS>BOND
  1   1   2  2   
  2   2   3  am  
  3   2   4  1   
  4   3   5  1   
  5   3   6  1   
  6   4   7  1   
  7   4   8  2   
  8   5   9  1   
  9   5  30  1   
 10   5  31  1   
 11   6  10  1   
 12   6  32  1   
 13   6  33  1   
 14   7  11  2   
 15   7  12  1   
 16   8  13  1   
 17   8  34  1   
 18   9  14  1   
 19   9  35  1   
 20   9  36  1   
 21  10  14  1   
 22  10  37  1   
 23  10  38  1   
 24  11  13  1   
 25  12  39  1   
 26  12  40  1   
 27  12  41  1   
 28  13  15  1   
 29  14  16  1   
 30  14  17  1   
 31  15  18  1   
 32  15  42  1   
 33  15  43  1   
 34  16  19  1   
 35  17  20  1   
 36  17  21  2   
 37  18  22  1   
 38  18  44  1   
 39  18  45  1   
 40  19  23  1   
 41  19  46  1   
 42  19  47  1   
 43  20  24  1   
 44  20  48  1   
 45  21  23  1   
 46  21  25  1   
 47  22  49  1   
 48  22  50  1   
 49  22  51  1   
 50  23  52  1   
 51  23  53  1   
 52  24  25  ar  
 53  24  26  ar  
 54  25  27  ar  
 55  26  28  ar  
 56  26  54  1   
 57  27  29  ar  
 58  27  55  1   
 59  28  29  ar  
 60  28  56  1   
 61  29  57  1   
@<TRIPOS>SUBSTRUCTURE
  1 ****   9 GROUP 4 **** **** 0

# MOE 2024.06 (io_trps.svl 2023.06)
