@<TRIPOS>MOLECULE
NONAME
47 50 1 0 0 
SMALL
USER_CHARGES


@<TRIPOS>ATOM
  1 F        0.8350    -2.0980    -3.7680 F     1 <1>  -0.1900 
  2 C        1.6910    -2.3850    -2.8260 C.ar  1 <1>   0.1900 
  3 C        1.2210    -2.5990    -1.5460 C.ar  1 <1>  -0.1500 
  4 C        3.0300    -2.4660    -3.1400 C.ar  1 <1>  -0.1500 
  5 C        2.1200    -2.9100    -0.5340 C.ar  1 <1>  -0.1440 
  6 C        3.9260    -2.7690    -2.1320 C.ar  1 <1>  -0.1500 
  7 C        3.4940    -2.9890    -0.8220 C.ar  1 <1>  -0.0230 
  8 C        1.5660    -3.1560     0.8650 C.3   1 <1>   0.4870 
  9 N        4.4710    -3.2860     0.1770 N.pl3 1 <1>   0.5930 
 10 N        0.8310    -4.4460     0.8810 N.4   1 <1>  -0.9590 
 11 N        4.3290    -4.2840     1.0920 N.2   1 <1>  -0.7070 
 12 C        5.6520    -2.6540     0.3710 C.2   1 <1>  -0.3020 
 13 C        0.0810    -4.7010     2.1520 C.3   1 <1>   0.3430 
 14 C        1.6910    -5.6300     0.5500 C.3   1 <1>   0.3430 
 15 C        5.4130    -4.2570     1.8060 C.2   1 <1>   0.1390 
 16 C        6.2810    -3.2510     1.4030 C.2   1 <1>  -0.1500 
 17 C       -0.6310    -6.0780     2.1270 C.3   1 <1>   0.1100 
 18 C        0.8180    -6.8870     0.3360 C.3   1 <1>   0.1100 
 19 N       -0.5900    -6.6990     0.7840 N.3   1 <1>  -0.8100 
 20 C       -1.3590    -7.9650     0.7430 C.3   1 <1>   0.2900 
 21 C       -1.3970    -8.5670    -0.6540 C.2   1 <1>  -0.0400 
 22 O       -0.3910    -9.3200    -1.0620 O.3   1 <1>  -0.2800 
 23 C       -2.3400    -8.4790    -1.6170 C.2   1 <1>  -0.1500 
 24 C       -0.6670    -9.7250    -2.2860 C.2   1 <1>  -0.0100 
 25 C       -1.8600    -9.2390    -2.6910 C.2   1 <1>  -0.1500 
 26 H        0.1630    -2.5170    -1.3680 H     1 <1>   0.1500 
 27 H        3.3580    -2.2960    -4.1510 H     1 <1>   0.1500 
 28 H        4.9750    -2.8360    -2.3720 H     1 <1>   0.1500 
 29 H        0.8930    -2.3530     1.1190 H     1 <1>   0.0800 
 30 H        2.3550    -3.1700     1.5970 H     1 <1>   0.0800 
 31 H        0.1180    -4.4560     0.1370 H     1 <1>   0.4500 
 32 H        5.9700    -1.8240    -0.2330 H     1 <1>   0.1500 
 33 H       -0.6600    -3.9310     2.2950 H     1 <1>   0.0800 
 34 H        0.7540    -4.6690     2.9930 H     1 <1>   0.0800 
 35 H        2.3890    -5.8110     1.3510 H     1 <1>   0.0800 
 36 H        2.2660    -5.4450    -0.3430 H     1 <1>   0.0800 
 37 H        5.6160    -4.9360     2.6200 H     1 <1>   0.1500 
 38 H        7.2390    -3.0260     1.8400 H     1 <1>   0.1500 
 39 H       -1.6550    -5.9440     2.4340 H     1 <1>   0.0800 
 40 H       -0.1610    -6.7310     2.8430 H     1 <1>   0.0800 
 41 H        1.2670    -7.7200     0.8490 H     1 <1>   0.0800 
 42 H        0.8250    -7.1170    -0.7160 H     1 <1>   0.0800 
 43 H       -2.3720    -7.7660     1.0490 H     1 <1>   0.0800 
 44 H       -0.9380    -8.6830     1.4260 H     1 <1>   0.0800 
 45 H       -3.2750    -7.9470    -1.6010 H     1 <1>   0.1500 
 46 H        0.0380   -10.3570    -2.7960 H     1 <1>   0.1500 
 47 H       -2.3640    -9.3850    -3.6300 H     1 <1>   0.1500 
@<TRIPOS>BOND
  1   1   2  1   
  2   2   3  ar  
  3   2   4  ar  
  4   3   5  ar  
  5   3  26  1   
  6   4   6  ar  
  7   4  27  1   
  8   5   7  ar  
  9   5   8  1   
 10   6   7  ar  
 11   6  28  1   
 12   7   9  1   
 13   8  10  1   
 14   8  29  1   
 15   8  30  1   
 16   9  11  1   
 17   9  12  1   
 18  10  13  1   
 19  10  14  1   
 20  10  31  1   
 21  11  15  2   
 22  12  16  2   
 23  12  32  1   
 24  13  17  1   
 25  13  33  1   
 26  13  34  1   
 27  14  18  1   
 28  14  35  1   
 29  14  36  1   
 30  15  16  1   
 31  15  37  1   
 32  16  38  1   
 33  17  19  1   
 34  17  39  1   
 35  17  40  1   
 36  18  19  1   
 37  18  41  1   
 38  18  42  1   
 39  19  20  1   
 40  20  21  1   
 41  20  43  1   
 42  20  44  1   
 43  21  22  1   
 44  21  23  2   
 45  22  24  1   
 46  23  25  1   
 47  23  45  1   
 48  24  25  2   
 49  24  46  1   
 50  25  47  1   
@<TRIPOS>SUBSTRUCTURE
  1 ****  14 GROUP 4 **** **** 0

# MOE 2024.06 (io_trps.svl 2023.06)
