@<TRIPOS>MOLECULE
NONAME
49 51 1 0 0 
SMALL
USER_CHARGES


@<TRIPOS>ATOM
  1 O       -0.4760    -0.6500     0.8730 O.2   1 <1>  -0.5700 
  2 C       -1.5460    -0.1130     1.1130 C.2   1 <1>   0.5440 
  3 N       -2.6590    -0.9020     1.3620 N.am  1 <1>  -0.5090 
  4 C       -1.6240     1.3430     1.0920 C.ar  1 <1>   0.3960 
  5 C       -2.5490    -2.3710     1.5380 C.3   1 <1>   0.0490 
  6 C       -3.9950    -0.3070     1.6460 C.3   1 <1>   0.2840 
  7 N       -1.8760     2.0270     2.2060 N.ar  1 <1>  -0.6200 
  8 C       -1.4630     2.0050    -0.1100 C.ar  1 <1>  -0.1500 
  9 C       -2.1350    -3.1900     0.3550 C.3   1 <1>  -0.2000 
 10 C       -3.5310    -3.2900     0.8740 C.3   1 <1>  -0.2000 
 11 C       -4.4710     0.5600     0.4830 C.ar  1 <1>  -0.1430 
 12 C       -1.9750     3.3280     2.0560 C.ar  1 <1>   0.7200 
 13 C       -1.5870     3.3710    -0.1310 C.ar  1 <1>   0.1660 
 14 C       -4.4410     0.0870    -0.8210 C.ar  1 <1>  -0.1500 
 15 C       -4.9200     1.8520     0.7200 C.ar  1 <1>  -0.1500 
 16 N       -1.8440     4.0490     0.9600 N.ar  1 <1>  -0.6200 
 17 N       -2.2290     4.0170     3.1670 N.pl3 1 <1>  -0.9000 
 18 C       -1.4390     4.1440    -1.4320 C.3   1 <1>  -0.0170 
 19 C       -4.8520     0.8960    -1.8650 C.ar  1 <1>   0.0830 
 20 C       -5.3300     2.6610    -0.3270 C.ar  1 <1>  -0.1500 
 21 C       -0.0850     4.8710    -1.5420 C.3   1 <1>  -0.0800 
 22 O       -4.8120     0.4180    -3.1170 O.3   1 <1>  -0.5330 
 23 C       -5.2990     2.1840    -1.6250 C.ar  1 <1>  -0.1500 
 24 C       -0.0390     5.7190    -2.8190 C.3   1 <1>  -0.2400 
 25 C        1.0950     3.8880    -1.5330 C.3   1 <1>  -0.2400 
 26 H       -2.1450    -2.6400     2.5000 H     1 <1>   0.1000 
 27 H       -3.9290     0.2790     2.5450 H     1 <1>   0.0800 
 28 H       -4.7170    -1.0850     1.8190 H     1 <1>   0.0800 
 29 H       -1.2550     1.4450    -1.0020 H     1 <1>   0.1500 
 30 H       -1.4590    -4.0090     0.5180 H     1 <1>   0.1000 
 31 H       -1.9470    -2.6770    -0.5720 H     1 <1>   0.1000 
 32 H       -4.3220    -2.8920     0.2650 H     1 <1>   0.1000 
 33 H       -3.8150    -4.1960     1.3790 H     1 <1>   0.1000 
 34 H       -4.0920    -0.9070    -1.0400 H     1 <1>   0.1500 
 35 H       -4.9420     2.2450     1.7230 H     1 <1>   0.1500 
 36 H       -2.0140     5.0090     3.1040 H     1 <1>   0.4000 
 37 H       -1.9640     3.5550     4.0320 H     1 <1>   0.4000 
 38 H       -2.2360     4.8650    -1.4820 H     1 <1>   0.0800 
 39 H       -1.5580     3.4750    -2.2650 H     1 <1>   0.0800 
 40 H       -5.6690     3.6630    -0.1260 H     1 <1>   0.1500 
 41 H        0.0140     5.5300    -0.6950 H     1 <1>   0.0800 
 42 H       -5.1670     1.0390    -3.7760 H     1 <1>   0.4500 
 43 H       -5.6190     2.8150    -2.4340 H     1 <1>   0.1500 
 44 H       -0.1310     5.0980    -3.6930 H     1 <1>   0.0800 
 45 H        0.8910     6.2560    -2.8760 H     1 <1>   0.0800 
 46 H       -0.8410     6.4370    -2.8200 H     1 <1>   0.0800 
 47 H        1.0130     3.1860    -2.3430 H     1 <1>   0.0800 
 48 H        1.1270     3.3430    -0.6050 H     1 <1>   0.0800 
 49 H        2.0230     4.4210    -1.6330 H     1 <1>   0.0800 
@<TRIPOS>BOND
  1   1   2  2   
  2   2   3  am  
  3   2   4  1   
  4   3   5  1   
  5   3   6  1   
  6   4   7  ar  
  7   4   8  ar  
  8   5   9  1   
  9   5  10  1   
 10   5  26  1   
 11   6  11  1   
 12   6  27  1   
 13   6  28  1   
 14   7  12  ar  
 15   8  13  ar  
 16   8  29  1   
 17   9  10  1   
 18   9  30  1   
 19   9  31  1   
 20  10  32  1   
 21  10  33  1   
 22  11  14  ar  
 23  11  15  ar  
 24  12  16  ar  
 25  12  17  1   
 26  13  16  ar  
 27  13  18  1   
 28  14  19  ar  
 29  14  34  1   
 30  15  20  ar  
 31  15  35  1   
 32  17  36  1   
 33  17  37  1   
 34  18  21  1   
 35  18  38  1   
 36  18  39  1   
 37  19  22  1   
 38  19  23  ar  
 39  20  23  ar  
 40  20  40  1   
 41  21  24  1   
 42  21  25  1   
 43  21  41  1   
 44  22  42  1   
 45  23  43  1   
 46  24  44  1   
 47  24  45  1   
 48  24  46  1   
 49  25  47  1   
 50  25  48  1   
 51  25  49  1   
@<TRIPOS>SUBSTRUCTURE
  1 ****   8 GROUP 4 **** **** 0

# MOE 2024.06 (io_trps.svl 2023.06)
