@<TRIPOS>MOLECULE
NONAME
47 49 1 0 0 
SMALL
USER_CHARGES


@<TRIPOS>ATOM
  1 O       -0.2340    -2.5450    -1.0340 O.3   1 <1>  -0.5600 
  2 C       -1.2340    -3.5010    -0.9420 C.3   1 <1>   0.1200 
  3 C        0.6290    -2.7190    -2.1100 C.3   1 <1>   0.1200 
  4 C       -2.0340    -3.1940     0.3280 C.3   1 <1>   0.3430 
  5 C        1.6550    -1.5940    -2.0600 C.3   1 <1>  -0.2400 
  6 N       -3.1370    -4.1820     0.5340 N.4   1 <1>  -0.9590 
  7 C       -4.2910    -4.0530    -0.4140 C.3   1 <1>   0.3430 
  8 C       -3.7180    -4.1990     1.9050 C.3   1 <1>   0.3430 
  9 C       -5.5540    -4.3870     0.3990 C.3   1 <1>   0.2000 
 10 C       -5.0630    -4.9180     1.7500 C.3   1 <1>  -0.0800 
 11 O       -6.2780    -3.2210     0.6180 O.3   1 <1>  -0.6800 
 12 C       -4.9300    -6.4680     1.8100 C.3   1 <1>  -0.0170 
 13 C       -3.7520    -6.9980     0.9900 C.ar  1 <1>  -0.1440 
 14 C       -3.8290    -7.2520    -0.4010 C.ar  1 <1>   0.0000 
 15 C       -2.5370    -7.1600     1.5950 C.ar  1 <1>  -0.1500 
 16 C       -2.6130    -7.4720    -1.0910 C.ar  1 <1>   0.3100 
 17 C       -5.0280    -7.2890    -1.1500 C.ar  1 <1>  -0.1500 
 18 C       -1.4010    -7.4370     0.8270 C.ar  1 <1>   0.1600 
 19 N       -1.4140    -7.5260    -0.4630 N.ar  1 <1>  -0.6200 
 20 C       -2.6380    -7.6310    -2.4850 C.ar  1 <1>  -0.1500 
 21 C       -5.0200    -7.4530    -2.5080 C.ar  1 <1>  -0.1500 
 22 C       -3.8110    -7.6140    -3.1880 C.ar  1 <1>  -0.1500 
 23 H       -1.8520    -3.4290    -1.8200 H     1 <1>   0.0800 
 24 H       -0.7740    -4.4730    -0.8780 H     1 <1>   0.0800 
 25 H        1.1150    -3.6770    -2.0210 H     1 <1>   0.0800 
 26 H        0.0640    -2.6750    -3.0260 H     1 <1>   0.0800 
 27 H       -2.4390    -2.1980     0.2590 H     1 <1>   0.0800 
 28 H       -1.3560    -3.2320     1.1640 H     1 <1>   0.0800 
 29 H        2.2100    -1.6390    -1.1400 H     1 <1>   0.0800 
 30 H        1.1640    -0.6410    -2.1390 H     1 <1>   0.0800 
 31 H        2.3440    -1.6930    -2.8800 H     1 <1>   0.0800 
 32 H       -2.7440    -5.1310     0.3860 H     1 <1>   0.4500 
 33 H       -4.3660    -3.0540    -0.8100 H     1 <1>   0.0800 
 34 H       -4.1770    -4.7500    -1.2290 H     1 <1>   0.0800 
 35 H       -3.0730    -4.7030     2.6060 H     1 <1>   0.0800 
 36 H       -3.8870    -3.1880     2.2410 H     1 <1>   0.0800 
 37 H       -6.2070    -5.0660    -0.1190 H     1 <1>   0.0800 
 38 H       -5.7380    -4.6240     2.5360 H     1 <1>   0.0800 
 39 H       -5.7990    -2.5540     1.1470 H     1 <1>   0.4000 
 40 H       -5.8520    -6.9360     1.5130 H     1 <1>   0.0800 
 41 H       -4.7790    -6.7510     2.8380 H     1 <1>   0.0800 
 42 H       -2.4090    -7.0550     2.6580 H     1 <1>   0.1500 
 43 H       -5.9750    -7.2060    -0.6520 H     1 <1>   0.1500 
 44 H       -0.4570    -7.5570     1.3360 H     1 <1>   0.1500 
 45 H       -1.6980    -7.7770    -2.9870 H     1 <1>   0.1500 
 46 H       -5.9400    -7.4740    -3.0710 H     1 <1>   0.1500 
 47 H       -3.8190    -7.7410    -4.2580 H     1 <1>   0.1500 
@<TRIPOS>BOND
  1   1   2  1   
  2   1   3  1   
  3   2   4  1   
  4   2  23  1   
  5   2  24  1   
  6   3   5  1   
  7   3  25  1   
  8   3  26  1   
  9   4   6  1   
 10   4  27  1   
 11   4  28  1   
 12   5  29  1   
 13   5  30  1   
 14   5  31  1   
 15   6   7  1   
 16   6   8  1   
 17   6  32  1   
 18   7   9  1   
 19   7  33  1   
 20   7  34  1   
 21   8  10  1   
 22   8  35  1   
 23   8  36  1   
 24   9  10  1   
 25   9  11  1   
 26   9  37  1   
 27  10  12  1   
 28  10  38  1   
 29  11  39  1   
 30  12  13  1   
 31  12  40  1   
 32  12  41  1   
 33  13  14  ar  
 34  13  15  ar  
 35  14  16  ar  
 36  14  17  ar  
 37  15  18  ar  
 38  15  42  1   
 39  16  19  ar  
 40  16  20  ar  
 41  17  21  ar  
 42  17  43  1   
 43  18  19  ar  
 44  18  44  1   
 45  20  22  ar  
 46  20  45  1   
 47  21  22  ar  
 48  21  46  1   
 49  22  47  1   
@<TRIPOS>SUBSTRUCTURE
  1 ****   6 GROUP 4 **** **** 0

# MOE 2024.06 (io_trps.svl 2023.06)
