@<TRIPOS>MOLECULE
NONAME
56 58 1 0 0 
SMALL
USER_CHARGES


@<TRIPOS>ATOM
  1 O        1.1780     0.0030    -0.0310 O.2   1 <1>  -0.5700 
  2 C        2.0630    -0.8020     0.1960 C.2   1 <1>   0.5440 
  3 N        3.3450    -0.3260     0.3970 N.am  1 <1>  -0.6600 
  4 C        1.7390    -2.2090     0.2320 C.ar  1 <1>   0.0860 
  5 C        4.5730    -1.1360     0.1080 C.3   1 <1>   0.1400 
  6 C        3.5640     1.0930     0.8010 C.3   1 <1>   0.1400 
  7 C        0.8720    -2.7580    -0.7090 C.ar  1 <1>   0.1600 
  8 C        2.2450    -3.0780     1.1940 C.ar  1 <1>  -0.1500 
  9 C        5.4450    -0.5130    -0.9920 C.3   1 <1>   0.1400 
 10 C        3.8520     1.9590    -0.4320 C.3   1 <1>  -0.1600 
 11 N        0.5120    -4.0270    -0.7920 N.ar  1 <1>  -0.6200 
 12 C        1.8750    -4.4000     1.1290 C.ar  1 <1>  -0.1500 
 13 N        6.0740     0.7600    -0.5260 N.am  1 <1>  -0.6600 
 14 C        5.3220     1.9990    -0.8770 C.3   1 <1>   0.1400 
 15 C        1.0180    -4.8470     0.1250 C.ar  1 <1>   0.4100 
 16 C        7.2290     0.7000     0.2180 C.2   1 <1>   0.5690 
 17 N        0.6580    -6.1790     0.0530 N.pl3 1 <1>  -0.8380 
 18 O        7.7320    -0.3590     0.5100 O.2   1 <1>  -0.5700 
 19 C        7.9350     1.9490     0.7120 C.3   1 <1>  -0.0990 
 20 C        1.6780    -7.2560     0.1370 C.3   1 <1>   0.1290 
 21 C       -0.6260    -6.5740    -0.5910 C.3   1 <1>   0.1290 
 22 C        8.7550     2.6030    -0.4050 C.3   1 <1>   0.0200 
 23 C        9.4470     3.8580     0.1030 C.2   1 <1>  -0.3320 
 24 N        8.8710     5.0730     0.2610 N.pl3 1 <1>   0.3140 
 25 C       10.7360     3.9900     0.4810 C.2   1 <1>  -0.1500 
 26 N        9.7490     5.9730     0.7320 N.2   1 <1>  -0.7070 
 27 C        7.4850     5.4640    -0.0270 C.3   1 <1>   0.0160 
 28 C       10.8620     5.3190     0.8610 C.2   1 <1>   0.1390 
 29 H        4.2940    -2.1200    -0.2190 H     1 <1>   0.0800 
 30 H        5.1550    -1.2430     1.0070 H     1 <1>   0.0800 
 31 H        4.3670     1.1550     1.5150 H     1 <1>   0.0800 
 32 H        2.6720     1.4580     1.2840 H     1 <1>   0.0800 
 33 H        0.4540    -2.0900    -1.4430 H     1 <1>   0.1500 
 34 H        2.8980    -2.7160     1.9680 H     1 <1>   0.1500 
 35 H        4.8530    -0.3400    -1.8740 H     1 <1>   0.0800 
 36 H        6.2200    -1.2120    -1.2540 H     1 <1>   0.0800 
 37 H        3.5500     2.9670    -0.2160 H     1 <1>   0.0800 
 38 H        3.2330     1.6260    -1.2460 H     1 <1>   0.0800 
 39 H        2.2310    -5.1040     1.8560 H     1 <1>   0.1500 
 40 H        5.7850     2.8540    -0.4240 H     1 <1>   0.0800 
 41 H        5.3660     2.1420    -1.9430 H     1 <1>   0.0800 
 42 H        8.6040     1.6690     1.5060 H     1 <1>   0.0800 
 43 H        7.2260     2.6350     1.1310 H     1 <1>   0.0800 
 44 H        2.6610    -6.8380     0.2650 H     1 <1>   0.0800 
 45 H        1.6720    -7.8370    -0.7690 H     1 <1>   0.0800 
 46 H        1.4560    -7.8990     0.9700 H     1 <1>   0.0800 
 47 H       -1.3680    -5.8100    -0.4340 H     1 <1>   0.0800 
 48 H       -0.9840    -7.4950    -0.1660 H     1 <1>   0.0800 
 49 H       -0.4770    -6.7000    -1.6500 H     1 <1>   0.0800 
 50 H        8.1330     2.8410    -1.2490 H     1 <1>   0.0800 
 51 H        9.5000     1.9020    -0.7400 H     1 <1>   0.0800 
 52 H       11.5180     3.2520     0.5000 H     1 <1>   0.1500 
 53 H        7.2110     5.1100    -1.0020 H     1 <1>   0.0800 
 54 H        7.4130     6.5350    -0.0020 H     1 <1>   0.0800 
 55 H        6.8390     5.0440     0.7200 H     1 <1>   0.0800 
 56 H       11.7730     5.7670     1.2220 H     1 <1>   0.1500 
@<TRIPOS>BOND
  1   1   2  2   
  2   2   3  am  
  3   2   4  1   
  4   3   5  1   
  5   3   6  1   
  6   4   7  ar  
  7   4   8  ar  
  8   5   9  1   
  9   5  29  1   
 10   5  30  1   
 11   6  10  1   
 12   6  31  1   
 13   6  32  1   
 14   7  11  ar  
 15   7  33  1   
 16   8  12  ar  
 17   8  34  1   
 18   9  13  1   
 19   9  35  1   
 20   9  36  1   
 21  10  14  1   
 22  10  37  1   
 23  10  38  1   
 24  11  15  ar  
 25  12  15  ar  
 26  12  39  1   
 27  13  14  1   
 28  13  16  am  
 29  14  40  1   
 30  14  41  1   
 31  15  17  1   
 32  16  18  2   
 33  16  19  1   
 34  17  20  1   
 35  17  21  1   
 36  19  22  1   
 37  19  42  1   
 38  19  43  1   
 39  20  44  1   
 40  20  45  1   
 41  20  46  1   
 42  21  47  1   
 43  21  48  1   
 44  21  49  1   
 45  22  23  1   
 46  22  50  1   
 47  22  51  1   
 48  23  24  1   
 49  23  25  2   
 50  24  26  1   
 51  24  27  1   
 52  25  28  1   
 53  25  52  1   
 54  26  28  2   
 55  27  53  1   
 56  27  54  1   
 57  27  55  1   
 58  28  56  1   
@<TRIPOS>SUBSTRUCTURE
  1 ****   5 GROUP 4 **** **** 0

# MOE 2024.06 (io_trps.svl 2023.06)
