@<TRIPOS>MOLECULE
NONAME
39 40 1 0 0 
SMALL
USER_CHARGES


@<TRIPOS>ATOM
  1 S        0.2770    -0.2780    -0.2030 S.3   1 <1>  -0.0800 
  2 C       -1.3370    -0.8630     0.0480 C.2   1 <1>   0.4420 
  3 C       -0.3600     1.3230    -0.0560 C.2   1 <1>   0.1980 
  4 N       -2.1740     0.0970     0.2120 N.2   1 <1>  -0.3380 
  5 N       -1.5090    -2.2280     0.0390 N.am  1 <1>  -0.4940 
  6 N       -1.6110     1.3390     0.1520 N.2   1 <1>  -0.3380 
  7 C        0.5820     2.4990    -0.1810 C.3   1 <1>   0.0200 
  8 C       -2.6440    -2.9700     0.2040 C.2   1 <1>   0.7150 
  9 C       -0.2290     3.7940    -0.0470 C.3   1 <1>   0.3430 
 10 O       -3.7110    -2.4240     0.3890 O.2   1 <1>  -0.5700 
 11 C       -2.5280    -4.4000     0.1510 C.2   1 <1>  -0.2370 
 12 N        0.6030     5.0320    -0.2200 N.4   1 <1>  -0.9590 
 13 N       -3.5630    -5.2750     0.2910 N.pl3 1 <1>   0.3140 
 14 C       -1.4280    -5.1860    -0.0410 C.2   1 <1>  -0.1500 
 15 C        1.5650     5.2410     0.9100 C.3   1 <1>   0.2630 
 16 C       -0.2960     6.2220    -0.3490 C.3   1 <1>   0.2630 
 17 N       -3.1620    -6.5510     0.1960 N.2   1 <1>  -0.7070 
 18 C       -4.9880    -4.9790     0.5210 C.3   1 <1>   0.0160 
 19 C       -1.8850    -6.4880    -0.0020 C.2   1 <1>   0.1080 
 20 C       -1.0400    -7.7310    -0.1650 C.3   1 <1>  -0.0590 
 21 H       -0.6740    -2.7820    -0.1120 H     1 <1>   0.3700 
 22 H        1.0600     2.4580    -1.1420 H     1 <1>   0.0800 
 23 H        1.3200     2.4290     0.5960 H     1 <1>   0.0800 
 24 H       -0.7120     3.8090     0.9180 H     1 <1>   0.0800 
 25 H       -1.0070     3.7790    -0.7940 H     1 <1>   0.0800 
 26 H        1.1370     4.9490    -1.1000 H     1 <1>   0.4500 
 27 H       -0.4030    -4.9020    -0.1940 H     1 <1>   0.1500 
 28 H        1.0340     5.3180     1.8460 H     1 <1>   0.0800 
 29 H        2.1270     6.1490     0.7590 H     1 <1>   0.0800 
 30 H        2.2600     4.4200     0.9740 H     1 <1>   0.0800 
 31 H       -0.8820     6.3490     0.5470 H     1 <1>   0.0800 
 32 H       -0.9680     6.0960    -1.1830 H     1 <1>   0.0800 
 33 H        0.2850     7.1160    -0.5110 H     1 <1>   0.0800 
 34 H       -5.0920    -4.4350     1.4410 H     1 <1>   0.0800 
 35 H       -5.5370    -5.9000     0.5830 H     1 <1>   0.0800 
 36 H       -5.3630    -4.3900    -0.2940 H     1 <1>   0.0800 
 37 H       -0.0100    -7.4720    -0.3200 H     1 <1>   0.0800 
 38 H       -1.3940    -8.2950    -1.0090 H     1 <1>   0.0800 
 39 H       -1.1240    -8.3380     0.7170 H     1 <1>   0.0800 
@<TRIPOS>BOND
  1   1   2  1   
  2   1   3  1   
  3   2   4  2   
  4   2   5  1   
  5   3   6  2   
  6   3   7  1   
  7   4   6  1   
  8   5   8  am  
  9   5  21  1   
 10   7   9  1   
 11   7  22  1   
 12   7  23  1   
 13   8  10  2   
 14   8  11  1   
 15   9  12  1   
 16   9  24  1   
 17   9  25  1   
 18  11  13  1   
 19  11  14  2   
 20  12  15  1   
 21  12  16  1   
 22  12  26  1   
 23  13  17  1   
 24  13  18  1   
 25  14  19  1   
 26  14  27  1   
 27  15  28  1   
 28  15  29  1   
 29  15  30  1   
 30  16  31  1   
 31  16  32  1   
 32  16  33  1   
 33  17  19  2   
 34  18  34  1   
 35  18  35  1   
 36  18  36  1   
 37  19  20  1   
 38  20  37  1   
 39  20  38  1   
 40  20  39  1   
@<TRIPOS>SUBSTRUCTURE
  1 ****   2 GROUP 4 **** **** 0

# MOE 2024.06 (io_trps.svl 2023.06)
