@<TRIPOS>MOLECULE
NONAME
47 50 1 0 0 
SMALL
USER_CHARGES


@<TRIPOS>ATOM
  1 O        1.5170    -0.9240     1.4650 O.3   1 <1>  -0.0190 
  2 N        1.5350    -2.1980     1.7120 N.2   1 <1>  -0.4100 
  3 C        1.3650    -0.8540     0.1650 C.2   1 <1>   0.2980 
  4 C        1.3890    -2.8010     0.5980 C.2   1 <1>   0.3350 
  5 N        1.2870    -1.9720    -0.4380 N.2   1 <1>  -0.5650 
  6 C        1.2960     0.5140    -0.5040 C.3   1 <1>   0.1000 
  7 C        1.3660    -4.3220     0.4190 C.3   1 <1>   0.2910 
  8 C        2.5300     1.3860    -0.2680 C.3   1 <1>  -0.1600 
  9 C        0.1420     1.3870    -0.0110 C.3   1 <1>  -0.1600 
 10 N        0.0150    -4.9470     0.4510 N.3   1 <1>  -0.8100 
 11 C        2.0650     2.8160    -0.5520 C.3   1 <1>  -0.1600 
 12 C        0.5400     2.8200    -0.3730 C.3   1 <1>  -0.1600 
 13 C        0.1220    -6.4160     0.3810 C.3   1 <1>   0.2900 
 14 C       -0.8730    -4.4020    -0.5910 C.3   1 <1>   0.0300 
 15 C       -1.2170    -7.1030     0.5960 C.2   1 <1>  -0.0400 
 16 O       -1.8010    -7.0560     1.7610 O.3   1 <1>  -0.0190 
 17 C       -1.9990    -7.8180    -0.2220 C.2   1 <1>  -0.1500 
 18 N       -2.9300    -7.7020     1.7670 N.2   1 <1>  -0.4100 
 19 C       -3.0930    -8.1850     0.5730 C.2   1 <1>   0.2350 
 20 C       -4.2330    -8.9720     0.1390 C.ar  1 <1>   0.0540 
 21 C       -4.1620    -9.8290    -0.9600 C.ar  1 <1>  -0.1500 
 22 C       -5.4510    -8.8970     0.8140 C.ar  1 <1>  -0.1500 
 23 C       -5.2570   -10.5690    -1.3700 C.ar  1 <1>  -0.1500 
 24 C       -6.5490    -9.6340     0.4100 C.ar  1 <1>  -0.1500 
 25 C       -6.4540   -10.4720    -0.6860 C.ar  1 <1>  -0.1500 
 26 H        1.1820     0.3710    -1.5640 H     1 <1>   0.0800 
 27 H        1.9570    -4.7430     1.2130 H     1 <1>   0.0800 
 28 H        1.8490    -4.5570    -0.5130 H     1 <1>   0.0800 
 29 H        3.3510     1.0940    -0.8980 H     1 <1>   0.0800 
 30 H        2.8350     1.3130     0.7620 H     1 <1>   0.0800 
 31 H        0.0570     1.3050     1.0600 H     1 <1>   0.0800 
 32 H       -0.7930     1.1000    -0.4580 H     1 <1>   0.0800 
 33 H        2.3080     3.0850    -1.5660 H     1 <1>   0.0800 
 34 H        2.5410     3.5150     0.1150 H     1 <1>   0.0800 
 35 H        0.2380     3.5070     0.3990 H     1 <1>   0.0800 
 36 H        0.0700     3.1090    -1.2980 H     1 <1>   0.0800 
 37 H        0.7980    -6.7610     1.1440 H     1 <1>   0.0800 
 38 H        0.5180    -6.7030    -0.5770 H     1 <1>   0.0800 
 39 H       -1.0040    -3.3430    -0.4490 H     1 <1>   0.0800 
 40 H       -1.8470    -4.8550    -0.5280 H     1 <1>   0.0800 
 41 H       -0.4630    -4.5760    -1.5710 H     1 <1>   0.0800 
 42 H       -1.8550    -8.0660    -1.2560 H     1 <1>   0.1500 
 43 H       -3.2400    -9.9280    -1.5010 H     1 <1>   0.1500 
 44 H       -5.5360    -8.2490     1.6690 H     1 <1>   0.1500 
 45 H       -5.1780   -11.2220    -2.2220 H     1 <1>   0.1500 
 46 H       -7.4770    -9.5550     0.9490 H     1 <1>   0.1500 
 47 H       -7.3080   -11.0460    -1.0030 H     1 <1>   0.1500 
@<TRIPOS>BOND
  1   1   2  1   
  2   1   3  1   
  3   2   4  2   
  4   3   5  2   
  5   3   6  1   
  6   4   5  1   
  7   4   7  1   
  8   6   8  1   
  9   6   9  1   
 10   6  26  1   
 11   7  10  1   
 12   7  27  1   
 13   7  28  1   
 14   8  11  1   
 15   8  29  1   
 16   8  30  1   
 17   9  12  1   
 18   9  31  1   
 19   9  32  1   
 20  10  13  1   
 21  10  14  1   
 22  11  12  1   
 23  11  33  1   
 24  11  34  1   
 25  12  35  1   
 26  12  36  1   
 27  13  15  1   
 28  13  37  1   
 29  13  38  1   
 30  14  39  1   
 31  14  40  1   
 32  14  41  1   
 33  15  16  1   
 34  15  17  2   
 35  16  18  1   
 36  17  19  1   
 37  17  42  1   
 38  18  19  2   
 39  19  20  1   
 40  20  21  ar  
 41  20  22  ar  
 42  21  23  ar  
 43  21  43  1   
 44  22  24  ar  
 45  22  44  1   
 46  23  25  ar  
 47  23  45  1   
 48  24  25  ar  
 49  24  46  1   
 50  25  47  1   
@<TRIPOS>SUBSTRUCTURE
  1 ****  14 GROUP 4 **** **** 0

# MOE 2024.06 (io_trps.svl 2023.06)
