@<TRIPOS>MOLECULE
NONAME
53 56 1 0 0 
SMALL
USER_CHARGES


@<TRIPOS>ATOM
  1 O       -0.3180     1.1460    -1.1810 O.2   1 <1>  -0.5700 
  2 C       -0.4010     2.3510    -1.1560 C.2   1 <1>   0.5690 
  3 N       -1.1670     3.0350    -0.2500 N.am  1 <1>  -0.5090 
  4 C        0.3670     3.1420    -2.2110 C.3   1 <1>   0.1810 
  5 C       -1.4290     4.5020    -0.3970 C.3   1 <1>   0.3640 
  6 C       -1.8910     2.3630     0.8570 C.3   1 <1>   0.0490 
  7 O        0.6100     4.4660    -1.8050 O.3   1 <1>  -0.5600 
  8 C       -2.9140     4.7210    -0.6910 C.ar  1 <1>  -0.1440 
  9 C       -0.5630     5.1980    -1.4830 C.3   1 <1>   0.2610 
 10 C       -1.6090     2.7950     2.2630 C.3   1 <1>  -0.2000 
 11 C       -1.1440     1.4580     1.7850 C.3   1 <1>  -0.2000 
 12 C       -3.6190     5.6980    -0.0010 C.ar  1 <1>   0.1600 
 13 C       -3.5890     3.9660    -1.6350 C.ar  1 <1>  -0.1500 
 14 C       -0.1910     6.6120    -1.0210 C.2   1 <1>   0.5690 
 15 N       -4.9030     5.9700    -0.1680 N.ar  1 <1>  -0.6200 
 16 C       -4.9260     4.2390    -1.8230 C.ar  1 <1>  -0.1500 
 17 O       -1.0340     7.3180    -0.5200 O.2   1 <1>  -0.5700 
 18 N        1.0880     7.0520    -1.1600 N.am  1 <1>  -0.7300 
 19 C       -5.5260     5.2360    -1.0740 C.ar  1 <1>   0.1600 
 20 C        1.5590     8.4200    -0.8310 C.3   1 <1>   0.1400 
 21 C        1.6470     8.6010     0.6850 C.3   1 <1>   0.0960 
 22 N        2.0580     9.9810     0.9950 N.pl3 1 <1>   0.0480 
 23 C        3.3010    10.4830     1.1480 C.2   1 <1>  -0.3320 
 24 C        1.2340    11.0380     1.1610 C.2   1 <1>   0.0360 
 25 C        3.1450    11.8050     1.3960 C.2   1 <1>   0.0460 
 26 C        4.5670     9.6430     1.0470 C.3   1 <1>  -0.0600 
 27 N        1.8460    12.1480     1.4020 N.2   1 <1>  -0.5650 
 28 C        4.1840    12.8740     1.6510 C.3   1 <1>  -0.0590 
 29 H       -0.1860     3.1560    -3.1330 H     1 <1>   0.0800 
 30 H        1.3180     2.6710    -2.3830 H     1 <1>   0.0800 
 31 H       -1.1990     4.9590     0.5490 H     1 <1>   0.0800 
 32 H       -2.9000     2.0940     0.5910 H     1 <1>   0.1000 
 33 H       -1.1360     5.2940    -2.3880 H     1 <1>   0.0800 
 34 H       -0.8590     3.5390     2.4620 H     1 <1>   0.1000 
 35 H       -2.4210     2.8250     2.9680 H     1 <1>   0.1000 
 36 H       -1.6430     0.5770     2.1490 H     1 <1>   0.1000 
 37 H       -0.0960     1.2930     1.6050 H     1 <1>   0.1000 
 38 H       -3.1020     6.2980     0.7300 H     1 <1>   0.1500 
 39 H       -3.1050     3.1880    -2.2010 H     1 <1>   0.1500 
 40 H       -5.5030     3.6850    -2.5410 H     1 <1>   0.1500 
 41 H        1.7680     6.3960    -1.5650 H     1 <1>   0.3700 
 42 H       -6.5730     5.4400    -1.2280 H     1 <1>   0.1500 
 43 H        2.5240     8.5840    -1.2810 H     1 <1>   0.0800 
 44 H        0.8620     9.1340    -1.2360 H     1 <1>   0.0800 
 45 H        2.3610     7.9170     1.1040 H     1 <1>   0.0800 
 46 H        0.6850     8.4250     1.1330 H     1 <1>   0.0800 
 47 H        0.1640    10.9430     1.0920 H     1 <1>   0.1500 
 48 H        5.4410    10.2490     1.1960 H     1 <1>   0.0800 
 49 H        4.6350     9.1880     0.0760 H     1 <1>   0.0800 
 50 H        4.5600     8.8740     1.7980 H     1 <1>   0.0800 
 51 H        5.1760    12.4680     1.6220 H     1 <1>   0.0800 
 52 H        4.0140    13.3110     2.6180 H     1 <1>   0.0800 
 53 H        4.0970    13.6410     0.9040 H     1 <1>   0.0800 
@<TRIPOS>BOND
  1   1   2  2   
  2   2   3  am  
  3   2   4  1   
  4   3   5  1   
  5   3   6  1   
  6   4   7  1   
  7   4  29  1   
  8   4  30  1   
  9   5   8  1   
 10   5   9  1   
 11   5  31  1   
 12   6  10  1   
 13   6  11  1   
 14   6  32  1   
 15   7   9  1   
 16   8  12  ar  
 17   8  13  ar  
 18   9  14  1   
 19   9  33  1   
 20  10  11  1   
 21  10  34  1   
 22  10  35  1   
 23  11  36  1   
 24  11  37  1   
 25  12  15  ar  
 26  12  38  1   
 27  13  16  ar  
 28  13  39  1   
 29  14  17  2   
 30  14  18  am  
 31  15  19  ar  
 32  16  19  ar  
 33  16  40  1   
 34  18  20  1   
 35  18  41  1   
 36  19  42  1   
 37  20  21  1   
 38  20  43  1   
 39  20  44  1   
 40  21  22  1   
 41  21  45  1   
 42  21  46  1   
 43  22  23  1   
 44  22  24  1   
 45  23  25  2   
 46  23  26  1   
 47  24  27  2   
 48  24  47  1   
 49  25  27  1   
 50  25  28  1   
 51  26  48  1   
 52  26  49  1   
 53  26  50  1   
 54  28  51  1   
 55  28  52  1   
 56  28  53  1   
@<TRIPOS>SUBSTRUCTURE
  1 ****  14 GROUP 4 **** **** 0

# MOE 2024.06 (io_trps.svl 2023.06)
