@<TRIPOS>MOLECULE
NONAME
53 55 1 0 0 
SMALL
USER_CHARGES


@<TRIPOS>ATOM
  1 O        2.2030    -0.9070     2.3150 O.co2 1 <1>  -0.9000 
  2 C        2.6600    -0.6300     1.2090 C.2   1 <1>   0.9060 
  3 O        3.6690    -1.2070     0.7670 O.co2 1 <1>  -0.9000 
  4 C        2.1380     0.6230     0.4840 C.3   1 <1>  -0.1060 
  5 C        2.8700     0.8700    -0.8700 C.3   1 <1>   0.2000 
  6 C        2.4870     1.8300     1.3960 C.3   1 <1>  -0.1600 
  7 C        0.6100     0.4710     0.2810 C.3   1 <1>  -0.0160 
  8 O        2.9970    -0.3180    -1.5700 O.3   1 <1>  -0.6800 
  9 C        4.2760     1.4960    -0.6920 C.3   1 <1>   0.3430 
 10 C        3.9830     1.8360     1.7700 C.3   1 <1>   0.3430 
 11 C       -0.0650     1.6770    -0.3670 C.ar  1 <1>  -0.1440 
 12 N        4.8240     1.2410     0.6790 N.4   1 <1>  -0.9590 
 13 C       -0.2430     1.7250    -1.7420 C.ar  1 <1>  -0.1500 
 14 C       -0.5230     2.7290     0.4110 C.ar  1 <1>  -0.1500 
 15 C        6.2890     1.4610     0.8360 C.3   1 <1>   0.3430 
 16 C       -0.8500     2.8200    -2.3330 C.ar  1 <1>  -0.1500 
 17 C       -1.1310     3.8250    -0.1780 C.ar  1 <1>  -0.1500 
 18 C        6.7130     2.9150     0.5640 C.3   1 <1>   0.1100 
 19 C       -1.2910     3.8720    -1.5510 C.ar  1 <1>  -0.1500 
 20 N        8.1500     3.1020     0.8120 N.3   1 <1>  -0.8100 
 21 C        8.9960     2.4830    -0.2370 C.3   1 <1>   0.1100 
 22 C        8.4860     4.5390     0.9210 C.3   1 <1>   0.1100 
 23 C       10.4900     2.7640     0.0080 C.3   1 <1>   0.1200 
 24 C        9.9970     4.7520     1.1260 C.3   1 <1>   0.1200 
 25 O       10.7160     4.1400     0.0960 O.3   1 <1>  -0.5600 
 26 H        2.3090     1.5350    -1.4980 H     1 <1>   0.0800 
 27 H        1.9130     1.7800     2.3060 H     1 <1>   0.0800 
 28 H        2.2370     2.7560     0.9090 H     1 <1>   0.0800 
 29 H        0.4260    -0.4020    -0.3220 H     1 <1>   0.0800 
 30 H        0.1420     0.2840     1.2330 H     1 <1>   0.0800 
 31 H        3.3070    -1.0060    -0.9110 H     1 <1>   0.4000 
 32 H        4.1980     2.5590    -0.8420 H     1 <1>   0.0800 
 33 H        4.9310     1.0900    -1.4440 H     1 <1>   0.0800 
 34 H        4.1150     1.2460     2.6640 H     1 <1>   0.0800 
 35 H        4.2940     2.8450     1.9840 H     1 <1>   0.0800 
 36 H        4.6710     0.2020     0.7940 H     1 <1>   0.4500 
 37 H        0.0930     0.9070    -2.3570 H     1 <1>   0.1500 
 38 H       -0.4110     2.6960     1.4810 H     1 <1>   0.1500 
 39 H        6.5810     1.1980     1.8400 H     1 <1>   0.0800 
 40 H        6.8140     0.8120     0.1570 H     1 <1>   0.0800 
 41 H       -0.9810     2.8500    -3.4010 H     1 <1>   0.1500 
 42 H       -1.4830     4.6380     0.4330 H     1 <1>   0.1500 
 43 H        6.1650     3.5590     1.2290 H     1 <1>   0.0800 
 44 H        6.4850     3.1910    -0.4510 H     1 <1>   0.0800 
 45 H       -1.7650     4.7230    -2.0100 H     1 <1>   0.1500 
 46 H        8.8480     1.4180    -0.2480 H     1 <1>   0.0800 
 47 H        8.7300     2.8720    -1.2060 H     1 <1>   0.0800 
 48 H        8.1840     5.0600     0.0280 H     1 <1>   0.0800 
 49 H        7.9610     4.9690     1.7560 H     1 <1>   0.0800 
 50 H       11.0810     2.3870    -0.8080 H     1 <1>   0.0800 
 51 H       10.8200     2.3000     0.9210 H     1 <1>   0.0800 
 52 H       10.3150     4.3350     2.0660 H     1 <1>   0.0800 
 53 H       10.2330     5.8010     1.1130 H     1 <1>   0.0800 
@<TRIPOS>BOND
  1   1   2  ar  
  2   2   3  ar  
  3   2   4  1   
  4   4   5  1   
  5   4   6  1   
  6   4   7  1   
  7   5   8  1   
  8   5   9  1   
  9   5  26  1   
 10   6  10  1   
 11   6  27  1   
 12   6  28  1   
 13   7  11  1   
 14   7  29  1   
 15   7  30  1   
 16   8  31  1   
 17   9  12  1   
 18   9  32  1   
 19   9  33  1   
 20  10  12  1   
 21  10  34  1   
 22  10  35  1   
 23  11  13  ar  
 24  11  14  ar  
 25  12  15  1   
 26  12  36  1   
 27  13  16  ar  
 28  13  37  1   
 29  14  17  ar  
 30  14  38  1   
 31  15  18  1   
 32  15  39  1   
 33  15  40  1   
 34  16  19  ar  
 35  16  41  1   
 36  17  19  ar  
 37  17  42  1   
 38  18  20  1   
 39  18  43  1   
 40  18  44  1   
 41  19  45  1   
 42  20  21  1   
 43  20  22  1   
 44  21  23  1   
 45  21  46  1   
 46  21  47  1   
 47  22  24  1   
 48  22  48  1   
 49  22  49  1   
 50  23  25  1   
 51  23  50  1   
 52  23  51  1   
 53  24  25  1   
 54  24  52  1   
 55  24  53  1   
@<TRIPOS>SUBSTRUCTURE
  1 ****   9 GROUP 4 **** **** 0

# MOE 2024.06 (io_trps.svl 2023.06)
