@<TRIPOS>MOLECULE
NONAME
60 61 1 0 0 
SMALL
USER_CHARGES


@<TRIPOS>ATOM
  1 S       -0.3410    -0.3860     1.8680 S.o2  1 <1>   1.5760 
  2 O       -0.6340     0.5150     2.9550 O.2   1 <1>  -0.6500 
  3 O        0.4420    -1.5890     2.0680 O.2   1 <1>  -0.6500 
  4 N        0.2480     0.4540     0.5330 N.am  1 <1>  -0.8490 
  5 N       -1.8190    -0.9430     1.2900 N.am  1 <1>  -0.8490 
  6 C        1.2380     1.4630     0.9310 C.3   1 <1>   0.1960 
  7 C        0.7820    -0.4300    -0.5040 C.3   1 <1>   0.1960 
  8 C       -2.6890     0.1650     0.8800 C.3   1 <1>   0.3390 
  9 C       -2.4870    -1.7970     2.3010 C.3   1 <1>   0.1960 
 10 C        1.6410     2.3440    -0.2620 C.3   1 <1>  -0.0800 
 11 C        1.1390     0.3780    -1.7540 C.3   1 <1>  -0.1600 
 12 C       -3.8710    -0.4120     0.1130 C.ar  1 <1>  -0.1440 
 13 C       -2.5330    -3.2800     1.8780 C.3   1 <1>   0.3430 
 14 C        2.1530     1.4810    -1.4280 C.3   1 <1>  -0.1600 
 15 C        2.6840     3.3770     0.1860 C.3   1 <1>   0.1200 
 16 C       -5.1480    -0.4140     0.6560 C.ar  1 <1>  -0.1500 
 17 C       -3.6730    -0.9530    -1.1480 C.ar  1 <1>  -0.1500 
 18 N       -1.2370    -3.7480     1.2820 N.4   1 <1>  -0.9590 
 19 O        3.0000     4.1970    -0.8900 O.3   1 <1>  -0.5600 
 20 C       -6.2040    -0.9700    -0.0450 C.ar  1 <1>  -0.1500 
 21 C       -4.7300    -1.5070    -1.8490 C.ar  1 <1>  -0.1500 
 22 C       -1.3140    -3.7080    -0.2070 C.3   1 <1>   0.2630 
 23 C       -0.8240    -5.0890     1.7820 C.3   1 <1>   0.2630 
 24 C        3.9430     5.1770    -0.5990 C.3   1 <1>   0.0400 
 25 C       -6.0000    -1.5230    -1.2980 C.ar  1 <1>  -0.1430 
 26 C       -7.1640    -2.1230    -2.0670 C.3   1 <1>  -0.0970 
 27 H        2.1080     0.9760     1.3400 H     1 <1>   0.0800 
 28 H        0.8180     2.0980     1.6950 H     1 <1>   0.0800 
 29 H        0.0410    -1.1640    -0.7670 H     1 <1>   0.0800 
 30 H        1.6580    -0.9420    -0.1390 H     1 <1>   0.0800 
 31 H       -2.1680     0.8420     0.2250 H     1 <1>   0.0800 
 32 H       -3.0190     0.7270     1.7390 H     1 <1>   0.0800 
 33 H       -3.4960    -1.4720     2.4860 H     1 <1>   0.0800 
 34 H       -1.9780    -1.7310     3.2500 H     1 <1>   0.0800 
 35 H        0.7640     2.8820    -0.5800 H     1 <1>   0.0800 
 36 H        0.2430     0.8180    -2.1560 H     1 <1>   0.0800 
 37 H        1.5490    -0.2760    -2.5020 H     1 <1>   0.0800 
 38 H       -3.3300    -3.4090     1.1630 H     1 <1>   0.0800 
 39 H       -2.7750    -3.8720     2.7450 H     1 <1>   0.0800 
 40 H        3.0970     1.0360    -1.1640 H     1 <1>   0.0800 
 41 H        2.3100     2.0970    -2.2980 H     1 <1>   0.0800 
 42 H        3.5830     2.8870     0.5200 H     1 <1>   0.0800 
 43 H        2.2880     3.9910     0.9780 H     1 <1>   0.0800 
 44 H       -5.3320     0.0180     1.6250 H     1 <1>   0.1500 
 45 H       -2.6920    -0.9370    -1.5900 H     1 <1>   0.1500 
 46 H       -0.5150    -3.0490     1.5720 H     1 <1>   0.4500 
 47 H       -7.1900    -0.9630     0.3860 H     1 <1>   0.1500 
 48 H       -4.5640    -1.9190    -2.8290 H     1 <1>   0.1500 
 49 H       -2.0500    -4.4100    -0.5640 H     1 <1>   0.0800 
 50 H       -0.3580    -3.9540    -0.6370 H     1 <1>   0.0800 
 51 H       -1.5970    -2.7190    -0.5320 H     1 <1>   0.0800 
 52 H       -1.5530    -5.8340     1.5080 H     1 <1>   0.0800 
 53 H       -0.7300    -5.0730     2.8560 H     1 <1>   0.0800 
 54 H        0.1290    -5.3650     1.3610 H     1 <1>   0.0800 
 55 H        4.1130     5.7530    -1.4920 H     1 <1>   0.0800 
 56 H        4.8600     4.7080    -0.2900 H     1 <1>   0.0800 
 57 H        3.5620     5.8180     0.1780 H     1 <1>   0.0800 
 58 H       -7.8860    -2.5450    -1.3920 H     1 <1>   0.0800 
 59 H       -6.8220    -2.9010    -2.7270 H     1 <1>   0.0800 
 60 H       -7.6440    -1.3600    -2.6530 H     1 <1>   0.0800 
@<TRIPOS>BOND
  1   1   2  2   
  2   1   3  2   
  3   1   4  am  
  4   1   5  am  
  5   4   6  1   
  6   4   7  1   
  7   5   8  1   
  8   5   9  1   
  9   6  10  1   
 10   6  27  1   
 11   6  28  1   
 12   7  11  1   
 13   7  29  1   
 14   7  30  1   
 15   8  12  1   
 16   8  31  1   
 17   8  32  1   
 18   9  13  1   
 19   9  33  1   
 20   9  34  1   
 21  10  14  1   
 22  10  15  1   
 23  10  35  1   
 24  11  14  1   
 25  11  36  1   
 26  11  37  1   
 27  12  16  ar  
 28  12  17  ar  
 29  13  18  1   
 30  13  38  1   
 31  13  39  1   
 32  14  40  1   
 33  14  41  1   
 34  15  19  1   
 35  15  42  1   
 36  15  43  1   
 37  16  20  ar  
 38  16  44  1   
 39  17  21  ar  
 40  17  45  1   
 41  18  22  1   
 42  18  23  1   
 43  18  46  1   
 44  19  24  1   
 45  20  25  ar  
 46  20  47  1   
 47  21  25  ar  
 48  21  48  1   
 49  22  49  1   
 50  22  50  1   
 51  22  51  1   
 52  23  52  1   
 53  23  53  1   
 54  23  54  1   
 55  24  55  1   
 56  24  56  1   
 57  24  57  1   
 58  25  26  1   
 59  26  58  1   
 60  26  59  1   
 61  26  60  1   
@<TRIPOS>SUBSTRUCTURE
  1 ****   5 GROUP 4 **** **** 0

# MOE 2024.06 (io_trps.svl 2023.06)
