@<TRIPOS>MOLECULE
NONAME
32 33 1 0 0 
SMALL
USER_CHARGES


@<TRIPOS>ATOM
  1 O        0.4960     0.0740    -0.6990 O.3   1 <1>  -0.8500 
  2 C        1.5310     0.6600    -0.3490 C.2   1 <1>  -0.1500 
  3 C        2.3710     0.1630     0.6340 C.2   1 <1>  -0.1360 
  4 C        1.8960     1.8890    -0.9590 C.2   1 <1>  -0.1500 
  5 C        3.5190     0.8430     1.0250 C.2   1 <1>   0.6160 
  6 C        3.0130     2.5670    -0.5900 C.2   1 <1>  -0.0290 
  7 O        4.2720     0.4060     1.9170 O.2   1 <1>  -0.5700 
  8 N        3.8450     2.0650     0.4180 N.am  1 <1>  -0.4690 
  9 C        3.3640     3.8780    -1.2780 C.3   1 <1>  -0.1020 
 10 C        5.0650     2.7780     0.9040 C.3   1 <1>   0.3200 
 11 C        6.3440     2.3350     0.2070 C.2   1 <1>   0.2980 
 12 O        6.3300     2.1220    -1.0860 O.3   1 <1>  -0.0190 
 13 N        7.4790     2.1810     0.7700 N.2   1 <1>  -0.5650 
 14 N        7.5560     1.8010    -1.3680 N.2   1 <1>  -0.4100 
 15 C        8.2130     1.8270    -0.2760 C.2   1 <1>   0.3350 
 16 C        9.7000     1.5060    -0.1120 C.3   1 <1>   0.1010 
 17 C       10.5380     2.7910    -0.1540 C.3   1 <1>  -0.2400 
 18 C       10.2060     0.5110    -1.1690 C.3   1 <1>  -0.2400 
 19 H        2.1210    -0.7650     1.1010 H     1 <1>   0.1500 
 20 H        1.2250     2.2290    -1.7240 H     1 <1>   0.1500 
 21 H        4.3400     3.8190    -1.7220 H     1 <1>   0.0800 
 22 H        3.3310     4.6890    -0.5740 H     1 <1>   0.0800 
 23 H        2.6560     4.0860    -2.0590 H     1 <1>   0.0800 
 24 H        5.1770     2.6220     1.9620 H     1 <1>   0.0800 
 25 H        4.9470     3.8340     0.7620 H     1 <1>   0.0800 
 26 H        9.8230     1.0500     0.8550 H     1 <1>   0.0800 
 27 H       10.4270     3.2760    -1.1070 H     1 <1>   0.0800 
 28 H       11.5780     2.5680     0.0070 H     1 <1>   0.0800 
 29 H       10.2090     3.4670     0.6160 H     1 <1>   0.0800 
 30 H       10.1220     0.9350    -2.1550 H     1 <1>   0.0800 
 31 H        9.6180    -0.3890    -1.1340 H     1 <1>   0.0800 
 32 H       11.2340     0.2580    -0.9860 H     1 <1>   0.0800 
@<TRIPOS>BOND
  1   1   2  1   
  2   2   3  2   
  3   2   4  1   
  4   3   5  1   
  5   3  19  1   
  6   4   6  2   
  7   4  20  1   
  8   5   7  2   
  9   5   8  am  
 10   6   8  1   
 11   6   9  1   
 12   8  10  1   
 13   9  21  1   
 14   9  22  1   
 15   9  23  1   
 16  10  11  1   
 17  10  24  1   
 18  10  25  1   
 19  11  12  1   
 20  11  13  2   
 21  12  14  1   
 22  13  15  1   
 23  14  15  2   
 24  15  16  1   
 25  16  17  1   
 26  16  18  1   
 27  16  26  1   
 28  17  27  1   
 29  17  28  1   
 30  17  29  1   
 31  18  30  1   
 32  18  31  1   
 33  18  32  1   
@<TRIPOS>SUBSTRUCTURE
  1 ****  11 GROUP 4 **** **** 0

# MOE 2024.06 (io_trps.svl 2023.06)
