@<TRIPOS>MOLECULE
NONAME
41 44 1 0 0 
SMALL
USER_CHARGES


@<TRIPOS>ATOM
  1 O       -0.4190    -1.0280     1.0710 O.3   1 <1>  -0.5600 
  2 C       -0.1030    -1.8840    -0.0030 C.3   1 <1>   0.4180 
  3 C       -1.2380     0.0740     0.7990 C.3   1 <1>   0.1200 
  4 C       -1.3350    -2.1130    -0.8750 C.2   1 <1>  -0.2880 
  5 C        0.3370    -3.2110     0.6180 C.3   1 <1>  -0.1600 
  6 C        1.0420    -1.2770    -0.8240 C.3   1 <1>  -0.1600 
  7 C       -2.6260    -0.3860     0.3330 C.3   1 <1>  -0.0220 
  8 C       -2.4900    -1.4580    -0.7330 C.2   1 <1>  -0.2760 
  9 C        1.6210    -3.0540     1.4320 C.3   1 <1>   0.2090 
 10 C        2.3110    -1.1220     0.0110 C.3   1 <1>   0.2090 
 11 C       -3.7310    -1.7090    -1.5700 C.3   1 <1>  -0.1020 
 12 N        2.6790    -2.4400     0.5850 N.pl3 1 <1>  -0.8380 
 13 C        3.6810    -3.2040     0.0190 C.ar  1 <1>   0.4100 
 14 N        3.3940    -4.4380    -0.3280 N.ar  1 <1>  -0.6200 
 15 C        4.9690    -2.6850    -0.1950 C.ar  1 <1>   0.0000 
 16 C        4.3760    -5.1390    -0.9090 C.ar  1 <1>   0.4700 
 17 C        5.8810    -3.5160    -0.8070 C.ar  1 <1>   0.1050 
 18 C        5.6560    -1.4760     0.0670 C.2   1 <1>  -0.1500 
 19 N        5.6030    -4.7670    -1.1820 N.ar  1 <1>  -0.5670 
 20 N        7.0670    -2.8620    -0.9390 N.pl3 1 <1>   0.0330 
 21 C        6.9220    -1.6120    -0.3990 C.2   1 <1>  -0.3020 
 22 H       -0.7670     0.6760     0.0420 H     1 <1>   0.0800 
 23 H       -1.3210     0.6540     1.7010 H     1 <1>   0.0800 
 24 H       -1.1770    -2.8720    -1.6200 H     1 <1>   0.1500 
 25 H        0.5170    -3.9310    -0.1590 H     1 <1>   0.0800 
 26 H       -0.4490    -3.5910     1.2430 H     1 <1>   0.0800 
 27 H        0.7480    -0.3310    -1.2330 H     1 <1>   0.0800 
 28 H        1.2610    -1.9280    -1.6500 H     1 <1>   0.0800 
 29 H       -3.1550     0.4640    -0.0590 H     1 <1>   0.0800 
 30 H       -3.1810    -0.7720     1.1690 H     1 <1>   0.0800 
 31 H        1.9470    -4.0140     1.7940 H     1 <1>   0.0800 
 32 H        1.4400    -2.4200     2.2830 H     1 <1>   0.0800 
 33 H        2.1480    -0.4200     0.8110 H     1 <1>   0.0800 
 34 H        3.1040    -0.7510    -0.6140 H     1 <1>   0.0800 
 35 H       -4.5480    -2.0080    -0.9380 H     1 <1>   0.0800 
 36 H       -3.5500    -2.4910    -2.2860 H     1 <1>   0.0800 
 37 H       -4.0080    -0.8170    -2.1030 H     1 <1>   0.0800 
 38 H        4.1100    -6.1440    -1.1880 H     1 <1>   0.1500 
 39 H        5.2110    -0.6300     0.5600 H     1 <1>   0.1500 
 40 H        7.9030    -3.2750    -1.3620 H     1 <1>   0.2700 
 41 H        7.7310    -0.9010    -0.3760 H     1 <1>   0.1500 
@<TRIPOS>BOND
  1   1   2  1   
  2   1   3  1   
  3   2   4  1   
  4   2   5  1   
  5   2   6  1   
  6   3   7  1   
  7   3  22  1   
  8   3  23  1   
  9   4   8  2   
 10   4  24  1   
 11   5   9  1   
 12   5  25  1   
 13   5  26  1   
 14   6  10  1   
 15   6  27  1   
 16   6  28  1   
 17   7   8  1   
 18   7  29  1   
 19   7  30  1   
 20   8  11  1   
 21   9  12  1   
 22   9  31  1   
 23   9  32  1   
 24  10  12  1   
 25  10  33  1   
 26  10  34  1   
 27  11  35  1   
 28  11  36  1   
 29  11  37  1   
 30  12  13  1   
 31  13  14  ar  
 32  13  15  ar  
 33  14  16  ar  
 34  15  17  ar  
 35  15  18  1   
 36  16  19  ar  
 37  16  38  1   
 38  17  19  ar  
 39  17  20  1   
 40  18  21  2   
 41  18  39  1   
 42  20  21  1   
 43  20  40  1   
 44  21  41  1   
@<TRIPOS>SUBSTRUCTURE
  1 ****  12 GROUP 4 **** **** 0

# MOE 2024.06 (io_trps.svl 2023.06)
