@<TRIPOS>MOLECULE
NONAME
38 39 1 0 0 
SMALL
USER_CHARGES


@<TRIPOS>ATOM
  1 S       -0.3050     0.1660    -0.1130 S.3   1 <1>  -0.2860 
  2 C       -1.3140     1.5640     0.3900 C.2   1 <1>   0.2420 
  3 C       -0.4860    -1.0710     1.2650 C.3   1 <1>   0.1310 
  4 N       -2.0480     1.5670     1.4530 N.2   1 <1>  -0.5650 
  5 N       -1.3500     2.6960    -0.3480 N.pl3 1 <1>   0.0480 
  6 C       -0.8930    -2.4280     0.7090 C.2   1 <1>   0.5690 
  7 C       -2.6080     2.7940     1.4170 C.2   1 <1>   0.0770 
  8 C       -2.1980     3.4920     0.3320 C.2   1 <1>  -0.3020 
  9 C       -0.6300     3.0000    -1.5970 C.3   1 <1>   0.0160 
 10 O       -0.0480    -3.2940     0.7070 O.2   1 <1>  -0.5700 
 11 N       -2.1680    -2.6780     0.2540 N.am  1 <1>  -0.6600 
 12 C       -2.5080    -4.0090    -0.3500 C.3   1 <1>   0.1400 
 13 C       -3.2830    -1.6900     0.2720 C.3   1 <1>   0.1400 
 14 C       -4.0090    -4.3520    -0.2120 C.3   1 <1>  -0.0800 
 15 C       -4.4560    -2.2230     1.1090 C.3   1 <1>  -0.1600 
 16 C       -4.5980    -3.7530     1.0770 C.3   1 <1>   0.2000 
 17 C       -4.2380    -5.8690    -0.2670 C.3   1 <1>   0.1200 
 18 O       -3.9060    -4.2660     2.1550 O.3   1 <1>  -0.6800 
 19 O       -3.8050    -6.3580    -1.4900 O.3   1 <1>  -0.6800 
 20 H        0.4730    -1.1390     1.7440 H     1 <1>   0.0800 
 21 H       -1.2090    -0.7140     1.9710 H     1 <1>   0.0800 
 22 H       -3.2880     3.1180     2.1880 H     1 <1>   0.1500 
 23 H       -2.4570     4.4880     0.0200 H     1 <1>   0.1500 
 24 H       -0.9230     3.9680    -1.9580 H     1 <1>   0.0800 
 25 H       -0.8670     2.2540    -2.3340 H     1 <1>   0.0800 
 26 H        0.4280     2.9910    -1.4060 H     1 <1>   0.0800 
 27 H       -2.2260    -4.0130    -1.3890 H     1 <1>   0.0800 
 28 H       -1.9280    -4.7720     0.1420 H     1 <1>   0.0800 
 29 H       -2.9730    -0.7390     0.6600 H     1 <1>   0.0800 
 30 H       -3.6060    -1.5330    -0.7430 H     1 <1>   0.0800 
 31 H       -4.5370    -3.9130    -1.0390 H     1 <1>   0.0800 
 32 H       -5.3540    -1.7850     0.7150 H     1 <1>   0.0800 
 33 H       -4.3660    -1.8810     2.1250 H     1 <1>   0.0800 
 34 H       -5.6310    -4.0330     1.1980 H     1 <1>   0.0800 
 35 H       -5.2810    -6.1110    -0.1550 H     1 <1>   0.0800 
 36 H       -3.6790    -6.3680     0.5080 H     1 <1>   0.0800 
 37 H       -2.9670    -3.9960     2.0680 H     1 <1>   0.4000 
 38 H       -4.3770    -6.0430    -2.2160 H     1 <1>   0.4000 
@<TRIPOS>BOND
  1   1   2  1   
  2   1   3  1   
  3   2   4  2   
  4   2   5  1   
  5   3   6  1   
  6   3  20  1   
  7   3  21  1   
  8   4   7  1   
  9   5   8  1   
 10   5   9  1   
 11   6  10  2   
 12   6  11  am  
 13   7   8  2   
 14   7  22  1   
 15   8  23  1   
 16   9  24  1   
 17   9  25  1   
 18   9  26  1   
 19  11  12  1   
 20  11  13  1   
 21  12  14  1   
 22  12  27  1   
 23  12  28  1   
 24  13  15  1   
 25  13  29  1   
 26  13  30  1   
 27  14  16  1   
 28  14  17  1   
 29  14  31  1   
 30  15  16  1   
 31  15  32  1   
 32  15  33  1   
 33  16  18  1   
 34  16  34  1   
 35  17  19  1   
 36  17  35  1   
 37  17  36  1   
 38  18  37  1   
 39  19  38  1   
@<TRIPOS>SUBSTRUCTURE
  1 ****  13 GROUP 4 **** **** 0

# MOE 2024.06 (io_trps.svl 2023.06)
