@<TRIPOS>MOLECULE
NONAME
50 52 1 0 0 
SMALL
USER_CHARGES


@<TRIPOS>ATOM
  1 S       -1.4270     1.2540    -0.6600 S.o2  1 <1>   1.4470 
  2 O       -1.6250     1.2620     0.7780 O.2   1 <1>  -0.6500 
  3 O       -2.3490     2.0190    -1.4760 O.2   1 <1>  -0.6500 
  4 N       -1.5860    -0.3710    -1.1320 N.am  1 <1>  -0.8490 
  5 C        0.2740     1.7130    -1.0860 C.ar  1 <1>  -0.0090 
  6 C       -0.9110    -1.2960    -0.1980 C.3   1 <1>   0.1960 
  7 C       -2.9760    -0.7490    -1.3700 C.3   1 <1>   0.1960 
  8 C        0.8330     2.8880    -0.5940 C.ar  1 <1>   0.0820 
  9 C        1.0680     0.9270    -1.9140 C.ar  1 <1>  -0.1500 
 10 C       -0.9160    -2.7640    -0.6710 C.3   1 <1>  -0.1060 
 11 C       -3.0440    -2.1600    -1.9480 C.3   1 <1>  -0.1600 
 12 O        0.1030     3.7080     0.1880 O.3   1 <1>  -0.3630 
 13 C        2.1340     3.2550    -0.9080 C.ar  1 <1>  -0.1500 
 14 C        2.3740     1.2710    -2.2210 C.ar  1 <1>  -0.1430 
 15 C        0.0170    -2.8950    -1.8820 C.2   1 <1>   0.9060 
 16 C       -2.3780    -3.1500    -0.9970 C.3   1 <1>   0.2000 
 17 C       -0.3260    -3.6820     0.4370 C.3   1 <1>  -0.0650 
 18 C        0.4010     3.6970     1.5660 C.3   1 <1>   0.0400 
 19 C        2.9070     2.4440    -1.7170 C.ar  1 <1>  -0.1500 
 20 C        3.1910     0.3440    -3.1020 C.3   1 <1>  -0.0960 
 21 O       -0.3120    -3.5960    -2.8530 O.co2 1 <1>  -0.9000 
 22 O        1.1390    -2.3750    -1.8300 O.co2 1 <1>  -0.9000 
 23 O       -2.4290    -4.3950    -1.5840 O.3   1 <1>  -0.6800 
 24 C       -1.0470    -3.6570     1.7960 C.3   1 <1>  -0.1950 
 25 C       -0.6950    -2.6640     2.8590 C.3   1 <1>  -0.2000 
 26 C       -0.3200    -4.1080     3.0230 C.3   1 <1>  -0.2000 
 27 H        0.1080    -0.9800    -0.0490 H     1 <1>   0.0800 
 28 H       -1.4100    -1.2320     0.7520 H     1 <1>   0.0800 
 29 H       -3.5320    -0.6930    -0.4480 H     1 <1>   0.0800 
 30 H       -3.4230    -0.0730    -2.0790 H     1 <1>   0.0800 
 31 H        0.6680     0.0150    -2.3280 H     1 <1>   0.1500 
 32 H       -2.5510    -2.1670    -2.9050 H     1 <1>   0.0800 
 33 H       -4.0720    -2.4350    -2.0910 H     1 <1>   0.0800 
 34 H        2.5340     4.1750    -0.5230 H     1 <1>   0.1500 
 35 H       -2.9630    -3.1980    -0.0970 H     1 <1>   0.0800 
 36 H       -0.3260    -4.6950     0.0730 H     1 <1>   0.0800 
 37 H        0.7070    -3.4120     0.5870 H     1 <1>   0.0800 
 38 H       -0.2960     4.3460     2.0650 H     1 <1>   0.0800 
 39 H        1.4060     4.0500     1.7120 H     1 <1>   0.0800 
 40 H        0.2960     2.6930     1.9370 H     1 <1>   0.0800 
 41 H        3.9170     2.7260    -1.9550 H     1 <1>   0.1500 
 42 H        4.2430     0.5060    -2.9580 H     1 <1>   0.0800 
 43 H        2.9450     0.5090    -4.1350 H     1 <1>   0.0800 
 44 H        2.9700    -0.6820    -2.8590 H     1 <1>   0.0800 
 45 H       -1.6980    -4.3790    -2.2730 H     1 <1>   0.4000 
 46 H       -2.0690    -3.9880     1.7280 H     1 <1>   0.1000 
 47 H        0.0880    -1.9500     2.6700 H     1 <1>   0.1000 
 48 H       -1.4880    -2.2560     3.4610 H     1 <1>   0.1000 
 49 H       -0.8490    -4.7040     3.7450 H     1 <1>   0.1000 
 50 H        0.7180    -4.3830     2.9400 H     1 <1>   0.1000 
@<TRIPOS>BOND
  1   1   2  2   
  2   1   3  2   
  3   1   4  am  
  4   1   5  1   
  5   4   6  1   
  6   4   7  1   
  7   5   8  ar  
  8   5   9  ar  
  9   6  10  1   
 10   6  27  1   
 11   6  28  1   
 12   7  11  1   
 13   7  29  1   
 14   7  30  1   
 15   8  12  1   
 16   8  13  ar  
 17   9  14  ar  
 18   9  31  1   
 19  10  15  1   
 20  10  16  1   
 21  10  17  1   
 22  11  16  1   
 23  11  32  1   
 24  11  33  1   
 25  12  18  1   
 26  13  19  ar  
 27  13  34  1   
 28  14  19  ar  
 29  14  20  1   
 30  15  21  ar  
 31  15  22  ar  
 32  16  23  1   
 33  16  35  1   
 34  17  24  1   
 35  17  36  1   
 36  17  37  1   
 37  18  38  1   
 38  18  39  1   
 39  18  40  1   
 40  19  41  1   
 41  20  42  1   
 42  20  43  1   
 43  20  44  1   
 44  23  45  1   
 45  24  25  1   
 46  24  26  1   
 47  24  46  1   
 48  25  26  1   
 49  25  47  1   
 50  25  48  1   
 51  26  49  1   
 52  26  50  1   
@<TRIPOS>SUBSTRUCTURE
  1 ****   6 GROUP 4 **** **** 0

# MOE 2024.06 (io_trps.svl 2023.06)
