@<TRIPOS>MOLECULE
NONAME
41 43 1 0 0 
SMALL
USER_CHARGES


@<TRIPOS>ATOM
  1 O       -0.6790     0.2880     0.8940 O.2   1 <1>  -0.5700 
  2 C       -1.5970     0.8030     0.3020 C.2   1 <1>   0.5690 
  3 N       -2.6540     0.0670    -0.1480 N.am  1 <1>  -0.6600 
  4 C       -1.5650     2.3010     0.0650 C.3   1 <1>  -0.0990 
  5 C       -3.9150     0.5760    -0.7490 C.3   1 <1>   0.1400 
  6 C       -2.7370    -1.4050     0.0390 C.3   1 <1>   0.1400 
  7 C       -0.1900     2.9050     0.3840 C.3   1 <1>   0.0960 
  8 C       -4.9400    -0.5170    -0.4490 C.3   1 <1>   0.2000 
  9 C       -4.1150    -1.8080    -0.5020 C.3   1 <1>  -0.0800 
 10 N       -0.1900     4.3520     0.1060 N.pl3 1 <1>   0.0480 
 11 O       -5.4120    -0.3200     0.8400 O.3   1 <1>  -0.6800 
 12 C       -4.7370    -3.0200     0.2150 C.3   1 <1>  -0.0170 
 13 C       -0.5240     5.3570     0.9160 C.2   1 <1>   0.0370 
 14 C        0.1230     4.9830    -1.0260 C.2   1 <1>   0.0360 
 15 C       -3.8810    -4.2620     0.0250 C.ar  1 <1>  -0.1440 
 16 N       -0.4280     6.4990     0.3290 N.2   1 <1>  -0.3380 
 17 N       -0.0130     6.2590    -0.9170 N.2   1 <1>  -0.3380 
 18 C       -3.9660    -5.0340    -1.1160 C.ar  1 <1>  -0.1500 
 19 C       -2.9750    -4.6830     0.9780 C.ar  1 <1>  -0.1500 
 20 C       -3.1610    -6.1550    -1.2470 C.ar  1 <1>   0.1600 
 21 C       -2.2170    -5.8190     0.7490 C.ar  1 <1>   0.1600 
 22 N       -2.2880    -6.5650    -0.3420 N.ar  1 <1>  -0.6200 
 23 H       -1.8040     2.4890    -0.9650 H     1 <1>   0.0800 
 24 H       -2.3110     2.7570     0.6890 H     1 <1>   0.0800 
 25 H       -4.2170     1.5220    -0.3340 H     1 <1>   0.0800 
 26 H       -3.7840     0.6700    -1.8130 H     1 <1>   0.0800 
 27 H       -1.9440    -1.9020    -0.4930 H     1 <1>   0.0800 
 28 H       -2.6520    -1.6290     1.0890 H     1 <1>   0.0800 
 29 H        0.5690     2.4340    -0.2160 H     1 <1>   0.0800 
 30 H        0.0540     2.7480     1.4200 H     1 <1>   0.0800 
 31 H       -5.7770    -0.5130    -1.1250 H     1 <1>   0.0800 
 32 H       -3.9840    -2.0640    -1.5390 H     1 <1>   0.0800 
 33 H       -4.6490    -0.2280     1.4460 H     1 <1>   0.4000 
 34 H       -5.7210    -3.2030    -0.1810 H     1 <1>   0.0800 
 35 H       -4.8480    -2.8200     1.2670 H     1 <1>   0.0800 
 36 H       -0.8370     5.2160     1.9350 H     1 <1>   0.1500 
 37 H        0.4470     4.4760    -1.9170 H     1 <1>   0.1500 
 38 H       -4.6490    -4.7770    -1.9050 H     1 <1>   0.1500 
 39 H       -2.8500    -4.1400     1.8970 H     1 <1>   0.1500 
 40 H       -3.2410    -6.7450    -2.1440 H     1 <1>   0.1500 
 41 H       -1.5150    -6.1310     1.5030 H     1 <1>   0.1500 
@<TRIPOS>BOND
  1   1   2  2   
  2   2   3  am  
  3   2   4  1   
  4   3   5  1   
  5   3   6  1   
  6   4   7  1   
  7   4  23  1   
  8   4  24  1   
  9   5   8  1   
 10   5  25  1   
 11   5  26  1   
 12   6   9  1   
 13   6  27  1   
 14   6  28  1   
 15   7  10  1   
 16   7  29  1   
 17   7  30  1   
 18   8   9  1   
 19   8  11  1   
 20   8  31  1   
 21   9  12  1   
 22   9  32  1   
 23  10  13  1   
 24  10  14  1   
 25  11  33  1   
 26  12  15  1   
 27  12  34  1   
 28  12  35  1   
 29  13  16  2   
 30  13  36  1   
 31  14  17  2   
 32  14  37  1   
 33  15  18  ar  
 34  15  19  ar  
 35  16  17  1   
 36  18  20  ar  
 37  18  38  1   
 38  19  21  ar  
 39  19  39  1   
 40  20  22  ar  
 41  20  40  1   
 42  21  22  ar  
 43  21  41  1   
@<TRIPOS>SUBSTRUCTURE
  1 ****   3 GROUP 4 **** **** 0

# MOE 2024.06 (io_trps.svl 2023.06)
