@<TRIPOS>MOLECULE
NONAME
49 51 1 0 0 
SMALL
USER_CHARGES


@<TRIPOS>ATOM
  1 CL      -1.1370    -1.0910     0.7040 Cl    1 <1>  -0.1770 
  2 C       -1.9980     0.3930     0.3460 C.ar  1 <1>   0.1770 
  3 C       -1.5880     1.5830     0.9370 C.ar  1 <1>   0.0820 
  4 C       -3.0880     0.3510    -0.5070 C.ar  1 <1>  -0.1440 
  5 O       -0.5280     1.6260     1.7650 O.3   1 <1>  -0.5320 
  6 C       -2.2800     2.7550     0.6780 C.ar  1 <1>  -0.1500 
  7 C       -3.7680     1.5350    -0.7470 C.ar  1 <1>   0.1770 
  8 C       -3.5150    -0.9450    -1.1650 C.3   1 <1>   0.4870 
  9 C       -3.3770     2.7310    -0.1680 C.ar  1 <1>  -0.1500 
 10 CL      -5.1690     1.5210    -1.7890 Cl    1 <1>  -0.1770 
 11 N       -4.1730    -1.8280    -0.1540 N.4   1 <1>  -0.9590 
 12 C       -4.3490    -3.2250    -0.6990 C.3   1 <1>   0.3430 
 13 C       -5.4740    -1.2310     0.2840 C.3   1 <1>   0.3430 
 14 C       -5.1020    -4.1940     0.2700 C.3   1 <1>   0.4230 
 15 C       -6.1390    -2.1390     1.3230 C.3   1 <1>  -0.1600 
 16 N       -5.2600    -5.6320    -0.2250 N.4   1 <1>  -0.9590 
 17 C       -6.4250    -3.5790     0.8140 C.3   1 <1>   0.0000 
 18 C       -6.2720    -6.4320     0.5490 C.3   1 <1>   0.3430 
 19 C       -5.5580    -5.7720    -1.6920 C.3   1 <1>   0.2630 
 20 C       -6.9020    -4.4340     2.0230 C.3   1 <1>  -0.1600 
 21 C       -7.5750    -3.5340    -0.2340 C.3   1 <1>   0.1200 
 22 C       -6.4250    -5.9010     1.9750 C.3   1 <1>  -0.1600 
 23 O       -7.1460    -3.0060    -1.4440 O.3   1 <1>  -0.6800 
 24 H       -0.0620     0.7720     1.8630 H     1 <1>   0.4500 
 25 H       -1.9580     3.6750     1.1370 H     1 <1>   0.1500 
 26 H       -2.6400    -1.4320    -1.5650 H     1 <1>   0.0800 
 27 H       -4.1890    -0.7480    -1.9830 H     1 <1>   0.0800 
 28 H       -3.9250     3.6350    -0.3770 H     1 <1>   0.1500 
 29 H       -3.5380    -1.8410     0.6590 H     1 <1>   0.4500 
 30 H       -4.8990    -3.1650    -1.6220 H     1 <1>   0.0800 
 31 H       -3.3790    -3.6410    -0.9160 H     1 <1>   0.0800 
 32 H       -5.3070    -0.2570     0.7190 H     1 <1>   0.0800 
 33 H       -6.1270    -1.1040    -0.5640 H     1 <1>   0.0800 
 34 H       -4.4620    -4.2590     1.1350 H     1 <1>   0.0800 
 35 H       -5.5040    -2.1640     2.1920 H     1 <1>   0.0800 
 36 H       -7.0620    -1.6780     1.6310 H     1 <1>   0.0800 
 37 H       -4.3600    -6.1070    -0.0560 H     1 <1>   0.4500 
 38 H       -7.2310    -6.3790     0.0610 H     1 <1>   0.0800 
 39 H       -5.9770    -7.4700     0.5770 H     1 <1>   0.0800 
 40 H       -6.4910    -5.2920    -1.9370 H     1 <1>   0.0800 
 41 H       -5.6330    -6.8150    -1.9600 H     1 <1>   0.0800 
 42 H       -4.7760    -5.3300    -2.2870 H     1 <1>   0.0800 
 43 H       -6.5530    -4.0190     2.9540 H     1 <1>   0.0800 
 44 H       -7.9790    -4.4140     2.0800 H     1 <1>   0.0800 
 45 H       -8.3870    -2.9220     0.1270 H     1 <1>   0.0800 
 46 H       -7.9700    -4.5160    -0.4300 H     1 <1>   0.0800 
 47 H       -7.1330    -6.5170     2.5050 H     1 <1>   0.0800 
 48 H       -5.4840    -6.0030     2.4890 H     1 <1>   0.0800 
 49 H       -7.9200    -2.8210    -2.0260 H     1 <1>   0.4000 
@<TRIPOS>BOND
  1   1   2  1   
  2   2   3  ar  
  3   2   4  ar  
  4   3   5  1   
  5   3   6  ar  
  6   4   7  ar  
  7   4   8  1   
  8   5  24  1   
  9   6   9  ar  
 10   6  25  1   
 11   7   9  ar  
 12   7  10  1   
 13   8  11  1   
 14   8  26  1   
 15   8  27  1   
 16   9  28  1   
 17  11  12  1   
 18  11  13  1   
 19  11  29  1   
 20  12  14  1   
 21  12  30  1   
 22  12  31  1   
 23  13  15  1   
 24  13  32  1   
 25  13  33  1   
 26  14  16  1   
 27  14  17  1   
 28  14  34  1   
 29  15  17  1   
 30  15  35  1   
 31  15  36  1   
 32  16  18  1   
 33  16  19  1   
 34  16  37  1   
 35  17  20  1   
 36  17  21  1   
 37  18  22  1   
 38  18  38  1   
 39  18  39  1   
 40  19  40  1   
 41  19  41  1   
 42  19  42  1   
 43  20  22  1   
 44  20  43  1   
 45  20  44  1   
 46  21  23  1   
 47  21  45  1   
 48  21  46  1   
 49  22  47  1   
 50  22  48  1   
 51  23  49  1   
@<TRIPOS>SUBSTRUCTURE
  1 ****  11 GROUP 4 **** **** 0

# MOE 2024.06 (io_trps.svl 2023.06)
