@<TRIPOS>MOLECULE
NONAME
59 61 1 0 0 
SMALL
USER_CHARGES


@<TRIPOS>ATOM
  1 O       -0.8010     0.2980    -0.9230 O.3   1 <1>  -0.3630 
  2 C       -0.5920     1.6150    -0.6590 C.ar  1 <1>   0.0820 
  3 C       -1.7760    -0.4460    -0.2380 C.3   1 <1>   0.1200 
  4 C        0.4200     2.2600    -1.3640 C.ar  1 <1>  -0.1440 
  5 C       -1.3400     2.3280     0.2760 C.ar  1 <1>  -0.1500 
  6 C       -1.7150    -1.8740    -0.7850 C.3   1 <1>   0.3430 
  7 C        0.6700     3.6020    -1.1280 C.ar  1 <1>  -0.1500 
  8 C        1.2550     1.5120    -2.3930 C.3   1 <1>  -0.0960 
  9 C       -1.0780     3.6670     0.5020 C.ar  1 <1>  -0.1500 
 10 N       -2.7570    -2.7780    -0.1950 N.4   1 <1>  -0.9590 
 11 C       -0.0730     4.3110    -0.1990 C.ar  1 <1>  -0.1440 
 12 C       -2.7890    -4.0580    -0.9940 C.3   1 <1>   0.3430 
 13 C       -2.5150    -3.0230     1.2570 C.3   1 <1>   0.3430 
 14 C        0.2170     5.7810     0.0480 C.3   1 <1>  -0.0970 
 15 C       -3.4620    -5.2720    -0.3060 C.3   1 <1>   0.0000 
 16 C       -3.6770    -3.8100     1.8600 C.3   1 <1>  -0.1600 
 17 C       -4.3440    -4.7700     0.8660 C.3   1 <1>   0.2000 
 18 C       -4.4130    -5.9280    -1.3360 C.3   1 <1>   0.1200 
 19 C       -2.3950    -6.3450     0.0850 C.3   1 <1>  -0.0160 
 20 O       -4.8920    -5.8270     1.5630 O.3   1 <1>  -0.6800 
 21 O       -3.7520    -6.0920    -2.5460 O.3   1 <1>  -0.6800 
 22 C       -1.2370    -5.8620     0.9500 C.ar  1 <1>  -0.1440 
 23 C       -1.2810    -6.0000     2.3300 C.ar  1 <1>  -0.1500 
 24 C       -0.1120    -5.2960     0.3660 C.ar  1 <1>  -0.1500 
 25 C       -0.2440    -5.5300     3.1160 C.ar  1 <1>  -0.1500 
 26 C        0.9260    -4.8250     1.1500 C.ar  1 <1>  -0.1500 
 27 C        0.8570    -4.9350     2.5270 C.ar  1 <1>  -0.1500 
 28 H       -1.5370    -0.4150     0.8100 H     1 <1>   0.0800 
 29 H       -2.7340     0.0030    -0.4340 H     1 <1>   0.0800 
 30 H       -2.1280     1.8710     0.8400 H     1 <1>   0.1500 
 31 H       -0.7360    -2.2800    -0.5880 H     1 <1>   0.0800 
 32 H       -1.8510    -1.8250    -1.8530 H     1 <1>   0.0800 
 33 H        1.4520     4.1040    -1.6690 H     1 <1>   0.1500 
 34 H        1.9910     2.1570    -2.8390 H     1 <1>   0.0800 
 35 H        0.6200     1.1300    -3.1720 H     1 <1>   0.0800 
 36 H        1.7630     0.6900    -1.9230 H     1 <1>   0.0800 
 37 H       -1.6590     4.2100     1.2270 H     1 <1>   0.1500 
 38 H       -3.6750    -2.3240    -0.2930 H     1 <1>   0.4500 
 39 H       -3.3030    -3.8630    -1.9220 H     1 <1>   0.0800 
 40 H       -1.7870    -4.3420    -1.2610 H     1 <1>   0.0800 
 41 H       -1.5960    -3.5710     1.3830 H     1 <1>   0.0800 
 42 H       -2.4100    -2.0920     1.7880 H     1 <1>   0.0800 
 43 H       -0.6590     6.2830     0.4160 H     1 <1>   0.0800 
 44 H        0.5240     6.2600    -0.8640 H     1 <1>   0.0800 
 45 H        1.0040     5.8780     0.7740 H     1 <1>   0.0800 
 46 H       -4.4190    -3.1140     2.2080 H     1 <1>   0.0800 
 47 H       -3.3160    -4.3340     2.7260 H     1 <1>   0.0800 
 48 H       -5.1800    -4.2400     0.4380 H     1 <1>   0.0800 
 49 H       -5.2790    -5.3130    -1.5190 H     1 <1>   0.0800 
 50 H       -4.7450    -6.8940    -0.9910 H     1 <1>   0.0800 
 51 H       -2.8750    -7.1740     0.5750 H     1 <1>   0.0800 
 52 H       -1.9640    -6.7550    -0.8130 H     1 <1>   0.0800 
 53 H       -4.2180    -6.3040     2.0840 H     1 <1>   0.4000 
 54 H       -4.2880    -6.6340    -3.1650 H     1 <1>   0.4000 
 55 H       -2.1170    -6.4790     2.8080 H     1 <1>   0.1500 
 56 H       -0.0230    -5.2270    -0.7050 H     1 <1>   0.1500 
 57 H       -0.2850    -5.6370     4.1870 H     1 <1>   0.1500 
 58 H        1.7970    -4.3850     0.6930 H     1 <1>   0.1500 
 59 H        1.6660    -4.5730     3.1390 H     1 <1>   0.1500 
@<TRIPOS>BOND
  1   1   2  1   
  2   1   3  1   
  3   2   4  ar  
  4   2   5  ar  
  5   3   6  1   
  6   3  28  1   
  7   3  29  1   
  8   4   7  ar  
  9   4   8  1   
 10   5   9  ar  
 11   5  30  1   
 12   6  10  1   
 13   6  31  1   
 14   6  32  1   
 15   7  11  ar  
 16   7  33  1   
 17   8  34  1   
 18   8  35  1   
 19   8  36  1   
 20   9  11  ar  
 21   9  37  1   
 22  10  12  1   
 23  10  13  1   
 24  10  38  1   
 25  11  14  1   
 26  12  15  1   
 27  12  39  1   
 28  12  40  1   
 29  13  16  1   
 30  13  41  1   
 31  13  42  1   
 32  14  43  1   
 33  14  44  1   
 34  14  45  1   
 35  15  17  1   
 36  15  18  1   
 37  15  19  1   
 38  16  17  1   
 39  16  46  1   
 40  16  47  1   
 41  17  20  1   
 42  17  48  1   
 43  18  21  1   
 44  18  49  1   
 45  18  50  1   
 46  19  22  1   
 47  19  51  1   
 48  19  52  1   
 49  20  53  1   
 50  21  54  1   
 51  22  23  ar  
 52  22  24  ar  
 53  23  25  ar  
 54  23  55  1   
 55  24  26  ar  
 56  24  56  1   
 57  25  27  ar  
 58  25  57  1   
 59  26  27  ar  
 60  26  58  1   
 61  27  59  1   
@<TRIPOS>SUBSTRUCTURE
  1 ****   6 GROUP 4 **** **** 0

# MOE 2024.06 (io_trps.svl 2023.06)
