@<TRIPOS>MOLECULE
NONAME
47 49 1 0 0 
SMALL
USER_CHARGES


@<TRIPOS>ATOM
  1 F       -1.3430     2.0000     1.8790 F     1 <1>  -0.1900 
  2 C       -1.1450     2.7880     0.8560 C.ar  1 <1>   0.1900 
  3 C       -1.7180     2.4560    -0.3660 C.ar  1 <1>  -0.1440 
  4 C       -0.3700     3.9160     1.0430 C.ar  1 <1>  -0.1500 
  5 C       -1.4820     3.2930    -1.4530 C.ar  1 <1>  -0.1500 
  6 C       -2.5550     1.1920    -0.5010 C.3   1 <1>   0.4870 
  7 C       -0.1710     4.7250    -0.0570 C.ar  1 <1>   0.1900 
  8 C       -0.7090     4.4350    -1.2990 C.ar  1 <1>  -0.1500 
  9 N       -4.0120     1.4470    -0.2690 N.4   1 <1>  -0.9590 
 10 F        0.5520     5.8020     0.0790 F     1 <1>  -0.1900 
 11 C       -4.5780     2.4290    -1.2380 C.3   1 <1>   0.3430 
 12 C       -4.2740     1.8990     1.1290 C.3   1 <1>   0.3430 
 13 C       -6.0890     2.5230    -1.0560 C.3   1 <1>  -0.1600 
 14 C       -5.7770     1.9810     1.3690 C.3   1 <1>  -0.1600 
 15 C       -6.4500     2.9430     0.3790 C.3   1 <1>   0.2800 
 16 O       -5.8230     4.1900     0.5720 O.3   1 <1>  -0.5600 
 17 C       -7.9860     2.9910     0.6400 C.3   1 <1>   0.2000 
 18 C       -6.6030     5.3010     0.9220 C.3   1 <1>   0.1200 
 19 O       -8.5940     1.7850     0.2740 O.3   1 <1>  -0.6800 
 20 C       -8.7040     4.2240     0.0110 C.3   1 <1>   0.2800 
 21 C       -7.7580     5.4350    -0.0710 C.3   1 <1>  -0.1600 
 22 O       -9.7240     4.5600     0.8770 O.3   1 <1>  -0.6800 
 23 C       -9.3910     3.9810    -1.3410 C.3   1 <1>  -0.2400 
 24 H        0.0620     4.1560     1.9970 H     1 <1>   0.1500 
 25 H       -1.8870     3.0690    -2.4270 H     1 <1>   0.1500 
 26 H       -2.2010     0.4590     0.2060 H     1 <1>   0.0800 
 27 H       -2.4140     0.7850    -1.4890 H     1 <1>   0.0800 
 28 H       -0.5160     5.0960    -2.1270 H     1 <1>   0.1500 
 29 H       -4.5150     0.5600    -0.3980 H     1 <1>   0.4500 
 30 H       -4.1420     3.4010    -1.0670 H     1 <1>   0.0800 
 31 H       -4.3560     2.1270    -2.2480 H     1 <1>   0.0800 
 32 H       -3.8320     1.2130     1.8340 H     1 <1>   0.0800 
 33 H       -3.8390     2.8740     1.2860 H     1 <1>   0.0800 
 34 H       -6.5380     1.5750    -1.2950 H     1 <1>   0.0800 
 35 H       -6.4720     3.2450    -1.7500 H     1 <1>   0.0800 
 36 H       -5.9550     2.3230     2.3730 H     1 <1>   0.0800 
 37 H       -6.2090     1.0000     1.2850 H     1 <1>   0.0800 
 38 H       -8.1090     3.0640     1.7080 H     1 <1>   0.0800 
 39 H       -6.9620     5.1750     1.9310 H     1 <1>   0.0800 
 40 H       -5.9700     6.1710     0.8860 H     1 <1>   0.0800 
 41 H       -9.5490     1.8440     0.4880 H     1 <1>   0.4000 
 42 H       -7.3310     5.5070    -1.0550 H     1 <1>   0.0800 
 43 H       -8.2940     6.3500     0.1100 H     1 <1>   0.0800 
 44 H      -10.2720     5.2680     0.4860 H     1 <1>   0.4000 
 45 H       -8.6830     3.6330    -2.0680 H     1 <1>   0.0800 
 46 H       -9.8280     4.8900    -1.7140 H     1 <1>   0.0800 
 47 H      -10.1630     3.2380    -1.2510 H     1 <1>   0.0800 
@<TRIPOS>BOND
  1   1   2  1   
  2   2   3  ar  
  3   2   4  ar  
  4   3   5  ar  
  5   3   6  1   
  6   4   7  ar  
  7   4  24  1   
  8   5   8  ar  
  9   5  25  1   
 10   6   9  1   
 11   6  26  1   
 12   6  27  1   
 13   7   8  ar  
 14   7  10  1   
 15   8  28  1   
 16   9  11  1   
 17   9  12  1   
 18   9  29  1   
 19  11  13  1   
 20  11  30  1   
 21  11  31  1   
 22  12  14  1   
 23  12  32  1   
 24  12  33  1   
 25  13  15  1   
 26  13  34  1   
 27  13  35  1   
 28  14  15  1   
 29  14  36  1   
 30  14  37  1   
 31  15  16  1   
 32  15  17  1   
 33  16  18  1   
 34  17  19  1   
 35  17  20  1   
 36  17  38  1   
 37  18  21  1   
 38  18  39  1   
 39  18  40  1   
 40  19  41  1   
 41  20  21  1   
 42  20  22  1   
 43  20  23  1   
 44  21  42  1   
 45  21  43  1   
 46  22  44  1   
 47  23  45  1   
 48  23  46  1   
 49  23  47  1   
@<TRIPOS>SUBSTRUCTURE
  1 ****  11 GROUP 4 **** **** 0

# MOE 2024.06 (io_trps.svl 2023.06)
