@<TRIPOS>MOLECULE
NONAME
43 45 1 0 0 
SMALL
USER_CHARGES


@<TRIPOS>ATOM
  1 O        0.1890     0.3070     0.5330 O.2   1 <1>  -0.5700 
  2 C        1.1370     1.0340     0.3490 C.2   1 <1>   0.5690 
  3 N        0.9770     2.3830     0.1390 N.am  1 <1>  -0.6600 
  4 C        2.5040     0.3840     0.3950 C.3   1 <1>   0.1010 
  5 C       -0.3910     2.9840     0.0090 C.3   1 <1>   0.1400 
  6 C        2.0880     3.3810     0.0160 C.3   1 <1>   0.1400 
  7 C        3.1920     0.5190    -0.9120 C.1   1 <1>   0.3570 
  8 C       -0.6740     3.9920     1.1460 C.3   1 <1>   0.2890 
  9 C        1.7010     4.7610     0.5800 C.3   1 <1>  -0.1600 
 10 N        3.7560     0.6490    -1.8900 N.1   1 <1>  -0.5570 
 11 N       -1.7690     4.9520     0.7660 N.pl3 1 <1>  -0.8380 
 12 C        0.6270     4.6630     1.6790 C.3   1 <1>  -0.0800 
 13 C       -1.6240     6.0210    -0.1000 C.ar  1 <1>   0.4100 
 14 C       -3.1360     4.5490     1.1850 C.3   1 <1>   0.1290 
 15 C        0.4350     6.0070     2.4040 C.3   1 <1>  -0.2400 
 16 N       -1.0330     5.8260    -1.2560 N.ar  1 <1>  -0.6200 
 17 C       -2.1260     7.2890     0.2350 C.ar  1 <1>   0.0000 
 18 C       -0.9490     6.8850    -2.0720 C.ar  1 <1>   0.4700 
 19 C       -1.9710     8.2900    -0.6980 C.ar  1 <1>   0.1050 
 20 C       -2.7780     7.8810     1.3420 C.2   1 <1>  -0.1500 
 21 N       -1.3760     8.1080    -1.8790 N.ar  1 <1>  -0.5670 
 22 N       -2.5050     9.4430    -0.2110 N.pl3 1 <1>   0.0330 
 23 C       -2.9970     9.1850     1.0410 C.2   1 <1>  -0.3020 
 24 H        3.0940     0.8350     1.1670 H     1 <1>   0.0800 
 25 H        2.3950    -0.6600     0.6190 H     1 <1>   0.0800 
 26 H       -0.4410     3.4730    -0.9440 H     1 <1>   0.0800 
 27 H       -1.1500     2.2230     0.0200 H     1 <1>   0.0800 
 28 H        2.9490     3.0300     0.5550 H     1 <1>   0.0800 
 29 H        2.3630     3.4820    -1.0210 H     1 <1>   0.0800 
 30 H       -1.0500     3.4100     1.9690 H     1 <1>   0.0800 
 31 H        2.5840     5.2390     0.9650 H     1 <1>   0.0800 
 32 H        1.3390     5.3780    -0.2210 H     1 <1>   0.0800 
 33 H        1.0200     3.9830     2.4160 H     1 <1>   0.0800 
 34 H       -3.2230     4.6140     2.2550 H     1 <1>   0.0800 
 35 H       -3.3310     3.5370     0.8730 H     1 <1>   0.0800 
 36 H       -3.8730     5.1920     0.7340 H     1 <1>   0.0800 
 37 H        0.2170     6.7920     1.7040 H     1 <1>   0.0800 
 38 H        1.3310     6.2740     2.9360 H     1 <1>   0.0800 
 39 H       -0.3740     5.9380     3.1080 H     1 <1>   0.0800 
 40 H       -0.4620     6.6930    -3.0130 H     1 <1>   0.1500 
 41 H       -3.0280     7.3480     2.2420 H     1 <1>   0.1500 
 42 H       -2.5100    10.3300    -0.7210 H     1 <1>   0.2700 
 43 H       -3.4670     9.9460     1.6390 H     1 <1>   0.1500 
@<TRIPOS>BOND
  1   1   2  2   
  2   2   3  am  
  3   2   4  1   
  4   3   5  1   
  5   3   6  1   
  6   4   7  1   
  7   4  24  1   
  8   4  25  1   
  9   5   8  1   
 10   5  26  1   
 11   5  27  1   
 12   6   9  1   
 13   6  28  1   
 14   6  29  1   
 15   7  10  3   
 16   8  11  1   
 17   8  12  1   
 18   8  30  1   
 19   9  12  1   
 20   9  31  1   
 21   9  32  1   
 22  11  13  1   
 23  11  14  1   
 24  12  15  1   
 25  12  33  1   
 26  13  16  ar  
 27  13  17  ar  
 28  14  34  1   
 29  14  35  1   
 30  14  36  1   
 31  15  37  1   
 32  15  38  1   
 33  15  39  1   
 34  16  18  ar  
 35  17  19  ar  
 36  17  20  1   
 37  18  21  ar  
 38  18  40  1   
 39  19  21  ar  
 40  19  22  1   
 41  20  23  2   
 42  20  41  1   
 43  22  23  1   
 44  22  42  1   
 45  23  43  1   
@<TRIPOS>SUBSTRUCTURE
  1 ****   8 GROUP 4 **** **** 0

# MOE 2024.06 (io_trps.svl 2023.06)
