@<TRIPOS>MOLECULE
NONAME
52 54 1 0 0 
SMALL
USER_CHARGES


@<TRIPOS>ATOM
  1 S        0.9670     0.5620     0.5410 S.o2  1 <1>   1.3330 
  2 O        1.9320     0.5270     1.6160 O.2   1 <1>  -0.6500 
  3 O        1.3730     0.2100    -0.8010 O.2   1 <1>  -0.6500 
  4 N       -0.3430    -0.4310     0.9650 N.am  1 <1>  -0.8490 
  5 C        0.2340     2.1960     0.5180 C.3   1 <1>  -0.0550 
  6 C       -1.1760    -0.8170    -0.1790 C.3   1 <1>   0.1160 
  7 C        0.0820    -1.6270     1.6980 C.3   1 <1>   0.1160 
  8 C        1.2530     3.3190     0.2580 C.3   1 <1>  -0.0800 
  9 C        0.6120     4.7020     0.3110 C.3   1 <1>   0.2000 
 10 C        1.9100     3.2710    -1.1250 C.3   1 <1>   0.1400 
 11 O        0.5060     5.1290     1.6240 O.3   1 <1>  -0.6800 
 12 C        1.5290     5.6060    -0.5100 C.3   1 <1>   0.1400 
 13 N        2.2130     4.6850    -1.4530 N.am  1 <1>  -0.6600 
 14 C        3.1110     5.0390    -2.4240 C.2   1 <1>   0.5690 
 15 O        3.6750     4.2050    -3.0910 O.2   1 <1>  -0.5700 
 16 C        3.4240     6.5030    -2.7060 C.3   1 <1>   0.0440 
 17 C        4.1030     7.2120    -1.5370 C.ar  1 <1>  -0.1440 
 18 C        3.6460     8.4450    -1.0980 C.ar  1 <1>  -0.1500 
 19 C        5.1830     6.6230    -0.8980 C.ar  1 <1>  -0.1500 
 20 C        4.2580     9.0780    -0.0310 C.ar  1 <1>  -0.1500 
 21 C        5.7960     7.2550     0.1680 C.ar  1 <1>  -0.1500 
 22 C        5.3430     8.4920     0.6120 C.ar  1 <1>  -0.0230 
 23 N        5.9850     9.1460     1.6980 N.pl3 1 <1>   0.5930 
 24 N        5.9260     8.7430     2.9560 N.2   1 <1>  -0.4180 
 25 C        6.7510    10.2350     1.6870 C.2   1 <1>   0.0060 
 26 N        6.6230     9.5690     3.6470 N.2   1 <1>   0.0000 
 27 N        7.1480    10.5090     2.8690 N.2   1 <1>  -0.3380 
 28 C        7.1110    11.0340     0.4470 C.3   1 <1>  -0.0600 
 29 H       -0.5340     2.2320    -0.2290 H     1 <1>   0.0800 
 30 H       -0.2280     2.3740     1.4700 H     1 <1>   0.0800 
 31 H       -2.0370    -1.3670     0.1610 H     1 <1>   0.0800 
 32 H       -0.6150    -1.4320    -0.8640 H     1 <1>   0.0800 
 33 H       -1.5190     0.0590    -0.7020 H     1 <1>   0.0800 
 34 H       -0.7730    -2.2260     1.9640 H     1 <1>   0.0800 
 35 H        0.5880    -1.3440     2.6060 H     1 <1>   0.0800 
 36 H        0.7550    -2.2160     1.0970 H     1 <1>   0.0800 
 37 H        2.0430     3.2620     0.9880 H     1 <1>   0.0800 
 38 H       -0.3730     4.6960    -0.1240 H     1 <1>   0.0800 
 39 H        1.2340     2.8790    -1.8660 H     1 <1>   0.0800 
 40 H        2.8090     2.6760    -1.1180 H     1 <1>   0.0800 
 41 H        1.3800     5.1170     2.0620 H     1 <1>   0.4000 
 42 H        2.2630     6.0760     0.1220 H     1 <1>   0.0800 
 43 H        0.9610     6.3470    -1.0440 H     1 <1>   0.0800 
 44 H        4.0730     6.5550    -3.5620 H     1 <1>   0.0800 
 45 H        2.5080     6.9980    -2.9670 H     1 <1>   0.0800 
 46 H        2.8100     8.9200    -1.5830 H     1 <1>   0.1500 
 47 H        5.5510     5.6650    -1.2290 H     1 <1>   0.1500 
 48 H        3.8860    10.0320     0.3040 H     1 <1>   0.1500 
 49 H        6.6310     6.7810     0.6580 H     1 <1>   0.1500 
 50 H        7.7940    11.8240     0.7050 H     1 <1>   0.0800 
 51 H        6.2280    11.4700     0.0160 H     1 <1>   0.0800 
 52 H        7.5820    10.3980    -0.2810 H     1 <1>   0.0800 
@<TRIPOS>BOND
  1   1   2  2   
  2   1   3  2   
  3   1   4  am  
  4   1   5  1   
  5   4   6  1   
  6   4   7  1   
  7   5   8  1   
  8   5  29  1   
  9   5  30  1   
 10   6  31  1   
 11   6  32  1   
 12   6  33  1   
 13   7  34  1   
 14   7  35  1   
 15   7  36  1   
 16   8   9  1   
 17   8  10  1   
 18   8  37  1   
 19   9  11  1   
 20   9  12  1   
 21   9  38  1   
 22  10  13  1   
 23  10  39  1   
 24  10  40  1   
 25  11  41  1   
 26  12  13  1   
 27  12  42  1   
 28  12  43  1   
 29  13  14  am  
 30  14  15  2   
 31  14  16  1   
 32  16  17  1   
 33  16  44  1   
 34  16  45  1   
 35  17  18  ar  
 36  17  19  ar  
 37  18  20  ar  
 38  18  46  1   
 39  19  21  ar  
 40  19  47  1   
 41  20  22  ar  
 42  20  48  1   
 43  21  22  ar  
 44  21  49  1   
 45  22  23  1   
 46  23  24  1   
 47  23  25  1   
 48  24  26  2   
 49  25  27  2   
 50  25  28  1   
 51  26  27  1   
 52  28  50  1   
 53  28  51  1   
 54  28  52  1   
@<TRIPOS>SUBSTRUCTURE
  1 ****  12 GROUP 4 **** **** 0

# MOE 2024.06 (io_trps.svl 2023.06)
