@<TRIPOS>MOLECULE
NONAME
48 50 1 0 0 
SMALL
USER_CHARGES


@<TRIPOS>ATOM
  1 O        1.1130    -1.6210    -1.9220 O.3   1 <1>  -0.6800 
  2 C        0.4480    -2.0530    -0.7830 C.3   1 <1>   0.1200 
  3 C        1.3730    -2.0330     0.4690 C.3   1 <1>   0.0000 
  4 C        2.7600    -2.7020     0.2370 C.3   1 <1>   0.4230 
  5 C        1.5930    -0.5630     0.9190 C.3   1 <1>  -0.1600 
  6 C        0.6500    -2.7890     1.6190 C.3   1 <1>  -0.1600 
  7 N        2.6630    -4.1720    -0.1750 N.4   1 <1>  -0.9590 
  8 C        3.7120    -1.8190    -0.6350 C.3   1 <1>   0.3430 
  9 C        2.4670     0.2590    -0.0330 C.3   1 <1>   0.3430 
 10 C        1.0870    -4.2610     1.7700 C.3   1 <1>  -0.1600 
 11 C        1.4990    -4.8990     0.4420 C.3   1 <1>   0.3430 
 12 C        2.6520    -4.4180    -1.6580 C.3   1 <1>   0.2630 
 13 N        3.8100    -0.3850    -0.1740 N.4   1 <1>  -0.9590 
 14 C        4.6670     0.4230    -1.0930 C.3   1 <1>   0.4860 
 15 C        4.9320     1.7620    -0.4370 C.ar  1 <1>  -0.1430 
 16 C        4.2790     2.9010    -0.8870 C.ar  1 <1>  -0.1500 
 17 C        5.8230     1.8590     0.6230 C.ar  1 <1>  -0.1500 
 18 C        4.5030     4.1200    -0.2720 C.ar  1 <1>  -0.1500 
 19 C        6.0440     3.0790     1.2360 C.ar  1 <1>  -0.1500 
 20 C        5.3830     4.2090     0.7910 C.ar  1 <1>  -0.1500 
 21 H        0.4710    -1.4820    -2.6570 H     1 <1>   0.4000 
 22 H       -0.4030    -1.4080    -0.6300 H     1 <1>   0.0800 
 23 H        0.0750    -3.0430    -0.9820 H     1 <1>   0.0800 
 24 H        3.2190    -2.7080     1.2120 H     1 <1>   0.0800 
 25 H        2.0510    -0.5300     1.8940 H     1 <1>   0.0800 
 26 H        0.6410    -0.0690     1.0120 H     1 <1>   0.0800 
 27 H        0.8250    -2.3090     2.5690 H     1 <1>   0.0800 
 28 H       -0.4170    -2.7510     1.4660 H     1 <1>   0.0800 
 29 H        3.5000    -4.6440     0.2000 H     1 <1>   0.4500 
 30 H        3.3530    -1.8270    -1.6490 H     1 <1>   0.0800 
 31 H        4.6950    -2.2580    -0.6260 H     1 <1>   0.0800 
 32 H        2.5770     1.2590     0.3600 H     1 <1>   0.0800 
 33 H        1.9890     0.3330    -0.9970 H     1 <1>   0.0800 
 34 H        0.2740    -4.8270     2.1940 H     1 <1>   0.0800 
 35 H        1.9080    -4.3360     2.4630 H     1 <1>   0.0800 
 36 H        0.6540    -4.8700    -0.2260 H     1 <1>   0.0800 
 37 H        1.7550    -5.9360     0.6000 H     1 <1>   0.0800 
 38 H        1.7970    -3.9460    -2.1140 H     1 <1>   0.0800 
 39 H        2.6020    -5.4760    -1.8600 H     1 <1>   0.0800 
 40 H        3.5460    -4.0310    -2.1180 H     1 <1>   0.0800 
 41 H        4.2700    -0.3160     0.7450 H     1 <1>   0.4500 
 42 H        5.6070    -0.0740    -1.2680 H     1 <1>   0.0800 
 43 H        4.1730     0.5670    -2.0410 H     1 <1>   0.0800 
 44 H        3.5940     2.8620    -1.7170 H     1 <1>   0.1500 
 45 H        6.3630     1.0000     0.9840 H     1 <1>   0.1500 
 46 H        3.9960     5.0050    -0.6200 H     1 <1>   0.1500 
 47 H        6.7350     3.1570     2.0590 H     1 <1>   0.1500 
 48 H        5.5570     5.1590     1.2680 H     1 <1>   0.1500 
@<TRIPOS>BOND
  1   1   2  1   
  2   1  21  1   
  3   2   3  1   
  4   2  22  1   
  5   2  23  1   
  6   3   4  1   
  7   3   5  1   
  8   3   6  1   
  9   4   7  1   
 10   4   8  1   
 11   4  24  1   
 12   5   9  1   
 13   5  25  1   
 14   5  26  1   
 15   6  10  1   
 16   6  27  1   
 17   6  28  1   
 18   7  11  1   
 19   7  12  1   
 20   7  29  1   
 21   8  13  1   
 22   8  30  1   
 23   8  31  1   
 24   9  13  1   
 25   9  32  1   
 26   9  33  1   
 27  10  11  1   
 28  10  34  1   
 29  10  35  1   
 30  11  36  1   
 31  11  37  1   
 32  12  38  1   
 33  12  39  1   
 34  12  40  1   
 35  13  14  1   
 36  13  41  1   
 37  14  15  1   
 38  14  42  1   
 39  14  43  1   
 40  15  16  ar  
 41  15  17  ar  
 42  16  18  ar  
 43  16  44  1   
 44  17  19  ar  
 45  17  45  1   
 46  18  20  ar  
 47  18  46  1   
 48  19  20  ar  
 49  19  47  1   
 50  20  48  1   
@<TRIPOS>SUBSTRUCTURE
  1 ****  13 GROUP 4 **** **** 0

# MOE 2024.06 (io_trps.svl 2023.06)
