@<TRIPOS>MOLECULE
NONAME
51 54 1 0 0 
SMALL
USER_CHARGES


@<TRIPOS>ATOM
  1 O       -0.6930    -0.3460     0.2520 O.2   1 <1>  -0.5700 
  2 C       -1.4510     0.5980     0.0980 C.2   1 <1>   0.5440 
  3 N       -2.5990     0.3700    -0.6520 N.am  1 <1>  -0.6600 
  4 C       -1.1430     1.8840     0.7200 C.ar  1 <1>   0.3960 
  5 C       -2.9730    -1.0140    -1.0600 C.3   1 <1>   0.1400 
  6 C       -3.7340     1.3310    -0.7130 C.3   1 <1>   0.1400 
  7 N       -1.9330     2.3170     1.6900 N.ar  1 <1>  -0.6200 
  8 C       -0.0120     2.6210     0.2530 C.ar  1 <1>   0.0000 
  9 C       -4.0220    -1.5240    -0.0550 C.3   1 <1>   0.4230 
 10 C       -4.8550     0.8280     0.2150 C.3   1 <1>  -0.1600 
 11 C       -1.6350     3.4940     2.2550 C.ar  1 <1>   0.1600 
 12 C        0.2710     3.8620     0.8520 C.ar  1 <1>   0.0000 
 13 C        0.8490     2.1940    -0.7860 C.ar  1 <1>  -0.1500 
 14 N       -4.2390    -3.0270    -0.0670 N.4   1 <1>  -0.9590 
 15 C       -5.3070    -0.6340    -0.0700 C.3   1 <1>   0.0000 
 16 C       -0.5830     4.2740     1.8820 C.ar  1 <1>  -0.1500 
 17 C        1.3680     4.6260     0.4120 C.ar  1 <1>  -0.1500 
 18 C        1.9110     2.9500    -1.2020 C.ar  1 <1>  -0.1500 
 19 C       -5.5360    -3.4420     0.5570 C.3   1 <1>   0.3430 
 20 C       -4.1100    -3.6690    -1.4140 C.3   1 <1>   0.2630 
 21 C       -6.2770    -1.0720     1.0690 C.3   1 <1>  -0.1600 
 22 C       -6.0540    -0.6040    -1.4370 C.3   1 <1>   0.1200 
 23 C        2.1740     4.1810    -0.5980 C.ar  1 <1>  -0.1500 
 24 C       -5.9600    -2.4620     1.6500 C.3   1 <1>  -0.1600 
 25 O       -6.5700    -1.8420    -1.7900 O.3   1 <1>  -0.6800 
 26 H       -3.3630    -0.9980    -2.0610 H     1 <1>   0.0800 
 27 H       -2.1100    -1.6560    -1.0460 H     1 <1>   0.0800 
 28 H       -3.4240     2.3170    -0.4130 H     1 <1>   0.0800 
 29 H       -4.0810     1.4070    -1.7300 H     1 <1>   0.0800 
 30 H       -3.5770    -1.3210     0.9050 H     1 <1>   0.0800 
 31 H       -4.4850     0.9060     1.2250 H     1 <1>   0.0800 
 32 H       -5.6940     1.4990     0.1420 H     1 <1>   0.0800 
 33 H       -2.2860     3.8180     3.0500 H     1 <1>   0.1500 
 34 H        0.6720     1.2460    -1.2650 H     1 <1>   0.1500 
 35 H       -3.4900    -3.4060     0.5270 H     1 <1>   0.4500 
 36 H       -0.3940     5.2110     2.3720 H     1 <1>   0.1500 
 37 H        1.5640     5.5720     0.8850 H     1 <1>   0.1500 
 38 H        2.5550     2.6070    -1.9940 H     1 <1>   0.1500 
 39 H       -6.3090    -3.4700    -0.1930 H     1 <1>   0.0800 
 40 H       -5.4410    -4.4330     0.9700 H     1 <1>   0.0800 
 41 H       -4.8370    -3.2660    -2.0970 H     1 <1>   0.0800 
 42 H       -4.2690    -4.7320    -1.3360 H     1 <1>   0.0800 
 43 H       -3.1260    -3.5020    -1.8190 H     1 <1>   0.0800 
 44 H       -6.2640    -0.3680     1.8840 H     1 <1>   0.0800 
 45 H       -7.2890    -1.0790     0.6980 H     1 <1>   0.0800 
 46 H       -5.4150    -0.2790    -2.2380 H     1 <1>   0.0800 
 47 H       -6.8850     0.0800    -1.3770 H     1 <1>   0.0800 
 48 H        3.0140     4.7640    -0.9370 H     1 <1>   0.1500 
 49 H       -6.8380    -2.8430     2.1420 H     1 <1>   0.0800 
 50 H       -5.1830    -2.3930     2.3920 H     1 <1>   0.0800 
 51 H       -7.2190    -1.7430    -2.5200 H     1 <1>   0.4000 
@<TRIPOS>BOND
  1   1   2  2   
  2   2   3  am  
  3   2   4  1   
  4   3   5  1   
  5   3   6  1   
  6   4   7  ar  
  7   4   8  ar  
  8   5   9  1   
  9   5  26  1   
 10   5  27  1   
 11   6  10  1   
 12   6  28  1   
 13   6  29  1   
 14   7  11  ar  
 15   8  12  ar  
 16   8  13  ar  
 17   9  14  1   
 18   9  15  1   
 19   9  30  1   
 20  10  15  1   
 21  10  31  1   
 22  10  32  1   
 23  11  16  ar  
 24  11  33  1   
 25  12  16  ar  
 26  12  17  ar  
 27  13  18  ar  
 28  13  34  1   
 29  14  19  1   
 30  14  20  1   
 31  14  35  1   
 32  15  21  1   
 33  15  22  1   
 34  16  36  1   
 35  17  23  ar  
 36  17  37  1   
 37  18  23  ar  
 38  18  38  1   
 39  19  24  1   
 40  19  39  1   
 41  19  40  1   
 42  20  41  1   
 43  20  42  1   
 44  20  43  1   
 45  21  24  1   
 46  21  44  1   
 47  21  45  1   
 48  22  25  1   
 49  22  46  1   
 50  22  47  1   
 51  23  48  1   
 52  24  49  1   
 53  24  50  1   
 54  25  51  1   
@<TRIPOS>SUBSTRUCTURE
  1 ****   3 GROUP 4 **** **** 0

# MOE 2024.06 (io_trps.svl 2023.06)
