@<TRIPOS>MOLECULE
NONAME
45 47 1 0 0 
SMALL
USER_CHARGES


@<TRIPOS>ATOM
  1 S        0.2340     0.2640     1.9830 S.o2  1 <1>   1.4470 
  2 O       -0.3150     1.4750     2.5500 O.2   1 <1>  -0.6500 
  3 O        0.8450    -0.7290     2.8360 O.2   1 <1>  -0.6500 
  4 N        1.4700     0.7910     0.9420 N.am  1 <1>  -0.8490 
  5 C       -0.9880    -0.4940     0.8760 C.ar  1 <1>  -0.0090 
  6 C        2.4560     1.5870     1.7170 C.3   1 <1>   0.1960 
  7 C        2.1360    -0.3280     0.2540 C.3   1 <1>   0.1960 
  8 C       -1.1360    -1.8750     0.8050 C.ar  1 <1>  -0.1500 
  9 C       -1.7910     0.2870     0.0510 C.ar  1 <1>  -0.1500 
 10 C        3.5130     2.3730     0.8880 C.3   1 <1>   0.4230 
 11 C        3.0310     0.1520    -0.9090 C.3   1 <1>  -0.0800 
 12 C       -2.0490    -2.4370    -0.0680 C.ar  1 <1>   0.1900 
 13 C       -2.7060    -0.2810    -0.8220 C.ar  1 <1>  -0.1500 
 14 N        3.0930     2.7130    -0.5320 N.4   1 <1>  -0.9590 
 15 C        4.9020     1.7010     0.9320 C.3   1 <1>   0.1200 
 16 C        4.5330    -0.0330    -0.6460 C.3   1 <1>   0.1200 
 17 C        2.6620     1.5600    -1.4010 C.3   1 <1>   0.3430 
 18 F       -2.1100    -3.7440    -0.0770 F     1 <1>  -0.1900 
 19 C       -2.8550    -1.6560    -0.9020 C.ar  1 <1>   0.0830 
 20 C        1.9860     3.7200    -0.4970 C.3   1 <1>   0.2630 
 21 O        4.8550     0.3390     0.6510 O.3   1 <1>  -0.5600 
 22 O       -3.7830    -2.0930    -1.7970 O.3   1 <1>  -0.3620 
 23 C       -4.1670    -3.4460    -1.9100 C.3   1 <1>   0.0400 
 24 H        1.9260     2.3240     2.2970 H     1 <1>   0.0800 
 25 H        2.9550     0.9510     2.4310 H     1 <1>   0.0800 
 26 H        2.7000    -0.9220     0.9580 H     1 <1>   0.0800 
 27 H        1.3840    -0.9750    -0.1650 H     1 <1>   0.0800 
 28 H       -0.5420    -2.5200     1.4310 H     1 <1>   0.1500 
 29 H       -1.7050     1.3600     0.0960 H     1 <1>   0.1500 
 30 H        3.6520     3.3090     1.4030 H     1 <1>   0.0800 
 31 H        2.8120    -0.5020    -1.7340 H     1 <1>   0.0800 
 32 H       -3.3200     0.3440    -1.4480 H     1 <1>   0.1500 
 33 H        3.9060     3.1490    -0.9860 H     1 <1>   0.4500 
 34 H        5.2960     1.7870     1.9290 H     1 <1>   0.0800 
 35 H        5.5970     2.1770     0.2610 H     1 <1>   0.0800 
 36 H        5.1450     0.5160    -1.3420 H     1 <1>   0.0800 
 37 H        4.7840    -1.0780    -0.7320 H     1 <1>   0.0800 
 38 H        1.5890     1.5850    -1.5030 H     1 <1>   0.0800 
 39 H        3.0740     1.6980    -2.3870 H     1 <1>   0.0800 
 40 H        1.1150     3.2940    -0.0230 H     1 <1>   0.0800 
 41 H        1.7200     4.0220    -1.4970 H     1 <1>   0.0800 
 42 H        2.2870     4.5940     0.0570 H     1 <1>   0.0800 
 43 H       -4.9630    -3.5080    -2.6290 H     1 <1>   0.0800 
 44 H       -4.5130    -3.7940    -0.9530 H     1 <1>   0.0800 
 45 H       -3.3250    -4.0230    -2.2490 H     1 <1>   0.0800 
@<TRIPOS>BOND
  1   1   2  2   
  2   1   3  2   
  3   1   4  am  
  4   1   5  1   
  5   4   6  1   
  6   4   7  1   
  7   5   8  ar  
  8   5   9  ar  
  9   6  10  1   
 10   6  24  1   
 11   6  25  1   
 12   7  11  1   
 13   7  26  1   
 14   7  27  1   
 15   8  12  ar  
 16   8  28  1   
 17   9  13  ar  
 18   9  29  1   
 19  10  14  1   
 20  10  15  1   
 21  10  30  1   
 22  11  16  1   
 23  11  17  1   
 24  11  31  1   
 25  12  18  1   
 26  12  19  ar  
 27  13  19  ar  
 28  13  32  1   
 29  14  17  1   
 30  14  20  1   
 31  14  33  1   
 32  15  21  1   
 33  15  34  1   
 34  15  35  1   
 35  16  21  1   
 36  16  36  1   
 37  16  37  1   
 38  17  38  1   
 39  17  39  1   
 40  19  22  1   
 41  20  40  1   
 42  20  41  1   
 43  20  42  1   
 44  22  23  1   
 45  23  43  1   
 46  23  44  1   
 47  23  45  1   
@<TRIPOS>SUBSTRUCTURE
  1 ****   4 GROUP 4 **** **** 0

# MOE 2024.06 (io_trps.svl 2023.06)
