@<TRIPOS>MOLECULE
NONAME
47 49 1 0 0 
SMALL
USER_CHARGES


@<TRIPOS>ATOM
  1 S        0.1380     0.0700    -1.0210 S.o2  1 <1>   1.5010 
  2 O        0.6960     0.9720    -2.0070 O.2   1 <1>  -0.6500 
  3 O       -0.6310    -1.0790    -1.4570 O.2   1 <1>  -0.6500 
  4 N       -0.8050     0.9880     0.0530 N.am  1 <1>  -0.8490 
  5 C        1.4630    -0.5110     0.0490 C.2   1 <1>  -0.0630 
  6 C       -1.8600     0.2600     0.7760 C.3   1 <1>   0.1960 
  7 C       -1.2690     2.2880    -0.4240 C.3   1 <1>   0.1960 
  8 C        2.3780     0.1260     0.8270 C.2   1 <1>  -0.3320 
  9 C        1.7480    -1.8560     0.2400 C.2   1 <1>   0.1390 
 10 C       -3.2650     0.2890     0.0880 C.3   1 <1>   0.0000 
 11 C       -2.4040     2.1620    -1.4510 C.3   1 <1>  -0.1600 
 12 N        3.1290    -0.8260     1.4210 N.pl3 1 <1>   0.3140 
 13 C        2.5650     1.6230     1.0300 C.3   1 <1>  -0.0600 
 14 N        2.7360    -2.0550     1.0570 N.2   1 <1>  -0.7070 
 15 C       -4.3140     1.0220     0.9540 C.3   1 <1>   0.2000 
 16 C       -3.2130     0.8570    -1.3500 C.3   1 <1>  -0.1600 
 17 C       -3.8480    -1.1330     0.0680 C.3   1 <1>  -0.1600 
 18 C        4.2440    -0.6290     2.3550 C.3   1 <1>   0.0160 
 19 O       -3.8110     2.1920     1.5290 O.3   1 <1>  -0.5600 
 20 C       -4.7370     0.0190     2.0340 C.3   1 <1>  -0.1600 
 21 C       -4.4010    -1.3710     1.4760 C.3   1 <1>  -0.1600 
 22 C       -4.7760     3.0650     2.0240 C.3   1 <1>   0.0400 
 23 H       -1.5390    -0.7560     0.9250 H     1 <1>   0.0800 
 24 H       -1.9370     0.6870     1.7600 H     1 <1>   0.0800 
 25 H       -1.6310     2.8440     0.4250 H     1 <1>   0.0800 
 26 H       -0.4500     2.8490    -0.8420 H     1 <1>   0.0800 
 27 H        1.2050    -2.6560    -0.2380 H     1 <1>   0.1500 
 28 H       -3.0630     3.0010    -1.3150 H     1 <1>   0.0800 
 29 H       -1.9910     2.2420    -2.4410 H     1 <1>   0.0800 
 30 H        1.8630     2.1740     0.4300 H     1 <1>   0.0800 
 31 H        3.5590     1.9170     0.7410 H     1 <1>   0.0800 
 32 H        2.4060     1.8810     2.0610 H     1 <1>   0.0800 
 33 H       -5.1630     1.2720     0.3410 H     1 <1>   0.0800 
 34 H       -2.7530     0.1280    -1.9910 H     1 <1>   0.0800 
 35 H       -4.2050     1.0170    -1.7350 H     1 <1>   0.0800 
 36 H       -4.6640    -1.1780    -0.6340 H     1 <1>   0.0800 
 37 H       -3.1210    -1.8750    -0.2170 H     1 <1>   0.0800 
 38 H        3.8910    -0.1000     3.2190 H     1 <1>   0.0800 
 39 H        5.0170    -0.0660     1.8670 H     1 <1>   0.0800 
 40 H        4.6280    -1.5880     2.6510 H     1 <1>   0.0800 
 41 H       -4.1830     0.1870     2.9410 H     1 <1>   0.0800 
 42 H       -5.7900     0.1050     2.2320 H     1 <1>   0.0800 
 43 H       -3.6480    -1.8340     2.0910 H     1 <1>   0.0800 
 44 H       -5.2670    -2.0090     1.4490 H     1 <1>   0.0800 
 45 H       -4.2720     3.9260     2.4270 H     1 <1>   0.0800 
 46 H       -5.3360     2.5780     2.8030 H     1 <1>   0.0800 
 47 H       -5.4260     3.3690     1.2220 H     1 <1>   0.0800 
@<TRIPOS>BOND
  1   1   2  2   
  2   1   3  2   
  3   1   4  am  
  4   1   5  1   
  5   4   6  1   
  6   4   7  1   
  7   5   8  2   
  8   5   9  1   
  9   6  10  1   
 10   6  23  1   
 11   6  24  1   
 12   7  11  1   
 13   7  25  1   
 14   7  26  1   
 15   8  12  1   
 16   8  13  1   
 17   9  14  2   
 18   9  27  1   
 19  10  15  1   
 20  10  16  1   
 21  10  17  1   
 22  11  16  1   
 23  11  28  1   
 24  11  29  1   
 25  12  14  1   
 26  12  18  1   
 27  13  30  1   
 28  13  31  1   
 29  13  32  1   
 30  15  19  1   
 31  15  20  1   
 32  15  33  1   
 33  16  34  1   
 34  16  35  1   
 35  17  21  1   
 36  17  36  1   
 37  17  37  1   
 38  18  38  1   
 39  18  39  1   
 40  18  40  1   
 41  19  22  1   
 42  20  21  1   
 43  20  41  1   
 44  20  42  1   
 45  21  43  1   
 46  21  44  1   
 47  22  45  1   
 48  22  46  1   
 49  22  47  1   
@<TRIPOS>SUBSTRUCTURE
  1 ****   4 GROUP 4 **** **** 0

# MOE 2024.06 (io_trps.svl 2023.06)
