@<TRIPOS>MOLECULE
NONAME
54 56 1 0 0 
SMALL
USER_CHARGES


@<TRIPOS>ATOM
  1 O       -1.1210    -0.1450     0.5740 O.2   1 <1>  -0.5700 
  2 C       -1.9790     0.4950     0.0100 C.2   1 <1>   0.5690 
  3 N       -2.9400    -0.1320    -0.7510 N.am  1 <1>  -0.6600 
  4 C       -1.9520     2.0270     0.1670 C.3   1 <1>  -0.0190 
  5 C       -3.0440    -1.6300    -0.7670 C.3   1 <1>   0.1400 
  6 C       -3.9400     0.5390    -1.6280 C.3   1 <1>   0.1400 
  7 C       -1.1830     2.6920    -0.9870 C.3   1 <1>  -0.2400 
  8 C       -1.3470     2.4800     1.5090 C.3   1 <1>  -0.2400 
  9 C       -4.4600    -2.0970    -0.3850 C.3   1 <1>   0.2890 
 10 C       -5.3530     0.1320    -1.1990 C.3   1 <1>  -0.1600 
 11 N       -4.5910    -3.5610    -0.5920 N.pl3 1 <1>  -0.8690 
 12 C       -5.5310    -1.3950    -1.2300 C.3   1 <1>  -0.1600 
 13 C       -5.3810    -4.3830     0.1780 C.ar  1 <1>   0.4100 
 14 N       -5.9980    -3.8630     1.2210 N.ar  1 <1>  -0.6200 
 15 C       -5.5250    -5.7100    -0.1420 C.ar  1 <1>  -0.1500 
 16 C       -6.7460    -4.7010     1.9090 C.ar  1 <1>   0.4700 
 17 C       -6.3290    -6.4930     0.6510 C.ar  1 <1>   0.4100 
 18 N       -6.9590    -5.9840     1.6940 N.ar  1 <1>  -0.6200 
 19 N       -6.4970    -7.8380     0.3870 N.pl3 1 <1>  -0.8380 
 20 C       -7.7820    -8.4910     0.7590 C.3   1 <1>   0.2090 
 21 C       -5.3090    -8.7210     0.4950 C.3   1 <1>   0.2090 
 22 C       -8.0080    -9.7110    -0.1340 C.3   1 <1>  -0.1600 
 23 C       -5.5020    -9.9390    -0.4090 C.3   1 <1>  -0.1600 
 24 C       -6.8070   -10.6530    -0.0590 C.3   1 <1>   0.2000 
 25 O       -6.9990   -11.6780    -0.9590 O.3   1 <1>  -0.6800 
 26 H       -2.9650     2.3830     0.1630 H     1 <1>   0.0800 
 27 H       -2.3450    -2.0680    -0.0770 H     1 <1>   0.0800 
 28 H       -2.8050    -1.9780    -1.7560 H     1 <1>   0.0800 
 29 H       -3.7690     0.2300    -2.6460 H     1 <1>   0.0800 
 30 H       -3.8460     1.6080    -1.5960 H     1 <1>   0.0800 
 31 H       -0.1560     2.3690    -0.9770 H     1 <1>   0.0800 
 32 H       -1.2110     3.7620    -0.8930 H     1 <1>   0.0800 
 33 H       -1.6120     2.4190    -1.9340 H     1 <1>   0.0800 
 34 H       -0.3140     2.1850     1.5740 H     1 <1>   0.0800 
 35 H       -1.8790     2.0230     2.3250 H     1 <1>   0.0800 
 36 H       -1.4100     3.5490     1.6130 H     1 <1>   0.0800 
 37 H       -4.6120    -1.8610     0.6550 H     1 <1>   0.0800 
 38 H       -6.0710     0.5890    -1.8560 H     1 <1>   0.0800 
 39 H       -5.5370     0.4990    -0.2040 H     1 <1>   0.0800 
 40 H       -4.3650    -3.8850    -1.5310 H     1 <1>   0.4000 
 41 H       -6.5030    -1.6520    -0.8470 H     1 <1>   0.0800 
 42 H       -5.4630    -1.7360    -2.2480 H     1 <1>   0.0800 
 43 H       -5.0280    -6.1320    -0.9890 H     1 <1>   0.1500 
 44 H       -7.2530    -4.2820     2.7620 H     1 <1>   0.1500 
 45 H       -8.5940    -7.7940     0.6340 H     1 <1>   0.0800 
 46 H       -7.7450    -8.7840     1.7950 H     1 <1>   0.0800 
 47 H       -5.1950    -9.0350     1.5190 H     1 <1>   0.0800 
 48 H       -4.4190    -8.1880     0.2060 H     1 <1>   0.0800 
 49 H       -8.1540    -9.3680    -1.1420 H     1 <1>   0.0800 
 50 H       -8.8940   -10.2250     0.1900 H     1 <1>   0.0800 
 51 H       -4.6750   -10.6130    -0.2750 H     1 <1>   0.0800 
 52 H       -5.5190    -9.6060    -1.4310 H     1 <1>   0.0800 
 53 H       -6.7390   -11.0890     0.9250 H     1 <1>   0.0800 
 54 H       -7.0830   -11.3110    -1.8590 H     1 <1>   0.4000 
@<TRIPOS>BOND
  1   1   2  2   
  2   2   3  am  
  3   2   4  1   
  4   3   5  1   
  5   3   6  1   
  6   4   7  1   
  7   4   8  1   
  8   4  26  1   
  9   5   9  1   
 10   5  27  1   
 11   5  28  1   
 12   6  10  1   
 13   6  29  1   
 14   6  30  1   
 15   7  31  1   
 16   7  32  1   
 17   7  33  1   
 18   8  34  1   
 19   8  35  1   
 20   8  36  1   
 21   9  11  1   
 22   9  12  1   
 23   9  37  1   
 24  10  12  1   
 25  10  38  1   
 26  10  39  1   
 27  11  13  1   
 28  11  40  1   
 29  12  41  1   
 30  12  42  1   
 31  13  14  ar  
 32  13  15  ar  
 33  14  16  ar  
 34  15  17  ar  
 35  15  43  1   
 36  16  18  ar  
 37  16  44  1   
 38  17  18  ar  
 39  17  19  1   
 40  19  20  1   
 41  19  21  1   
 42  20  22  1   
 43  20  45  1   
 44  20  46  1   
 45  21  23  1   
 46  21  47  1   
 47  21  48  1   
 48  22  24  1   
 49  22  49  1   
 50  22  50  1   
 51  23  24  1   
 52  23  51  1   
 53  23  52  1   
 54  24  25  1   
 55  24  53  1   
 56  25  54  1   
@<TRIPOS>SUBSTRUCTURE
  1 ****  13 GROUP 4 **** **** 0

# MOE 2024.06 (io_trps.svl 2023.06)
