@<TRIPOS>MOLECULE
NONAME
17 18 1 0 0 
SMALL
USER_CHARGES


@<TRIPOS>ATOM
  1 O       12.0710    -1.5710     0.7570 O.2   1 <1>  -0.5700 
  2 C       11.0660    -0.9980     0.4080 C.2   1 <1>   0.7800 
  3 O       11.0500    -0.1240    -0.5930 O.3   1 <1>  -0.4300 
  4 N        9.8490    -1.1860     0.9350 N.am  1 <1>  -0.6550 
  5 C        9.7290     0.3320    -0.8520 C.3   1 <1>   0.1200 
  6 C        8.8670    -0.4330     0.1590 C.3   1 <1>   0.2250 
  7 C        7.6630    -1.2230    -0.3980 C.3   1 <1>   0.2100 
  8 C        7.8100     0.3700     0.9460 C.3   1 <1>   0.2100 
  9 N        6.8440    -0.0130    -0.1190 N.3   1 <1>  -0.7790 
 10 H        9.6350    -1.9780     1.5370 H     1 <1>   0.3700 
 11 H        9.4670     0.1000    -1.8690 H     1 <1>   0.0800 
 12 H        9.6900     1.3950    -0.6910 H     1 <1>   0.0800 
 13 H        7.3580    -2.0490     0.2220 H     1 <1>   0.0000 
 14 H        7.7090    -1.4410    -1.4500 H     1 <1>   0.0000 
 15 H        7.9740     1.4330     0.9730 H     1 <1>   0.0000 
 16 H        7.5400    -0.0700     1.8910 H     1 <1>   0.0000 
 17 H        5.9650    -0.3050     0.3250 H     1 <1>   0.3600 
@<TRIPOS>BOND
  1   1   2  2   
  2   2   3  1   
  3   2   4  am  
  4   3   5  1   
  5   4   6  1   
  6   4  10  1   
  7   5   6  1   
  8   5  11  1   
  9   5  12  1   
 10   6   7  1   
 11   6   8  1   
 12   7   9  1   
 13   7  13  1   
 14   7  14  1   
 15   8   9  1   
 16   8  15  1   
 17   8  16  1   
 18   9  17  1   
@<TRIPOS>SUBSTRUCTURE
  1 ****   6 GROUP 4 **** **** 0

# MOE 2024.06 (io_trps.svl 2023.06)
