@<TRIPOS>MOLECULE
NONAME
54 58 1 0 0 
SMALL
USER_CHARGES


@<TRIPOS>ATOM
  1 O       -0.9940     0.6170     2.0070 O.2   1 <1>  -0.5700 
  2 C       -1.7830     1.0340     1.1920 C.2   1 <1>   0.5690 
  3 N       -2.8540     0.2810     0.7820 N.am  1 <1>  -0.6600 
  4 C       -1.5680     2.4270     0.6280 C.3   1 <1>  -0.0990 
  5 C       -3.0990    -1.0530     1.4120 C.3   1 <1>   0.1400 
  6 C       -3.8080     0.7100    -0.2900 C.3   1 <1>   0.1400 
  7 C       -0.4030     3.1630     1.3060 C.3   1 <1>   0.0960 
  8 C       -4.5860    -1.4100     1.3780 C.3   1 <1>  -0.1600 
  9 C       -4.3600    -0.5160    -1.0100 C.3   1 <1>  -0.1600 
 10 N       -0.2880     4.5380     0.7880 N.pl3 1 <1>   0.3140 
 11 C       -5.1650    -1.3990    -0.0480 C.3   1 <1>   0.4600 
 12 N       -0.0430     4.7960    -0.5110 N.2   1 <1>  -0.7070 
 13 C       -0.4160     5.6790     1.4940 C.2   1 <1>  -0.3020 
 14 O       -6.4470    -0.8160     0.0150 O.3   1 <1>  -0.5600 
 15 C       -5.2880    -2.8120    -0.6120 C.2   1 <1>  -0.3320 
 16 C       -0.0180     6.0880    -0.5970 C.2   1 <1>   0.1080 
 17 C       -0.2470     6.7000     0.6290 C.2   1 <1>  -0.1500 
 18 C       -7.5070    -1.6210     0.4740 C.3   1 <1>   0.1200 
 19 N       -4.2610    -3.6400    -0.9750 N.pl3 1 <1>   0.0330 
 20 C       -6.4600    -3.4430    -0.8220 C.2   1 <1>  -0.1810 
 21 C        0.2340     6.8070    -1.9010 C.3   1 <1>  -0.0590 
 22 C       -7.7770    -2.7820    -0.4980 C.3   1 <1>   0.0210 
 23 C       -4.8040    -4.8160    -1.4310 C.ar  1 <1>  -0.1520 
 24 C       -6.1910    -4.7230    -1.3500 C.ar  1 <1>   0.0000 
 25 C       -4.1920    -5.9750    -1.9180 C.ar  1 <1>  -0.1500 
 26 C       -6.9830    -5.7990    -1.7610 C.ar  1 <1>  -0.1500 
 27 C       -4.9840    -7.0270    -2.3180 C.ar  1 <1>  -0.1500 
 28 C       -6.3790    -6.9390    -2.2400 C.ar  1 <1>  -0.1500 
 29 H       -2.4690     2.9960     0.7630 H     1 <1>   0.0800 
 30 H       -1.3560     2.3430    -0.4220 H     1 <1>   0.0800 
 31 H       -2.7620    -1.0400     2.4350 H     1 <1>   0.0800 
 32 H       -2.5280    -1.7970     0.8840 H     1 <1>   0.0800 
 33 H       -3.3130     1.3410    -1.0070 H     1 <1>   0.0800 
 34 H       -4.6180     1.2650     0.1540 H     1 <1>   0.0800 
 35 H        0.5210     2.6500     1.1120 H     1 <1>   0.0800 
 36 H       -0.5580     3.2050     2.3680 H     1 <1>   0.0800 
 37 H       -5.1050    -0.6930     1.9880 H     1 <1>   0.0800 
 38 H       -4.7260    -2.3800     1.8190 H     1 <1>   0.0800 
 39 H       -3.5310    -1.0610    -1.4220 H     1 <1>   0.0800 
 40 H       -4.9880    -0.2210    -1.8300 H     1 <1>   0.0800 
 41 H       -0.6160     5.7000     2.5490 H     1 <1>   0.1500 
 42 H       -0.2760     7.7580     0.8190 H     1 <1>   0.1500 
 43 H       -8.3800    -0.9980     0.5600 H     1 <1>   0.0800 
 44 H       -7.2520    -2.0000     1.4480 H     1 <1>   0.0800 
 45 H       -3.2590    -3.4320    -0.9380 H     1 <1>   0.2700 
 46 H        1.1930     6.5170    -2.2880 H     1 <1>   0.0800 
 47 H        0.2190     7.8700    -1.7530 H     1 <1>   0.0800 
 48 H       -0.5250     6.5360    -2.6110 H     1 <1>   0.0800 
 49 H       -8.2290    -2.4110    -1.3990 H     1 <1>   0.0800 
 50 H       -8.4450    -3.4890    -0.0420 H     1 <1>   0.0800 
 51 H       -3.1200    -6.0340    -1.9750 H     1 <1>   0.1500 
 52 H       -8.0520    -5.7160    -1.6960 H     1 <1>   0.1500 
 53 H       -4.5370    -7.9290    -2.6960 H     1 <1>   0.1500 
 54 H       -6.9750    -7.7750    -2.5600 H     1 <1>   0.1500 
@<TRIPOS>BOND
  1   1   2  2   
  2   2   3  am  
  3   2   4  1   
  4   3   5  1   
  5   3   6  1   
  6   4   7  1   
  7   4  29  1   
  8   4  30  1   
  9   5   8  1   
 10   5  31  1   
 11   5  32  1   
 12   6   9  1   
 13   6  33  1   
 14   6  34  1   
 15   7  10  1   
 16   7  35  1   
 17   7  36  1   
 18   8  11  1   
 19   8  37  1   
 20   8  38  1   
 21   9  11  1   
 22   9  39  1   
 23   9  40  1   
 24  10  12  1   
 25  10  13  1   
 26  11  14  1   
 27  11  15  1   
 28  12  16  2   
 29  13  17  2   
 30  13  41  1   
 31  14  18  1   
 32  15  19  1   
 33  15  20  2   
 34  16  17  1   
 35  16  21  1   
 36  17  42  1   
 37  18  22  1   
 38  18  43  1   
 39  18  44  1   
 40  19  23  1   
 41  19  45  1   
 42  20  22  1   
 43  20  24  1   
 44  21  46  1   
 45  21  47  1   
 46  21  48  1   
 47  22  49  1   
 48  22  50  1   
 49  23  24  ar  
 50  23  25  ar  
 51  24  26  ar  
 52  25  27  ar  
 53  25  51  1   
 54  26  28  ar  
 55  26  52  1   
 56  27  28  ar  
 57  27  53  1   
 58  28  54  1   
@<TRIPOS>SUBSTRUCTURE
  1 ****   9 GROUP 4 **** **** 0

# MOE 2024.06 (io_trps.svl 2023.06)
