@<TRIPOS>MOLECULE
NONAME
24 24 1 0 0 
SMALL
USER_CHARGES


@<TRIPOS>ATOM
  1 CL       0.8450     0.2700    -1.9430 Cl    1 <1>  -0.1770 
  2 C        1.8980     0.9840    -0.7460 C.ar  1 <1>   0.1770 
  3 C        2.6890     0.2020     0.0830 C.ar  1 <1>  -0.1440 
  4 C        1.9030     2.3650    -0.6700 C.ar  1 <1>  -0.1500 
  5 C        3.5000     0.8590     1.0060 C.ar  1 <1>  -0.1500 
  6 C        2.6560    -1.3270    -0.0280 C.3   1 <1>   1.1640 
  7 C        2.7170     3.0130     0.2510 C.ar  1 <1>  -0.1440 
  8 C        3.5130     2.2420     1.0870 C.ar  1 <1>  -0.1500 
  9 F        3.0300    -1.7540    -1.2270 F     1 <1>  -0.3400 
 10 F        1.4500    -1.8280     0.2030 F     1 <1>  -0.3400 
 11 F        3.4690    -1.9180     0.8380 F     1 <1>  -0.3400 
 12 C        2.7680     4.5300     0.3680 C.3   1 <1>   0.5670 
 13 N        3.3840     5.0450    -0.8530 N.4   1 <1>  -0.8530 
 14 C        1.3890     5.1590     0.5270 C.3   1 <1>  -0.2400 
 15 H        1.2550     2.9030    -1.3400 H     1 <1>   0.1500 
 16 H        4.1320     0.2960     1.6760 H     1 <1>   0.1500 
 17 H        4.1550     2.7020     1.8230 H     1 <1>   0.1500 
 18 H        3.3740     4.7950     1.2210 H     1 <1>   0.0800 
 19 H        2.8010     4.8010    -1.6570 H     1 <1>   0.4500 
 20 H        4.3000     4.6040    -0.9830 H     1 <1>   0.4500 
 21 H        3.4940     6.0620    -0.8110 H     1 <1>   0.4500 
 22 H        0.7590     4.9720    -0.3240 H     1 <1>   0.0800 
 23 H        1.4720     6.2200     0.6820 H     1 <1>   0.0800 
 24 H        0.9080     4.7400     1.3940 H     1 <1>   0.0800 
@<TRIPOS>BOND
  1   1   2  1   
  2   2   3  ar  
  3   2   4  ar  
  4   3   5  ar  
  5   3   6  1   
  6   4   7  ar  
  7   4  15  1   
  8   5   8  ar  
  9   5  16  1   
 10   6   9  1   
 11   6  10  1   
 12   6  11  1   
 13   7   8  ar  
 14   7  12  1   
 15   8  17  1   
 16  12  13  1   
 17  12  14  1   
 18  12  18  1   
 19  13  19  1   
 20  13  20  1   
 21  13  21  1   
 22  14  22  1   
 23  14  23  1   
 24  14  24  1   
@<TRIPOS>SUBSTRUCTURE
  1 ****   2 GROUP 4 **** **** 0

# MOE 2024.06 (io_trps.svl 2023.06)
