@<TRIPOS>MOLECULE
NONAME
50 52 1 0 0 
SMALL
USER_CHARGES


@<TRIPOS>ATOM
  1 S        1.3390     0.1180    -0.0510 S.o2  1 <1>   1.3330 
  2 O        1.8720    -0.2060    -1.3530 O.2   1 <1>  -0.6500 
  3 O        2.2360     0.5540     0.9960 O.2   1 <1>  -0.6500 
  4 N        0.3800    -1.1580     0.5130 N.am  1 <1>  -0.8490 
  5 C        0.1690     1.4560    -0.2700 C.3   1 <1>  -0.0550 
  6 C        1.0990    -2.0320     1.4470 C.3   1 <1>   0.1160 
  7 C       -0.2110    -1.9650    -0.5620 C.3   1 <1>   0.1160 
  8 C        0.8330     2.7200    -0.8630 C.3   1 <1>  -0.0800 
  9 C       -0.0770     3.9380    -1.0150 C.3   1 <1>   0.2000 
 10 C        2.0150     3.2370    -0.0260 C.3   1 <1>   0.3430 
 11 O       -0.8280     4.1010     0.1470 O.3   1 <1>  -0.6800 
 12 C        0.9280     5.0890    -1.1070 C.3   1 <1>   0.3430 
 13 N        2.0450     4.7200    -0.1800 N.4   1 <1>  -0.9590 
 14 C        1.8760     5.3890     1.1380 C.3   1 <1>   0.5240 
 15 C        2.0530     6.8800     0.9510 C.2   1 <1>  -0.1810 
 16 C        3.1840     7.5080     0.4160 C.2   1 <1>   0.2350 
 17 C        1.1840     7.8760     1.2250 C.2   1 <1>  -0.3020 
 18 N        3.0040     8.7980     0.3470 N.2   1 <1>  -0.7070 
 19 C        4.3800     6.8380    -0.0410 C.ar  1 <1>   0.0540 
 20 N        1.7850     9.0250     0.8610 N.pl3 1 <1>   0.3000 
 21 C        4.8300     7.0210    -1.3500 C.ar  1 <1>  -0.1500 
 22 C        5.1000     5.9790     0.7950 C.ar  1 <1>  -0.1500 
 23 C        5.9390     6.3460    -1.8290 C.ar  1 <1>  -0.1500 
 24 C        6.2110     5.2950     0.3310 C.ar  1 <1>  -0.1500 
 25 C        6.6080     5.4880    -0.9780 C.ar  1 <1>   0.1900 
 26 F        7.6480     4.8390    -1.4240 F     1 <1>  -0.1900 
 27 H       -0.6170     1.1330    -0.9250 H     1 <1>   0.0800 
 28 H       -0.2690     1.6810     0.6840 H     1 <1>   0.0800 
 29 H        0.4500    -2.8150     1.8020 H     1 <1>   0.0800 
 30 H        1.4370    -1.4660     2.2990 H     1 <1>   0.0800 
 31 H        1.9550    -2.4760     0.9650 H     1 <1>   0.0800 
 32 H       -0.8760    -2.7040    -0.1480 H     1 <1>   0.0800 
 33 H        0.5600    -2.4650    -1.1260 H     1 <1>   0.0800 
 34 H       -0.7750    -1.3390    -1.2310 H     1 <1>   0.0800 
 35 H        1.2210     2.4670    -1.8360 H     1 <1>   0.0800 
 36 H       -0.7390     3.8950    -1.8640 H     1 <1>   0.0800 
 37 H        2.9400     2.7890    -0.3570 H     1 <1>   0.0800 
 38 H        1.8620     2.9770     1.0100 H     1 <1>   0.0800 
 39 H       -1.6900     3.6340     0.0850 H     1 <1>   0.4000 
 40 H        0.4720     6.0310    -0.8480 H     1 <1>   0.0800 
 41 H        1.3050     5.1470    -2.1140 H     1 <1>   0.0800 
 42 H        2.9460     5.0340    -0.5690 H     1 <1>   0.4500 
 43 H        0.8940     5.1830     1.5350 H     1 <1>   0.0800 
 44 H        2.6120     5.0250     1.8360 H     1 <1>   0.0800 
 45 H        0.1940     7.8480     1.6480 H     1 <1>   0.1500 
 46 H        1.3930     9.9740     0.9440 H     1 <1>   0.2700 
 47 H        4.3030     7.7100    -1.9890 H     1 <1>   0.1500 
 48 H        4.7980     5.8590     1.8200 H     1 <1>   0.1500 
 49 H        6.2890     6.4860    -2.8370 H     1 <1>   0.1500 
 50 H        6.7700     4.6320     0.9670 H     1 <1>   0.1500 
@<TRIPOS>BOND
  1   1   2  2   
  2   1   3  2   
  3   1   4  am  
  4   1   5  1   
  5   4   6  1   
  6   4   7  1   
  7   5   8  1   
  8   5  27  1   
  9   5  28  1   
 10   6  29  1   
 11   6  30  1   
 12   6  31  1   
 13   7  32  1   
 14   7  33  1   
 15   7  34  1   
 16   8   9  1   
 17   8  10  1   
 18   8  35  1   
 19   9  11  1   
 20   9  12  1   
 21   9  36  1   
 22  10  13  1   
 23  10  37  1   
 24  10  38  1   
 25  11  39  1   
 26  12  13  1   
 27  12  40  1   
 28  12  41  1   
 29  13  14  1   
 30  13  42  1   
 31  14  15  1   
 32  14  43  1   
 33  14  44  1   
 34  15  16  1   
 35  15  17  2   
 36  16  18  2   
 37  16  19  1   
 38  17  20  1   
 39  17  45  1   
 40  18  20  1   
 41  19  21  ar  
 42  19  22  ar  
 43  20  46  1   
 44  21  23  ar  
 45  21  47  1   
 46  22  24  ar  
 47  22  48  1   
 48  23  25  ar  
 49  23  49  1   
 50  24  25  ar  
 51  24  50  1   
 52  25  26  1   
@<TRIPOS>SUBSTRUCTURE
  1 ****  13 GROUP 4 **** **** 0

# MOE 2024.06 (io_trps.svl 2023.06)
