@<TRIPOS>MOLECULE
NONAME
43 45 1 0 0 
SMALL
USER_CHARGES


@<TRIPOS>ATOM
  1 S       -0.9520     0.7390     0.8440 S.o2  1 <1>   1.5000 
  2 O       -0.6530    -0.0930     1.9870 O.2   1 <1>  -0.6500 
  3 O       -1.6980     1.9580     1.0750 O.2   1 <1>  -0.6500 
  4 N       -1.8670    -0.1540    -0.2760 N.am  1 <1>  -0.8490 
  5 C        0.5550     1.1780    -0.0610 C.2   1 <1>  -0.0220 
  6 C       -1.2370    -1.2700    -1.0250 C.3   1 <1>   0.1960 
  7 C       -3.2630    -0.3820     0.0950 C.3   1 <1>   0.1960 
  8 S        2.0710     1.2530     0.8350 S.3   1 <1>  -0.0800 
  9 C        0.7860     1.5090    -1.3490 C.2   1 <1>  -0.1500 
 10 C       -1.4320    -2.6910    -0.4400 C.3   1 <1>  -0.1060 
 11 C       -3.4480    -1.7200     0.8070 C.3   1 <1>  -0.1600 
 12 C        2.9730     1.7160    -0.5960 C.2   1 <1>  -0.1400 
 13 C        2.1510     1.8070    -1.6560 C.2   1 <1>  -0.1500 
 14 C       -1.1500    -3.7060    -1.5500 C.2   1 <1>   0.9060 
 15 C       -2.9250    -2.8420    -0.0860 C.3   1 <1>   0.2000 
 16 C       -0.5000    -3.0110     0.7680 C.3   1 <1>  -0.0650 
 17 C        4.4630     1.9300    -0.4370 C.3   1 <1>  -0.0600 
 18 O       -0.6370    -3.3390    -2.6150 O.co2 1 <1>  -0.9000 
 19 O       -1.4880    -4.8870    -1.3710 O.co2 1 <1>  -0.9000 
 20 O       -3.1550    -4.0500     0.5390 O.3   1 <1>  -0.6800 
 21 C        0.9860    -2.6870     0.5450 C.3   1 <1>  -0.1950 
 22 C        1.8670    -3.5930    -0.2530 C.3   1 <1>  -0.2000 
 23 C        2.0430    -3.4870     1.2360 C.3   1 <1>  -0.2000 
 24 H       -1.6930    -1.2630    -2.0010 H     1 <1>   0.0800 
 25 H       -0.1930    -1.0830    -1.1970 H     1 <1>   0.0800 
 26 H       -3.6240     0.4190     0.7190 H     1 <1>   0.0800 
 27 H       -3.8560    -0.3820    -0.8040 H     1 <1>   0.0800 
 28 H        0.0290     1.5510    -2.1130 H     1 <1>   0.1500 
 29 H       -4.4950    -1.8760     0.9920 H     1 <1>   0.0800 
 30 H       -2.9370    -1.7060     1.7510 H     1 <1>   0.0800 
 31 H        2.4450     2.0720    -2.6570 H     1 <1>   0.1500 
 32 H       -3.4970    -2.8560    -1.0000 H     1 <1>   0.0800 
 33 H       -0.8320    -2.4990     1.6480 H     1 <1>   0.0800 
 34 H       -0.5830    -4.0610     0.9890 H     1 <1>   0.0800 
 35 H        4.9010     2.2120    -1.3770 H     1 <1>   0.0800 
 36 H        4.9270     1.0230    -0.0940 H     1 <1>   0.0800 
 37 H        4.6460     2.7090     0.2810 H     1 <1>   0.0800 
 38 H       -2.6610    -4.7230    -0.0120 H     1 <1>   0.4000 
 39 H        1.1770    -1.6320     0.4840 H     1 <1>   0.1000 
 40 H        1.4320    -4.4860    -0.6730 H     1 <1>   0.1000 
 41 H        2.5810    -3.1380    -0.9160 H     1 <1>   0.1000 
 42 H        2.9050    -2.9730     1.6230 H     1 <1>   0.1000 
 43 H        1.7500    -4.3250     1.8450 H     1 <1>   0.1000 
@<TRIPOS>BOND
  1   1   2  2   
  2   1   3  2   
  3   1   4  am  
  4   1   5  1   
  5   4   6  1   
  6   4   7  1   
  7   5   8  1   
  8   5   9  2   
  9   6  10  1   
 10   6  24  1   
 11   6  25  1   
 12   7  11  1   
 13   7  26  1   
 14   7  27  1   
 15   8  12  1   
 16   9  13  1   
 17   9  28  1   
 18  10  14  1   
 19  10  15  1   
 20  10  16  1   
 21  11  15  1   
 22  11  29  1   
 23  11  30  1   
 24  12  13  2   
 25  12  17  1   
 26  13  31  1   
 27  14  18  ar  
 28  14  19  ar  
 29  15  20  1   
 30  15  32  1   
 31  16  21  1   
 32  16  33  1   
 33  16  34  1   
 34  17  35  1   
 35  17  36  1   
 36  17  37  1   
 37  20  38  1   
 38  21  22  1   
 39  21  23  1   
 40  21  39  1   
 41  22  23  1   
 42  22  40  1   
 43  22  41  1   
 44  23  42  1   
 45  23  43  1   
@<TRIPOS>SUBSTRUCTURE
  1 ****   6 GROUP 4 **** **** 0

# MOE 2024.06 (io_trps.svl 2023.06)
