@<TRIPOS>MOLECULE
NONAME
47 49 1 0 0 
SMALL
USER_CHARGES


@<TRIPOS>ATOM
  1 O        0.7050     0.2410     1.4120 O.2   1 <1>  -0.5700 
  2 C        1.7390     0.2450     0.7890 C.2   1 <1>   0.5690 
  3 N        2.1870    -0.7450    -0.0160 N.am  1 <1>  -0.6600 
  4 C        2.7110     1.3910     0.8180 C.3   1 <1>  -0.0990 
  5 C        3.4660    -0.4160    -0.6650 C.3   1 <1>   0.1400 
  6 C        1.4740    -2.0100    -0.2950 C.3   1 <1>   0.1400 
  7 C        3.6770     1.0720    -0.3420 C.3   1 <1>  -0.0800 
  8 C        2.2340    -3.1780     0.3270 C.3   1 <1>  -0.2400 
  9 C        5.1420     1.3920    -0.0340 C.3   1 <1>   0.2090 
 10 N        5.2870     2.8390     0.2250 N.pl3 1 <1>  -0.8690 
 11 C        6.4980     3.4740     0.3750 C.ar  1 <1>   0.4100 
 12 N        7.5740     2.7760     0.0140 N.ar  1 <1>  -0.6200 
 13 C        6.5490     4.7830     0.8870 C.ar  1 <1>   0.0860 
 14 C        8.7400     3.3680     0.1750 C.ar  1 <1>   0.1600 
 15 C        5.3350     5.4870     1.2240 C.2   1 <1>   0.5440 
 16 C        7.7970     5.3690     1.0500 C.ar  1 <1>  -0.1500 
 17 C        8.9080     4.6440     0.6840 C.ar  1 <1>  -0.1500 
 18 O        4.5390     4.9910     2.0050 O.2   1 <1>  -0.5700 
 19 N        5.0410     6.7150     0.6730 N.am  1 <1>  -0.6600 
 20 C        5.6580     7.2260    -0.5730 C.3   1 <1>   0.1400 
 21 C        3.7880     7.4460     0.9760 C.3   1 <1>   0.1400 
 22 C        4.8320     8.4510    -0.9520 C.3   1 <1>  -0.1600 
 23 C        3.4740     8.2230    -0.2960 C.3   1 <1>  -0.1600 
 24 H        3.2110     1.3920     1.7690 H     1 <1>   0.0800 
 25 H        2.2030     2.3260     0.6700 H     1 <1>   0.0800 
 26 H        3.4090    -0.5810    -1.7280 H     1 <1>   0.0800 
 27 H        4.2450    -1.0260    -0.2400 H     1 <1>   0.0800 
 28 H        1.3820    -2.1440    -1.3590 H     1 <1>   0.0800 
 29 H        0.4830    -1.9600     0.1260 H     1 <1>   0.0800 
 30 H        3.3800     1.6350    -1.2100 H     1 <1>   0.0800 
 31 H        3.2070    -3.2790    -0.1170 H     1 <1>   0.0800 
 32 H        1.6890    -4.0900     0.1650 H     1 <1>   0.0800 
 33 H        2.3350    -3.0250     1.3870 H     1 <1>   0.0800 
 34 H        5.7600     1.1180    -0.8720 H     1 <1>   0.0800 
 35 H        5.4750     0.8430     0.8310 H     1 <1>   0.0800 
 36 H        4.5320     3.2500     0.7960 H     1 <1>   0.4000 
 37 H        9.6140     2.8080    -0.1120 H     1 <1>   0.1500 
 38 H        7.8840     6.3630     1.4550 H     1 <1>   0.1500 
 39 H        9.8950     5.0560     0.7920 H     1 <1>   0.1500 
 40 H        5.5860     6.4720    -1.3390 H     1 <1>   0.0800 
 41 H        6.6900     7.4900    -0.4160 H     1 <1>   0.0800 
 42 H        3.9680     8.1170     1.7980 H     1 <1>   0.0800 
 43 H        2.9880     6.7700     1.2320 H     1 <1>   0.0800 
 44 H        4.7580     8.5680    -2.0180 H     1 <1>   0.0800 
 45 H        5.2960     9.3270    -0.5340 H     1 <1>   0.0800 
 46 H        2.9580     9.1430    -0.0850 H     1 <1>   0.0800 
 47 H        2.8570     7.6120    -0.9320 H     1 <1>   0.0800 
@<TRIPOS>BOND
  1   1   2  2   
  2   2   3  am  
  3   2   4  1   
  4   3   5  1   
  5   3   6  1   
  6   4   7  1   
  7   4  24  1   
  8   4  25  1   
  9   5   7  1   
 10   5  26  1   
 11   5  27  1   
 12   6   8  1   
 13   6  28  1   
 14   6  29  1   
 15   7   9  1   
 16   7  30  1   
 17   8  31  1   
 18   8  32  1   
 19   8  33  1   
 20   9  10  1   
 21   9  34  1   
 22   9  35  1   
 23  10  11  1   
 24  10  36  1   
 25  11  12  ar  
 26  11  13  ar  
 27  12  14  ar  
 28  13  15  1   
 29  13  16  ar  
 30  14  17  ar  
 31  14  37  1   
 32  15  18  2   
 33  15  19  am  
 34  16  17  ar  
 35  16  38  1   
 36  17  39  1   
 37  19  20  1   
 38  19  21  1   
 39  20  22  1   
 40  20  40  1   
 41  20  41  1   
 42  21  23  1   
 43  21  42  1   
 44  21  43  1   
 45  22  23  1   
 46  22  44  1   
 47  22  45  1   
 48  23  46  1   
 49  23  47  1   
@<TRIPOS>SUBSTRUCTURE
  1 ****  10 GROUP 4 **** **** 0

# MOE 2024.06 (io_trps.svl 2023.06)
