@<TRIPOS>MOLECULE
NONAME
52 54 1 0 0 
SMALL
USER_CHARGES


@<TRIPOS>ATOM
  1 F       -0.5110    -1.0100    -0.5200 F     1 <1>  -0.1900 
  2 C       -1.6270    -1.4020     0.0370 C.ar  1 <1>   0.1900 
  3 C       -1.9270    -2.7550     0.0940 C.ar  1 <1>  -0.1440 
  4 C       -2.4610    -0.4230     0.5420 C.ar  1 <1>  -0.1500 
  5 C       -3.1430    -3.1400     0.6730 C.ar  1 <1>   0.0860 
  6 C       -0.9570    -3.8030    -0.4540 C.3   1 <1>  -0.0970 
  7 C       -3.6510    -0.8070     1.1320 C.ar  1 <1>  -0.1500 
  8 C       -3.5610    -4.5270     0.7340 C.2   1 <1>   0.5440 
  9 C       -3.9790    -2.1500     1.1940 C.ar  1 <1>  -0.1500 
 10 O       -3.4770    -5.1300     1.7860 O.2   1 <1>  -0.5700 
 11 N       -4.0550    -5.1620    -0.3810 N.am  1 <1>  -0.6600 
 12 C       -4.1850    -6.6580    -0.3840 C.3   1 <1>   0.3640 
 13 C       -4.5920    -4.3820    -1.5370 C.3   1 <1>   0.1400 
 14 C       -2.8090    -7.2670    -0.6680 C.ar  1 <1>  -0.1430 
 15 C       -5.2440    -7.2340    -1.3730 C.3   1 <1>   0.2000 
 16 C       -5.2700    -5.2470    -2.6080 C.3   1 <1>   0.1200 
 17 C       -2.2650    -8.1690     0.2370 C.ar  1 <1>  -0.1500 
 18 C       -2.0850    -6.9440    -1.8090 C.ar  1 <1>  -0.1500 
 19 O       -6.0210    -6.2480    -2.0040 O.3   1 <1>  -0.5600 
 20 C       -6.2170    -8.1960    -0.6790 C.3   1 <1>   0.1200 
 21 C       -1.0270    -8.7460     0.0100 C.ar  1 <1>   0.0830 
 22 C       -0.8390    -7.5020    -2.0380 C.ar  1 <1>  -0.1500 
 23 O       -5.5340    -9.2800    -0.1330 O.3   1 <1>  -0.6800 
 24 O       -0.5790    -9.6470     0.9180 O.3   1 <1>  -0.3630 
 25 C       -0.2950    -8.3910    -1.1280 C.ar  1 <1>   0.0830 
 26 C       -0.5050   -10.9850     0.4790 C.3   1 <1>   0.0400 
 27 O        0.9440    -8.8750    -1.3930 O.3   1 <1>  -0.3630 
 28 C        1.9620    -8.5320    -0.4770 C.3   1 <1>   0.0400 
 29 H       -2.1800     0.6130     0.4750 H     1 <1>   0.1500 
 30 H       -0.9640    -4.6900     0.1560 H     1 <1>   0.0800 
 31 H        0.0520    -3.4310    -0.4680 H     1 <1>   0.0800 
 32 H       -1.2350    -4.0730    -1.4560 H     1 <1>   0.0800 
 33 H       -4.3150    -0.0650     1.5420 H     1 <1>   0.1500 
 34 H       -4.9030    -2.4510     1.6580 H     1 <1>   0.1500 
 35 H       -4.4780    -6.9630     0.6060 H     1 <1>   0.0800 
 36 H       -5.3180    -3.6790    -1.1650 H     1 <1>   0.0800 
 37 H       -3.7960    -3.8180    -1.9910 H     1 <1>   0.0800 
 38 H       -4.7430    -7.7760    -2.1550 H     1 <1>   0.0800 
 39 H       -4.5470    -5.6980    -3.2640 H     1 <1>   0.0800 
 40 H       -5.9360    -4.6440    -3.1990 H     1 <1>   0.0800 
 41 H       -2.8020    -8.4340     1.1310 H     1 <1>   0.1500 
 42 H       -2.4810    -6.2470    -2.5240 H     1 <1>   0.1500 
 43 H       -6.9380    -8.5750    -1.3820 H     1 <1>   0.0800 
 44 H       -6.7270    -7.6920     0.1230 H     1 <1>   0.0800 
 45 H       -0.2790    -7.2470    -2.9190 H     1 <1>   0.1500 
 46 H       -5.1360    -9.8360    -0.8320 H     1 <1>   0.4000 
 47 H       -0.2030   -11.5940     1.3110 H     1 <1>   0.0800 
 48 H        0.2170   -11.0600    -0.3140 H     1 <1>   0.0800 
 49 H       -1.4770   -11.2890     0.1310 H     1 <1>   0.0800 
 50 H        2.9030    -8.8500    -0.8860 H     1 <1>   0.0800 
 51 H        1.7830    -9.0280     0.4590 H     1 <1>   0.0800 
 52 H        1.9600    -7.4650    -0.3390 H     1 <1>   0.0800 
@<TRIPOS>BOND
  1   1   2  1   
  2   2   3  ar  
  3   2   4  ar  
  4   3   5  ar  
  5   3   6  1   
  6   4   7  ar  
  7   4  29  1   
  8   5   8  1   
  9   5   9  ar  
 10   6  30  1   
 11   6  31  1   
 12   6  32  1   
 13   7   9  ar  
 14   7  33  1   
 15   8  10  2   
 16   8  11  am  
 17   9  34  1   
 18  11  12  1   
 19  11  13  1   
 20  12  14  1   
 21  12  15  1   
 22  12  35  1   
 23  13  16  1   
 24  13  36  1   
 25  13  37  1   
 26  14  17  ar  
 27  14  18  ar  
 28  15  19  1   
 29  15  20  1   
 30  15  38  1   
 31  16  19  1   
 32  16  39  1   
 33  16  40  1   
 34  17  21  ar  
 35  17  41  1   
 36  18  22  ar  
 37  18  42  1   
 38  20  23  1   
 39  20  43  1   
 40  20  44  1   
 41  21  24  1   
 42  21  25  ar  
 43  22  25  ar  
 44  22  45  1   
 45  23  46  1   
 46  24  26  1   
 47  25  27  1   
 48  26  47  1   
 49  26  48  1   
 50  26  49  1   
 51  27  28  1   
 52  28  50  1   
 53  28  51  1   
 54  28  52  1   
@<TRIPOS>SUBSTRUCTURE
  1 ****  14 GROUP 4 **** **** 0

# MOE 2024.06 (io_trps.svl 2023.06)
