@<TRIPOS>MOLECULE
NONAME
40 41 1 0 0 
SMALL
USER_CHARGES


@<TRIPOS>ATOM
  1 S       -0.2560     0.5490    -0.0900 S.o2  1 <1>   1.0900 
  2 O       -1.2540     1.5850    -0.2120 O.2   1 <1>  -0.6500 
  3 O       -0.0230    -0.3630    -1.1840 O.2   1 <1>  -0.6500 
  4 C        1.2990     1.3060     0.3410 C.3   1 <1>  -0.0550 
  5 C       -0.6520    -0.4200     1.3520 C.3   1 <1>  -0.1350 
  6 C        1.7810     2.2280    -0.7740 C.3   1 <1>   0.1100 
  7 N        3.0570     2.8430    -0.3840 N.3   1 <1>  -0.8100 
  8 C        3.2330     4.1400    -1.0670 C.3   1 <1>   0.1100 
  9 C        4.1980     1.9550    -0.6670 C.3   1 <1>   0.1100 
 10 C        4.4910     4.8570    -0.5510 C.3   1 <1>  -0.0190 
 11 C        5.4930     2.5800    -0.1400 C.3   1 <1>  -0.1600 
 12 C        4.6760     6.2180    -1.2300 C.2   1 <1>   0.4230 
 13 C        5.7320     3.9690    -0.7480 C.3   1 <1>  -0.1600 
 14 O        4.3310     6.3170    -2.3860 O.2   1 <1>  -0.5700 
 15 C        5.2610     7.3260    -0.4870 C.ar  1 <1>   0.3960 
 16 N        5.7260     7.1280     0.7590 N.ar  1 <1>  -0.6200 
 17 C        5.3360     8.5870    -1.0860 C.ar  1 <1>  -0.1500 
 18 C        6.2470     8.1650     1.3860 C.ar  1 <1>   0.1600 
 19 C        5.8820     9.6640    -0.4230 C.ar  1 <1>  -0.1500 
 20 C        6.3490     9.4370     0.8510 C.ar  1 <1>  -0.1500 
 21 H        2.0320     0.5440     0.5150 H     1 <1>   0.0800 
 22 H        1.1870     1.8900     1.2340 H     1 <1>   0.0800 
 23 H       -1.5830    -0.9310     1.2030 H     1 <1>   0.0800 
 24 H       -0.7470     0.2100     2.2160 H     1 <1>   0.0800 
 25 H        0.1100    -1.1520     1.5360 H     1 <1>   0.0800 
 26 H        1.0340     2.9920    -0.9190 H     1 <1>   0.0800 
 27 H        1.8880     1.6860    -1.7000 H     1 <1>   0.0800 
 28 H        2.3770     4.7670    -0.8780 H     1 <1>   0.0800 
 29 H        3.3070     3.9840    -2.1310 H     1 <1>   0.0800 
 30 H        4.2790     1.7910    -1.7290 H     1 <1>   0.0800 
 31 H        4.0540     1.0030    -0.1880 H     1 <1>   0.0800 
 32 H        4.3400     5.0110     0.5030 H     1 <1>   0.0800 
 33 H        6.3220     1.9360    -0.3740 H     1 <1>   0.0800 
 34 H        5.4280     2.6590     0.9310 H     1 <1>   0.0800 
 35 H        6.5880     4.4270    -0.2850 H     1 <1>   0.0800 
 36 H        5.9320     3.8670    -1.8010 H     1 <1>   0.0800 
 37 H        4.9580     8.7160    -2.0850 H     1 <1>   0.1500 
 38 H        6.6160     7.9970     2.3840 H     1 <1>   0.1500 
 39 H        5.9400    10.6370    -0.8800 H     1 <1>   0.1500 
 40 H        6.7870    10.2330     1.4260 H     1 <1>   0.1500 
@<TRIPOS>BOND
  1   1   2  2   
  2   1   3  2   
  3   1   4  1   
  4   1   5  1   
  5   4   6  1   
  6   4  21  1   
  7   4  22  1   
  8   5  23  1   
  9   5  24  1   
 10   5  25  1   
 11   6   7  1   
 12   6  26  1   
 13   6  27  1   
 14   7   8  1   
 15   7   9  1   
 16   8  10  1   
 17   8  28  1   
 18   8  29  1   
 19   9  11  1   
 20   9  30  1   
 21   9  31  1   
 22  10  12  1   
 23  10  13  1   
 24  10  32  1   
 25  11  13  1   
 26  11  33  1   
 27  11  34  1   
 28  12  14  2   
 29  12  15  1   
 30  13  35  1   
 31  13  36  1   
 32  15  16  ar  
 33  15  17  ar  
 34  16  18  ar  
 35  17  19  ar  
 36  17  37  1   
 37  18  20  ar  
 38  18  38  1   
 39  19  20  ar  
 40  19  39  1   
 41  20  40  1   
@<TRIPOS>SUBSTRUCTURE
  1 ****   8 GROUP 4 **** **** 0

# MOE 2024.06 (io_trps.svl 2023.06)
