@<TRIPOS>MOLECULE
NONAME
46 47 1 0 0 
SMALL
USER_CHARGES


@<TRIPOS>ATOM
  1 S        0.4050    -0.0270    -1.1590 S.o2  1 <1>   1.3330 
  2 O        1.6690    -0.6850    -1.4040 O.2   1 <1>  -0.6500 
  3 O       -0.4980     0.2140    -2.2610 O.2   1 <1>  -0.6500 
  4 N       -0.4500    -0.9460    -0.0130 N.am  1 <1>  -0.8490 
  5 C        0.7040     1.5280    -0.3030 C.3   1 <1>  -0.0550 
  6 C       -1.8890    -0.6590     0.0110 C.3   1 <1>   0.1160 
  7 C       -0.2390    -2.3870    -0.1890 C.3   1 <1>   0.1160 
  8 C        1.8810     1.5800     0.6980 C.3   1 <1>  -0.0800 
  9 C        3.2550     1.4570     0.0320 C.3   1 <1>   0.2200 
 10 C        1.9070     0.5110     1.7970 C.3   1 <1>   0.1200 
 11 N        4.0160     2.7060     0.2520 N.am  1 <1>  -0.7300 
 12 C        3.9020     0.2930     0.7810 C.3   1 <1>   0.1200 
 13 O        3.2550     0.2530     2.0110 O.3   1 <1>  -0.5600 
 14 C        3.9270     3.8230    -0.5260 C.2   1 <1>   0.7150 
 15 O        3.1710     3.8070    -1.4790 O.2   1 <1>  -0.5700 
 16 C        4.6910     5.0000    -0.2090 C.2   1 <1>   0.0550 
 17 O        5.4740     5.0430     0.8450 O.3   1 <1>  -0.0190 
 18 C        4.7990     6.2070    -0.8070 C.2   1 <1>  -0.1500 
 19 N        6.0800     6.1810     0.9790 N.2   1 <1>  -0.4100 
 20 C        5.6910     6.9100    -0.0100 C.2   1 <1>   0.1080 
 21 C        6.1440     8.3430    -0.2710 C.3   1 <1>   0.1010 
 22 C        7.6600     8.4020    -0.4990 C.3   1 <1>  -0.2400 
 23 C        5.7410     9.2610     0.8880 C.3   1 <1>  -0.2400 
 24 H        0.8900     2.2820    -1.0450 H     1 <1>   0.0800 
 25 H       -0.1920     1.8160     0.2080 H     1 <1>   0.0800 
 26 H       -2.3600    -1.1970     0.8160 H     1 <1>   0.0800 
 27 H       -2.3480    -0.9510    -0.9200 H     1 <1>   0.0800 
 28 H       -2.0580     0.3930     0.1610 H     1 <1>   0.0800 
 29 H       -0.7860    -2.9400     0.5550 H     1 <1>   0.0800 
 30 H        0.8060    -2.6240    -0.0800 H     1 <1>   0.0800 
 31 H       -0.5620    -2.6960    -1.1700 H     1 <1>   0.0800 
 32 H        1.8180     2.5310     1.1980 H     1 <1>   0.0800 
 33 H        3.2040     1.2470    -1.0230 H     1 <1>   0.0800 
 34 H        1.4530    -0.4140     1.4960 H     1 <1>   0.0800 
 35 H        1.4650     0.8530     2.7170 H     1 <1>   0.0800 
 36 H        4.5430     2.7510     1.1270 H     1 <1>   0.3700 
 37 H        4.9590     0.4200     0.9280 H     1 <1>   0.0800 
 38 H        3.7080    -0.6370     0.2750 H     1 <1>   0.0800 
 39 H        4.3090     6.5530    -1.6990 H     1 <1>   0.1500 
 40 H        5.6560     8.6940    -1.1640 H     1 <1>   0.0800 
 41 H        8.1820     8.0670     0.3800 H     1 <1>   0.0800 
 42 H        7.9680     9.4060    -0.7250 H     1 <1>   0.0800 
 43 H        7.9330     7.7640    -1.3210 H     1 <1>   0.0800 
 44 H        6.2210     8.9450     1.7980 H     1 <1>   0.0800 
 45 H        4.6770     9.2230     1.0350 H     1 <1>   0.0800 
 46 H        6.0250    10.2770     0.6810 H     1 <1>   0.0800 
@<TRIPOS>BOND
  1   1   2  2   
  2   1   3  2   
  3   1   4  am  
  4   1   5  1   
  5   4   6  1   
  6   4   7  1   
  7   5   8  1   
  8   5  24  1   
  9   5  25  1   
 10   6  26  1   
 11   6  27  1   
 12   6  28  1   
 13   7  29  1   
 14   7  30  1   
 15   7  31  1   
 16   8   9  1   
 17   8  10  1   
 18   8  32  1   
 19   9  11  1   
 20   9  12  1   
 21   9  33  1   
 22  10  13  1   
 23  10  34  1   
 24  10  35  1   
 25  11  14  am  
 26  11  36  1   
 27  12  13  1   
 28  12  37  1   
 29  12  38  1   
 30  14  15  2   
 31  14  16  1   
 32  16  17  1   
 33  16  18  2   
 34  17  19  1   
 35  18  20  1   
 36  18  39  1   
 37  19  20  2   
 38  20  21  1   
 39  21  22  1   
 40  21  23  1   
 41  21  40  1   
 42  22  41  1   
 43  22  42  1   
 44  22  43  1   
 45  23  44  1   
 46  23  45  1   
 47  23  46  1   
@<TRIPOS>SUBSTRUCTURE
  1 ****  11 GROUP 4 **** **** 0

# MOE 2024.06 (io_trps.svl 2023.06)
