@<TRIPOS>MOLECULE
NONAME
56 59 1 0 0 
SMALL
USER_CHARGES


@<TRIPOS>ATOM
  1 O        0.1300    -1.0700     0.3100 O.2   1 <1>  -0.5700 
  2 C        1.2380    -1.2760    -0.1690 C.2   1 <1>   0.5440 
  3 N        1.4290    -2.3020    -1.0870 N.am  1 <1>  -0.2980 
  4 C        2.3690    -0.4520     0.1620 C.ar  1 <1>   0.0860 
  5 N        2.5980    -2.5020    -1.7850 N.2   1 <1>  -0.5120 
  6 C        0.3290    -3.2790    -1.3330 C.3   1 <1>   0.2010 
  7 C        3.5670    -0.6910    -0.5230 C.ar  1 <1>   0.0860 
  8 C        2.3290     0.5670     1.1190 C.ar  1 <1>  -0.1500 
  9 C        3.5880    -1.7350    -1.5000 C.2   1 <1>   0.3040 
 10 C       -0.0120    -4.1240    -0.0970 C.2   1 <1>   0.5690 
 11 C        4.6880     0.0950    -0.2320 C.ar  1 <1>  -0.1500 
 12 C        3.4420     1.3310     1.3940 C.ar  1 <1>  -0.1500 
 13 O        0.8980    -4.7330     0.4230 O.2   1 <1>  -0.5700 
 14 N       -1.2960    -4.2230     0.4050 N.am  1 <1>  -0.6600 
 15 C        4.6280     1.0940     0.7140 C.ar  1 <1>  -0.1500 
 16 C       -2.5070    -3.7190    -0.3110 C.3   1 <1>   0.2200 
 17 C       -1.4870    -4.8060     1.7710 C.3   1 <1>   0.0600 
 18 C       -2.9360    -2.3410     0.1860 C.3   1 <1>  -0.1600 
 19 C       -3.7610    -4.5870    -0.1640 C.3   1 <1>  -0.1600 
 20 C       -4.4100    -2.2180    -0.2200 C.3   1 <1>  -0.0800 
 21 C       -4.9200    -3.6360    -0.4950 C.3   1 <1>  -0.0800 
 22 C       -5.3390    -1.6440     0.8580 C.3   1 <1>  -0.1600 
 23 C       -6.1800    -3.8070     0.3710 C.3   1 <1>  -0.1600 
 24 C       -6.6670    -2.3860     0.6800 C.3   1 <1>   0.4230 
 25 N       -7.4410    -1.8280    -0.4770 N.4   1 <1>  -0.9590 
 26 C       -7.7980    -0.3830    -0.2930 C.3   1 <1>   0.2630 
 27 C       -8.6990    -2.5940    -0.7510 C.3   1 <1>   0.2630 
 28 H       -0.5200    -2.7230    -1.6710 H     1 <1>   0.0800 
 29 H        0.6280    -3.9460    -2.1190 H     1 <1>   0.0800 
 30 H        1.4070     0.7480     1.6460 H     1 <1>   0.1500 
 31 H        4.5130    -1.8770    -2.0290 H     1 <1>   0.0600 
 32 H        5.6100    -0.0880    -0.7570 H     1 <1>   0.1500 
 33 H        3.3960     2.1120     2.1350 H     1 <1>   0.1500 
 34 H        5.4960     1.6930     0.9330 H     1 <1>   0.1500 
 35 H       -2.3060    -3.6550    -1.3660 H     1 <1>   0.0800 
 36 H       -2.2110    -4.2380     2.3250 H     1 <1>   0.0800 
 37 H       -0.5630    -4.7920     2.3240 H     1 <1>   0.0800 
 38 H       -1.8160    -5.8270     1.6860 H     1 <1>   0.0800 
 39 H       -2.8200    -2.2880     1.2530 H     1 <1>   0.0800 
 40 H       -2.3450    -1.5650    -0.2660 H     1 <1>   0.0800 
 41 H       -3.7320    -5.4260    -0.8370 H     1 <1>   0.0800 
 42 H       -3.8640    -4.9460     0.8410 H     1 <1>   0.0800 
 43 H       -4.4850    -1.6360    -1.1240 H     1 <1>   0.0800 
 44 H       -5.1680    -3.7220    -1.5410 H     1 <1>   0.0800 
 45 H       -5.4030    -0.5730     0.8180 H     1 <1>   0.0800 
 46 H       -4.9570    -1.9020     1.8310 H     1 <1>   0.0800 
 47 H       -5.9130    -4.2580     1.3110 H     1 <1>   0.0800 
 48 H       -6.9080    -4.4450    -0.0900 H     1 <1>   0.0800 
 49 H       -7.2600    -2.3560     1.5810 H     1 <1>   0.0800 
 50 H       -6.8230    -1.9080    -1.2960 H     1 <1>   0.4500 
 51 H       -8.3620    -0.2490     0.6150 H     1 <1>   0.0800 
 52 H       -8.3930    -0.0380    -1.1230 H     1 <1>   0.0800 
 53 H       -6.9110     0.2270    -0.2430 H     1 <1>   0.0800 
 54 H       -9.3310    -2.6030     0.1220 H     1 <1>   0.0800 
 55 H       -8.4770    -3.6110    -1.0270 H     1 <1>   0.0800 
 56 H       -9.2430    -2.1390    -1.5640 H     1 <1>   0.0800 
@<TRIPOS>BOND
  1   1   2  2   
  2   2   3  am  
  3   2   4  1   
  4   3   5  1   
  5   3   6  1   
  6   4   7  ar  
  7   4   8  ar  
  8   5   9  2   
  9   6  10  1   
 10   6  28  1   
 11   6  29  1   
 12   7   9  1   
 13   7  11  ar  
 14   8  12  ar  
 15   8  30  1   
 16   9  31  1   
 17  10  13  2   
 18  10  14  am  
 19  11  15  ar  
 20  11  32  1   
 21  12  15  ar  
 22  12  33  1   
 23  14  16  1   
 24  14  17  1   
 25  15  34  1   
 26  16  18  1   
 27  16  19  1   
 28  16  35  1   
 29  17  36  1   
 30  17  37  1   
 31  17  38  1   
 32  18  20  1   
 33  18  39  1   
 34  18  40  1   
 35  19  21  1   
 36  19  41  1   
 37  19  42  1   
 38  20  21  1   
 39  20  22  1   
 40  20  43  1   
 41  21  23  1   
 42  21  44  1   
 43  22  24  1   
 44  22  45  1   
 45  22  46  1   
 46  23  24  1   
 47  23  47  1   
 48  23  48  1   
 49  24  25  1   
 50  24  49  1   
 51  25  26  1   
 52  25  27  1   
 53  25  50  1   
 54  26  51  1   
 55  26  52  1   
 56  26  53  1   
 57  27  54  1   
 58  27  55  1   
 59  27  56  1   
@<TRIPOS>SUBSTRUCTURE
  1 ****   1 GROUP 4 **** **** 0

# MOE 2024.06 (io_trps.svl 2023.06)
