@<TRIPOS>MOLECULE
NONAME
43 43 1 0 0 
SMALL
USER_CHARGES


@<TRIPOS>ATOM
  1 O        1.7270    -0.6380     2.0060 O.2   1 <1>  -0.5700 
  2 C        2.0070    -0.7840     0.8390 C.2   1 <1>   0.5690 
  3 N        2.4540     0.2350     0.0510 N.am  1 <1>  -0.4930 
  4 C        1.8580    -2.1700     0.2050 C.3   1 <1>  -0.0190 
  5 C        2.6770     1.5920     0.3940 C.2   1 <1>   0.0630 
  6 C        0.3790    -2.6270     0.2560 C.3   1 <1>  -0.1600 
  7 C        2.8310    -3.1540     0.8960 C.3   1 <1>  -0.1600 
  8 C        2.5060     2.2400     1.6180 C.2   1 <1>   0.1390 
  9 C        3.1170     2.5580    -0.4380 C.2   1 <1>  -0.3020 
 10 C       -0.0750    -3.3820    -1.0040 C.3   1 <1>  -0.1600 
 11 C        2.8800    -4.5560     0.2730 C.3   1 <1>  -0.1600 
 12 N        2.8130     3.5030     1.5570 N.2   1 <1>  -0.7070 
 13 N        3.1930     3.7030     0.2810 N.pl3 1 <1>   0.3140 
 14 C       -1.5370    -3.8180    -0.8820 C.3   1 <1>  -0.2400 
 15 C        3.9900    -5.3990     0.9060 C.3   1 <1>  -0.2400 
 16 C        3.6270     5.0430    -0.2010 C.3   1 <1>   0.1760 
 17 C        2.6940     5.5520    -1.3100 C.3   1 <1>  -0.2400 
 18 C        5.0840     5.0030    -0.6830 C.3   1 <1>  -0.2400 
 19 H        2.6570     0.0070    -0.9190 H     1 <1>   0.3700 
 20 H        2.1510    -2.0860    -0.8260 H     1 <1>   0.0800 
 21 H       -0.2510    -1.7590     0.3580 H     1 <1>   0.0800 
 22 H        0.2180    -3.2310     1.1330 H     1 <1>   0.0800 
 23 H        2.5640    -3.2410     1.9370 H     1 <1>   0.0800 
 24 H        3.8200    -2.7280     0.8590 H     1 <1>   0.0800 
 25 H        2.1590     1.7550     2.5150 H     1 <1>   0.1500 
 26 H        3.3760     2.5040    -1.4770 H     1 <1>   0.1500 
 27 H        0.5330    -4.2530    -1.1680 H     1 <1>   0.0800 
 28 H        0.0280    -2.7430    -1.8640 H     1 <1>   0.0800 
 29 H        3.0550    -4.4810    -0.7870 H     1 <1>   0.0800 
 30 H        1.9400    -5.0570     0.4300 H     1 <1>   0.0800 
 31 H       -1.6630    -4.4780    -0.0420 H     1 <1>   0.0800 
 32 H       -1.8430    -4.3380    -1.7730 H     1 <1>   0.0800 
 33 H       -2.1760    -2.9630    -0.7480 H     1 <1>   0.0800 
 34 H        4.9500    -4.9430     0.7450 H     1 <1>   0.0800 
 35 H        4.0010    -6.3820     0.4690 H     1 <1>   0.0800 
 36 H        3.8270    -5.4990     1.9650 H     1 <1>   0.0800 
 37 H        3.5620     5.7150     0.6370 H     1 <1>   0.0800 
 38 H        2.7430     4.9150    -2.1750 H     1 <1>   0.0800 
 39 H        2.9780     6.5470    -1.6000 H     1 <1>   0.0800 
 40 H        1.6810     5.5820    -0.9480 H     1 <1>   0.0800 
 41 H        5.1900     4.3540    -1.5340 H     1 <1>   0.0800 
 42 H        5.7210     4.6540     0.1110 H     1 <1>   0.0800 
 43 H        5.4050     5.9900    -0.9640 H     1 <1>   0.0800 
@<TRIPOS>BOND
  1   1   2  2   
  2   2   3  am  
  3   2   4  1   
  4   3   5  1   
  5   3  19  1   
  6   4   6  1   
  7   4   7  1   
  8   4  20  1   
  9   5   8  1   
 10   5   9  2   
 11   6  10  1   
 12   6  21  1   
 13   6  22  1   
 14   7  11  1   
 15   7  23  1   
 16   7  24  1   
 17   8  12  2   
 18   8  25  1   
 19   9  13  1   
 20   9  26  1   
 21  10  14  1   
 22  10  27  1   
 23  10  28  1   
 24  11  15  1   
 25  11  29  1   
 26  11  30  1   
 27  12  13  1   
 28  13  16  1   
 29  14  31  1   
 30  14  32  1   
 31  14  33  1   
 32  15  34  1   
 33  15  35  1   
 34  15  36  1   
 35  16  17  1   
 36  16  18  1   
 37  16  37  1   
 38  17  38  1   
 39  17  39  1   
 40  17  40  1   
 41  18  41  1   
 42  18  42  1   
 43  18  43  1   
@<TRIPOS>SUBSTRUCTURE
  1 ****   3 GROUP 4 **** **** 0

# MOE 2024.06 (io_trps.svl 2023.06)
