@<TRIPOS>MOLECULE
NONAME
54 56 1 0 0 
SMALL
USER_CHARGES


@<TRIPOS>ATOM
  1 F       -0.3420     0.6500    -0.4300 F     1 <1>  -0.1900 
  2 C       -1.6340     0.8590    -0.4170 C.ar  1 <1>   0.1900 
  3 C       -2.2110     1.8990     0.3200 C.ar  1 <1>   0.0830 
  4 C       -2.4030    -0.0030    -1.1750 C.ar  1 <1>  -0.1500 
  5 O       -1.5630     2.8110     1.1010 O.3   1 <1>  -0.3630 
  6 C       -3.5890     2.0380     0.2660 C.ar  1 <1>  -0.1500 
  7 C       -3.7750     0.1640    -1.2070 C.ar  1 <1>  -0.1500 
  8 C       -0.1680     2.7920     1.3090 C.3   1 <1>   0.0400 
  9 C       -4.3980     1.1840    -0.4850 C.ar  1 <1>   0.0530 
 10 C       -5.8270     1.3760    -0.5180 C.2   1 <1>   0.0870 
 11 O       -6.3010     2.5920    -0.6230 O.3   1 <1>  -0.0190 
 12 C       -6.8970     0.5340    -0.4670 C.2   1 <1>  -0.0860 
 13 N       -7.6050     2.6320    -0.6580 N.2   1 <1>  -0.4100 
 14 C       -7.9890     1.4080    -0.5680 C.2   1 <1>   0.3720 
 15 C       -6.9660    -0.8910    -0.3220 C.2   1 <1>   0.7160 
 16 N       -9.3450     1.0410    -0.5650 N.pl3 1 <1>  -0.8210 
 17 O       -5.9760    -1.5600    -0.0990 O.2   1 <1>  -0.5700 
 18 N       -8.1620    -1.5320    -0.4230 N.am  1 <1>  -0.7300 
 19 C      -10.0800     1.5210    -1.7690 C.3   1 <1>   0.1290 
 20 C      -10.0400     1.4520     0.6860 C.3   1 <1>   0.1290 
 21 C       -8.4100    -2.9880    -0.3000 C.3   1 <1>   0.1400 
 22 C       -8.8440    -3.3280     1.1240 C.3   1 <1>   0.0210 
 23 C       -9.1970    -4.7950     1.2320 C.2   1 <1>   0.3350 
 24 N       -8.5640    -5.6530     1.9240 N.2   1 <1>  -0.4100 
 25 N      -10.2370    -5.2990     0.5840 N.2   1 <1>  -0.5650 
 26 O       -9.1650    -6.7920     1.7620 O.3   1 <1>  -0.0190 
 27 C      -10.1580    -6.5180     0.9510 C.2   1 <1>   0.2980 
 28 C      -11.0860    -7.6640     0.5440 C.3   1 <1>   0.1000 
 29 C      -10.3750    -8.6110    -0.4330 C.3   1 <1>  -0.2400 
 30 C      -12.4010    -7.1670    -0.0770 C.3   1 <1>  -0.2400 
 31 H       -1.9330    -0.7950    -1.7300 H     1 <1>   0.1500 
 32 H       -4.0440     2.8350     0.8260 H     1 <1>   0.1500 
 33 H       -4.3730    -0.5060    -1.7990 H     1 <1>   0.1500 
 34 H        0.0810     3.5950     1.9780 H     1 <1>   0.0800 
 35 H        0.3290     2.9380     0.3660 H     1 <1>   0.0800 
 36 H        0.1080     1.8510     1.7500 H     1 <1>   0.0800 
 37 H       -8.9760    -0.9100    -0.5470 H     1 <1>   0.3700 
 38 H       -9.5270     1.2720    -2.6580 H     1 <1>   0.0800 
 39 H      -10.2050     2.5900    -1.7290 H     1 <1>   0.0800 
 40 H      -11.0480     1.0520    -1.8210 H     1 <1>   0.0800 
 41 H       -9.4890     1.1020     1.5430 H     1 <1>   0.0800 
 42 H      -11.0300     1.0300     0.7150 H     1 <1>   0.0800 
 43 H      -10.1100     2.5260     0.7360 H     1 <1>   0.0800 
 44 H       -7.5120    -3.5340    -0.5410 H     1 <1>   0.0800 
 45 H       -9.1770    -3.2760    -0.9990 H     1 <1>   0.0800 
 46 H       -9.7070    -2.7480     1.3940 H     1 <1>   0.0800 
 47 H       -8.0430    -3.1050     1.8060 H     1 <1>   0.0800 
 48 H      -11.3290    -8.2140     1.4370 H     1 <1>   0.0800 
 49 H      -10.1050    -8.0850    -1.3310 H     1 <1>   0.0800 
 50 H      -11.0160    -9.4350    -0.6920 H     1 <1>   0.0800 
 51 H       -9.4800    -9.0040     0.0160 H     1 <1>   0.0800 
 52 H      -12.2050    -6.6220    -0.9850 H     1 <1>   0.0800 
 53 H      -12.9060    -6.5110     0.6100 H     1 <1>   0.0800 
 54 H      -13.0490    -7.9940    -0.3020 H     1 <1>   0.0800 
@<TRIPOS>BOND
  1   1   2  1   
  2   2   3  ar  
  3   2   4  ar  
  4   3   5  1   
  5   3   6  ar  
  6   4   7  ar  
  7   4  31  1   
  8   5   8  1   
  9   6   9  ar  
 10   6  32  1   
 11   7   9  ar  
 12   7  33  1   
 13   8  34  1   
 14   8  35  1   
 15   8  36  1   
 16   9  10  1   
 17  10  11  1   
 18  10  12  2   
 19  11  13  1   
 20  12  14  1   
 21  12  15  1   
 22  13  14  2   
 23  14  16  1   
 24  15  17  2   
 25  15  18  am  
 26  16  19  1   
 27  16  20  1   
 28  18  21  1   
 29  18  37  1   
 30  19  38  1   
 31  19  39  1   
 32  19  40  1   
 33  20  41  1   
 34  20  42  1   
 35  20  43  1   
 36  21  22  1   
 37  21  44  1   
 38  21  45  1   
 39  22  23  1   
 40  22  46  1   
 41  22  47  1   
 42  23  24  2   
 43  23  25  1   
 44  24  26  1   
 45  25  27  2   
 46  26  27  1   
 47  27  28  1   
 48  28  29  1   
 49  28  30  1   
 50  28  48  1   
 51  29  49  1   
 52  29  50  1   
 53  29  51  1   
 54  30  52  1   
 55  30  53  1   
 56  30  54  1   
@<TRIPOS>SUBSTRUCTURE
  1 ****  15 GROUP 4 **** **** 0

# MOE 2024.06 (io_trps.svl 2023.06)
