@<TRIPOS>MOLECULE
NONAME
52 54 1 0 0 
SMALL
USER_CHARGES


@<TRIPOS>ATOM
  1 O        0.4630     0.5050    -0.9200 O.3   1 <1>  -0.5600 
  2 C        1.7190    -0.1030    -1.1050 C.3   1 <1>   0.2000 
  3 C        0.4770     1.9000    -0.8670 C.3   1 <1>   0.1200 
  4 C        2.7260     0.3360    -0.0060 C.3   1 <1>   0.5660 
  5 C        1.5330    -1.6300    -1.0810 C.3   1 <1>   0.1200 
  6 C        1.3290     2.3710     0.3230 C.3   1 <1>   0.3430 
  7 N        2.7190     1.8080     0.2650 N.4   1 <1>  -0.9590 
  8 C        4.1510    -0.0540    -0.3780 C.ar  1 <1>  -0.1430 
  9 O        1.3320    -2.0700     0.2260 O.3   1 <1>  -0.6800 
 10 C        3.5070     2.1370     1.4760 C.3   1 <1>   0.5240 
 11 C        4.8420    -0.9420     0.4340 C.ar  1 <1>  -0.1500 
 12 C        4.7780     0.4660    -1.5060 C.ar  1 <1>  -0.1500 
 13 C        3.7810     3.6190     1.4190 C.2   1 <1>  -0.1810 
 14 C        6.1450    -1.2950     0.1330 C.ar  1 <1>  -0.1500 
 15 C        6.0810     0.1100    -1.8060 C.ar  1 <1>  -0.1500 
 16 C        4.7410     4.2940     0.7450 C.2   1 <1>  -0.3320 
 17 C        3.0450     4.5990     2.0730 C.2   1 <1>   0.1390 
 18 C        6.7650    -0.7680    -0.9850 C.ar  1 <1>  -0.1500 
 19 N        4.5370     5.6100     0.9980 N.pl3 1 <1>   0.3140 
 20 C        5.8700     3.7600    -0.1280 C.3   1 <1>  -0.0600 
 21 N        3.4800     5.7860     1.8110 N.2   1 <1>  -0.7070 
 22 C        5.3170     6.7680     0.5060 C.3   1 <1>   0.0960 
 23 C        4.7950     7.2450    -0.8580 C.3   1 <1>  -0.1600 
 24 C        5.6050     8.4370    -1.3780 C.3   1 <1>  -0.2400 
 25 H        2.0730     0.1840    -2.0790 H     1 <1>   0.0800 
 26 H        0.8540     2.2850    -1.7990 H     1 <1>   0.0800 
 27 H       -0.5400     2.2310    -0.7460 H     1 <1>   0.0800 
 28 H        2.4540    -0.1820     0.8990 H     1 <1>   0.0800 
 29 H        2.4100    -2.1240    -1.4630 H     1 <1>   0.0800 
 30 H        0.6810    -1.9090    -1.6780 H     1 <1>   0.0800 
 31 H        0.8430     2.0540     1.2310 H     1 <1>   0.0800 
 32 H        1.3700     3.4490     0.3260 H     1 <1>   0.0800 
 33 H        3.2210     2.2620    -0.5030 H     1 <1>   0.4500 
 34 H        0.9810    -2.9870     0.2300 H     1 <1>   0.4000 
 35 H        2.9660     1.8810     2.3720 H     1 <1>   0.0800 
 36 H        4.4460     1.6080     1.4700 H     1 <1>   0.0800 
 37 H        4.3760    -1.3740     1.3050 H     1 <1>   0.1500 
 38 H        4.2720     1.1460    -2.1690 H     1 <1>   0.1500 
 39 H        6.6800    -1.9840     0.7650 H     1 <1>   0.1500 
 40 H        6.5670     0.5090    -2.6800 H     1 <1>   0.1500 
 41 H        2.2040     4.4230     2.7240 H     1 <1>   0.1500 
 42 H        7.7800    -1.0450    -1.2190 H     1 <1>   0.1500 
 43 H        5.8910     2.6860    -0.1190 H     1 <1>   0.0800 
 44 H        6.8180     4.1090     0.2420 H     1 <1>   0.0800 
 45 H        5.7520     4.0950    -1.1430 H     1 <1>   0.0800 
 46 H        5.2280     7.5600     1.2270 H     1 <1>   0.0800 
 47 H        6.3510     6.4880     0.4370 H     1 <1>   0.0800 
 48 H        4.8540     6.4420    -1.5710 H     1 <1>   0.0800 
 49 H        3.7630     7.5380    -0.7560 H     1 <1>   0.0800 
 50 H        6.6400     8.1680    -1.5040 H     1 <1>   0.0800 
 51 H        5.5430     9.2630    -0.6910 H     1 <1>   0.0800 
 52 H        5.2180     8.7580    -2.3290 H     1 <1>   0.0800 
@<TRIPOS>BOND
  1   1   2  1   
  2   1   3  1   
  3   2   4  1   
  4   2   5  1   
  5   2  25  1   
  6   3   6  1   
  7   3  26  1   
  8   3  27  1   
  9   4   7  1   
 10   4   8  1   
 11   4  28  1   
 12   5   9  1   
 13   5  29  1   
 14   5  30  1   
 15   6   7  1   
 16   6  31  1   
 17   6  32  1   
 18   7  10  1   
 19   7  33  1   
 20   8  11  ar  
 21   8  12  ar  
 22   9  34  1   
 23  10  13  1   
 24  10  35  1   
 25  10  36  1   
 26  11  14  ar  
 27  11  37  1   
 28  12  15  ar  
 29  12  38  1   
 30  13  16  2   
 31  13  17  1   
 32  14  18  ar  
 33  14  39  1   
 34  15  18  ar  
 35  15  40  1   
 36  16  19  1   
 37  16  20  1   
 38  17  21  2   
 39  17  41  1   
 40  18  42  1   
 41  19  21  1   
 42  19  22  1   
 43  20  43  1   
 44  20  44  1   
 45  20  45  1   
 46  22  23  1   
 47  22  46  1   
 48  22  47  1   
 49  23  24  1   
 50  23  48  1   
 51  23  49  1   
 52  24  50  1   
 53  24  51  1   
 54  24  52  1   
@<TRIPOS>SUBSTRUCTURE
  1 ****   7 GROUP 4 **** **** 0

# MOE 2024.06 (io_trps.svl 2023.06)
