@<TRIPOS>MOLECULE
NONAME
46 49 1 0 0 
SMALL
USER_CHARGES


@<TRIPOS>ATOM
  1 F        2.2130     0.5530     0.8490 F     1 <1>  -0.3400 
  2 C        2.0560    -0.0890    -0.2990 C.3   1 <1>   1.1640 
  3 F        1.0590     0.5050    -0.9380 F     1 <1>  -0.3400 
  4 F        3.1520     0.1390    -1.0130 F     1 <1>  -0.3400 
  5 C        1.7910    -1.5930    -0.0890 C.ar  1 <1>  -0.1440 
  6 C        2.6230    -2.5770    -0.5810 C.ar  1 <1>  -0.1500 
  7 C        0.6670    -1.9910     0.6450 C.ar  1 <1>  -0.1500 
  8 C        2.3580    -3.9400    -0.3730 C.ar  1 <1>   0.3610 
  9 C        0.3840    -3.3190     0.8380 C.ar  1 <1>  -0.1500 
 10 N        3.2590    -4.8970    -0.7810 N.ar  1 <1>  -0.1790 
 11 C        1.1840    -4.3410     0.2940 C.ar  1 <1>   0.0000 
 12 C        3.0620    -6.2090    -0.5660 C.ar  1 <1>   0.2180 
 13 C        0.9020    -5.7410     0.4290 C.ar  1 <1>   0.1000 
 14 C        1.9040    -6.6320     0.0320 C.ar  1 <1>  -0.1500 
 15 C        4.1340    -7.1880    -1.0160 C.3   1 <1>  -0.0970 
 16 N       -0.2850    -6.2240     0.8760 N.pl3 1 <1>  -0.8380 
 17 C       -1.6270    -5.6930     0.4400 C.3   1 <1>   0.2090 
 18 C       -0.4470    -7.4810     1.6910 C.3   1 <1>   0.2090 
 19 C       -2.4630    -6.7650    -0.2920 C.3   1 <1>   0.2090 
 20 C       -1.2670    -8.5520     0.9460 C.3   1 <1>   0.2090 
 21 N       -2.5950    -8.0220     0.5050 N.pl3 1 <1>  -0.8380 
 22 C       -3.5150    -8.9400     0.0280 C.ar  1 <1>   0.4100 
 23 N       -3.0420    -9.9140    -0.7410 N.ar  1 <1>  -0.6200 
 24 C       -4.8800    -8.8210     0.3390 C.ar  1 <1>   0.1600 
 25 C       -3.9950   -10.7280    -1.1640 C.ar  1 <1>   0.1600 
 26 N       -5.8330    -9.6300    -0.0860 N.ar  1 <1>  -0.6200 
 27 C       -5.3410   -10.5940    -0.8520 C.ar  1 <1>   0.1600 
 28 H        3.5060    -2.3020    -1.1330 H     1 <1>   0.1500 
 29 H        0.0170    -1.2390     1.0690 H     1 <1>   0.1500 
 30 H       -0.4690    -3.5860     1.4370 H     1 <1>   0.1500 
 31 H        4.1140    -4.5810    -1.2410 H     1 <1>   0.4570 
 32 H        1.7400    -7.6840     0.1670 H     1 <1>   0.1500 
 33 H        5.0640    -6.9850    -0.5140 H     1 <1>   0.0800 
 34 H        4.2850    -7.1180    -2.0790 H     1 <1>   0.0800 
 35 H        3.8460    -8.1990    -0.7870 H     1 <1>   0.0800 
 36 H       -1.4990    -4.8600    -0.2270 H     1 <1>   0.0800 
 37 H       -2.1740    -5.3550     1.3030 H     1 <1>   0.0800 
 38 H       -0.9620    -7.2380     2.6040 H     1 <1>   0.0800 
 39 H        0.5100    -7.8830     1.9660 H     1 <1>   0.0800 
 40 H       -1.9920    -6.9950    -1.2320 H     1 <1>   0.0800 
 41 H       -3.4410    -6.3690    -0.5010 H     1 <1>   0.0800 
 42 H       -1.4210    -9.3980     1.5920 H     1 <1>   0.0800 
 43 H       -0.7120    -8.8870     0.0860 H     1 <1>   0.0800 
 44 H       -5.1650    -8.0050     0.9750 H     1 <1>   0.1500 
 45 H       -3.6940   -11.5460    -1.7940 H     1 <1>   0.1500 
 46 H       -6.0410   -11.3090    -1.2470 H     1 <1>   0.1500 
@<TRIPOS>BOND
  1   1   2  1   
  2   2   3  1   
  3   2   4  1   
  4   2   5  1   
  5   5   6  ar  
  6   5   7  ar  
  7   6   8  ar  
  8   6  28  1   
  9   7   9  ar  
 10   7  29  1   
 11   8  10  ar  
 12   8  11  ar  
 13   9  11  ar  
 14   9  30  1   
 15  10  12  ar  
 16  10  31  1   
 17  11  13  ar  
 18  12  14  ar  
 19  12  15  1   
 20  13  14  ar  
 21  13  16  1   
 22  14  32  1   
 23  15  33  1   
 24  15  34  1   
 25  15  35  1   
 26  16  17  1   
 27  16  18  1   
 28  17  19  1   
 29  17  36  1   
 30  17  37  1   
 31  18  20  1   
 32  18  38  1   
 33  18  39  1   
 34  19  21  1   
 35  19  40  1   
 36  19  41  1   
 37  20  21  1   
 38  20  42  1   
 39  20  43  1   
 40  21  22  1   
 41  22  23  ar  
 42  22  24  ar  
 43  23  25  ar  
 44  24  26  ar  
 45  24  44  1   
 46  25  27  ar  
 47  25  45  1   
 48  26  27  ar  
 49  27  46  1   
@<TRIPOS>SUBSTRUCTURE
  1 ****  16 GROUP 4 **** **** 0

# MOE 2024.06 (io_trps.svl 2023.06)
