@<TRIPOS>MOLECULE
NONAME
56 58 1 0 0 
SMALL
USER_CHARGES


@<TRIPOS>ATOM
  1 O        0.0440     0.2000    -0.4160 O.3   1 <1>  -0.5600 
  2 C        0.2550     0.9810    -1.5440 C.3   1 <1>   0.1200 
  3 C       -1.3350     0.0920    -0.2080 C.3   1 <1>   0.1200 
  4 C       -0.7120     2.1360    -1.3090 C.3   1 <1>   0.4230 
  5 C       -1.9450     1.3350    -0.8810 C.3   1 <1>  -0.0800 
  6 N       -0.1970     2.9320    -0.1520 N.4   1 <1>  -0.9060 
  7 C       -3.0030     2.0600    -0.0230 C.3   1 <1>  -0.0170 
  8 C        0.9870     3.7850    -0.4070 C.3   1 <1>   0.4230 
  9 C       -4.1910     1.1480     0.2310 C.ar  1 <1>  -0.1440 
 10 C        1.5910     4.1960     0.9360 C.3   1 <1>  -0.1600 
 11 C        0.5930     5.0240    -1.2160 C.3   1 <1>  -0.1600 
 12 C       -4.3590     0.4730     1.4240 C.ar  1 <1>  -0.1500 
 13 C       -5.1680     0.9480    -0.7240 C.ar  1 <1>  -0.1500 
 14 C        2.7810     5.1360     0.7380 C.3   1 <1>   0.3430 
 15 C        1.7880     5.9650    -1.3940 C.3   1 <1>   0.3430 
 16 C       -5.4580    -0.3530     1.5950 C.ar  1 <1>   0.1600 
 17 C       -6.2290     0.1000    -0.4510 C.ar  1 <1>   0.1600 
 18 N        2.3640     6.3230    -0.0660 N.4   1 <1>  -0.9590 
 19 N       -6.3930    -0.5560     0.6840 N.ar  1 <1>  -0.6200 
 20 C        3.5020     7.2820    -0.2490 C.3   1 <1>   0.3430 
 21 C        3.8870     7.9770     1.0700 C.3   1 <1>  -0.0800 
 22 C        2.6890     8.6570     1.7590 C.3   1 <1>  -0.2400 
 23 C        4.9690     9.0270     0.7910 C.3   1 <1>  -0.2400 
 24 H        1.2900     1.2670    -1.6020 H     1 <1>   0.0800 
 25 H       -0.0130     0.4040    -2.4160 H     1 <1>   0.0800 
 26 H       -1.6860    -0.8190    -0.6650 H     1 <1>   0.0800 
 27 H       -1.5150     0.0530     0.8530 H     1 <1>   0.0800 
 28 H       -0.8850     2.7410    -2.1840 H     1 <1>   0.0800 
 29 H       -2.4360     0.9930    -1.7770 H     1 <1>   0.0800 
 30 H       -0.9610     3.4660     0.2730 H     1 <1>   0.4500 
 31 H        0.0650     2.1930     0.5240 H     1 <1>   0.4500 
 32 H       -3.3520     2.9410    -0.5340 H     1 <1>   0.0800 
 33 H       -2.5960     2.3620     0.9260 H     1 <1>   0.0800 
 34 H        1.7250     3.2220    -0.9570 H     1 <1>   0.0800 
 35 H        0.8600     4.6880     1.5530 H     1 <1>   0.0800 
 36 H        1.9400     3.3220     1.4580 H     1 <1>   0.0800 
 37 H        0.2520     4.7340    -2.1930 H     1 <1>   0.0800 
 38 H       -0.2010     5.5620    -0.7280 H     1 <1>   0.0800 
 39 H       -3.6550     0.5730     2.2300 H     1 <1>   0.1500 
 40 H       -5.1260     1.4390    -1.6790 H     1 <1>   0.1500 
 41 H        3.5800     4.6160     0.2320 H     1 <1>   0.0800 
 42 H        3.1490     5.4530     1.7020 H     1 <1>   0.0800 
 43 H        1.4700     6.8590    -1.9080 H     1 <1>   0.0800 
 44 H        2.5430     5.4860    -1.9980 H     1 <1>   0.0800 
 45 H       -5.5750    -0.8730     2.5310 H     1 <1>   0.1500 
 46 H       -6.9840    -0.0450    -1.2060 H     1 <1>   0.1500 
 47 H        1.6610     6.8550     0.4700 H     1 <1>   0.4500 
 48 H        4.3620     6.7690    -0.6500 H     1 <1>   0.0800 
 49 H        3.2150     8.0450    -0.9550 H     1 <1>   0.0800 
 50 H        4.3150     7.2550     1.7440 H     1 <1>   0.0800 
 51 H        2.2130     9.3600     1.0970 H     1 <1>   0.0800 
 52 H        3.0270     9.1990     2.6270 H     1 <1>   0.0800 
 53 H        1.9630     7.9400     2.0960 H     1 <1>   0.0800 
 54 H        4.6030     9.7990     0.1360 H     1 <1>   0.0800 
 55 H        5.8350     8.5750     0.3370 H     1 <1>   0.0800 
 56 H        5.2860     9.4910     1.7100 H     1 <1>   0.0800 
@<TRIPOS>BOND
  1   1   2  1   
  2   1   3  1   
  3   2   4  1   
  4   2  24  1   
  5   2  25  1   
  6   3   5  1   
  7   3  26  1   
  8   3  27  1   
  9   4   5  1   
 10   4   6  1   
 11   4  28  1   
 12   5   7  1   
 13   5  29  1   
 14   6   8  1   
 15   6  30  1   
 16   6  31  1   
 17   7   9  1   
 18   7  32  1   
 19   7  33  1   
 20   8  10  1   
 21   8  11  1   
 22   8  34  1   
 23   9  12  ar  
 24   9  13  ar  
 25  10  14  1   
 26  10  35  1   
 27  10  36  1   
 28  11  15  1   
 29  11  37  1   
 30  11  38  1   
 31  12  16  ar  
 32  12  39  1   
 33  13  17  ar  
 34  13  40  1   
 35  14  18  1   
 36  14  41  1   
 37  14  42  1   
 38  15  18  1   
 39  15  43  1   
 40  15  44  1   
 41  16  19  ar  
 42  16  45  1   
 43  17  19  ar  
 44  17  46  1   
 45  18  20  1   
 46  18  47  1   
 47  20  21  1   
 48  20  48  1   
 49  20  49  1   
 50  21  22  1   
 51  21  23  1   
 52  21  50  1   
 53  22  51  1   
 54  22  52  1   
 55  22  53  1   
 56  23  54  1   
 57  23  55  1   
 58  23  56  1   
@<TRIPOS>SUBSTRUCTURE
  1 ****   6 GROUP 4 **** **** 0

# MOE 2024.06 (io_trps.svl 2023.06)
