@<TRIPOS>MOLECULE
NONAME
47 49 1 0 0 
SMALL
USER_CHARGES


@<TRIPOS>ATOM
  1 S        0.6040    -0.1910    -1.4300 S.o2  1 <1>   1.2040 
  2 O        1.7150    -0.6260    -2.2470 O.2   1 <1>  -0.6500 
  3 O       -0.7390    -0.2730    -1.9590 O.2   1 <1>  -0.6500 
  4 C        0.6770    -1.0270     0.1740 C.ar  1 <1>  -0.0090 
  5 C        0.8840     1.5060    -0.9780 C.3   1 <1>  -0.0550 
  6 C        1.8990    -1.4140     0.7200 C.ar  1 <1>  -0.1500 
  7 C       -0.4830    -1.2770     0.9050 C.ar  1 <1>  -0.1500 
  8 C        0.9590     2.3740    -2.2250 C.3   1 <1>   0.2090 
  9 C        1.9710    -2.0330     1.9570 C.ar  1 <1>  -0.1500 
 10 C       -0.4330    -1.8950     2.1450 C.ar  1 <1>  -0.1500 
 11 N        1.0870     3.7990    -1.8260 N.pl3 1 <1>  -0.8690 
 12 C        0.7990    -2.2620     2.6490 C.ar  1 <1>   0.1900 
 13 C        2.2910     4.3850    -1.5290 C.ar  1 <1>   0.4100 
 14 F        0.8560    -2.8450     3.8150 F     1 <1>  -0.1900 
 15 N        3.3090     3.5850    -1.2400 N.ar  1 <1>  -0.6200 
 16 C        2.4050     5.7730    -1.5420 C.ar  1 <1>  -0.1500 
 17 C        4.4590     4.1770    -0.9680 C.ar  1 <1>   0.1600 
 18 C        3.6070     6.3710    -1.2480 C.ar  1 <1>  -0.1500 
 19 C        4.6870     5.5510    -0.9360 C.ar  1 <1>   0.0860 
 20 C        5.9960     6.0620    -0.6090 C.2   1 <1>   0.5440 
 21 O        6.9680     5.5750    -1.1550 O.2   1 <1>  -0.5700 
 22 N        6.1920     7.0740     0.3070 N.am  1 <1>  -0.6600 
 23 C        5.2330     7.4440     1.3910 C.3   1 <1>   0.1400 
 24 C        7.5130     7.7570     0.4470 C.3   1 <1>   0.1400 
 25 C        5.1620     8.9730     1.5470 C.3   1 <1>   0.1200 
 26 C        7.3220     9.2670     0.6680 C.3   1 <1>   0.1200 
 27 O        6.4420     9.5100     1.7310 O.3   1 <1>  -0.5600 
 28 H        1.8080     1.5900    -0.4400 H     1 <1>   0.0800 
 29 H        0.0850     1.8550    -0.3540 H     1 <1>   0.0800 
 30 H        2.8070    -1.2330     0.1670 H     1 <1>   0.1500 
 31 H       -1.4400    -0.9900     0.4980 H     1 <1>   0.1500 
 32 H        0.0660     2.2480    -2.8150 H     1 <1>   0.0800 
 33 H        1.8060     2.0840    -2.8260 H     1 <1>   0.0800 
 34 H        2.9140    -2.3340     2.3790 H     1 <1>   0.1500 
 35 H       -1.3270    -2.0910     2.7090 H     1 <1>   0.1500 
 36 H        0.3740     4.4110    -2.2300 H     1 <1>   0.4000 
 37 H        1.5450     6.3660    -1.7860 H     1 <1>   0.1500 
 38 H        5.2960     3.5340    -0.7500 H     1 <1>   0.1500 
 39 H        3.7240     7.4400    -1.2630 H     1 <1>   0.1500 
 40 H        5.5740     7.0180     2.3190 H     1 <1>   0.0800 
 41 H        4.2520     7.0560     1.1940 H     1 <1>   0.0800 
 42 H        8.1100     7.6020    -0.4350 H     1 <1>   0.0800 
 43 H        8.0430     7.3360     1.2840 H     1 <1>   0.0800 
 44 H        4.5730     9.2310     2.4090 H     1 <1>   0.0800 
 45 H        4.7210     9.4250     0.6760 H     1 <1>   0.0800 
 46 H        6.9270     9.7300    -0.2190 H     1 <1>   0.0800 
 47 H        8.2630     9.7280     0.9090 H     1 <1>   0.0800 
@<TRIPOS>BOND
  1   1   2  2   
  2   1   3  2   
  3   1   4  1   
  4   1   5  1   
  5   4   6  ar  
  6   4   7  ar  
  7   5   8  1   
  8   5  28  1   
  9   5  29  1   
 10   6   9  ar  
 11   6  30  1   
 12   7  10  ar  
 13   7  31  1   
 14   8  11  1   
 15   8  32  1   
 16   8  33  1   
 17   9  12  ar  
 18   9  34  1   
 19  10  12  ar  
 20  10  35  1   
 21  11  13  1   
 22  11  36  1   
 23  12  14  1   
 24  13  15  ar  
 25  13  16  ar  
 26  15  17  ar  
 27  16  18  ar  
 28  16  37  1   
 29  17  19  ar  
 30  17  38  1   
 31  18  19  ar  
 32  18  39  1   
 33  19  20  1   
 34  20  21  2   
 35  20  22  am  
 36  22  23  1   
 37  22  24  1   
 38  23  25  1   
 39  23  40  1   
 40  23  41  1   
 41  24  26  1   
 42  24  42  1   
 43  24  43  1   
 44  25  27  1   
 45  25  44  1   
 46  25  45  1   
 47  26  27  1   
 48  26  46  1   
 49  26  47  1   
@<TRIPOS>SUBSTRUCTURE
  1 ****  15 GROUP 4 **** **** 0

# MOE 2024.06 (io_trps.svl 2023.06)
