@<TRIPOS>MOLECULE
NONAME
48 50 1 0 0 
SMALL
USER_CHARGES


@<TRIPOS>ATOM
  1 O       -2.2420     0.4010    -1.7000 O.2   1 <1>  -0.5700 
  2 C       -1.8870     0.8100    -0.6110 C.2   1 <1>   0.7160 
  3 N       -1.5930    -0.0900     0.3680 N.am  1 <1>  -0.7300 
  4 C       -1.6980     2.1970    -0.3470 C.2   1 <1>  -0.0860 
  5 C       -1.5860    -1.5600     0.2140 C.3   1 <1>   0.2200 
  6 C       -2.6360     3.2380    -0.2640 C.2   1 <1>   0.3720 
  7 C       -0.5260     2.7990    -0.0180 C.2   1 <1>   0.0870 
  8 C       -0.1610    -1.9850    -0.2000 C.3   1 <1>   0.1200 
  9 C       -2.0760    -2.1630     1.5450 C.3   1 <1>  -0.1600 
 10 N       -2.0620     4.3310     0.1040 N.2   1 <1>  -0.4100 
 11 N       -4.0200     3.1930    -0.4850 N.pl3 1 <1>  -0.8210 
 12 O       -0.7940     4.0500     0.2410 O.3   1 <1>  -0.0190 
 13 C        0.8140     2.2820     0.0920 C.ar  1 <1>   0.0530 
 14 O       -0.0430    -3.3630    -0.3220 O.3   1 <1>  -0.6800 
 15 C       -2.7250    -3.5480     1.3920 C.3   1 <1>  -0.2400 
 16 C       -4.6550     2.1090    -1.2940 C.3   1 <1>   0.2090 
 17 C       -4.8930     3.6950     0.6170 C.3   1 <1>   0.2090 
 18 C        1.2980     1.3200    -0.7940 C.ar  1 <1>  -0.1500 
 19 C        1.6690     2.7170     1.1040 C.ar  1 <1>  -0.1500 
 20 C       -6.1020     2.4700    -1.6710 C.3   1 <1>   0.1200 
 21 C       -6.3230     3.9630     0.1150 C.3   1 <1>   0.1200 
 22 C        2.5710     0.7970    -0.6630 C.ar  1 <1>  -0.1500 
 23 C        2.9440     2.2000     1.2390 C.ar  1 <1>  -0.1500 
 24 O       -6.8430     2.8400    -0.5410 O.3   1 <1>  -0.5600 
 25 C        3.3960     1.2350     0.3570 C.ar  1 <1>  -0.1500 
 26 H       -1.2300     0.2640     1.2530 H     1 <1>   0.3700 
 27 H       -2.2700    -1.8240    -0.5770 H     1 <1>   0.0800 
 28 H        0.5600    -1.6550     0.5280 H     1 <1>   0.0800 
 29 H        0.0810    -1.5580    -1.1580 H     1 <1>   0.0800 
 30 H       -1.2610    -2.2200     2.2450 H     1 <1>   0.0800 
 31 H       -2.8270    -1.5140     1.9640 H     1 <1>   0.0800 
 32 H       -0.2460    -3.8010     0.5270 H     1 <1>   0.4000 
 33 H       -2.0270    -4.2830     1.0390 H     1 <1>   0.0800 
 34 H       -3.5470    -3.4980     0.6990 H     1 <1>   0.0800 
 35 H       -3.1070    -3.8780     2.3420 H     1 <1>   0.0800 
 36 H       -4.0920     1.9610    -2.1990 H     1 <1>   0.0800 
 37 H       -4.6570     1.1900    -0.7350 H     1 <1>   0.0800 
 38 H       -4.9270     2.9650     1.4070 H     1 <1>   0.0800 
 39 H       -4.4870     4.6060     1.0200 H     1 <1>   0.0800 
 40 H        0.6750     0.9800    -1.6030 H     1 <1>   0.1500 
 41 H        1.3270     3.4700     1.7940 H     1 <1>   0.1500 
 42 H       -6.5880     1.6230    -2.1210 H     1 <1>   0.0800 
 43 H       -6.1120     3.2860    -2.3720 H     1 <1>   0.0800 
 44 H       -6.3280     4.7950    -0.5680 H     1 <1>   0.0800 
 45 H       -6.9700     4.1900     0.9430 H     1 <1>   0.0800 
 46 H        2.9230     0.0520    -1.3560 H     1 <1>   0.1500 
 47 H        3.5870     2.5490     2.0290 H     1 <1>   0.1500 
 48 H        4.3880     0.8300     0.4610 H     1 <1>   0.1500 
@<TRIPOS>BOND
  1   1   2  2   
  2   2   3  am  
  3   2   4  1   
  4   3   5  1   
  5   3  26  1   
  6   4   6  1   
  7   4   7  2   
  8   5   8  1   
  9   5   9  1   
 10   5  27  1   
 11   6  10  2   
 12   6  11  1   
 13   7  12  1   
 14   7  13  1   
 15   8  14  1   
 16   8  28  1   
 17   8  29  1   
 18   9  15  1   
 19   9  30  1   
 20   9  31  1   
 21  10  12  1   
 22  11  16  1   
 23  11  17  1   
 24  13  18  ar  
 25  13  19  ar  
 26  14  32  1   
 27  15  33  1   
 28  15  34  1   
 29  15  35  1   
 30  16  20  1   
 31  16  36  1   
 32  16  37  1   
 33  17  21  1   
 34  17  38  1   
 35  17  39  1   
 36  18  22  ar  
 37  18  40  1   
 38  19  23  ar  
 39  19  41  1   
 40  20  24  1   
 41  20  42  1   
 42  20  43  1   
 43  21  24  1   
 44  21  44  1   
 45  21  45  1   
 46  22  25  ar  
 47  22  46  1   
 48  23  25  ar  
 49  23  47  1   
 50  25  48  1   
@<TRIPOS>SUBSTRUCTURE
  1 ****   2 GROUP 4 **** **** 0

# MOE 2024.06 (io_trps.svl 2023.06)
