@<TRIPOS>MOLECULE
NONAME
42 44 1 0 0 
SMALL
USER_CHARGES


@<TRIPOS>ATOM
  1 O       -0.1290     1.0040    -0.3860 O.2   1 <1>  -0.5700 
  2 C       -0.2170     2.2010    -0.2850 C.2   1 <1>   0.5690 
  3 N       -1.1790     2.7620     0.4770 N.am  1 <1>  -0.7300 
  4 C        0.7400     3.1110    -1.0550 C.3   1 <1>   0.1810 
  5 C       -1.4050     4.2260     0.5840 C.3   1 <1>   0.3640 
  6 O        0.8140     4.4040    -0.4990 O.3   1 <1>  -0.5600 
  7 C       -2.8640     4.4960     0.2170 C.ar  1 <1>  -0.1440 
  8 C       -0.4380     5.0540    -0.3130 C.3   1 <1>   0.2610 
  9 C       -3.4330     3.9450    -0.9260 C.ar  1 <1>  -0.1500 
 10 C       -3.6460     5.3050     1.0290 C.ar  1 <1>  -0.1500 
 11 C       -0.2050     6.4620     0.2590 C.2   1 <1>   0.5690 
 12 C       -4.7550     4.1990    -1.2480 C.ar  1 <1>  -0.1500 
 13 C       -4.9680     5.5600     0.7090 C.ar  1 <1>  -0.1500 
 14 O       -1.0170     6.9790     0.9900 O.2   1 <1>  -0.5700 
 15 N        0.9340     7.1210    -0.0730 N.am  1 <1>  -0.7300 
 16 C       -5.5240     5.0070    -0.4300 C.ar  1 <1>  -0.1500 
 17 C        1.2850     8.4670     0.3830 C.3   1 <1>   0.2010 
 18 C        2.6400     8.9700    -0.1510 C.2   1 <1>   0.5690 
 19 O        3.3190     8.2540    -0.8850 O.2   1 <1>  -0.5700 
 20 N        3.0480    10.2180     0.2150 N.am  1 <1>  -0.5790 
 21 C        4.3050    10.8570    -0.2000 C.3   1 <1>   0.0490 
 22 C        4.9920    11.7520     0.7770 C.3   1 <1>  -0.2000 
 23 C        4.3020    12.3320    -0.4220 C.3   1 <1>  -0.2000 
 24 H       -1.8510     2.1550     0.9470 H     1 <1>   0.3700 
 25 H        0.4180     3.1940    -2.0760 H     1 <1>   0.0800 
 26 H        1.7280     2.6880    -1.0330 H     1 <1>   0.0800 
 27 H       -1.2430     4.5060     1.6110 H     1 <1>   0.0800 
 28 H       -0.8810     5.1720    -1.2840 H     1 <1>   0.0800 
 29 H       -2.8530     3.3100    -1.5730 H     1 <1>   0.1500 
 30 H       -3.2280     5.7520     1.9160 H     1 <1>   0.1500 
 31 H       -5.1860     3.7660    -2.1340 H     1 <1>   0.1500 
 32 H       -5.5630     6.1910     1.3460 H     1 <1>   0.1500 
 33 H        1.6370     6.6290    -0.6150 H     1 <1>   0.3700 
 34 H       -6.5520     5.2050    -0.6790 H     1 <1>   0.1500 
 35 H        0.5110     9.1660     0.0650 H     1 <1>   0.0800 
 36 H        1.3220     8.4770     1.4730 H     1 <1>   0.0800 
 37 H        2.4660    10.7910     0.8250 H     1 <1>   0.3700 
 38 H        4.9090    10.2380    -0.8470 H     1 <1>   0.1000 
 39 H        4.5580    11.8920     1.7510 H     1 <1>   0.1000 
 40 H        6.0670    11.7610     0.7970 H     1 <1>   0.1000 
 41 H        4.9100    12.7350    -1.2130 H     1 <1>   0.1000 
 42 H        3.3860    12.8790    -0.2860 H     1 <1>   0.1000 
@<TRIPOS>BOND
  1   1   2  2   
  2   2   3  am  
  3   2   4  1   
  4   3   5  1   
  5   3  24  1   
  6   4   6  1   
  7   4  25  1   
  8   4  26  1   
  9   5   7  1   
 10   5   8  1   
 11   5  27  1   
 12   6   8  1   
 13   7   9  ar  
 14   7  10  ar  
 15   8  11  1   
 16   8  28  1   
 17   9  12  ar  
 18   9  29  1   
 19  10  13  ar  
 20  10  30  1   
 21  11  14  2   
 22  11  15  am  
 23  12  16  ar  
 24  12  31  1   
 25  13  16  ar  
 26  13  32  1   
 27  15  17  1   
 28  15  33  1   
 29  16  34  1   
 30  17  18  1   
 31  17  35  1   
 32  17  36  1   
 33  18  19  2   
 34  18  20  am  
 35  20  21  1   
 36  20  37  1   
 37  21  22  1   
 38  21  23  1   
 39  21  38  1   
 40  22  23  1   
 41  22  39  1   
 42  22  40  1   
 43  23  41  1   
 44  23  42  1   
@<TRIPOS>SUBSTRUCTURE
  1 ****  11 GROUP 4 **** **** 0

# MOE 2024.06 (io_trps.svl 2023.06)
