@<TRIPOS>MOLECULE
NONAME
34 35 1 0 0 
SMALL
USER_CHARGES


@<TRIPOS>ATOM
  1 CL       1.4470     0.0450     0.3920 Cl    1 <1>  -0.1230 
  2 C        1.4960    -1.6840     0.1010 C.2   1 <1>   0.1230 
  3 C        2.1540    -2.3190    -0.8970 C.2   1 <1>  -0.3020 
  4 C        0.8520    -2.6320     0.8800 C.2   1 <1>  -0.1500 
  5 N        1.9410    -3.6530    -0.7680 N.pl3 1 <1>   0.0480 
  6 C        1.1280    -3.8610     0.3270 C.2   1 <1>  -0.2370 
  7 C        2.4980    -4.6790    -1.6710 C.3   1 <1>   0.0160 
  8 C        0.6890    -5.1590     0.7710 C.2   1 <1>   0.7150 
  9 O        1.4410    -6.1180     0.7110 O.2   1 <1>  -0.5700 
 10 N       -0.5880    -5.3600     1.2380 N.am  1 <1>  -0.6600 
 11 C       -0.9310    -6.6100     1.9730 C.3   1 <1>   0.3200 
 12 C       -1.7640    -4.6000     0.7160 C.3   1 <1>   0.1400 
 13 C       -1.3360    -7.6960     0.9920 C.2   1 <1>   0.0060 
 14 C       -1.9860    -4.8810    -0.7760 C.3   1 <1>   0.1200 
 15 N       -2.5390    -8.1520     0.8360 N.2   1 <1>  -0.5650 
 16 N       -0.4300    -8.2670     0.1720 N.pl3 1 <1>   0.0330 
 17 O       -3.1870    -4.3140    -1.1740 O.3   1 <1>  -0.6800 
 18 C       -2.4060    -9.0760    -0.1360 C.2   1 <1>   0.0770 
 19 C       -1.1240    -9.1580    -0.5560 C.2   1 <1>  -0.3020 
 20 H        2.7530    -1.8850    -1.6770 H     1 <1>   0.1500 
 21 H        0.2610    -2.4120     1.7500 H     1 <1>   0.1500 
 22 H        2.9850    -4.2050    -2.5040 H     1 <1>   0.0800 
 23 H        1.7040    -5.3070    -2.0310 H     1 <1>   0.0800 
 24 H        3.2110    -5.2750    -1.1310 H     1 <1>   0.0800 
 25 H       -1.7410    -6.4210     2.6550 H     1 <1>   0.0800 
 26 H       -0.0850    -6.9420     2.5490 H     1 <1>   0.0800 
 27 H       -1.6150    -3.5450     0.8600 H     1 <1>   0.0800 
 28 H       -2.6450    -4.8920     1.2620 H     1 <1>   0.0800 
 29 H       -2.0370    -5.9370    -0.9730 H     1 <1>   0.0800 
 30 H       -1.2020    -4.4350    -1.3630 H     1 <1>   0.0800 
 31 H        0.5670    -8.0130     0.1280 H     1 <1>   0.2700 
 32 H       -3.9380    -4.8500    -0.8490 H     1 <1>   0.4000 
 33 H       -3.2530    -9.6420    -0.4880 H     1 <1>   0.1500 
 34 H       -0.6820    -9.7840    -1.3100 H     1 <1>   0.1500 
@<TRIPOS>BOND
  1   1   2  1   
  2   2   3  2   
  3   2   4  1   
  4   3   5  1   
  5   3  20  1   
  6   4   6  2   
  7   4  21  1   
  8   5   6  1   
  9   5   7  1   
 10   6   8  1   
 11   7  22  1   
 12   7  23  1   
 13   7  24  1   
 14   8   9  2   
 15   8  10  am  
 16  10  11  1   
 17  10  12  1   
 18  11  13  1   
 19  11  25  1   
 20  11  26  1   
 21  12  14  1   
 22  12  27  1   
 23  12  28  1   
 24  13  15  2   
 25  13  16  1   
 26  14  17  1   
 27  14  29  1   
 28  14  30  1   
 29  15  18  1   
 30  16  19  1   
 31  16  31  1   
 32  17  32  1   
 33  18  19  2   
 34  18  33  1   
 35  19  34  1   
@<TRIPOS>SUBSTRUCTURE
  1 ****   8 GROUP 4 **** **** 0

# MOE 2024.06 (io_trps.svl 2023.06)
