@<TRIPOS>MOLECULE
NONAME
37 39 1 0 0 
SMALL
USER_CHARGES


@<TRIPOS>ATOM
  1 O       -0.5740    -0.3230    -0.1390 O.2   1 <1>  -0.5700 
  2 C       -0.3840    -1.5130    -0.1430 C.2   1 <1>   0.5690 
  3 N        0.5980    -2.0570     0.6190 N.am  1 <1>  -0.7300 
  4 C       -1.2620    -2.4230    -1.0140 C.3   1 <1>   0.2700 
  5 C        0.7830    -3.5210     0.8290 C.3   1 <1>   0.1400 
  6 N       -1.3170    -3.8640    -0.5330 N.pl3 1 <1>  -0.8380 
  7 C        0.0630    -4.3830    -0.2350 C.3   1 <1>   0.2090 
  8 C       -2.4580    -4.5180    -0.1910 C.ar  1 <1>   0.1000 
  9 C       -2.6550    -5.9230    -0.4020 C.ar  1 <1>   0.0000 
 10 C       -3.4900    -3.8180     0.4380 C.ar  1 <1>  -0.1500 
 11 C       -3.7700    -6.5680     0.1740 C.ar  1 <1>   0.3610 
 12 C       -1.8200    -6.7100    -1.2130 C.ar  1 <1>  -0.1500 
 13 C       -4.5950    -4.4580     0.9290 C.ar  1 <1>   0.2110 
 14 N       -4.7100    -5.7920     0.8160 N.ar  1 <1>  -0.1790 
 15 C       -3.9480    -7.9650     0.0610 C.ar  1 <1>  -0.1430 
 16 C       -2.0150    -8.0570    -1.3520 C.ar  1 <1>  -0.1500 
 17 C       -3.0690    -8.7030    -0.7060 C.ar  1 <1>  -0.1430 
 18 C       -5.1230    -8.6380     0.7850 C.3   1 <1>  -0.0970 
 19 C       -3.1880   -10.2110    -0.9120 C.3   1 <1>  -0.0970 
 20 H        1.1370    -1.4130     1.2040 H     1 <1>   0.3700 
 21 H       -0.8530    -2.4110    -2.0080 H     1 <1>   0.0800 
 22 H       -2.2470    -2.0000    -1.0760 H     1 <1>   0.0800 
 23 H        0.3970    -3.7790     1.8000 H     1 <1>   0.0800 
 24 H        1.8340    -3.7530     0.8190 H     1 <1>   0.0800 
 25 H        0.0180    -5.3940     0.1280 H     1 <1>   0.0800 
 26 H        0.6440    -4.3830    -1.1420 H     1 <1>   0.0800 
 27 H       -3.4030    -2.7560     0.5750 H     1 <1>   0.1500 
 28 H       -1.0160    -6.2410    -1.7510 H     1 <1>   0.1500 
 29 H       -5.3780    -3.9040     1.4220 H     1 <1>   0.1500 
 30 H       -5.5270    -6.2800     1.1860 H     1 <1>   0.4570 
 31 H       -1.3430    -8.6250    -1.9750 H     1 <1>   0.1500 
 32 H       -5.1780    -8.3160     1.8100 H     1 <1>   0.0800 
 33 H       -5.0270    -9.7070     0.8110 H     1 <1>   0.0800 
 34 H       -6.0490    -8.4100     0.2860 H     1 <1>   0.0800 
 35 H       -4.1710   -10.4660    -1.2650 H     1 <1>   0.0800 
 36 H       -2.9980   -10.7270     0.0120 H     1 <1>   0.0800 
 37 H       -2.4790   -10.5630    -1.6400 H     1 <1>   0.0800 
@<TRIPOS>BOND
  1   1   2  2   
  2   2   3  am  
  3   2   4  1   
  4   3   5  1   
  5   3  20  1   
  6   4   6  1   
  7   4  21  1   
  8   4  22  1   
  9   5   7  1   
 10   5  23  1   
 11   5  24  1   
 12   6   7  1   
 13   6   8  1   
 14   7  25  1   
 15   7  26  1   
 16   8   9  ar  
 17   8  10  ar  
 18   9  11  ar  
 19   9  12  ar  
 20  10  13  ar  
 21  10  27  1   
 22  11  14  ar  
 23  11  15  ar  
 24  12  16  ar  
 25  12  28  1   
 26  13  14  ar  
 27  13  29  1   
 28  14  30  1   
 29  15  17  ar  
 30  15  18  1   
 31  16  17  ar  
 32  16  31  1   
 33  17  19  1   
 34  18  32  1   
 35  18  33  1   
 36  18  34  1   
 37  19  35  1   
 38  19  36  1   
 39  19  37  1   
@<TRIPOS>SUBSTRUCTURE
  1 ****   8 GROUP 4 **** **** 0

# MOE 2024.06 (io_trps.svl 2023.06)
