@<TRIPOS>MOLECULE
NONAME
55 57 1 0 0 
SMALL
USER_CHARGES


@<TRIPOS>ATOM
  1 F       -1.2930    -0.5970     1.5050 F     1 <1>  -0.1900 
  2 C       -2.3110     0.1760     1.2390 C.ar  1 <1>   0.1900 
  3 C       -3.5780    -0.2420     1.5920 C.ar  1 <1>  -0.1500 
  4 C       -2.0830     1.3850     0.6180 C.ar  1 <1>  -0.1500 
  5 C       -4.6680     0.5770     1.3190 C.ar  1 <1>  -0.1440 
  6 C       -3.1660     2.2020     0.3520 C.ar  1 <1>  -0.1500 
  7 C       -4.4540     1.8130     0.7010 C.ar  1 <1>  -0.1430 
  8 C       -6.0600     0.0740     1.7150 C.3   1 <1>   0.0440 
  9 C       -5.5950     2.7740     0.3960 C.3   1 <1>  -0.0960 
 10 C       -6.3190    -1.3770     1.3250 C.2   1 <1>   0.5690 
 11 O       -6.5150    -2.1610     2.2230 O.2   1 <1>  -0.5700 
 12 N       -6.3380    -1.7660     0.0110 N.am  1 <1>  -0.6600 
 13 C       -6.5660    -3.2100    -0.3440 C.3   1 <1>   0.3640 
 14 C       -6.1420    -0.8210    -1.1360 C.3   1 <1>   0.1400 
 15 C       -5.2440    -3.9790    -0.5020 C.ar  1 <1>  -0.1430 
 16 C       -7.4560    -3.3800    -1.6170 C.3   1 <1>   0.2000 
 17 C       -6.3190    -1.5040    -2.4990 C.3   1 <1>   0.1200 
 18 C       -4.0060    -3.3670    -0.6720 C.ar  1 <1>  -0.1500 
 19 C       -5.2940    -5.3670    -0.4600 C.ar  1 <1>  -0.1500 
 20 O       -7.4830    -2.2640    -2.4790 O.3   1 <1>  -0.5600 
 21 C       -8.9120    -3.6800    -1.2430 C.3   1 <1>   0.1200 
 22 C       -2.8520    -4.1180    -0.8200 C.ar  1 <1>   0.0830 
 23 C       -4.1470    -6.1270    -0.6170 C.ar  1 <1>  -0.1500 
 24 O       -9.0180    -4.9640    -0.7140 O.3   1 <1>  -0.6800 
 25 O       -1.6850    -3.4430    -0.9490 O.3   1 <1>  -0.3630 
 26 C       -2.9240    -5.5140    -0.8180 C.ar  1 <1>   0.0830 
 27 C       -0.8070    -3.5310     0.1510 C.3   1 <1>   0.0400 
 28 O       -1.8460    -6.3160    -1.0040 O.3   1 <1>  -0.3630 
 29 C       -1.1720    -6.2000    -2.2380 C.3   1 <1>   0.0400 
 30 H       -3.6990    -1.1970     2.0750 H     1 <1>   0.1500 
 31 H       -1.0820     1.6760     0.3540 H     1 <1>   0.1500 
 32 H       -2.9950     3.1510    -0.1270 H     1 <1>   0.1500 
 33 H       -6.8410     0.6650     1.2830 H     1 <1>   0.0800 
 34 H       -6.1550     0.1590     2.7820 H     1 <1>   0.0800 
 35 H       -5.2230     3.7130     0.0270 H     1 <1>   0.0800 
 36 H       -6.1600     2.9730     1.2900 H     1 <1>   0.0800 
 37 H       -6.2470     2.3550    -0.3490 H     1 <1>   0.0800 
 38 H       -7.0830    -3.6830     0.4730 H     1 <1>   0.0800 
 39 H       -6.8590    -0.0230    -1.0610 H     1 <1>   0.0800 
 40 H       -5.1580    -0.3910    -1.0900 H     1 <1>   0.0800 
 41 H       -7.0860    -4.2030    -2.2020 H     1 <1>   0.0800 
 42 H       -5.4840    -2.1420    -2.7330 H     1 <1>   0.0800 
 43 H       -6.4150    -0.7660    -3.2760 H     1 <1>   0.0800 
 44 H       -3.9040    -2.3000    -0.6810 H     1 <1>   0.1500 
 45 H       -6.2340    -5.8690    -0.3010 H     1 <1>   0.1500 
 46 H       -9.5480    -3.6220    -2.1090 H     1 <1>   0.0800 
 47 H       -9.2530    -2.9830    -0.4960 H     1 <1>   0.0800 
 48 H       -4.1970    -7.2010    -0.5880 H     1 <1>   0.1500 
 49 H       -9.0430    -5.6310    -1.4290 H     1 <1>   0.4000 
 50 H        0.0160    -2.8620    -0.0200 H     1 <1>   0.0800 
 51 H       -0.4510    -4.5410     0.2410 H     1 <1>   0.0800 
 52 H       -1.3370    -3.2420     1.0420 H     1 <1>   0.0800 
 53 H       -0.4700    -7.0100    -2.3150 H     1 <1>   0.0800 
 54 H       -0.6500    -5.2610    -2.2730 H     1 <1>   0.0800 
 55 H       -1.8920    -6.2580    -3.0350 H     1 <1>   0.0800 
@<TRIPOS>BOND
  1   1   2  1   
  2   2   3  ar  
  3   2   4  ar  
  4   3   5  ar  
  5   3  30  1   
  6   4   6  ar  
  7   4  31  1   
  8   5   7  ar  
  9   5   8  1   
 10   6   7  ar  
 11   6  32  1   
 12   7   9  1   
 13   8  10  1   
 14   8  33  1   
 15   8  34  1   
 16   9  35  1   
 17   9  36  1   
 18   9  37  1   
 19  10  11  2   
 20  10  12  am  
 21  12  13  1   
 22  12  14  1   
 23  13  15  1   
 24  13  16  1   
 25  13  38  1   
 26  14  17  1   
 27  14  39  1   
 28  14  40  1   
 29  15  18  ar  
 30  15  19  ar  
 31  16  20  1   
 32  16  21  1   
 33  16  41  1   
 34  17  20  1   
 35  17  42  1   
 36  17  43  1   
 37  18  22  ar  
 38  18  44  1   
 39  19  23  ar  
 40  19  45  1   
 41  21  24  1   
 42  21  46  1   
 43  21  47  1   
 44  22  25  1   
 45  22  26  ar  
 46  23  26  ar  
 47  23  48  1   
 48  24  49  1   
 49  25  27  1   
 50  26  28  1   
 51  27  50  1   
 52  27  51  1   
 53  27  52  1   
 54  28  29  1   
 55  29  53  1   
 56  29  54  1   
 57  29  55  1   
@<TRIPOS>SUBSTRUCTURE
  1 ****  18 GROUP 4 **** **** 0

# MOE 2024.06 (io_trps.svl 2023.06)
