@<TRIPOS>MOLECULE
NONAME
53 56 1 0 0 
SMALL
USER_CHARGES


@<TRIPOS>ATOM
  1 O        0.0950     1.9650    -1.8380 O.2   1 <1>  -0.5700 
  2 C       -0.1310     3.0710    -1.4050 C.2   1 <1>   0.5690 
  3 N       -0.9260     3.3030    -0.3140 N.am  1 <1>  -0.5090 
  4 C        0.4750     4.2630    -2.1410 C.3   1 <1>   0.1810 
  5 C       -1.3840     4.6850     0.0400 C.3   1 <1>   0.3640 
  6 C       -1.4920     2.2070     0.5100 C.3   1 <1>   0.0490 
  7 O        0.5410     5.4110    -1.3330 O.3   1 <1>  -0.5600 
  8 C       -2.9040     4.7590    -0.1190 C.ar  1 <1>  -0.1440 
  9 C       -0.7060     5.8120    -0.7880 C.3   1 <1>   0.2610 
 10 C       -1.2050     2.1900     1.9790 C.3   1 <1>  -0.2000 
 11 C       -0.5780     1.1700     1.0830 C.3   1 <1>  -0.2000 
 12 C       -3.6790     5.3250     0.8840 C.ar  1 <1>   0.1600 
 13 C       -3.5420     4.2710    -1.2470 C.ar  1 <1>  -0.1500 
 14 C       -0.5270     7.0690     0.0750 C.2   1 <1>   0.5690 
 15 N       -4.9980     5.4310     0.8580 N.ar  1 <1>  -0.6200 
 16 C       -4.9150     4.3790    -1.2920 C.ar  1 <1>  -0.1500 
 17 O       -1.4060     7.4050     0.8330 O.2   1 <1>  -0.5700 
 18 N        0.6170     7.7910    -0.0220 N.am  1 <1>  -0.7300 
 19 C       -5.5850     4.9580    -0.2280 C.ar  1 <1>   0.1600 
 20 C        0.9360     8.9900     0.7640 C.3   1 <1>   0.3210 
 21 C        2.4380     9.0520     0.9350 C.2   1 <1>  -0.1810 
 22 C        3.3670     9.8210     0.3190 C.2   1 <1>  -0.3320 
 23 C        3.1610     8.2660     1.8220 C.2   1 <1>   0.1390 
 24 N        4.5660     9.4790     0.8510 N.pl3 1 <1>   0.3140 
 25 C        3.1790    10.8770    -0.7600 C.3   1 <1>  -0.0600 
 26 N        4.4320     8.5140     1.7780 N.2   1 <1>  -0.7070 
 27 C        5.8980    10.0310     0.5200 C.3   1 <1>   0.0960 
 28 C        6.2130    11.2690     1.3690 C.3   1 <1>  -0.2400 
 29 H       -0.1070     4.4870    -3.0160 H     1 <1>   0.0800 
 30 H        1.4770     4.0180    -2.4430 H     1 <1>   0.0800 
 31 H       -1.1390     4.8440     1.0750 H     1 <1>   0.0800 
 32 H       -2.4650     1.8910     0.1690 H     1 <1>   0.1000 
 33 H       -1.3420     6.0770    -1.6120 H     1 <1>   0.0800 
 34 H       -0.5610     2.9330     2.4140 H     1 <1>   0.1000 
 35 H       -1.9770     1.8640     2.6530 H     1 <1>   0.1000 
 36 H       -0.9260     0.1540     1.1330 H     1 <1>   0.1000 
 37 H        0.4720     1.2360     0.8590 H     1 <1>   0.1000 
 38 H       -3.1920     5.7170     1.7620 H     1 <1>   0.1500 
 39 H       -3.0020     3.8150    -2.0590 H     1 <1>   0.1500 
 40 H       -5.4660     4.0150    -2.1400 H     1 <1>   0.1500 
 41 H        1.3820     7.4340    -0.6030 H     1 <1>   0.3700 
 42 H       -6.6580     5.0350    -0.2720 H     1 <1>   0.1500 
 43 H        0.5800     9.8620     0.2460 H     1 <1>   0.0800 
 44 H        0.4550     8.9430     1.7270 H     1 <1>   0.0800 
 45 H        2.7260     7.5290     2.4770 H     1 <1>   0.1500 
 46 H        2.1450    10.9600    -1.0380 H     1 <1>   0.0800 
 47 H        3.7420    10.6140    -1.6380 H     1 <1>   0.0800 
 48 H        3.5130    11.8350    -0.4040 H     1 <1>   0.0800 
 49 H        6.6290     9.2660     0.7080 H     1 <1>   0.0800 
 50 H        5.9230    10.2750    -0.5250 H     1 <1>   0.0800 
 51 H        6.1970    11.0090     2.4140 H     1 <1>   0.0800 
 52 H        5.4920    12.0450     1.1870 H     1 <1>   0.0800 
 53 H        7.1910    11.6420     1.1250 H     1 <1>   0.0800 
@<TRIPOS>BOND
  1   1   2  2   
  2   2   3  am  
  3   2   4  1   
  4   3   5  1   
  5   3   6  1   
  6   4   7  1   
  7   4  29  1   
  8   4  30  1   
  9   5   8  1   
 10   5   9  1   
 11   5  31  1   
 12   6  10  1   
 13   6  11  1   
 14   6  32  1   
 15   7   9  1   
 16   8  12  ar  
 17   8  13  ar  
 18   9  14  1   
 19   9  33  1   
 20  10  11  1   
 21  10  34  1   
 22  10  35  1   
 23  11  36  1   
 24  11  37  1   
 25  12  15  ar  
 26  12  38  1   
 27  13  16  ar  
 28  13  39  1   
 29  14  17  2   
 30  14  18  am  
 31  15  19  ar  
 32  16  19  ar  
 33  16  40  1   
 34  18  20  1   
 35  18  41  1   
 36  19  42  1   
 37  20  21  1   
 38  20  43  1   
 39  20  44  1   
 40  21  22  2   
 41  21  23  1   
 42  22  24  1   
 43  22  25  1   
 44  23  26  2   
 45  23  45  1   
 46  24  26  1   
 47  24  27  1   
 48  25  46  1   
 49  25  47  1   
 50  25  48  1   
 51  27  28  1   
 52  27  49  1   
 53  27  50  1   
 54  28  51  1   
 55  28  52  1   
 56  28  53  1   
@<TRIPOS>SUBSTRUCTURE
  1 ****  14 GROUP 4 **** **** 0

# MOE 2024.06 (io_trps.svl 2023.06)
