@<TRIPOS>MOLECULE
NONAME
62 66 1 0 0 
SMALL
USER_CHARGES


@<TRIPOS>ATOM
  1 O        2.1660     0.9320     2.4810 O.2   1 <1>  -0.5700 
  2 C        2.2570     1.0250     1.2680 C.2   1 <1>   0.5440 
  3 N        1.6410     2.0920     0.6380 N.am  1 <1>  -0.6600 
  4 C        3.0560     0.0480     0.5690 C.ar  1 <1>   0.0860 
  5 C        0.8340     3.0940     1.3910 C.3   1 <1>   0.1400 
  6 C        1.7300     2.3510    -0.8260 C.3   1 <1>   0.1400 
  7 C        2.5230    -0.8880    -0.3450 C.ar  1 <1>   0.4100 
  8 C        4.4240     0.0260     0.8000 C.ar  1 <1>  -0.1500 
  9 C       -0.5780     3.1760     0.8010 C.3   1 <1>  -0.1600 
 10 C        0.3230     2.4370    -1.4290 C.3   1 <1>  -0.1600 
 11 N        3.2850    -1.7460    -1.0290 N.ar  1 <1>  -0.6200 
 12 N        1.1640    -0.9870    -0.6100 N.pl3 1 <1>  -0.8380 
 13 C        5.1950    -0.8780     0.1090 C.ar  1 <1>  -0.1500 
 14 C       -0.5450     3.4730    -0.7040 C.3   1 <1>  -0.1600 
 15 C        4.5790    -1.7290    -0.7890 C.ar  1 <1>   0.1600 
 16 C        0.1630    -1.1330     0.4860 C.3   1 <1>   0.2090 
 17 C        0.6550    -1.3650    -1.9590 C.3   1 <1>   0.2090 
 18 C       -0.3740    -2.5640     0.5140 C.3   1 <1>  -0.1600 
 19 C        0.1410    -2.8040    -1.9360 C.3   1 <1>  -0.1600 
 20 C       -0.9280    -3.0070    -0.8490 C.3   1 <1>   0.4240 
 21 O       -1.9670    -2.0850    -1.1090 O.3   1 <1>  -0.5600 
 22 C       -1.4670    -4.4690    -0.8040 C.ar  1 <1>  -0.1430 
 23 C       -2.9330    -2.4420    -2.0410 C.3   1 <1>   0.1200 
 24 C       -0.6430    -5.5600    -0.4950 C.ar  1 <1>   0.0830 
 25 C       -2.8100    -4.7230    -1.0840 C.ar  1 <1>  -0.1430 
 26 C       -3.7420    -3.5890    -1.4580 C.3   1 <1>  -0.0170 
 27 O        0.6740    -5.3400    -0.2480 O.3   1 <1>  -0.3620 
 28 C       -1.1710    -6.8500    -0.4500 C.ar  1 <1>  -0.1500 
 29 C       -3.3230    -6.0080    -1.0360 C.ar  1 <1>  -0.1500 
 30 C        1.5890    -6.3710     0.0470 C.3   1 <1>   0.0400 
 31 C       -2.5060    -7.0720    -0.7170 C.ar  1 <1>  -0.1500 
 32 H        1.3170     4.0530     1.3190 H     1 <1>   0.0800 
 33 H        0.7690     2.8330     2.4330 H     1 <1>   0.0800 
 34 H        2.2830     1.5760    -1.3260 H     1 <1>   0.0800 
 35 H        2.2480     3.2810    -0.9820 H     1 <1>   0.0800 
 36 H        4.8610     0.7090     1.5090 H     1 <1>   0.1500 
 37 H       -1.1320     3.9430     1.3110 H     1 <1>   0.0800 
 38 H       -1.0770     2.2390     0.9760 H     1 <1>   0.0800 
 39 H       -0.1410     1.4700    -1.3570 H     1 <1>   0.0800 
 40 H        0.3970     2.6890    -2.4710 H     1 <1>   0.0800 
 41 H        6.2580    -0.9260     0.2590 H     1 <1>   0.1500 
 42 H       -0.1410     4.4580    -0.8660 H     1 <1>   0.0800 
 43 H       -1.5450     3.4520    -1.1010 H     1 <1>   0.0800 
 44 H        5.1840    -2.4320    -1.3340 H     1 <1>   0.1500 
 45 H       -0.6400    -0.4340     0.3260 H     1 <1>   0.0800 
 46 H        0.6080    -0.9190     1.4410 H     1 <1>   0.0800 
 47 H        1.4360    -1.2670    -2.6930 H     1 <1>   0.0800 
 48 H       -0.1420    -0.6980    -2.2340 H     1 <1>   0.0800 
 49 H       -1.1480    -2.6480     1.2530 H     1 <1>   0.0800 
 50 H        0.4330    -3.1980     0.8220 H     1 <1>   0.0800 
 51 H        0.9850    -3.4400    -1.7520 H     1 <1>   0.0800 
 52 H       -0.2490    -3.0730    -2.8970 H     1 <1>   0.0800 
 53 H       -2.4560    -2.7270    -2.9620 H     1 <1>   0.0800 
 54 H       -3.5590    -1.5850    -2.2130 H     1 <1>   0.0800 
 55 H       -4.4610    -3.9190    -2.1860 H     1 <1>   0.0800 
 56 H       -4.2710    -3.2500    -0.5850 H     1 <1>   0.0800 
 57 H       -0.5590    -7.6970    -0.2100 H     1 <1>   0.1500 
 58 H       -4.3630    -6.1860    -1.2460 H     1 <1>   0.1500 
 59 H        2.5570    -5.9240     0.1860 H     1 <1>   0.0800 
 60 H        1.6190    -7.0580    -0.7800 H     1 <1>   0.0800 
 61 H        1.2800    -6.8630     0.9520 H     1 <1>   0.0800 
 62 H       -2.9070    -8.0690    -0.6790 H     1 <1>   0.1500 
@<TRIPOS>BOND
  1   1   2  2   
  2   2   3  am  
  3   2   4  1   
  4   3   5  1   
  5   3   6  1   
  6   4   7  ar  
  7   4   8  ar  
  8   5   9  1   
  9   5  32  1   
 10   5  33  1   
 11   6  10  1   
 12   6  34  1   
 13   6  35  1   
 14   7  11  ar  
 15   7  12  1   
 16   8  13  ar  
 17   8  36  1   
 18   9  14  1   
 19   9  37  1   
 20   9  38  1   
 21  10  14  1   
 22  10  39  1   
 23  10  40  1   
 24  11  15  ar  
 25  12  16  1   
 26  12  17  1   
 27  13  15  ar  
 28  13  41  1   
 29  14  42  1   
 30  14  43  1   
 31  15  44  1   
 32  16  18  1   
 33  16  45  1   
 34  16  46  1   
 35  17  19  1   
 36  17  47  1   
 37  17  48  1   
 38  18  20  1   
 39  18  49  1   
 40  18  50  1   
 41  19  20  1   
 42  19  51  1   
 43  19  52  1   
 44  20  21  1   
 45  20  22  1   
 46  21  23  1   
 47  22  24  ar  
 48  22  25  ar  
 49  23  26  1   
 50  23  53  1   
 51  23  54  1   
 52  24  27  1   
 53  24  28  ar  
 54  25  26  1   
 55  25  29  ar  
 56  26  55  1   
 57  26  56  1   
 58  27  30  1   
 59  28  31  ar  
 60  28  57  1   
 61  29  31  ar  
 62  29  58  1   
 63  30  59  1   
 64  30  60  1   
 65  30  61  1   
 66  31  62  1   
@<TRIPOS>SUBSTRUCTURE
  1 ****  16 GROUP 4 **** **** 0

# MOE 2024.06 (io_trps.svl 2023.06)
