@<TRIPOS>MOLECULE
NONAME
48 49 1 0 0 
SMALL
USER_CHARGES


@<TRIPOS>ATOM
  1 O        3.5280    -1.2250     1.1520 O.2   1 <1>  -0.5700 
  2 C        2.5680    -1.4920     0.4540 C.2   1 <1>   0.5440 
  3 N        1.7900    -0.4470     0.0350 N.am  1 <1>  -0.7300 
  4 C        2.2860    -2.8560     0.0420 C.ar  1 <1>   0.0860 
  5 C        1.7310     0.9200     0.6410 C.3   1 <1>   0.1400 
  6 C        0.9890    -3.2780    -0.2530 C.ar  1 <1>  -0.1500 
  7 C        3.3120    -3.7950    -0.0790 C.ar  1 <1>  -0.1500 
  8 C        2.8550     1.8540     0.1310 C.3   1 <1>   0.4230 
  9 C        0.7350    -4.5770    -0.6630 C.ar  1 <1>   0.0830 
 10 C        3.0650    -5.0900    -0.5000 C.ar  1 <1>  -0.1500 
 11 N        4.1770     1.3490     0.5540 N.4   1 <1>  -0.9060 
 12 C        2.6610     3.2910     0.6330 C.3   1 <1>  -0.1600 
 13 O       -0.5160    -4.9910    -0.9560 O.3   1 <1>  -0.3620 
 14 C        1.7740    -5.4810    -0.8000 C.ar  1 <1>  -0.1500 
 15 C        5.2650     1.7250    -0.3650 C.3   1 <1>   0.3430 
 16 C        3.7340     4.2960     0.1710 C.3   1 <1>  -0.1600 
 17 C       -1.5200    -4.9080     0.0330 C.3   1 <1>   0.2000 
 18 C        5.9740     2.9890     0.1290 C.3   1 <1>  -0.1600 
 19 C        5.1070     4.0610     0.8210 C.3   1 <1>  -0.1600 
 20 C       -1.2920    -6.0150     1.0630 C.3   1 <1>  -0.2400 
 21 C       -2.8630    -5.0720    -0.6730 C.3   1 <1>  -0.2400 
 22 H        1.0290    -0.6690    -0.6160 H     1 <1>   0.3700 
 23 H        1.7880     0.8380     1.7140 H     1 <1>   0.0800 
 24 H        0.7760     1.3560     0.4000 H     1 <1>   0.0800 
 25 H        0.1670    -2.5950    -0.1660 H     1 <1>   0.1500 
 26 H        4.3220    -3.5050     0.1570 H     1 <1>   0.1500 
 27 H        2.8060     1.8610    -0.9460 H     1 <1>   0.0800 
 28 H        3.8740    -5.7940    -0.5940 H     1 <1>   0.1500 
 29 H        4.0960     0.3140     0.6190 H     1 <1>   0.4500 
 30 H        4.3920     1.6630     1.5030 H     1 <1>   0.4500 
 31 H        2.5990     3.2970     1.7070 H     1 <1>   0.0800 
 32 H        1.7110     3.6410     0.2670 H     1 <1>   0.0800 
 33 H        1.5640    -6.4820    -1.1330 H     1 <1>   0.1500 
 34 H        4.8630     1.8960    -1.3510 H     1 <1>   0.0800 
 35 H        5.9830     0.9230    -0.4330 H     1 <1>   0.0800 
 36 H        3.4020     5.2800     0.4620 H     1 <1>   0.0800 
 37 H        3.8200     4.3030    -0.9030 H     1 <1>   0.0800 
 38 H       -1.4750    -3.9410     0.5030 H     1 <1>   0.0800 
 39 H        6.4570     3.4370    -0.7220 H     1 <1>   0.0800 
 40 H        6.7620     2.7000     0.8030 H     1 <1>   0.0800 
 41 H        4.9760     3.8150     1.8610 H     1 <1>   0.0800 
 42 H        5.6570     4.9880     0.7980 H     1 <1>   0.0800 
 43 H       -1.2940    -6.9770     0.5840 H     1 <1>   0.0800 
 44 H       -2.0730    -5.9970     1.8010 H     1 <1>   0.0800 
 45 H       -0.3530    -5.8700     1.5670 H     1 <1>   0.0800 
 46 H       -2.9130    -6.0270    -1.1640 H     1 <1>   0.0800 
 47 H       -2.9940    -4.2920    -1.4000 H     1 <1>   0.0800 
 48 H       -3.6640    -5.0100     0.0410 H     1 <1>   0.0800 
@<TRIPOS>BOND
  1   1   2  2   
  2   2   3  am  
  3   2   4  1   
  4   3   5  1   
  5   3  22  1   
  6   4   6  ar  
  7   4   7  ar  
  8   5   8  1   
  9   5  23  1   
 10   5  24  1   
 11   6   9  ar  
 12   6  25  1   
 13   7  10  ar  
 14   7  26  1   
 15   8  11  1   
 16   8  12  1   
 17   8  27  1   
 18   9  13  1   
 19   9  14  ar  
 20  10  14  ar  
 21  10  28  1   
 22  11  15  1   
 23  11  29  1   
 24  11  30  1   
 25  12  16  1   
 26  12  31  1   
 27  12  32  1   
 28  13  17  1   
 29  14  33  1   
 30  15  18  1   
 31  15  34  1   
 32  15  35  1   
 33  16  19  1   
 34  16  36  1   
 35  16  37  1   
 36  17  20  1   
 37  17  21  1   
 38  17  38  1   
 39  18  19  1   
 40  18  39  1   
 41  18  40  1   
 42  19  41  1   
 43  19  42  1   
 44  20  43  1   
 45  20  44  1   
 46  20  45  1   
 47  21  46  1   
 48  21  47  1   
 49  21  48  1   
@<TRIPOS>SUBSTRUCTURE
  1 ****   2 GROUP 4 **** **** 0

# MOE 2024.06 (io_trps.svl 2023.06)
