@<TRIPOS>MOLECULE
NONAME
56 58 1 0 0 
SMALL
USER_CHARGES


@<TRIPOS>ATOM
  1 F       -1.6810     0.5860    -3.1380 F     1 <1>  -0.1900 
  2 C       -2.5360    -0.3450    -2.8060 C.ar  1 <1>   0.1900 
  3 C       -3.8860    -0.0970    -2.9640 C.ar  1 <1>  -0.1500 
  4 C       -2.0560    -1.5430    -2.3090 C.ar  1 <1>  -0.1500 
  5 C       -4.7840    -1.0900    -2.6100 C.ar  1 <1>  -0.1500 
  6 C       -2.9620    -2.5300    -1.9580 C.ar  1 <1>  -0.1500 
  7 C       -4.3320    -2.3040    -2.1080 C.ar  1 <1>   0.0820 
  8 O       -5.2840    -3.2160    -1.7870 O.3   1 <1>  -0.3630 
  9 C       -4.9450    -4.4770    -1.2670 C.3   1 <1>   0.1200 
 10 C       -6.2510    -5.2290    -1.0160 C.3   1 <1>  -0.1600 
 11 C       -5.9710    -6.6120    -0.4340 C.3   1 <1>   0.3430 
 12 N       -7.2360    -7.3790    -0.2880 N.4   1 <1>  -0.9590 
 13 C       -6.9070    -8.8210    -0.0590 C.3   1 <1>   0.3430 
 14 C       -8.0940    -6.8600     0.8210 C.3   1 <1>   0.3430 
 15 C       -8.1620    -9.7240    -0.0190 C.3   1 <1>   0.0000 
 16 C       -9.3900    -7.6640     0.9090 C.3   1 <1>  -0.1600 
 17 C       -9.1050    -9.1620     1.0780 C.3   1 <1>   0.2000 
 18 C       -8.8860    -9.6880    -1.3900 C.3   1 <1>   0.1200 
 19 C       -7.7610   -11.2060     0.2780 C.3   1 <1>  -0.0170 
 20 O       -8.5030    -9.2830     2.3180 O.3   1 <1>  -0.6800 
 21 O       -7.9580    -9.8240    -2.4130 O.3   1 <1>  -0.6800 
 22 C       -6.2970   -11.3900     0.6640 C.ar  1 <1>  -0.1440 
 23 C       -5.8870   -11.3160     1.9870 C.ar  1 <1>  -0.1500 
 24 C       -5.3540   -11.6230    -0.3260 C.ar  1 <1>  -0.1500 
 25 C       -4.5500   -11.4620     2.3140 C.ar  1 <1>  -0.1500 
 26 C       -4.0170   -11.7700     0.0010 C.ar  1 <1>  -0.1500 
 27 C       -3.6140   -11.6880     1.3210 C.ar  1 <1>  -0.1500 
 28 H       -4.2200     0.8470    -3.3540 H     1 <1>   0.1500 
 29 H       -0.9970    -1.6930    -2.2030 H     1 <1>   0.1500 
 30 H       -5.8410    -0.9270    -2.7220 H     1 <1>   0.1500 
 31 H       -2.5820    -3.4570    -1.5740 H     1 <1>   0.1500 
 32 H       -4.3330    -4.9870    -1.9910 H     1 <1>   0.0800 
 33 H       -4.3990    -4.3270    -0.3500 H     1 <1>   0.0800 
 34 H       -6.8450    -4.6500    -0.3330 H     1 <1>   0.0800 
 35 H       -6.7710    -5.3290    -1.9530 H     1 <1>   0.0800 
 36 H       -5.4830    -6.5210     0.5240 H     1 <1>   0.0800 
 37 H       -5.3090    -7.1420    -1.1000 H     1 <1>   0.0800 
 38 H       -7.7430    -7.3310    -1.1810 H     1 <1>   0.4500 
 39 H       -6.2540    -9.1740    -0.8410 H     1 <1>   0.0800 
 40 H       -6.3830    -8.9200     0.8780 H     1 <1>   0.0800 
 41 H       -7.5660    -6.9490     1.7570 H     1 <1>   0.0800 
 42 H       -8.3280    -5.8200     0.6610 H     1 <1>   0.0800 
 43 H       -9.9940    -7.4760     0.0410 H     1 <1>   0.0800 
 44 H       -9.9600    -7.3200     1.7550 H     1 <1>   0.0800 
 45 H      -10.0330    -9.7120     1.1080 H     1 <1>   0.0800 
 46 H       -9.4040    -8.7620    -1.5610 H     1 <1>   0.0800 
 47 H       -9.6000   -10.4920    -1.4680 H     1 <1>   0.0800 
 48 H       -8.3830   -11.6240     1.0500 H     1 <1>   0.0800 
 49 H       -7.9350   -11.8200    -0.5890 H     1 <1>   0.0800 
 50 H       -8.6260   -10.1830     2.6850 H     1 <1>   0.4000 
 51 H       -8.3970   -10.0400    -3.2650 H     1 <1>   0.4000 
 52 H       -6.5970   -11.1470     2.7770 H     1 <1>   0.1500 
 53 H       -5.6530   -11.6940    -1.3580 H     1 <1>   0.1500 
 54 H       -4.2370   -11.4060     3.3430 H     1 <1>   0.1500 
 55 H       -3.2900   -11.9550    -0.7720 H     1 <1>   0.1500 
 56 H       -2.5750   -11.8060     1.5770 H     1 <1>   0.1500 
@<TRIPOS>BOND
  1   1   2  1   
  2   2   3  ar  
  3   2   4  ar  
  4   3   5  ar  
  5   3  28  1   
  6   4   6  ar  
  7   4  29  1   
  8   5   7  ar  
  9   5  30  1   
 10   6   7  ar  
 11   6  31  1   
 12   7   8  1   
 13   8   9  1   
 14   9  10  1   
 15   9  32  1   
 16   9  33  1   
 17  10  11  1   
 18  10  34  1   
 19  10  35  1   
 20  11  12  1   
 21  11  36  1   
 22  11  37  1   
 23  12  13  1   
 24  12  14  1   
 25  12  38  1   
 26  13  15  1   
 27  13  39  1   
 28  13  40  1   
 29  14  16  1   
 30  14  41  1   
 31  14  42  1   
 32  15  17  1   
 33  15  18  1   
 34  15  19  1   
 35  16  17  1   
 36  16  43  1   
 37  16  44  1   
 38  17  20  1   
 39  17  45  1   
 40  18  21  1   
 41  18  46  1   
 42  18  47  1   
 43  19  22  1   
 44  19  48  1   
 45  19  49  1   
 46  20  50  1   
 47  21  51  1   
 48  22  23  ar  
 49  22  24  ar  
 50  23  25  ar  
 51  23  52  1   
 52  24  26  ar  
 53  24  53  1   
 54  25  27  ar  
 55  25  54  1   
 56  26  27  ar  
 57  26  55  1   
 58  27  56  1   
@<TRIPOS>SUBSTRUCTURE
  1 ****  11 GROUP 4 **** **** 0

# MOE 2024.06 (io_trps.svl 2023.06)
