@<TRIPOS>MOLECULE
NONAME
47 49 1 0 0 
SMALL
USER_CHARGES


@<TRIPOS>ATOM
  1 O        0.6600    -1.4700    -3.2390 O.2   1 <1>  -0.5700 
  2 C        1.6580    -1.9930    -2.8160 C.2   1 <1>   0.5690 
  3 N        2.6750    -2.3400    -3.6320 N.am  1 <1>  -0.7300 
  4 C        1.8090    -2.2980    -1.3420 C.3   1 <1>  -0.0990 
  5 C        3.9090    -2.9970    -3.1540 C.3   1 <1>   0.1400 
  6 C        3.2260    -1.9350    -0.8550 C.3   1 <1>  -0.0800 
  7 C        4.3590    -2.3600    -1.8240 C.3   1 <1>  -0.0800 
  8 C        3.5670    -2.5450     0.5120 C.3   1 <1>  -0.1600 
  9 C        5.2840    -3.2730    -1.0110 C.3   1 <1>  -0.1600 
 10 C        5.0650    -2.8320     0.4320 C.3   1 <1>   0.2200 
 11 N        5.5680    -3.8310     1.4240 N.am  1 <1>  -0.6600 
 12 C        6.7320    -3.6580     2.1450 C.2   1 <1>   0.5690 
 13 C        4.7780    -5.0910     1.6010 C.3   1 <1>   0.0600 
 14 O        7.1010    -4.4850     2.9470 O.2   1 <1>  -0.5700 
 15 C        7.6150    -2.4220     1.9960 C.3   1 <1>   0.0440 
 16 C        8.2410    -2.2890     0.6110 C.ar  1 <1>  -0.1440 
 17 C        8.0700    -1.1330    -0.1360 C.ar  1 <1>  -0.1500 
 18 C        8.9850    -3.3320     0.0820 C.ar  1 <1>  -0.1500 
 19 C        8.6150    -1.0200    -1.4050 C.ar  1 <1>   0.0820 
 20 C        9.5420    -3.2250    -1.1810 C.ar  1 <1>  -0.1500 
 21 O        8.3780     0.1390    -2.0670 O.3   1 <1>  -0.3630 
 22 C        9.3580    -2.0740    -1.9270 C.ar  1 <1>  -0.1500 
 23 C        8.9680     0.3980    -3.3220 C.3   1 <1>   0.0400 
 24 H        2.5610    -2.1630    -4.6330 H     1 <1>   0.3700 
 25 H        1.0720    -1.7490    -0.7840 H     1 <1>   0.0800 
 26 H        1.6210    -3.3470    -1.2100 H     1 <1>   0.0800 
 27 H        3.7010    -4.0440    -3.0150 H     1 <1>   0.0800 
 28 H        4.6880    -2.8980    -3.8900 H     1 <1>   0.0800 
 29 H        3.2720    -0.8610    -0.7690 H     1 <1>   0.0800 
 30 H        4.9190    -1.4720    -2.0690 H     1 <1>   0.0800 
 31 H        3.0090    -3.4530     0.6450 H     1 <1>   0.0800 
 32 H        3.3410    -1.8660     1.3150 H     1 <1>   0.0800 
 33 H        6.3100    -3.1610    -1.3100 H     1 <1>   0.0800 
 34 H        4.9880    -4.2990    -1.1310 H     1 <1>   0.0800 
 35 H        5.5640    -1.8910     0.5680 H     1 <1>   0.0800 
 36 H        4.3690    -5.4200     0.6640 H     1 <1>   0.0800 
 37 H        3.9770    -4.9180     2.2970 H     1 <1>   0.0800 
 38 H        5.4000    -5.8800     1.9860 H     1 <1>   0.0800 
 39 H        7.0340    -1.5530     2.2390 H     1 <1>   0.0800 
 40 H        8.4080    -2.4810     2.7190 H     1 <1>   0.0800 
 41 H        7.5080    -0.3030     0.2520 H     1 <1>   0.1500 
 42 H        9.1320    -4.2340     0.6530 H     1 <1>   0.1500 
 43 H       10.1190    -4.0410    -1.5800 H     1 <1>   0.1500 
 44 H        9.7990    -2.0180    -2.9040 H     1 <1>   0.1500 
 45 H        8.6710     1.3830    -3.6340 H     1 <1>   0.0800 
 46 H        8.6190    -0.3310    -4.0300 H     1 <1>   0.0800 
 47 H       10.0380     0.3550    -3.2190 H     1 <1>   0.0800 
@<TRIPOS>BOND
  1   1   2  2   
  2   2   3  am  
  3   2   4  1   
  4   3   5  1   
  5   3  24  1   
  6   4   6  1   
  7   4  25  1   
  8   4  26  1   
  9   5   7  1   
 10   5  27  1   
 11   5  28  1   
 12   6   7  1   
 13   6   8  1   
 14   6  29  1   
 15   7   9  1   
 16   7  30  1   
 17   8  10  1   
 18   8  31  1   
 19   8  32  1   
 20   9  10  1   
 21   9  33  1   
 22   9  34  1   
 23  10  11  1   
 24  10  35  1   
 25  11  12  am  
 26  11  13  1   
 27  12  14  2   
 28  12  15  1   
 29  13  36  1   
 30  13  37  1   
 31  13  38  1   
 32  15  16  1   
 33  15  39  1   
 34  15  40  1   
 35  16  17  ar  
 36  16  18  ar  
 37  17  19  ar  
 38  17  41  1   
 39  18  20  ar  
 40  18  42  1   
 41  19  21  1   
 42  19  22  ar  
 43  20  22  ar  
 44  20  43  1   
 45  21  23  1   
 46  22  44  1   
 47  23  45  1   
 48  23  46  1   
 49  23  47  1   
@<TRIPOS>SUBSTRUCTURE
  1 ****   9 GROUP 4 **** **** 0

# MOE 2024.06 (io_trps.svl 2023.06)
