@<TRIPOS>MOLECULE
NONAME
50 53 1 0 0 
SMALL
USER_CHARGES


@<TRIPOS>ATOM
  1 O       -0.5130     0.0510     0.6230 O.2   1 <1>  -0.5700 
  2 C       -1.5610     0.6280     0.4000 C.2   1 <1>   0.5440 
  3 N       -2.6630    -0.1200     0.0550 N.am  1 <1>  -0.6600 
  4 C       -1.6160     2.0750     0.4800 C.ar  1 <1>   0.0860 
  5 C       -3.8070     0.3940    -0.7410 C.3   1 <1>   0.1400 
  6 C       -2.6130    -1.6020    -0.0040 C.3   1 <1>   0.1400 
  7 C       -2.6440     2.7610     1.1090 C.ar  1 <1>  -0.1500 
  8 C       -0.6280     2.8760    -0.0680 C.ar  1 <1>  -0.1500 
  9 C       -4.3270    -0.8190    -1.5100 C.3   1 <1>   0.2000 
 10 C       -3.9150    -2.0340    -0.6810 C.3   1 <1>  -0.0800 
 11 C       -2.6510     4.1430     1.1350 C.ar  1 <1>   0.1660 
 12 C       -0.7180     4.2540     0.0080 C.ar  1 <1>   0.1660 
 13 O       -5.7060    -0.7830    -1.6470 O.3   1 <1>  -0.6800 
 14 C       -3.7700    -3.3110    -1.5240 C.3   1 <1>  -0.0160 
 15 N       -1.7130     4.8970     0.5910 N.ar  1 <1>  -0.6200 
 16 C       -3.7770     4.8900     1.8180 C.3   1 <1>  -0.0970 
 17 C        0.3620     5.1240    -0.5980 C.3   1 <1>  -0.0970 
 18 C       -3.4010    -4.5050    -0.6490 C.ar  1 <1>  -0.1430 
 19 C       -4.3580    -5.1930     0.1350 C.ar  1 <1>   0.0000 
 20 C       -2.1100    -4.9410    -0.5950 C.ar  1 <1>  -0.1500 
 21 C       -3.9020    -6.2720     0.9310 C.ar  1 <1>   0.3100 
 22 C       -5.7360    -4.8760     0.1760 C.ar  1 <1>  -0.1500 
 23 C       -1.7650    -6.0250     0.2230 C.ar  1 <1>   0.1600 
 24 N       -2.6060    -6.6740     0.9630 N.ar  1 <1>  -0.6200 
 25 C       -4.8250    -6.9650     1.7300 C.ar  1 <1>  -0.1500 
 26 C       -6.6110    -5.5750     0.9630 C.ar  1 <1>  -0.1500 
 27 C       -6.1520    -6.6320     1.7530 C.ar  1 <1>  -0.1500 
 28 H       -4.5600     0.7730    -0.0730 H     1 <1>   0.0800 
 29 H       -3.4860     1.1660    -1.4180 H     1 <1>   0.0800 
 30 H       -1.7570    -1.8980    -0.5880 H     1 <1>   0.0800 
 31 H       -2.5250    -2.0190     0.9850 H     1 <1>   0.0800 
 32 H       -3.4330     2.2070     1.5810 H     1 <1>   0.1500 
 33 H        0.2110     2.4100    -0.5520 H     1 <1>   0.1500 
 34 H       -3.8860    -0.8450    -2.4920 H     1 <1>   0.0800 
 35 H       -4.6360    -2.1930     0.1000 H     1 <1>   0.0800 
 36 H       -6.1370    -0.7910    -0.7710 H     1 <1>   0.4000 
 37 H       -3.0080    -3.1610    -2.2700 H     1 <1>   0.0800 
 38 H       -4.6840    -3.5130    -2.0540 H     1 <1>   0.0800 
 39 H       -4.4950     4.2130     2.2410 H     1 <1>   0.0800 
 40 H       -4.2710     5.5240     1.1050 H     1 <1>   0.0800 
 41 H       -3.3730     5.5040     2.6020 H     1 <1>   0.0800 
 42 H        1.1350     4.5290    -1.0470 H     1 <1>   0.0800 
 43 H        0.7970     5.7390     0.1690 H     1 <1>   0.0800 
 44 H       -0.0690     5.7610    -1.3480 H     1 <1>   0.0800 
 45 H       -1.3290    -4.4720    -1.1650 H     1 <1>   0.1500 
 46 H       -6.1120    -4.0710    -0.4260 H     1 <1>   0.1500 
 47 H       -0.7350    -6.3350     0.2370 H     1 <1>   0.1500 
 48 H       -4.4500    -7.7760     2.3260 H     1 <1>   0.1500 
 49 H       -7.6580    -5.3240     0.9850 H     1 <1>   0.1500 
 50 H       -6.8490    -7.1730     2.3690 H     1 <1>   0.1500 
@<TRIPOS>BOND
  1   1   2  2   
  2   2   3  am  
  3   2   4  1   
  4   3   5  1   
  5   3   6  1   
  6   4   7  ar  
  7   4   8  ar  
  8   5   9  1   
  9   5  28  1   
 10   5  29  1   
 11   6  10  1   
 12   6  30  1   
 13   6  31  1   
 14   7  11  ar  
 15   7  32  1   
 16   8  12  ar  
 17   8  33  1   
 18   9  10  1   
 19   9  13  1   
 20   9  34  1   
 21  10  14  1   
 22  10  35  1   
 23  11  15  ar  
 24  11  16  1   
 25  12  15  ar  
 26  12  17  1   
 27  13  36  1   
 28  14  18  1   
 29  14  37  1   
 30  14  38  1   
 31  16  39  1   
 32  16  40  1   
 33  16  41  1   
 34  17  42  1   
 35  17  43  1   
 36  17  44  1   
 37  18  19  ar  
 38  18  20  ar  
 39  19  21  ar  
 40  19  22  ar  
 41  20  23  ar  
 42  20  45  1   
 43  21  24  ar  
 44  21  25  ar  
 45  22  26  ar  
 46  22  46  1   
 47  23  24  ar  
 48  23  47  1   
 49  25  27  ar  
 50  25  48  1   
 51  26  27  ar  
 52  26  49  1   
 53  27  50  1   
@<TRIPOS>SUBSTRUCTURE
  1 ****   6 GROUP 4 **** **** 0

# MOE 2024.06 (io_trps.svl 2023.06)
