@<TRIPOS>MOLECULE
NONAME
40 41 1 0 0 
SMALL
USER_CHARGES


@<TRIPOS>ATOM
  1 CL       3.0890     1.5150    -1.3270 Cl    1 <1>  -0.1770 
  2 C        2.7890     0.1270    -0.3040 C.ar  1 <1>   0.1770 
  3 C        2.6240     0.3260     1.0650 C.ar  1 <1>   0.0860 
  4 C        2.7240    -1.1340    -0.8870 C.ar  1 <1>  -0.1440 
  5 C        2.3940    -0.8150     1.8250 C.ar  1 <1>   0.1900 
  6 C        2.6870     1.6360     1.6550 C.2   1 <1>   0.5440 
  7 C        2.4870    -2.2420    -0.0840 C.ar  1 <1>  -0.1500 
  8 C        2.9060    -1.3170    -2.3880 C.3   1 <1>  -0.0970 
  9 F        2.2510    -0.7050     3.1170 F     1 <1>  -0.1900 
 10 C        2.3210    -2.0830     1.2810 C.ar  1 <1>  -0.1500 
 11 O        1.6770     2.1940     2.0340 O.2   1 <1>  -0.5700 
 12 N        3.8800     2.2820     1.7800 N.am  1 <1>  -0.7300 
 13 C        4.0200     3.6990     2.1480 C.3   1 <1>   0.3200 
 14 C        5.1080     4.2980     1.2840 C.2   1 <1>  -0.1400 
 15 S        6.7610     4.0210     1.7560 S.3   1 <1>  -0.0800 
 16 C        5.1010     5.0350     0.1620 C.2   1 <1>   0.0460 
 17 C        7.2880     4.9570     0.3740 C.2   1 <1>   0.1980 
 18 N        6.3350     5.4060    -0.3410 N.2   1 <1>  -0.5650 
 19 C        3.8900     5.4950    -0.6220 C.3   1 <1>  -0.0590 
 20 C        8.7890     5.1180     0.1980 C.3   1 <1>   0.0200 
 21 C        9.1600     5.9500    -1.0400 C.3   1 <1>  -0.1600 
 22 C       10.6780     6.0960    -1.1940 C.3   1 <1>  -0.2400 
 23 H        2.4300    -3.2280    -0.5140 H     1 <1>   0.1500 
 24 H        2.1500    -0.7680    -2.9200 H     1 <1>   0.0800 
 25 H        2.8310    -2.3530    -2.6660 H     1 <1>   0.0800 
 26 H        3.8730    -0.9540    -2.6890 H     1 <1>   0.0800 
 27 H        2.1380    -2.9310     1.9180 H     1 <1>   0.1500 
 28 H        4.7280     1.8780     1.3790 H     1 <1>   0.3700 
 29 H        4.2800     3.7830     3.1890 H     1 <1>   0.0800 
 30 H        3.0910     4.2170     1.9840 H     1 <1>   0.0800 
 31 H        2.9820     5.1310    -0.1780 H     1 <1>   0.0800 
 32 H        3.9550     5.1240    -1.6280 H     1 <1>   0.0800 
 33 H        3.8640     6.5680    -0.6480 H     1 <1>   0.0800 
 34 H        9.2280     4.1410     0.1150 H     1 <1>   0.0800 
 35 H        9.1850     5.5920     1.0780 H     1 <1>   0.0800 
 36 H        8.7120     6.9260    -0.9570 H     1 <1>   0.0800 
 37 H        8.7540     5.4780    -1.9190 H     1 <1>   0.0800 
 38 H       11.0990     6.5890    -0.3350 H     1 <1>   0.0800 
 39 H       10.9030     6.6830    -2.0670 H     1 <1>   0.0800 
 40 H       11.1400     5.1310    -1.3040 H     1 <1>   0.0800 
@<TRIPOS>BOND
  1   1   2  1   
  2   2   3  ar  
  3   2   4  ar  
  4   3   5  ar  
  5   3   6  1   
  6   4   7  ar  
  7   4   8  1   
  8   5   9  1   
  9   5  10  ar  
 10   6  11  2   
 11   6  12  am  
 12   7  10  ar  
 13   7  23  1   
 14   8  24  1   
 15   8  25  1   
 16   8  26  1   
 17  10  27  1   
 18  12  13  1   
 19  12  28  1   
 20  13  14  1   
 21  13  29  1   
 22  13  30  1   
 23  14  15  1   
 24  14  16  2   
 25  15  17  1   
 26  16  18  1   
 27  16  19  1   
 28  17  18  2   
 29  17  20  1   
 30  19  31  1   
 31  19  32  1   
 32  19  33  1   
 33  20  21  1   
 34  20  34  1   
 35  20  35  1   
 36  21  22  1   
 37  21  36  1   
 38  21  37  1   
 39  22  38  1   
 40  22  39  1   
 41  22  40  1   
@<TRIPOS>SUBSTRUCTURE
  1 ****  12 GROUP 4 **** **** 0

# MOE 2024.06 (io_trps.svl 2023.06)
