@<TRIPOS>MOLECULE
NONAME
42 43 1 0 0 
SMALL
USER_CHARGES


@<TRIPOS>ATOM
  1 O        3.1860    -0.2510    -3.5430 O.2   1 <1>  -0.5700 
  2 C        2.5360    -0.5090    -2.5580 C.2   1 <1>   0.5690 
  3 N        2.3170     0.3900    -1.5740 N.am  1 <1>  -0.7300 
  4 C        1.9370    -1.9100    -2.3760 C.3   1 <1>   0.1710 
  5 C        2.9030     1.7200    -1.3840 C.3   1 <1>   0.2840 
  6 N        0.8490    -1.9720    -1.3480 N.3   1 <1>  -0.8100 
  7 C        3.5390     1.7800    -0.0010 C.ar  1 <1>  -0.1430 
  8 C        0.7030    -3.3250    -0.7570 C.3   1 <1>   0.2900 
  9 C       -0.4170    -1.4450    -1.8820 C.3   1 <1>   0.0300 
 10 C        2.8120     1.4800     1.1520 C.ar  1 <1>   0.0830 
 11 C        4.8760     2.1320     0.1150 C.ar  1 <1>  -0.1500 
 12 C       -0.1290    -3.3290     0.5240 C.2   1 <1>   0.2980 
 13 O        1.5060     1.1250     1.0400 O.3   1 <1>  -0.3630 
 14 C        3.4270     1.5450     2.3970 C.ar  1 <1>  -0.1500 
 15 C        5.4850     2.1910     1.3570 C.ar  1 <1>  -0.1500 
 16 O       -1.4230    -3.3780     0.4710 O.3   1 <1>  -0.2800 
 17 N        0.3040    -3.2950     1.7280 N.2   1 <1>  -0.3380 
 18 C        1.0270     0.0340     1.8020 C.3   1 <1>   0.0400 
 19 C        4.7600     1.8990     2.4990 C.ar  1 <1>  -0.1500 
 20 C       -1.7780    -3.3630     1.7140 C.2   1 <1>   0.2980 
 21 N       -0.7790    -3.3120     2.5070 N.2   1 <1>  -0.3380 
 22 C       -3.2430    -3.4030     2.0800 C.3   1 <1>  -0.0600 
 23 H        1.7610     0.0720    -0.7700 H     1 <1>   0.3700 
 24 H        2.7500    -2.5480    -2.0780 H     1 <1>   0.0800 
 25 H        1.5730    -2.2600    -3.3250 H     1 <1>   0.0800 
 26 H        2.1270     2.4620    -1.4570 H     1 <1>   0.0800 
 27 H        3.6330     1.9070    -2.1530 H     1 <1>   0.0800 
 28 H        1.6780    -3.7010    -0.5010 H     1 <1>   0.0800 
 29 H        0.2630    -3.9970    -1.4730 H     1 <1>   0.0800 
 30 H       -0.2640    -0.4660    -2.3050 H     1 <1>   0.0800 
 31 H       -1.1440    -1.3510    -1.0940 H     1 <1>   0.0800 
 32 H       -0.8080    -2.0960    -2.6450 H     1 <1>   0.0800 
 33 H        5.4540     2.3580    -0.7640 H     1 <1>   0.1500 
 34 H        2.8710     1.3290     3.2890 H     1 <1>   0.1500 
 35 H        6.5230     2.4640     1.4340 H     1 <1>   0.1500 
 36 H        0.0850    -0.2790     1.3890 H     1 <1>   0.0800 
 37 H        0.8910     0.3460     2.8220 H     1 <1>   0.0800 
 38 H        1.7340    -0.7750     1.7430 H     1 <1>   0.0800 
 39 H        5.2330     1.9470     3.4640 H     1 <1>   0.1500 
 40 H       -3.6870    -4.3040     1.6990 H     1 <1>   0.0800 
 41 H       -3.7460    -2.5530     1.6570 H     1 <1>   0.0800 
 42 H       -3.3530    -3.3820     3.1490 H     1 <1>   0.0800 
@<TRIPOS>BOND
  1   1   2  2   
  2   2   3  am  
  3   2   4  1   
  4   3   5  1   
  5   3  23  1   
  6   4   6  1   
  7   4  24  1   
  8   4  25  1   
  9   5   7  1   
 10   5  26  1   
 11   5  27  1   
 12   6   8  1   
 13   6   9  1   
 14   7  10  ar  
 15   7  11  ar  
 16   8  12  1   
 17   8  28  1   
 18   8  29  1   
 19   9  30  1   
 20   9  31  1   
 21   9  32  1   
 22  10  13  1   
 23  10  14  ar  
 24  11  15  ar  
 25  11  33  1   
 26  12  16  1   
 27  12  17  2   
 28  13  18  1   
 29  14  19  ar  
 30  14  34  1   
 31  15  19  ar  
 32  15  35  1   
 33  16  20  1   
 34  17  21  1   
 35  18  36  1   
 36  18  37  1   
 37  18  38  1   
 38  19  39  1   
 39  20  21  2   
 40  20  22  1   
 41  22  40  1   
 42  22  41  1   
 43  22  42  1   
@<TRIPOS>SUBSTRUCTURE
  1 ****  18 GROUP 4 **** **** 0

# MOE 2024.06 (io_trps.svl 2023.06)
