@<TRIPOS>MOLECULE
NONAME
51 53 1 0 0 
SMALL
USER_CHARGES


@<TRIPOS>ATOM
  1 S        0.3150    -0.4060     1.0050 S.3   1 <1>  -0.0800 
  2 C       -1.0720     0.2730     0.1660 C.2   1 <1>  -0.1400 
  3 C        1.4140     0.6470     0.1330 C.2   1 <1>  -0.1100 
  4 C       -0.6780     1.2260    -0.6990 C.2   1 <1>  -0.1500 
  5 C       -2.4450    -0.2700     0.5180 C.3   1 <1>   0.0200 
  6 C        0.7380     1.4390    -0.7190 C.2   1 <1>  -0.1500 
  7 C       -2.6320    -1.6990    -0.0060 C.3   1 <1>  -0.1600 
  8 C       -4.0330    -2.2490     0.3280 C.3   1 <1>  -0.0990 
  9 C       -4.2980    -3.6690    -0.1660 C.2   1 <1>   0.5690 
 10 O       -3.4480    -4.2130    -0.8310 O.2   1 <1>  -0.5700 
 11 N       -5.4820    -4.2890     0.1440 N.am  1 <1>  -0.6600 
 12 C       -5.7660    -5.6970    -0.2820 C.3   1 <1>   0.1400 
 13 C       -6.6120    -3.6770     0.9020 C.3   1 <1>   0.1400 
 14 C       -7.0340    -5.7310    -1.1470 C.3   1 <1>   0.2000 
 15 C       -7.8890    -3.7110     0.0480 C.3   1 <1>  -0.1600 
 16 O       -7.2840    -7.0340    -1.5440 O.3   1 <1>  -0.6800 
 17 C       -8.2670    -5.1520    -0.4050 C.3   1 <1>  -0.1060 
 18 C       -8.6040    -6.0580     0.7970 C.2   1 <1>   0.9060 
 19 C       -9.4760    -5.1180    -1.3810 C.3   1 <1>  -0.0160 
 20 O       -8.6710    -7.2840     0.6150 O.co2 1 <1>  -0.9000 
 21 O       -8.7890    -5.5760     1.9200 O.co2 1 <1>  -0.9000 
 22 C      -10.6200    -4.1910    -0.9730 C.ar  1 <1>  -0.1440 
 23 C      -10.8900    -3.0470    -1.7090 C.ar  1 <1>  -0.1500 
 24 C      -11.4040    -4.4820     0.1330 C.ar  1 <1>  -0.1500 
 25 C      -11.9280    -2.2050    -1.3460 C.ar  1 <1>  -0.1500 
 26 C      -12.4400    -3.6420     0.5000 C.ar  1 <1>  -0.1500 
 27 C      -12.7040    -2.5030    -0.2390 C.ar  1 <1>  -0.1500 
 28 H        2.4630     0.5600     0.3540 H     1 <1>   0.1500 
 29 H       -1.3280     1.7990    -1.3360 H     1 <1>   0.1500 
 30 H       -2.5660    -0.2480     1.5870 H     1 <1>   0.0800 
 31 H       -3.1920     0.3710     0.0830 H     1 <1>   0.0800 
 32 H        1.1760     2.1740    -1.3710 H     1 <1>   0.1500 
 33 H       -2.4880    -1.7080    -1.0730 H     1 <1>   0.0800 
 34 H       -1.8870    -2.3440     0.4290 H     1 <1>   0.0800 
 35 H       -4.7730    -1.6060    -0.1100 H     1 <1>   0.0800 
 36 H       -4.1590    -2.2410     1.3950 H     1 <1>   0.0800 
 37 H       -4.9430    -6.0940    -0.8500 H     1 <1>   0.0800 
 38 H       -5.9030    -6.3080     0.5940 H     1 <1>   0.0800 
 39 H       -6.7610    -4.2300     1.8140 H     1 <1>   0.0800 
 40 H       -6.4030    -2.6600     1.1740 H     1 <1>   0.0800 
 41 H       -6.8390    -5.1670    -2.0420 H     1 <1>   0.0800 
 42 H       -8.6900    -3.2980     0.6360 H     1 <1>   0.0800 
 43 H       -7.7540    -3.0770    -0.8090 H     1 <1>   0.0800 
 44 H       -7.8050    -7.4500    -0.7890 H     1 <1>   0.4000 
 45 H       -9.1290    -4.8190    -2.3530 H     1 <1>   0.0800 
 46 H       -9.8670    -6.1150    -1.4920 H     1 <1>   0.0800 
 47 H      -10.2920    -2.8070    -2.5690 H     1 <1>   0.1500 
 48 H      -11.2030    -5.3640     0.7200 H     1 <1>   0.1500 
 49 H      -12.1310    -1.3210    -1.9230 H     1 <1>   0.1500 
 50 H      -13.0330    -3.8810     1.3640 H     1 <1>   0.1500 
 51 H      -13.5090    -1.8510     0.0480 H     1 <1>   0.1500 
@<TRIPOS>BOND
  1   1   2  1   
  2   1   3  1   
  3   2   4  2   
  4   2   5  1   
  5   3   6  2   
  6   3  28  1   
  7   4   6  1   
  8   4  29  1   
  9   5   7  1   
 10   5  30  1   
 11   5  31  1   
 12   6  32  1   
 13   7   8  1   
 14   7  33  1   
 15   7  34  1   
 16   8   9  1   
 17   8  35  1   
 18   8  36  1   
 19   9  10  2   
 20   9  11  am  
 21  11  12  1   
 22  11  13  1   
 23  12  14  1   
 24  12  37  1   
 25  12  38  1   
 26  13  15  1   
 27  13  39  1   
 28  13  40  1   
 29  14  16  1   
 30  14  17  1   
 31  14  41  1   
 32  15  17  1   
 33  15  42  1   
 34  15  43  1   
 35  16  44  1   
 36  17  18  1   
 37  17  19  1   
 38  18  20  ar  
 39  18  21  ar  
 40  19  22  1   
 41  19  45  1   
 42  19  46  1   
 43  22  23  ar  
 44  22  24  ar  
 45  23  25  ar  
 46  23  47  1   
 47  24  26  ar  
 48  24  48  1   
 49  25  27  ar  
 50  25  49  1   
 51  26  27  ar  
 52  26  50  1   
 53  27  51  1   
@<TRIPOS>SUBSTRUCTURE
  1 ****  13 GROUP 4 **** **** 0

# MOE 2024.06 (io_trps.svl 2023.06)
