@<TRIPOS>MOLECULE
NONAME
43 45 1 0 0 
SMALL
USER_CHARGES


@<TRIPOS>ATOM
  1 O       -0.6150     0.0060    -0.9220 O.2   1 <1>  -0.5700 
  2 C       -1.4640     0.7080    -0.4030 C.2   1 <1>   0.5440 
  3 N       -2.3920     0.1350     0.4260 N.am  1 <1>  -0.6600 
  4 C       -1.4610     2.1330    -0.6730 C.ar  1 <1>   0.0860 
  5 C       -3.4160     0.8530     1.2400 C.3   1 <1>   0.2350 
  6 C       -2.7620    -1.3060     0.3530 C.3   1 <1>   0.2350 
  7 C       -0.3550     2.9180    -0.3580 C.ar  1 <1>  -0.1500 
  8 C       -2.5550     2.7630    -1.2640 C.ar  1 <1>  -0.1500 
  9 C       -4.6780     0.0260     1.0970 C.3   1 <1>  -0.2420 
 10 C       -4.2680    -1.3290     0.5710 C.3   1 <1>  -0.2420 
 11 C       -0.3280     4.2820    -0.6030 C.ar  1 <1>   0.0730 
 12 C       -2.5490     4.1220    -1.5160 C.ar  1 <1>  -0.1500 
 13 C       -5.7160     0.4730     2.1290 C.2   1 <1>   0.9470 
 14 C       -5.1670    -0.4410    -0.2520 C.3   1 <1>  -0.2000 
 15 C       -4.7450    -2.7350     0.9440 C.2   1 <1>   0.9470 
 16 C        0.8190     5.0660    -0.2620 C.1   1 <1>  -0.0730 
 17 C       -1.4390     4.8760    -1.1840 C.ar  1 <1>  -0.1500 
 18 O       -6.8150     0.8960     1.7420 O.co2 1 <1>  -0.9000 
 19 O       -5.3730     0.5800     3.3140 O.co2 1 <1>  -0.9000 
 20 O       -5.5960    -3.2970     0.2410 O.co2 1 <1>  -0.9000 
 21 O       -4.1600    -3.3450     1.8490 O.co2 1 <1>  -0.9000 
 22 C        1.7660     5.7320     0.0180 C.1   1 <1>  -0.2000 
 23 C        2.9500     6.5660     0.3640 C.3   1 <1>   0.4800 
 24 O        2.5420     7.8730     0.3930 O.3   1 <1>  -0.6800 
 25 C        3.4760     6.2240     1.7530 C.3   1 <1>  -0.2400 
 26 C        4.0320     6.4520    -0.7020 C.3   1 <1>  -0.2400 
 27 H       -3.1020     0.8600     2.2710 H     1 <1>   0.0800 
 28 H       -3.5850     1.8620     0.9150 H     1 <1>   0.0800 
 29 H       -2.5040    -1.7330    -0.6000 H     1 <1>   0.0800 
 30 H       -2.2610    -1.8430     1.1410 H     1 <1>   0.0800 
 31 H        0.5010     2.4420     0.0870 H     1 <1>   0.1500 
 32 H       -3.4180     2.1700    -1.5200 H     1 <1>   0.1500 
 33 H       -3.4080     4.5890    -1.9660 H     1 <1>   0.1500 
 34 H       -4.7860     0.0090    -1.1480 H     1 <1>   0.1000 
 35 H       -6.2030    -0.7250    -0.3410 H     1 <1>   0.1000 
 36 H       -1.4300     5.9350    -1.3760 H     1 <1>   0.1500 
 37 H        3.3010     8.4360     0.6180 H     1 <1>   0.4000 
 38 H        3.7910     5.1970     1.7780 H     1 <1>   0.0800 
 39 H        2.6970     6.3540     2.4840 H     1 <1>   0.0800 
 40 H        4.3160     6.8440     2.0090 H     1 <1>   0.0800 
 41 H        4.3650     5.4320    -0.7710 H     1 <1>   0.0800 
 42 H        4.8770     7.0700    -0.4600 H     1 <1>   0.0800 
 43 H        3.6370     6.7420    -1.6590 H     1 <1>   0.0800 
@<TRIPOS>BOND
  1   1   2  2   
  2   2   3  am  
  3   2   4  1   
  4   3   5  1   
  5   3   6  1   
  6   4   7  ar  
  7   4   8  ar  
  8   5   9  1   
  9   5  27  1   
 10   5  28  1   
 11   6  10  1   
 12   6  29  1   
 13   6  30  1   
 14   7  11  ar  
 15   7  31  1   
 16   8  12  ar  
 17   8  32  1   
 18   9  10  1   
 19   9  13  1   
 20   9  14  1   
 21  10  14  1   
 22  10  15  1   
 23  11  16  1   
 24  11  17  ar  
 25  12  17  ar  
 26  12  33  1   
 27  13  18  ar  
 28  13  19  ar  
 29  14  34  1   
 30  14  35  1   
 31  15  20  ar  
 32  15  21  ar  
 33  16  22  3   
 34  17  36  1   
 35  22  23  1   
 36  23  24  1   
 37  23  25  1   
 38  23  26  1   
 39  24  37  1   
 40  25  38  1   
 41  25  39  1   
 42  25  40  1   
 43  26  41  1   
 44  26  42  1   
 45  26  43  1   
@<TRIPOS>SUBSTRUCTURE
  1 ****   4 GROUP 4 **** **** 0

# MOE 2024.06 (io_trps.svl 2023.06)
