@<TRIPOS>MOLECULE
NONAME
51 54 1 0 0 
SMALL
USER_CHARGES


@<TRIPOS>ATOM
  1 O        0.5530     0.1140    -0.3410 O.2   1 <1>  -0.5700 
  2 C        1.5490    -0.4470     0.0860 C.2   1 <1>   0.7160 
  3 N        2.4130     0.3090     0.8780 N.am  1 <1>  -0.6600 
  4 C        1.7840    -1.8450    -0.2770 C.2   1 <1>   0.2030 
  5 C        3.5730    -0.2840     1.6010 C.3   1 <1>   0.1400 
  6 C        2.1990     1.7690     1.0980 C.3   1 <1>   0.1400 
  7 N        2.9320    -2.5130    -0.2730 N.2   1 <1>  -0.7070 
  8 C        0.7550    -2.6860    -0.7170 C.2   1 <1>  -0.1500 
  9 C        4.8160    -0.3250     0.6910 C.3   1 <1>   0.3430 
 10 C        3.4710     2.5740     0.8060 C.3   1 <1>  -0.1600 
 11 N        2.6320    -3.7520    -0.6920 N.pl3 1 <1>   0.3140 
 12 C        1.3200    -3.8810    -0.9680 C.2   1 <1>  -0.3320 
 13 N        5.3480     1.0250     0.2910 N.4   1 <1>  -0.9590 
 14 C        4.3420     1.9660    -0.2960 C.3   1 <1>   0.3430 
 15 C        3.6520    -4.8030    -0.8150 C.3   1 <1>   0.0160 
 16 C        0.6500    -5.1500    -1.4680 C.3   1 <1>  -0.0600 
 17 C        6.5080     0.8650    -0.6260 C.3   1 <1>   0.5230 
 18 C        7.2740     2.1720    -0.6380 C.2   1 <1>  -0.0400 
 19 O        7.5980     2.7030     0.5400 O.3   1 <1>  -0.2800 
 20 C        7.6960     2.9480    -1.6550 C.2   1 <1>  -0.1500 
 21 C        8.2440     3.8440     0.2950 C.ar  1 <1>   0.1400 
 22 C        8.3390     4.0580    -1.0690 C.ar  1 <1>   0.0000 
 23 C        8.7700     4.7380     1.2180 C.ar  1 <1>  -0.1500 
 24 C        8.9780     5.2040    -1.5410 C.ar  1 <1>  -0.1500 
 25 C        9.4010     5.8710     0.7430 C.ar  1 <1>  -0.1500 
 26 C        9.5030     6.1010    -0.6320 C.ar  1 <1>  -0.1500 
 27 H        3.3260    -1.2840     1.9120 H     1 <1>   0.0800 
 28 H        3.7840     0.2780     2.4940 H     1 <1>   0.0800 
 29 H        1.8780     1.9360     2.1120 H     1 <1>   0.0800 
 30 H        1.4150     2.1290     0.4530 H     1 <1>   0.0800 
 31 H       -0.2760    -2.3930    -0.8210 H     1 <1>   0.1500 
 32 H        4.5660    -0.8830    -0.1950 H     1 <1>   0.0800 
 33 H        5.5890    -0.8710     1.2050 H     1 <1>   0.0800 
 34 H        4.0410     2.7160     1.7060 H     1 <1>   0.0800 
 35 H        3.1580     3.5530     0.4860 H     1 <1>   0.0800 
 36 H        5.7450     1.4970     1.1160 H     1 <1>   0.4500 
 37 H        4.8570     2.7720    -0.7930 H     1 <1>   0.0800 
 38 H        3.7250     1.4610    -1.0240 H     1 <1>   0.0800 
 39 H        4.6050    -4.4130    -0.5090 H     1 <1>   0.0800 
 40 H        3.7050    -5.1240    -1.8380 H     1 <1>   0.0800 
 41 H        3.3830    -5.6300    -0.1860 H     1 <1>   0.0800 
 42 H       -0.4020    -4.9800    -1.6110 H     1 <1>   0.0800 
 43 H        0.7720    -5.9440    -0.7530 H     1 <1>   0.0800 
 44 H        1.0760    -5.4530    -2.4080 H     1 <1>   0.0800 
 45 H        6.1780     0.6080    -1.6190 H     1 <1>   0.0800 
 46 H        7.1590     0.0870    -0.2630 H     1 <1>   0.0800 
 47 H        7.5990     2.8140    -2.7190 H     1 <1>   0.1500 
 48 H        8.6840     4.5410     2.2710 H     1 <1>   0.1500 
 49 H        9.0570     5.3770    -2.5990 H     1 <1>   0.1500 
 50 H        9.8210     6.5860     1.4310 H     1 <1>   0.1500 
 51 H       10.0000     6.9910    -0.9780 H     1 <1>   0.1500 
@<TRIPOS>BOND
  1   1   2  2   
  2   2   3  am  
  3   2   4  1   
  4   3   5  1   
  5   3   6  1   
  6   4   7  2   
  7   4   8  1   
  8   5   9  1   
  9   5  27  1   
 10   5  28  1   
 11   6  10  1   
 12   6  29  1   
 13   6  30  1   
 14   7  11  1   
 15   8  12  2   
 16   8  31  1   
 17   9  13  1   
 18   9  32  1   
 19   9  33  1   
 20  10  14  1   
 21  10  34  1   
 22  10  35  1   
 23  11  12  1   
 24  11  15  1   
 25  12  16  1   
 26  13  14  1   
 27  13  17  1   
 28  13  36  1   
 29  14  37  1   
 30  14  38  1   
 31  15  39  1   
 32  15  40  1   
 33  15  41  1   
 34  16  42  1   
 35  16  43  1   
 36  16  44  1   
 37  17  18  1   
 38  17  45  1   
 39  17  46  1   
 40  18  19  1   
 41  18  20  2   
 42  19  21  1   
 43  20  22  1   
 44  20  47  1   
 45  21  22  ar  
 46  21  23  ar  
 47  22  24  ar  
 48  23  25  ar  
 49  23  48  1   
 50  24  26  ar  
 51  24  49  1   
 52  25  26  ar  
 53  25  50  1   
 54  26  51  1   
@<TRIPOS>SUBSTRUCTURE
  1 ****  13 GROUP 4 **** **** 0

# MOE 2024.06 (io_trps.svl 2023.06)
