@<TRIPOS>MOLECULE
NONAME
42 45 1 0 0 
SMALL
USER_CHARGES


@<TRIPOS>ATOM
  1 S       -1.2890     1.4350    -1.4610 S.3   1 <1>  -0.0800 
  2 C       -0.3910     2.7820    -0.7950 C.2   1 <1>  -0.1400 
  3 C        0.2060     0.5690    -1.7770 C.2   1 <1>  -0.1100 
  4 C        0.9290     2.5580    -0.8050 C.2   1 <1>  -0.1810 
  5 C       -1.0660     4.0300    -0.2920 C.3   1 <1>   0.0200 
  6 C        1.2750     1.2880    -1.3810 C.2   1 <1>  -0.1500 
  7 C        1.9010     3.6010    -0.2530 C.3   1 <1>   0.4610 
  8 C        0.0110     5.1220    -0.1890 C.3   1 <1>   0.1200 
  9 O        1.1810     4.6210     0.4210 O.3   1 <1>  -0.5600 
 10 C        2.8310     2.9910     0.8070 C.3   1 <1>  -0.1600 
 11 C        2.7470     4.2340    -1.3600 C.3   1 <1>  -0.1600 
 12 C        4.0890     3.8260     1.0720 C.3   1 <1>   0.3430 
 13 C        3.6460     5.3500    -0.8260 C.3   1 <1>   0.3430 
 14 N        3.8760     5.2280     0.6530 N.4   1 <1>  -0.9590 
 15 C        4.9500     6.1440     1.1260 C.3   1 <1>   0.5240 
 16 C        4.4290     7.5690     1.1190 C.2   1 <1>  -0.1810 
 17 C        4.4770     8.4110    -0.0050 C.2   1 <1>   0.0560 
 18 C        3.8610     8.2920     2.1060 C.2   1 <1>  -0.3020 
 19 N        3.9520     9.5880     0.3020 N.2   1 <1>  -0.7070 
 20 C        5.0200     7.9190    -1.2790 C.2   1 <1>   1.0330 
 21 N        3.5880     9.5040     1.5860 N.pl3 1 <1>   0.3000 
 22 O        4.3210     7.8550    -2.3070 O.co2 1 <1>  -0.9000 
 23 O        6.0750     7.2510    -1.2740 O.co2 1 <1>  -0.9000 
 24 H        0.1230    -0.4010    -2.2340 H     1 <1>   0.1500 
 25 H       -1.5080     3.8470     0.6710 H     1 <1>   0.0800 
 26 H       -1.8370     4.3420    -0.9730 H     1 <1>   0.0800 
 27 H        2.2970     0.9680    -1.4780 H     1 <1>   0.1500 
 28 H       -0.3490     5.9440     0.4050 H     1 <1>   0.0800 
 29 H        0.2650     5.4920    -1.1680 H     1 <1>   0.0800 
 30 H        3.1550     2.0170     0.4920 H     1 <1>   0.0800 
 31 H        2.2790     2.8520     1.7190 H     1 <1>   0.0800 
 32 H        2.1250     4.6200    -2.1460 H     1 <1>   0.0800 
 33 H        3.3670     3.4790    -1.8080 H     1 <1>   0.0800 
 34 H        4.9150     3.4180     0.5120 H     1 <1>   0.0800 
 35 H        4.3340     3.7810     2.1200 H     1 <1>   0.0800 
 36 H        3.1630     6.2940    -1.0240 H     1 <1>   0.0800 
 37 H        4.5850     5.3510    -1.3600 H     1 <1>   0.0800 
 38 H        2.9910     5.5520     1.0750 H     1 <1>   0.4500 
 39 H        5.8290     6.0500     0.5090 H     1 <1>   0.0800 
 40 H        5.2230     5.8900     2.1350 H     1 <1>   0.0800 
 41 H        3.6400     8.0360     3.1260 H     1 <1>   0.1500 
 42 H        3.1560    10.2960     2.0780 H     1 <1>   0.2700 
@<TRIPOS>BOND
  1   1   2  1   
  2   1   3  1   
  3   2   4  2   
  4   2   5  1   
  5   3   6  2   
  6   3  24  1   
  7   4   6  1   
  8   4   7  1   
  9   5   8  1   
 10   5  25  1   
 11   5  26  1   
 12   6  27  1   
 13   7   9  1   
 14   7  10  1   
 15   7  11  1   
 16   8   9  1   
 17   8  28  1   
 18   8  29  1   
 19  10  12  1   
 20  10  30  1   
 21  10  31  1   
 22  11  13  1   
 23  11  32  1   
 24  11  33  1   
 25  12  14  1   
 26  12  34  1   
 27  12  35  1   
 28  13  14  1   
 29  13  36  1   
 30  13  37  1   
 31  14  15  1   
 32  14  38  1   
 33  15  16  1   
 34  15  39  1   
 35  15  40  1   
 36  16  17  1   
 37  16  18  2   
 38  17  19  2   
 39  17  20  1   
 40  18  21  1   
 41  18  41  1   
 42  19  21  1   
 43  20  22  ar  
 44  20  23  ar  
 45  21  42  1   
@<TRIPOS>SUBSTRUCTURE
  1 ****  13 GROUP 4 **** **** 0

# MOE 2024.06 (io_trps.svl 2023.06)
