@<TRIPOS>MOLECULE
NONAME
57 60 1 0 0 
SMALL
USER_CHARGES


@<TRIPOS>ATOM
  1 O        2.8290    -4.2080     1.7140 O.2   1 <1>  -0.5700 
  2 C        2.2020    -3.2660     1.2660 C.2   1 <1>   0.5440 
  3 N        2.9600    -2.2800     0.6980 N.am  1 <1>  -0.7300 
  4 C        0.7360    -3.2270     1.3500 C.ar  1 <1>   0.3960 
  5 C        3.1510    -2.0190    -0.7490 C.3   1 <1>   0.3000 
  6 N        0.0880    -2.0480     1.3190 N.ar  1 <1>  -0.6200 
  7 C        0.0330    -4.4290     1.4670 C.ar  1 <1>  -0.1500 
  8 C        4.4120    -2.7760    -1.2700 C.3   1 <1>   0.2000 
  9 C        3.3920    -0.5050    -0.8800 C.3   1 <1>  -0.1600 
 10 C        1.8820    -2.4130    -1.5250 C.3   1 <1>  -0.2400 
 11 C       -1.2290    -2.0790     1.4000 C.ar  1 <1>   0.1600 
 12 C       -1.3420    -4.4500     1.5490 C.ar  1 <1>  -0.1500 
 13 O        4.5390    -2.5730    -2.6560 O.3   1 <1>  -0.6800 
 14 C        5.7210    -2.3380    -0.5110 C.3   1 <1>   0.2800 
 15 C        4.8470    -0.0860    -0.6100 C.3   1 <1>   0.1200 
 16 C       -1.9830    -3.2330     1.5130 C.ar  1 <1>  -0.1500 
 17 O        5.5380    -1.0760     0.0940 O.3   1 <1>  -0.5600 
 18 C        6.0240    -3.2980     0.6720 C.3   1 <1>  -0.1600 
 19 C        6.9650    -2.2260    -1.4270 C.3   1 <1>  -0.1600 
 20 C        7.2470    -4.1960     0.4630 C.3   1 <1>   0.1400 
 21 C        8.2600    -2.1380    -0.6190 C.3   1 <1>   0.1400 
 22 N        8.4630    -3.3780     0.1810 N.am  1 <1>  -0.6600 
 23 C        9.7160    -3.8010     0.6050 C.2   1 <1>   0.7160 
 24 O        9.8090    -4.9510     1.0090 O.2   1 <1>  -0.5700 
 25 C       10.9250    -2.9720     0.5870 C.2   1 <1>   0.1410 
 26 N       10.9870    -1.6160     0.3940 N.2   1 <1>  -0.5650 
 27 C       12.2000    -3.4230     0.7810 C.2   1 <1>  -0.3020 
 28 C       12.2390    -1.3200     0.4760 C.2   1 <1>   0.0360 
 29 N       13.0350    -2.3820     0.7110 N.pl3 1 <1>   0.0480 
 30 C       14.4990    -2.3940     0.8670 C.3   1 <1>   0.0160 
 31 H        3.8450    -2.1050     1.1830 H     1 <1>   0.3700 
 32 H        0.5820    -5.3540     1.4960 H     1 <1>   0.1500 
 33 H        4.2620    -3.8340    -1.1510 H     1 <1>   0.0800 
 34 H        2.7310     0.0240    -0.2160 H     1 <1>   0.0800 
 35 H        3.1430    -0.1810    -1.8740 H     1 <1>   0.0800 
 36 H        1.9920    -2.1900    -2.5710 H     1 <1>   0.0800 
 37 H        1.0320    -1.8610    -1.1680 H     1 <1>   0.0800 
 38 H        1.6940    -3.4670    -1.4380 H     1 <1>   0.0800 
 39 H       -1.7400    -1.1310     1.3760 H     1 <1>   0.1500 
 40 H       -1.8880    -5.3730     1.6380 H     1 <1>   0.1500 
 41 H        4.7280    -1.6330    -2.8370 H     1 <1>   0.4000 
 42 H        4.8680     0.8100    -0.0120 H     1 <1>   0.0800 
 43 H        5.3690     0.1110    -1.5280 H     1 <1>   0.0800 
 44 H       -3.0550    -3.1750     1.5730 H     1 <1>   0.1500 
 45 H        6.1940    -2.7330     1.5720 H     1 <1>   0.0800 
 46 H        5.1890    -3.9420     0.8620 H     1 <1>   0.0800 
 47 H        7.0320    -3.0910    -2.0640 H     1 <1>   0.0800 
 48 H        6.8930    -1.3700    -2.0690 H     1 <1>   0.0800 
 49 H        7.0770    -4.8680    -0.3610 H     1 <1>   0.0800 
 50 H        7.4010    -4.7900     1.3490 H     1 <1>   0.0800 
 51 H        8.2240    -1.2910     0.0460 H     1 <1>   0.0800 
 52 H        9.0870    -2.0070    -1.2960 H     1 <1>   0.0800 
 53 H       12.5150    -4.4340     0.9670 H     1 <1>   0.1500 
 54 H       12.6350    -0.3250     0.3720 H     1 <1>   0.1500 
 55 H       14.8430    -3.4090     0.9460 H     1 <1>   0.0800 
 56 H       14.7650    -1.8550     1.7580 H     1 <1>   0.0800 
 57 H       14.9520    -1.9270     0.0120 H     1 <1>   0.0800 
@<TRIPOS>BOND
  1   1   2  2   
  2   2   3  am  
  3   2   4  1   
  4   3   5  1   
  5   3  31  1   
  6   4   6  ar  
  7   4   7  ar  
  8   5   8  1   
  9   5   9  1   
 10   5  10  1   
 11   6  11  ar  
 12   7  12  ar  
 13   7  32  1   
 14   8  13  1   
 15   8  14  1   
 16   8  33  1   
 17   9  15  1   
 18   9  34  1   
 19   9  35  1   
 20  10  36  1   
 21  10  37  1   
 22  10  38  1   
 23  11  16  ar  
 24  11  39  1   
 25  12  16  ar  
 26  12  40  1   
 27  13  41  1   
 28  14  17  1   
 29  14  18  1   
 30  14  19  1   
 31  15  17  1   
 32  15  42  1   
 33  15  43  1   
 34  16  44  1   
 35  18  20  1   
 36  18  45  1   
 37  18  46  1   
 38  19  21  1   
 39  19  47  1   
 40  19  48  1   
 41  20  22  1   
 42  20  49  1   
 43  20  50  1   
 44  21  22  1   
 45  21  51  1   
 46  21  52  1   
 47  22  23  am  
 48  23  24  2   
 49  23  25  1   
 50  25  26  1   
 51  25  27  2   
 52  26  28  2   
 53  27  29  1   
 54  27  53  1   
 55  28  29  1   
 56  28  54  1   
 57  29  30  1   
 58  30  55  1   
 59  30  56  1   
 60  30  57  1   
@<TRIPOS>SUBSTRUCTURE
  1 ****  18 GROUP 4 **** **** 0

# MOE 2024.06 (io_trps.svl 2023.06)
