@<TRIPOS>MOLECULE
NONAME
46 48 1 0 0 
SMALL
USER_CHARGES


@<TRIPOS>ATOM
  1 S        0.1890     0.6350    -0.6840 S.o2  1 <1>   1.3330 
  2 O        0.1800    -0.7140    -1.2040 O.2   1 <1>  -0.6500 
  3 O       -0.8210     1.5740    -1.1170 O.2   1 <1>  -0.6500 
  4 N        0.0870     0.5380     1.0090 N.am  1 <1>  -0.8490 
  5 C        1.8140     1.3350    -0.9830 C.3   1 <1>  -0.0550 
  6 C       -0.8860    -0.4690     1.4430 C.3   1 <1>   0.1160 
  7 C       -0.2140     1.8240     1.6490 C.3   1 <1>   0.1160 
  8 C        2.9890     0.3960    -0.6290 C.3   1 <1>  -0.0800 
  9 C        4.3630     0.9300    -1.0030 C.3   1 <1>   0.2200 
 10 C        3.1460     0.0840     0.8630 C.3   1 <1>   0.1200 
 11 N        4.4730     2.3670    -0.6610 N.am  1 <1>  -0.7300 
 12 C        5.2480     0.1230    -0.0640 C.3   1 <1>   0.1200 
 13 O        4.5180    -0.0070     1.1180 O.3   1 <1>  -0.5600 
 14 C        4.4350     3.4210    -1.5330 C.2   1 <1>   0.5440 
 15 O        4.3460     3.1680    -2.7220 O.2   1 <1>  -0.5700 
 16 C        4.4750     4.7970    -1.0350 C.ar  1 <1>   0.3960 
 17 N        4.3400     5.0260     0.2570 N.ar  1 <1>  -0.6200 
 18 C        4.6520     5.8610    -1.9470 C.ar  1 <1>  -0.1500 
 19 C        4.3730     6.3070     0.7100 C.ar  1 <1>   0.3100 
 20 C        4.6930     7.1540    -1.5250 C.ar  1 <1>  -0.1500 
 21 C        4.2260     6.6020     2.0850 C.ar  1 <1>   0.1900 
 22 C        4.5510     7.4120    -0.1530 C.ar  1 <1>   0.0000 
 23 F        4.0510     5.6140     2.9240 F     1 <1>  -0.1900 
 24 C        4.2530     7.8720     2.5950 C.ar  1 <1>  -0.1500 
 25 C        4.5790     8.7180     0.3790 C.ar  1 <1>  -0.1500 
 26 C        4.4340     8.9480     1.7220 C.ar  1 <1>  -0.1500 
 27 H        1.8890     1.5770    -2.0260 H     1 <1>   0.0800 
 28 H        1.9050     2.2540    -0.4390 H     1 <1>   0.0800 
 29 H       -0.9170    -0.5210     2.5170 H     1 <1>   0.0800 
 30 H       -0.6030    -1.4390     1.0680 H     1 <1>   0.0800 
 31 H       -1.8670    -0.2270     1.0690 H     1 <1>   0.0800 
 32 H       -0.1880     1.7200     2.7200 H     1 <1>   0.0800 
 33 H       -1.1900     2.1740     1.3540 H     1 <1>   0.0800 
 34 H        0.5170     2.5630     1.3650 H     1 <1>   0.0800 
 35 H        2.8460    -0.5390    -1.1440 H     1 <1>   0.0800 
 36 H        4.6090     0.7650    -2.0390 H     1 <1>   0.0800 
 37 H        2.6750    -0.8470     1.1310 H     1 <1>   0.0800 
 38 H        2.7580     0.8770     1.4780 H     1 <1>   0.0800 
 39 H        4.5370     2.5750     0.3420 H     1 <1>   0.3700 
 40 H        6.1880     0.6040     0.1390 H     1 <1>   0.0800 
 41 H        5.4160    -0.8650    -0.4560 H     1 <1>   0.0800 
 42 H        4.7560     5.6230    -2.9910 H     1 <1>   0.1500 
 43 H        4.8300     7.9710    -2.2120 H     1 <1>   0.1500 
 44 H        4.1380     8.0440     3.6510 H     1 <1>   0.1500 
 45 H        4.7170     9.5450    -0.2960 H     1 <1>   0.1500 
 46 H        4.4570     9.9500     2.1190 H     1 <1>   0.1500 
@<TRIPOS>BOND
  1   1   2  2   
  2   1   3  2   
  3   1   4  am  
  4   1   5  1   
  5   4   6  1   
  6   4   7  1   
  7   5   8  1   
  8   5  27  1   
  9   5  28  1   
 10   6  29  1   
 11   6  30  1   
 12   6  31  1   
 13   7  32  1   
 14   7  33  1   
 15   7  34  1   
 16   8   9  1   
 17   8  10  1   
 18   8  35  1   
 19   9  11  1   
 20   9  12  1   
 21   9  36  1   
 22  10  13  1   
 23  10  37  1   
 24  10  38  1   
 25  11  14  am  
 26  11  39  1   
 27  12  13  1   
 28  12  40  1   
 29  12  41  1   
 30  14  15  2   
 31  14  16  1   
 32  16  17  ar  
 33  16  18  ar  
 34  17  19  ar  
 35  18  20  ar  
 36  18  42  1   
 37  19  21  ar  
 38  19  22  ar  
 39  20  22  ar  
 40  20  43  1   
 41  21  23  1   
 42  21  24  ar  
 43  22  25  ar  
 44  24  26  ar  
 45  24  44  1   
 46  25  26  ar  
 47  25  45  1   
 48  26  46  1   
@<TRIPOS>SUBSTRUCTURE
  1 ****  11 GROUP 4 **** **** 0

# MOE 2024.06 (io_trps.svl 2023.06)
