@<TRIPOS>MOLECULE
NONAME
50 52 1 0 0 
SMALL
USER_CHARGES


@<TRIPOS>ATOM
  1 CL      -0.3350    -3.7590     0.6190 Cl    1 <1>  -0.1770 
  2 C       -1.9700    -3.1600     0.7990 C.ar  1 <1>   0.1770 
  3 C       -2.3450    -1.8780     0.3970 C.ar  1 <1>   0.0830 
  4 C       -2.8990    -4.0380     1.3250 C.ar  1 <1>  -0.1500 
  5 O       -1.5010    -0.9560    -0.1250 O.3   1 <1>  -0.3630 
  6 C       -3.6760    -1.5090     0.5120 C.ar  1 <1>  -0.1500 
  7 C       -4.2310    -3.6630     1.4310 C.ar  1 <1>  -0.1430 
  8 C       -0.2950    -0.6510     0.5420 C.3   1 <1>   0.2580 
  9 C       -4.6130    -2.3910     1.0260 C.ar  1 <1>  -0.1500 
 10 C       -5.2500    -4.6540     1.9590 C.3   1 <1>   0.4870 
 11 C        0.0310     0.8050     0.2710 C.2   1 <1>  -0.2880 
 12 N       -5.4800    -5.6490     0.8890 N.4   1 <1>  -0.9590 
 13 C        1.1550     1.2540    -0.2970 C.2   1 <1>  -0.3000 
 14 C       -6.2570    -5.1700    -0.2900 C.3   1 <1>   0.3430 
 15 C       -6.0390    -6.9600     1.2790 C.3   1 <1>   0.3430 
 16 C       -6.8620    -6.4310    -0.9250 C.3   1 <1>   0.2000 
 17 C       -6.4170    -7.6130    -0.0500 C.3   1 <1>  -0.0800 
 18 O       -8.2490    -6.3440    -0.8940 O.3   1 <1>  -0.6800 
 19 C       -5.2440    -8.4100    -0.6730 C.3   1 <1>   0.0210 
 20 C       -3.8780    -7.7330    -0.6410 C.2   1 <1>   0.1080 
 21 N       -3.6410    -6.5420    -1.1050 N.2   1 <1>  -0.7070 
 22 C       -2.7300    -8.3230    -0.1250 C.2   1 <1>  -0.1500 
 23 N       -2.3090    -6.3640    -0.9460 N.pl3 1 <1>   0.3000 
 24 C       -1.7470    -7.4210    -0.3290 C.2   1 <1>  -0.3320 
 25 C       -0.2700    -7.5180     0.0120 C.3   1 <1>  -0.0600 
 26 H       -2.5690    -5.0140     1.6350 H     1 <1>   0.1500 
 27 H       -3.9710    -0.5230     0.1950 H     1 <1>   0.1500 
 28 H       -0.4240    -0.8170     1.5970 H     1 <1>   0.0800 
 29 H        0.4800    -1.2890     0.1580 H     1 <1>   0.0800 
 30 H       -5.6390    -2.0700     1.1000 H     1 <1>   0.1500 
 31 H       -6.1700    -4.1560     2.2190 H     1 <1>   0.0800 
 32 H       -4.8530    -5.1370     2.8370 H     1 <1>   0.0800 
 33 H       -0.7600     1.4610     0.5890 H     1 <1>   0.1500 
 34 H       -4.5520    -5.8650     0.4610 H     1 <1>   0.4500 
 35 H        1.3580     2.2960    -0.4800 H     1 <1>   0.1500 
 36 H        1.9630     0.6250    -0.6300 H     1 <1>   0.1500 
 37 H       -7.0420    -4.4950     0.0070 H     1 <1>   0.0800 
 38 H       -5.5980    -4.6790    -0.9890 H     1 <1>   0.0800 
 39 H       -5.3200    -7.5530     1.8220 H     1 <1>   0.0800 
 40 H       -6.9210    -6.8180     1.8810 H     1 <1>   0.0800 
 41 H       -6.5610    -6.5330    -1.9550 H     1 <1>   0.0800 
 42 H       -7.2300    -8.3040     0.0930 H     1 <1>   0.0800 
 43 H       -8.6230    -6.4200     0.0050 H     1 <1>   0.4000 
 44 H       -5.4780    -8.6470    -1.6960 H     1 <1>   0.0800 
 45 H       -5.1580    -9.3480    -0.1530 H     1 <1>   0.0800 
 46 H       -2.6550    -9.3000     0.3230 H     1 <1>   0.1500 
 47 H       -1.8100    -5.5230    -1.2700 H     1 <1>   0.2700 
 48 H       -0.0540    -8.4700     0.4630 H     1 <1>   0.0800 
 49 H        0.0090    -6.7430     0.7030 H     1 <1>   0.0800 
 50 H        0.3250    -7.4210    -0.8790 H     1 <1>   0.0800 
@<TRIPOS>BOND
  1   1   2  1   
  2   2   3  ar  
  3   2   4  ar  
  4   3   5  1   
  5   3   6  ar  
  6   4   7  ar  
  7   4  26  1   
  8   5   8  1   
  9   6   9  ar  
 10   6  27  1   
 11   7   9  ar  
 12   7  10  1   
 13   8  11  1   
 14   8  28  1   
 15   8  29  1   
 16   9  30  1   
 17  10  12  1   
 18  10  31  1   
 19  10  32  1   
 20  11  13  2   
 21  11  33  1   
 22  12  14  1   
 23  12  15  1   
 24  12  34  1   
 25  13  35  1   
 26  13  36  1   
 27  14  16  1   
 28  14  37  1   
 29  14  38  1   
 30  15  17  1   
 31  15  39  1   
 32  15  40  1   
 33  16  17  1   
 34  16  18  1   
 35  16  41  1   
 36  17  19  1   
 37  17  42  1   
 38  18  43  1   
 39  19  20  1   
 40  19  44  1   
 41  19  45  1   
 42  20  21  2   
 43  20  22  1   
 44  21  23  1   
 45  22  24  2   
 46  22  46  1   
 47  23  24  1   
 48  23  47  1   
 49  24  25  1   
 50  25  48  1   
 51  25  49  1   
 52  25  50  1   
@<TRIPOS>SUBSTRUCTURE
  1 ****   4 GROUP 4 **** **** 0

# MOE 2024.06 (io_trps.svl 2023.06)
