@<TRIPOS>MOLECULE
NONAME
63 65 1 0 0 
SMALL
USER_CHARGES


@<TRIPOS>ATOM
  1 O       -1.9990    -0.2270     2.2190 O.2   1 <1>  -0.5700 
  2 C       -1.9980     0.4640     1.2170 C.2   1 <1>   0.5440 
  3 N       -2.3770    -0.1040     0.0180 N.am  1 <1>  -0.6600 
  4 C       -1.6300     1.8590     1.3180 C.ar  1 <1>   0.0860 
  5 C       -2.5470    -1.5890    -0.1260 C.3   1 <1>   0.3640 
  6 C       -2.8980     0.7340    -1.1050 C.3   1 <1>   0.1400 
  7 C       -0.5760     2.4060     0.5640 C.ar  1 <1>   0.1000 
  8 C       -2.3320     2.6950     2.1870 C.ar  1 <1>  -0.1500 
  9 C       -1.2080    -2.2300    -0.5280 C.ar  1 <1>  -0.1430 
 10 C       -3.7320    -1.9450    -1.0700 C.3   1 <1>   0.2000 
 11 C       -2.9910    -0.0600    -2.4120 C.3   1 <1>   0.1200 
 12 N        0.1880     1.6090    -0.2860 N.pl3 1 <1>  -0.8690 
 13 C       -0.3070     3.7690     0.6670 C.ar  1 <1>  -0.1500 
 14 C       -2.0390     4.0400     2.2910 C.ar  1 <1>  -0.1500 
 15 C       -0.2570    -2.4340     0.4640 C.ar  1 <1>  -0.1500 
 16 C       -0.9050    -2.6400    -1.8230 C.ar  1 <1>  -0.1500 
 17 O       -3.7740    -1.2190    -2.2870 O.3   1 <1>  -0.5600 
 18 C       -5.0890    -1.7490    -0.3790 C.3   1 <1>   0.1200 
 19 C        1.6690     1.6910    -0.3050 C.3   1 <1>   0.2090 
 20 C       -1.0250     4.5810     1.5200 C.ar  1 <1>  -0.1500 
 21 C        0.9630    -3.0250     0.1820 C.ar  1 <1>   0.0830 
 22 C        0.3210    -3.2110    -2.1210 C.ar  1 <1>  -0.1500 
 23 O       -5.2890    -2.7320     0.5860 O.3   1 <1>  -0.6800 
 24 C        2.2850     0.3960     0.2470 C.3   1 <1>  -0.0800 
 25 O        1.8180    -3.2300     1.2130 O.3   1 <1>  -0.3630 
 26 C        1.2690    -3.3910    -1.1310 C.ar  1 <1>   0.0830 
 27 C        1.9400     0.1820     1.7300 C.3   1 <1>  -0.2400 
 28 C        3.8100     0.4190     0.0790 C.3   1 <1>  -0.2400 
 29 C        2.0160    -4.5730     1.5910 C.3   1 <1>   0.0400 
 30 O        2.4620    -3.9220    -1.4960 O.3   1 <1>  -0.3630 
 31 C        3.5980    -3.1060    -1.3160 C.3   1 <1>   0.0400 
 32 H       -2.7980    -2.0000     0.8370 H     1 <1>   0.0800 
 33 H       -3.8730     1.1070    -0.8480 H     1 <1>   0.0800 
 34 H       -2.2560     1.5800    -1.2700 H     1 <1>   0.0800 
 35 H       -3.1190     2.2710     2.7870 H     1 <1>   0.1500 
 36 H       -3.6550    -2.9810    -1.3440 H     1 <1>   0.0800 
 37 H       -2.0050    -0.3400    -2.7360 H     1 <1>   0.0800 
 38 H       -3.4330     0.5480    -3.1810 H     1 <1>   0.0800 
 39 H       -0.1180     0.6230    -0.3240 H     1 <1>   0.4000 
 40 H        0.4740     4.1950     0.0640 H     1 <1>   0.1500 
 41 H       -2.5960     4.6670     2.9670 H     1 <1>   0.1500 
 42 H       -0.4590    -2.1400     1.4800 H     1 <1>   0.1500 
 43 H       -1.6130    -2.5280    -2.6240 H     1 <1>   0.1500 
 44 H       -5.8910    -1.8200    -1.0930 H     1 <1>   0.0800 
 45 H       -5.1280    -0.7930     0.1130 H     1 <1>   0.0800 
 46 H        1.9900     1.8420    -1.3210 H     1 <1>   0.0800 
 47 H        2.0070     2.5260     0.2840 H     1 <1>   0.0800 
 48 H       -0.7980     5.6310     1.5900 H     1 <1>   0.1500 
 49 H        0.5490    -3.5160    -3.1260 H     1 <1>   0.1500 
 50 H       -5.4640    -3.5990     0.1720 H     1 <1>   0.4000 
 51 H        1.9020    -0.4310    -0.3250 H     1 <1>   0.0800 
 52 H        2.2740     1.0140     2.3230 H     1 <1>   0.0800 
 53 H        2.4060    -0.7150     2.0980 H     1 <1>   0.0800 
 54 H        0.8790     0.0770     1.8610 H     1 <1>   0.0800 
 55 H        4.2400     1.2370     0.6300 H     1 <1>   0.0800 
 56 H        4.0720     0.5250    -0.9590 H     1 <1>   0.0800 
 57 H        4.2360    -0.4990     0.4430 H     1 <1>   0.0800 
 58 H        2.6610    -4.5890     2.4500 H     1 <1>   0.0800 
 59 H        2.4730    -5.1080     0.7770 H     1 <1>   0.0800 
 60 H        1.0630    -5.0070     1.8350 H     1 <1>   0.0800 
 61 H        4.4360    -3.5870    -1.7870 H     1 <1>   0.0800 
 62 H        3.7900    -2.9870    -0.2650 H     1 <1>   0.0800 
 63 H        3.4160    -2.1500    -1.7730 H     1 <1>   0.0800 
@<TRIPOS>BOND
  1   1   2  2   
  2   2   3  am  
  3   2   4  1   
  4   3   5  1   
  5   3   6  1   
  6   4   7  ar  
  7   4   8  ar  
  8   5   9  1   
  9   5  10  1   
 10   5  32  1   
 11   6  11  1   
 12   6  33  1   
 13   6  34  1   
 14   7  12  1   
 15   7  13  ar  
 16   8  14  ar  
 17   8  35  1   
 18   9  15  ar  
 19   9  16  ar  
 20  10  17  1   
 21  10  18  1   
 22  10  36  1   
 23  11  17  1   
 24  11  37  1   
 25  11  38  1   
 26  12  19  1   
 27  12  39  1   
 28  13  20  ar  
 29  13  40  1   
 30  14  20  ar  
 31  14  41  1   
 32  15  21  ar  
 33  15  42  1   
 34  16  22  ar  
 35  16  43  1   
 36  18  23  1   
 37  18  44  1   
 38  18  45  1   
 39  19  24  1   
 40  19  46  1   
 41  19  47  1   
 42  20  48  1   
 43  21  25  1   
 44  21  26  ar  
 45  22  26  ar  
 46  22  49  1   
 47  23  50  1   
 48  24  27  1   
 49  24  28  1   
 50  24  51  1   
 51  25  29  1   
 52  26  30  1   
 53  27  52  1   
 54  27  53  1   
 55  27  54  1   
 56  28  55  1   
 57  28  56  1   
 58  28  57  1   
 59  29  58  1   
 60  29  59  1   
 61  29  60  1   
 62  30  31  1   
 63  31  61  1   
 64  31  62  1   
 65  31  63  1   
@<TRIPOS>SUBSTRUCTURE
  1 ****   3 GROUP 4 **** **** 0

# MOE 2024.06 (io_trps.svl 2023.06)
