@<TRIPOS>MOLECULE
NONAME
52 54 1 0 0 
SMALL
USER_CHARGES


@<TRIPOS>ATOM
  1 S       -0.2930    -0.0760    -0.0740 S.o2  1 <1>   1.3330 
  2 O       -0.9970     1.0540    -0.6370 O.2   1 <1>  -0.6500 
  3 O       -0.4930    -0.4180     1.3160 O.2   1 <1>  -0.6500 
  4 N       -0.6540    -1.4490    -1.0050 N.am  1 <1>  -0.8490 
  5 C        1.4560     0.1650    -0.3950 C.3   1 <1>  -0.0550 
  6 C       -2.0420    -1.4510    -1.4770 C.3   1 <1>   0.1160 
  7 C       -0.3580    -2.7110    -0.3190 C.3   1 <1>   0.1160 
  8 C        2.0410     1.4180     0.2900 C.3   1 <1>  -0.0800 
  9 C        3.4460     1.7110    -0.2070 C.3   1 <1>   0.2200 
 10 C        2.2740     1.1960     1.7890 C.3   1 <1>   0.1200 
 11 N        3.7540     3.1410     0.0230 N.am  1 <1>  -0.7300 
 12 C        4.2930     0.8510     0.7230 C.3   1 <1>   0.1200 
 13 O        3.6050     0.7950     1.9380 O.3   1 <1>  -0.5600 
 14 C        4.0870     4.0450    -0.9440 C.2   1 <1>   0.5440 
 15 O        4.1430     3.6650    -2.0960 O.2   1 <1>  -0.5700 
 16 C        4.3510     5.4220    -0.5810 C.ar  1 <1>   0.0860 
 17 C        5.5250     6.1050    -0.9910 C.ar  1 <1>   0.1670 
 18 C        3.4600     6.1170     0.1960 C.ar  1 <1>  -0.1500 
 19 N        5.8060     7.3310    -0.6700 N.ar  1 <1>  -0.6200 
 20 C        6.5610     5.4010    -1.8520 C.3   1 <1>  -0.0970 
 21 C        3.7290     7.4440     0.5580 C.ar  1 <1>   0.0000 
 22 C        4.9290     8.0290     0.1010 C.ar  1 <1>   0.3100 
 23 C        2.8500     8.2050     1.3540 C.ar  1 <1>  -0.1500 
 24 C        5.2120     9.3660     0.4620 C.ar  1 <1>  -0.1440 
 25 C        3.1470     9.4970     1.6890 C.ar  1 <1>  -0.1500 
 26 C        4.3350    10.0790     1.2400 C.ar  1 <1>  -0.1500 
 27 C        6.5010    10.0230    -0.0180 C.3   1 <1>  -0.0970 
 28 H        2.0010    -0.7040    -0.0830 H     1 <1>   0.0800 
 29 H        1.5820     0.2670    -1.4550 H     1 <1>   0.0800 
 30 H       -2.2320    -2.3260    -2.0760 H     1 <1>   0.0800 
 31 H       -2.2260    -0.5820    -2.0860 H     1 <1>   0.0800 
 32 H       -2.7220    -1.4380    -0.6410 H     1 <1>   0.0800 
 33 H       -0.5170    -3.5410    -0.9860 H     1 <1>   0.0800 
 34 H       -0.9930    -2.8290     0.5440 H     1 <1>   0.0800 
 35 H        0.6680    -2.7280     0.0050 H     1 <1>   0.0800 
 36 H        1.3840     2.2520     0.1100 H     1 <1>   0.0800 
 37 H        3.5940     1.4520    -1.2430 H     1 <1>   0.0800 
 38 H        1.6370     0.4440     2.2210 H     1 <1>   0.0800 
 39 H        2.1510     2.1170     2.3330 H     1 <1>   0.0800 
 40 H        3.8160     3.4060     1.0090 H     1 <1>   0.3700 
 41 H        5.2770     1.2560     0.8820 H     1 <1>   0.0800 
 42 H        4.3700    -0.1540     0.3470 H     1 <1>   0.0800 
 43 H        2.5450     5.6600     0.5290 H     1 <1>   0.1500 
 44 H        6.8180     4.4470    -1.4300 H     1 <1>   0.0800 
 45 H        7.4560     5.9920    -1.9250 H     1 <1>   0.0800 
 46 H        6.1700     5.2540    -2.8430 H     1 <1>   0.0800 
 47 H        1.9360     7.7530     1.6950 H     1 <1>   0.1500 
 48 H        2.4760    10.0790     2.2970 H     1 <1>   0.1500 
 49 H        4.5430    11.0980     1.5190 H     1 <1>   0.1500 
 50 H        6.5780    11.0360     0.3310 H     1 <1>   0.0800 
 51 H        6.5290    10.0260    -1.0930 H     1 <1>   0.0800 
 52 H        7.3490     9.4690     0.3450 H     1 <1>   0.0800 
@<TRIPOS>BOND
  1   1   2  2   
  2   1   3  2   
  3   1   4  am  
  4   1   5  1   
  5   4   6  1   
  6   4   7  1   
  7   5   8  1   
  8   5  28  1   
  9   5  29  1   
 10   6  30  1   
 11   6  31  1   
 12   6  32  1   
 13   7  33  1   
 14   7  34  1   
 15   7  35  1   
 16   8   9  1   
 17   8  10  1   
 18   8  36  1   
 19   9  11  1   
 20   9  12  1   
 21   9  37  1   
 22  10  13  1   
 23  10  38  1   
 24  10  39  1   
 25  11  14  am  
 26  11  40  1   
 27  12  13  1   
 28  12  41  1   
 29  12  42  1   
 30  14  15  2   
 31  14  16  1   
 32  16  17  ar  
 33  16  18  ar  
 34  17  19  ar  
 35  17  20  1   
 36  18  21  ar  
 37  18  43  1   
 38  19  22  ar  
 39  20  44  1   
 40  20  45  1   
 41  20  46  1   
 42  21  22  ar  
 43  21  23  ar  
 44  22  24  ar  
 45  23  25  ar  
 46  23  47  1   
 47  24  26  ar  
 48  24  27  1   
 49  25  26  ar  
 50  25  48  1   
 51  26  49  1   
 52  27  50  1   
 53  27  51  1   
 54  27  52  1   
@<TRIPOS>SUBSTRUCTURE
  1 ****  11 GROUP 4 **** **** 0

# MOE 2024.06 (io_trps.svl 2023.06)
