@<TRIPOS>MOLECULE
NONAME
52 53 1 0 0 
SMALL
USER_CHARGES


@<TRIPOS>ATOM
  1 S        0.1860     0.4390    -0.8430 S.o2  1 <1>   1.3330 
  2 O        0.3210    -0.7040    -1.7190 O.2   1 <1>  -0.6500 
  3 O       -0.9060     1.3650    -1.0340 O.2   1 <1>  -0.6500 
  4 N        0.0850    -0.1370     0.7530 N.am  1 <1>  -0.8490 
  5 C        1.7360     1.3420    -0.8700 C.3   1 <1>  -0.0550 
  6 C       -0.6900    -1.3780     0.8450 C.3   1 <1>   0.1160 
  7 C       -0.4530     0.8520     1.6940 C.3   1 <1>   0.1160 
  8 C        2.9920     0.4540    -0.7280 C.3   1 <1>  -0.0800 
  9 C        4.3140     1.1740    -0.9480 C.3   1 <1>   0.2200 
 10 C        3.1840    -0.1970     0.6480 C.3   1 <1>   0.1200 
 11 N        4.3190     2.4940    -0.2710 N.am  1 <1>  -0.7300 
 12 C        5.2600     0.2420    -0.2060 C.3   1 <1>   0.1200 
 13 O        4.5530    -0.1440     0.9320 O.3   1 <1>  -0.5600 
 14 C        4.1310     3.6810    -0.8920 C.2   1 <1>   0.5690 
 15 O        3.8720     3.7500    -2.0670 O.2   1 <1>  -0.5700 
 16 C        4.2340     4.9600    -0.0900 C.3   1 <1>  -0.0990 
 17 C        5.4340     5.8010    -0.5480 C.3   1 <1>  -0.0220 
 18 C        5.4680     7.1490     0.1780 C.2   1 <1>  -0.1240 
 19 C        4.7760     8.2270    -0.2900 C.2   1 <1>  -0.0290 
 20 C        6.2340     7.3150     1.3770 C.2   1 <1>   0.3750 
 21 N        4.8820     9.3870     0.4180 N.am  1 <1>  -0.5390 
 22 C        3.8820     8.3000    -1.5200 C.3   1 <1>  -0.1020 
 23 N        6.3110     8.4200     2.0280 N.2   1 <1>  -0.6610 
 24 C        7.0220     6.1560     1.9620 C.3   1 <1>  -0.1790 
 25 C        5.6270     9.4970     1.5490 C.2   1 <1>   0.8410 
 26 O        5.6660    10.5690     2.1190 O.2   1 <1>  -0.5700 
 27 H        1.8030     1.8610    -1.8080 H     1 <1>   0.0800 
 28 H        1.7260     2.0840    -0.0970 H     1 <1>   0.0800 
 29 H       -0.7270    -1.7210     1.8650 H     1 <1>   0.0800 
 30 H       -0.2270    -2.1480     0.2500 H     1 <1>   0.0800 
 31 H       -1.6930    -1.2200     0.4860 H     1 <1>   0.0800 
 32 H       -0.4080     0.4700     2.6990 H     1 <1>   0.0800 
 33 H       -1.4790     1.0820     1.4530 H     1 <1>   0.0800 
 34 H        0.1220     1.7600     1.6500 H     1 <1>   0.0800 
 35 H        2.9280    -0.3390    -1.4540 H     1 <1>   0.0800 
 36 H        4.5670     1.2760    -1.9910 H     1 <1>   0.0800 
 37 H        2.8630    -1.2250     0.6520 H     1 <1>   0.0800 
 38 H        2.6710     0.3440     1.4250 H     1 <1>   0.0800 
 39 H        4.4920     2.4340     0.7360 H     1 <1>   0.3700 
 40 H        6.1820     0.7180     0.0800 H     1 <1>   0.0800 
 41 H        5.4650    -0.6410    -0.7860 H     1 <1>   0.0800 
 42 H        3.3260     5.5160    -0.2340 H     1 <1>   0.0800 
 43 H        4.3200     4.7320     0.9560 H     1 <1>   0.0800 
 44 H        5.3700     5.9640    -1.6100 H     1 <1>   0.0800 
 45 H        6.3430     5.2490    -0.3980 H     1 <1>   0.0800 
 46 H        4.4140    10.2500     0.1510 H     1 <1>   0.3700 
 47 H        2.9370     8.7420    -1.2580 H     1 <1>   0.0800 
 48 H        3.6820     7.3350    -1.9440 H     1 <1>   0.0800 
 49 H        4.3490     8.9120    -2.2710 H     1 <1>   0.0800 
 50 H        6.3840     5.3080     2.1220 H     1 <1>   0.0800 
 51 H        7.4470     6.4360     2.9090 H     1 <1>   0.0800 
 52 H        7.8260     5.8890     1.3020 H     1 <1>   0.0800 
@<TRIPOS>BOND
  1   1   2  2   
  2   1   3  2   
  3   1   4  am  
  4   1   5  1   
  5   4   6  1   
  6   4   7  1   
  7   5   8  1   
  8   5  27  1   
  9   5  28  1   
 10   6  29  1   
 11   6  30  1   
 12   6  31  1   
 13   7  32  1   
 14   7  33  1   
 15   7  34  1   
 16   8   9  1   
 17   8  10  1   
 18   8  35  1   
 19   9  11  1   
 20   9  12  1   
 21   9  36  1   
 22  10  13  1   
 23  10  37  1   
 24  10  38  1   
 25  11  14  am  
 26  11  39  1   
 27  12  13  1   
 28  12  40  1   
 29  12  41  1   
 30  14  15  2   
 31  14  16  1   
 32  16  17  1   
 33  16  42  1   
 34  16  43  1   
 35  17  18  1   
 36  17  44  1   
 37  17  45  1   
 38  18  19  2   
 39  18  20  1   
 40  19  21  1   
 41  19  22  1   
 42  20  23  2   
 43  20  24  1   
 44  21  25  am  
 45  21  46  1   
 46  22  47  1   
 47  22  48  1   
 48  22  49  1   
 49  23  25  1   
 50  24  50  1   
 51  24  51  1   
 52  24  52  1   
 53  25  26  2   
@<TRIPOS>SUBSTRUCTURE
  1 ****  14 GROUP 4 **** **** 0

# MOE 2024.06 (io_trps.svl 2023.06)
