@<TRIPOS>MOLECULE
NONAME
44 47 1 0 0 
SMALL
USER_CHARGES


@<TRIPOS>ATOM
  1 O       -0.6010     0.1700    -0.5680 O.2   1 <1>  -0.5700 
  2 C       -1.4330     0.8260     0.0260 C.2   1 <1>   0.5440 
  3 N       -2.5300     0.1830     0.5550 N.am  1 <1>  -0.6600 
  4 C       -1.2630     2.2570     0.1460 C.ar  1 <1>   0.0860 
  5 C       -2.5930    -1.3110     0.6600 C.3   1 <1>   0.1400 
  6 C       -3.8800     0.8190     0.6640 C.3   1 <1>   0.1400 
  7 C       -1.4700     2.8990     1.3670 C.ar  1 <1>   0.1600 
  8 C       -0.8920     3.0460    -0.9330 C.ar  1 <1>  -0.1500 
  9 C       -3.6650    -1.8870    -0.2830 C.3   1 <1>   0.3440 
 10 C       -4.8890     0.1260    -0.2750 C.3   1 <1>   0.2950 
 11 N       -1.3740     4.2020     1.5880 N.ar  1 <1>  -0.6200 
 12 C       -0.7780     4.4030    -0.7290 C.ar  1 <1>   0.0820 
 13 O       -4.8980    -1.2540    -0.0520 O.3   1 <1>  -0.5600 
 14 C       -3.8100    -3.3910    -0.0710 C.ar  1 <1>  -0.1440 
 15 C       -6.3130     0.6390    -0.0430 C.3   1 <1>  -0.1950 
 16 C       -1.0280     4.9270     0.5350 C.ar  1 <1>   0.1600 
 17 O       -0.4270     5.1870    -1.7660 O.3   1 <1>  -0.5320 
 18 C       -4.7090    -3.9140     0.8490 C.ar  1 <1>  -0.1500 
 19 C       -3.0140    -4.2610    -0.8030 C.ar  1 <1>  -0.1500 
 20 C       -7.3610     0.5200    -1.1040 C.3   1 <1>  -0.2000 
 21 C       -6.8130     1.8700    -0.7350 C.3   1 <1>  -0.2000 
 22 C       -4.8100    -5.2820     1.0350 C.ar  1 <1>  -0.1500 
 23 C       -3.1140    -5.6300    -0.6190 C.ar  1 <1>  -0.1500 
 24 C       -4.0120    -6.1410     0.3010 C.ar  1 <1>  -0.1500 
 25 H       -1.6410    -1.7510     0.4220 H     1 <1>   0.0800 
 26 H       -2.8330    -1.5860     1.6710 H     1 <1>   0.0800 
 27 H       -4.2290     0.7410     1.6790 H     1 <1>   0.0800 
 28 H       -3.8360     1.8620     0.4070 H     1 <1>   0.0800 
 29 H       -1.7350     2.2870     2.2120 H     1 <1>   0.1500 
 30 H       -0.6990     2.6110    -1.8980 H     1 <1>   0.1500 
 31 H       -3.3830    -1.7000    -1.3050 H     1 <1>   0.0800 
 32 H       -4.6080     0.2970    -1.3000 H     1 <1>   0.0800 
 33 H       -6.6330     0.4870     0.9730 H     1 <1>   0.1000 
 34 H       -0.9390     5.9880     0.6860 H     1 <1>   0.1500 
 35 H       -0.3310     6.1320    -1.5460 H     1 <1>   0.4500 
 36 H       -5.3370    -3.2540     1.4230 H     1 <1>   0.1500 
 37 H       -2.3100    -3.8790    -1.5220 H     1 <1>   0.1500 
 38 H       -7.0890     0.0820    -2.0490 H     1 <1>   0.1000 
 39 H       -8.3620     0.2600    -0.8050 H     1 <1>   0.1000 
 40 H       -7.4480     2.5490    -0.1920 H     1 <1>   0.1000 
 41 H       -6.1870     2.3750    -1.4500 H     1 <1>   0.1000 
 42 H       -5.5110    -5.6750     1.7490 H     1 <1>   0.1500 
 43 H       -2.4940    -6.2970    -1.1920 H     1 <1>   0.1500 
 44 H       -4.0910    -7.2040     0.4440 H     1 <1>   0.1500 
@<TRIPOS>BOND
  1   1   2  2   
  2   2   3  am  
  3   2   4  1   
  4   3   5  1   
  5   3   6  1   
  6   4   7  ar  
  7   4   8  ar  
  8   5   9  1   
  9   5  25  1   
 10   5  26  1   
 11   6  10  1   
 12   6  27  1   
 13   6  28  1   
 14   7  11  ar  
 15   7  29  1   
 16   8  12  ar  
 17   8  30  1   
 18   9  13  1   
 19   9  14  1   
 20   9  31  1   
 21  10  13  1   
 22  10  15  1   
 23  10  32  1   
 24  11  16  ar  
 25  12  16  ar  
 26  12  17  1   
 27  14  18  ar  
 28  14  19  ar  
 29  15  20  1   
 30  15  21  1   
 31  15  33  1   
 32  16  34  1   
 33  17  35  1   
 34  18  22  ar  
 35  18  36  1   
 36  19  23  ar  
 37  19  37  1   
 38  20  21  1   
 39  20  38  1   
 40  20  39  1   
 41  21  40  1   
 42  21  41  1   
 43  22  24  ar  
 44  22  42  1   
 45  23  24  ar  
 46  23  43  1   
 47  24  44  1   
@<TRIPOS>SUBSTRUCTURE
  1 ****   3 GROUP 4 **** **** 0

# MOE 2024.06 (io_trps.svl 2023.06)
