@<TRIPOS>MOLECULE
NONAME
50 53 1 0 0 
SMALL
USER_CHARGES


@<TRIPOS>ATOM
  1 O       -0.7260    -2.1830    -2.1140 O.2   1 <1>  -0.5700 
  2 C       -0.1510    -1.7940    -1.1210 C.2   1 <1>   0.7800 
  3 O       -0.2910    -0.5590    -0.6640 O.3   1 <1>  -0.4300 
  4 N        0.6630    -2.5280    -0.3350 N.am  1 <1>  -0.6600 
  5 C        0.4370    -0.3800     0.5370 C.3   1 <1>   0.1200 
  6 C        1.0890    -1.7390     0.8220 C.3   1 <1>   0.1400 
  7 C        0.8860    -4.0040    -0.4170 C.3   1 <1>   0.2010 
  8 C        0.3200    -4.7650     0.7860 C.2   1 <1>   0.5690 
  9 O        1.1010    -5.0360     1.6710 O.2   1 <1>  -0.5700 
 10 N       -1.0100    -5.1100     0.8670 N.am  1 <1>  -0.6600 
 11 C       -2.0530    -4.7560    -0.1380 C.3   1 <1>   0.1400 
 12 C       -1.5490    -5.8700     2.0300 C.3   1 <1>   0.1400 
 13 C       -2.7030    -6.0380    -0.6660 C.3   1 <1>  -0.1600 
 14 C       -2.2030    -7.1640     1.5380 C.3   1 <1>  -0.1600 
 15 C       -3.2830    -6.9000     0.4730 C.3   1 <1>   0.4240 
 16 O       -4.2290    -6.0990     1.1490 O.3   1 <1>  -0.5600 
 17 C       -3.9190    -8.2230    -0.0430 C.ar  1 <1>  -0.1430 
 18 C       -5.5160    -6.0330     0.6280 C.3   1 <1>   0.1200 
 19 C       -3.1650    -9.2140    -0.6870 C.ar  1 <1>   0.0830 
 20 C       -5.2850    -8.4490     0.1290 C.ar  1 <1>  -0.1430 
 21 C       -6.1580    -7.4020     0.7900 C.3   1 <1>  -0.0170 
 22 O       -1.8370    -9.0050    -0.8890 O.3   1 <1>  -0.3630 
 23 C       -3.7740   -10.3910    -1.1180 C.ar  1 <1>  -0.1500 
 24 C       -5.8790    -9.6240    -0.3020 C.ar  1 <1>  -0.1500 
 25 C       -0.9750    -9.9960    -1.4020 C.3   1 <1>   0.0400 
 26 C       -5.1240   -10.5960    -0.9240 C.ar  1 <1>  -0.1500 
 27 H       -0.2440    -0.0930     1.3180 H     1 <1>   0.0800 
 28 H        1.1730     0.3890     0.3820 H     1 <1>   0.0800 
 29 H        2.1620    -1.6620     0.8610 H     1 <1>   0.0800 
 30 H        0.7160    -2.1640     1.7380 H     1 <1>   0.0800 
 31 H        1.9440    -4.1870    -0.4630 H     1 <1>   0.0800 
 32 H        0.4550    -4.3900    -1.3230 H     1 <1>   0.0800 
 33 H       -1.6420    -4.2060    -0.9620 H     1 <1>   0.0800 
 34 H       -2.7960    -4.1340     0.3320 H     1 <1>   0.0800 
 35 H       -2.2740    -5.2610     2.5430 H     1 <1>   0.0800 
 36 H       -0.7650    -6.1090     2.7280 H     1 <1>   0.0800 
 37 H       -1.9530    -6.5860    -1.2000 H     1 <1>   0.0800 
 38 H       -3.4720    -5.7960    -1.3730 H     1 <1>   0.0800 
 39 H       -2.6490    -7.6840     2.3650 H     1 <1>   0.0800 
 40 H       -1.4260    -7.7900     1.1510 H     1 <1>   0.0800 
 41 H       -5.4710    -5.7410    -0.4060 H     1 <1>   0.0800 
 42 H       -6.0610    -5.2910     1.1850 H     1 <1>   0.0800 
 43 H       -7.1340    -7.3880     0.3400 H     1 <1>   0.0800 
 44 H       -6.2670    -7.6260     1.8360 H     1 <1>   0.0800 
 45 H       -3.2170   -11.1640    -1.6110 H     1 <1>   0.1500 
 46 H       -6.9320    -9.7860    -0.1550 H     1 <1>   0.1500 
 47 H        0.0240    -9.6010    -1.4040 H     1 <1>   0.0800 
 48 H       -1.2750   -10.2350    -2.4070 H     1 <1>   0.0800 
 49 H       -1.0230   -10.8630    -0.7670 H     1 <1>   0.0800 
 50 H       -5.5880   -11.5080    -1.2570 H     1 <1>   0.1500 
@<TRIPOS>BOND
  1   1   2  2   
  2   2   3  1   
  3   2   4  am  
  4   3   5  1   
  5   4   6  1   
  6   4   7  1   
  7   5   6  1   
  8   5  27  1   
  9   5  28  1   
 10   6  29  1   
 11   6  30  1   
 12   7   8  1   
 13   7  31  1   
 14   7  32  1   
 15   8   9  2   
 16   8  10  am  
 17  10  11  1   
 18  10  12  1   
 19  11  13  1   
 20  11  33  1   
 21  11  34  1   
 22  12  14  1   
 23  12  35  1   
 24  12  36  1   
 25  13  15  1   
 26  13  37  1   
 27  13  38  1   
 28  14  15  1   
 29  14  39  1   
 30  14  40  1   
 31  15  16  1   
 32  15  17  1   
 33  16  18  1   
 34  17  19  ar  
 35  17  20  ar  
 36  18  21  1   
 37  18  41  1   
 38  18  42  1   
 39  19  22  1   
 40  19  23  ar  
 41  20  21  1   
 42  20  24  ar  
 43  21  43  1   
 44  21  44  1   
 45  22  25  1   
 46  23  26  ar  
 47  23  45  1   
 48  24  26  ar  
 49  24  46  1   
 50  25  47  1   
 51  25  48  1   
 52  25  49  1   
 53  26  50  1   
@<TRIPOS>SUBSTRUCTURE
  1 ****  13 GROUP 4 **** **** 0

# MOE 2024.06 (io_trps.svl 2023.06)
