@<TRIPOS>MOLECULE
NONAME
44 46 1 0 0 
SMALL
USER_CHARGES


@<TRIPOS>ATOM
  1 F       -1.6060    -0.4850    -1.4180 F     1 <1>  -0.1900 
  2 C       -2.1890     0.4030    -0.6500 C.ar  1 <1>   0.1900 
  3 C       -2.0260     1.7540    -0.9050 C.ar  1 <1>   0.1900 
  4 C       -2.9770    -0.0410     0.4000 C.ar  1 <1>  -0.1440 
  5 F       -1.2800     2.1340    -1.9110 F     1 <1>  -0.1900 
  6 C       -2.6460     2.7100    -0.1130 C.ar  1 <1>  -0.1440 
  7 C       -3.6000     0.9120     1.1970 C.ar  1 <1>  -0.1500 
  8 C       -3.1480    -1.5230     0.6670 C.3   1 <1>   0.4870 
  9 C       -3.4360     2.2680     0.9410 C.ar  1 <1>  -0.1500 
 10 C       -2.4710     4.1970    -0.3850 C.3   1 <1>  -0.0970 
 11 N       -3.8770    -2.1520    -0.4700 N.4   1 <1>  -0.9590 
 12 C       -5.2750    -1.6200    -0.5710 C.3   1 <1>   0.3430 
 13 C       -3.9910    -3.6310    -0.2710 C.3   1 <1>   0.3430 
 14 C       -6.1520    -2.6360     0.1640 C.3   1 <1>   0.2000 
 15 C       -5.4880    -3.9600    -0.2110 C.3   1 <1>  -0.0800 
 16 O       -6.0260    -2.4130     1.5340 O.3   1 <1>  -0.6800 
 17 C       -5.8040    -5.1660     0.6940 C.3   1 <1>  -0.0170 
 18 C       -4.9780    -6.3690     0.2690 C.ar  1 <1>  -0.1430 
 19 C       -3.9160    -6.8300     1.0230 C.ar  1 <1>  -0.1500 
 20 C       -5.2440    -7.0620    -0.8950 C.ar  1 <1>  -0.1500 
 21 C       -3.1810    -7.9160     0.5780 C.ar  1 <1>   0.1600 
 22 C       -4.4460    -8.1370    -1.2510 C.ar  1 <1>   0.1600 
 23 N       -3.4160    -8.5710    -0.5460 N.ar  1 <1>  -0.6200 
 24 H       -4.2190     0.6130     2.0280 H     1 <1>   0.1500 
 25 H       -3.6980    -1.6690     1.5840 H     1 <1>   0.0800 
 26 H       -2.1760    -1.9770     0.7760 H     1 <1>   0.0800 
 27 H       -3.9290     2.9860     1.5760 H     1 <1>   0.1500 
 28 H       -3.0210     4.7900     0.3240 H     1 <1>   0.0800 
 29 H       -2.8210     4.4350    -1.3740 H     1 <1>   0.0800 
 30 H       -1.4300     4.4630    -0.3160 H     1 <1>   0.0800 
 31 H       -3.3460    -1.9300    -1.3260 H     1 <1>   0.4500 
 32 H       -5.3770    -0.6350    -0.1450 H     1 <1>   0.0800 
 33 H       -5.5710    -1.5870    -1.6070 H     1 <1>   0.0800 
 34 H       -3.5160    -4.1740    -1.0730 H     1 <1>   0.0800 
 35 H       -3.5270    -3.9150     0.6600 H     1 <1>   0.0800 
 36 H       -7.1910    -2.5670    -0.1130 H     1 <1>   0.0800 
 37 H       -5.7940    -4.2090    -1.2130 H     1 <1>   0.0800 
 38 H       -6.7560    -2.8430     2.0300 H     1 <1>   0.4000 
 39 H       -6.8500    -5.4120     0.6270 H     1 <1>   0.0800 
 40 H       -5.5870    -4.9400     1.7240 H     1 <1>   0.0800 
 41 H       -3.6490    -6.3660     1.9550 H     1 <1>   0.1500 
 42 H       -6.0640    -6.7850    -1.5330 H     1 <1>   0.1500 
 43 H       -2.3570    -8.2670     1.1770 H     1 <1>   0.1500 
 44 H       -4.6660    -8.6680    -2.1620 H     1 <1>   0.1500 
@<TRIPOS>BOND
  1   1   2  1   
  2   2   3  ar  
  3   2   4  ar  
  4   3   5  1   
  5   3   6  ar  
  6   4   7  ar  
  7   4   8  1   
  8   6   9  ar  
  9   6  10  1   
 10   7   9  ar  
 11   7  24  1   
 12   8  11  1   
 13   8  25  1   
 14   8  26  1   
 15   9  27  1   
 16  10  28  1   
 17  10  29  1   
 18  10  30  1   
 19  11  12  1   
 20  11  13  1   
 21  11  31  1   
 22  12  14  1   
 23  12  32  1   
 24  12  33  1   
 25  13  15  1   
 26  13  34  1   
 27  13  35  1   
 28  14  15  1   
 29  14  16  1   
 30  14  36  1   
 31  15  17  1   
 32  15  37  1   
 33  16  38  1   
 34  17  18  1   
 35  17  39  1   
 36  17  40  1   
 37  18  19  ar  
 38  18  20  ar  
 39  19  21  ar  
 40  19  41  1   
 41  20  22  ar  
 42  20  42  1   
 43  21  23  ar  
 44  21  43  1   
 45  22  23  ar  
 46  22  44  1   
@<TRIPOS>SUBSTRUCTURE
  1 ****  11 GROUP 4 **** **** 0

# MOE 2024.06 (io_trps.svl 2023.06)
