@<TRIPOS>MOLECULE
NONAME
51 52 1 0 0 
SMALL
USER_CHARGES


@<TRIPOS>ATOM
  1 F        1.7150     0.6250    -2.6300 F     1 <1>  -0.1900 
  2 C        2.4420     1.2280    -1.7110 C.ar  1 <1>   0.1900 
  3 C        2.7340     0.6220    -0.4890 C.ar  1 <1>   0.4100 
  4 C        2.9110     2.4870    -1.9630 C.ar  1 <1>   0.1600 
  5 N        3.4510     1.2800     0.4040 N.ar  1 <1>  -0.6200 
  6 N        2.3120    -0.6590    -0.1350 N.pl3 1 <1>  -0.8380 
  7 N        3.6350     3.1450    -1.0780 N.ar  1 <1>  -0.6200 
  8 C        3.8590     2.4880     0.0570 C.ar  1 <1>   0.7200 
  9 C        2.4600    -1.7970    -1.0820 C.3   1 <1>   0.1290 
 10 C        2.1780    -1.0440     1.2970 C.3   1 <1>   0.1290 
 11 N        4.6000     3.1030     1.0090 N.pl3 1 <1>  -0.8690 
 12 C        4.6380     4.5650     1.1850 C.3   1 <1>   0.2090 
 13 C        5.9230     5.0870     0.5390 C.3   1 <1>  -0.1600 
 14 C        6.0350     6.6160     0.6230 C.3   1 <1>  -0.1600 
 15 C        7.3010     7.0930    -0.0940 C.3   1 <1>   0.3430 
 16 N        7.3840     8.5790    -0.0710 N.4   1 <1>  -0.9590 
 17 C        8.3550     9.0680    -1.0870 C.3   1 <1>   0.3430 
 18 C        7.7470     9.1040     1.2720 C.3   1 <1>   0.3430 
 19 C        8.0210    10.4950    -1.5320 C.3   1 <1>  -0.1600 
 20 C        6.8910    10.3240     1.6140 C.3   1 <1>  -0.1600 
 21 C        7.9180    11.5520    -0.4160 C.3   1 <1>  -0.1600 
 22 C        6.6910    11.3550     0.4870 C.3   1 <1>  -0.1600 
 23 H        2.6900     2.9620    -2.9020 H     1 <1>   0.1500 
 24 H        3.0110    -1.4940    -1.9550 H     1 <1>   0.0800 
 25 H        1.4870    -2.1430    -1.3830 H     1 <1>   0.0800 
 26 H        2.9930    -2.6040    -0.6100 H     1 <1>   0.0800 
 27 H        1.8680    -0.1940     1.8810 H     1 <1>   0.0800 
 28 H        3.1250    -1.3950     1.6690 H     1 <1>   0.0800 
 29 H        1.4410    -1.8200     1.4030 H     1 <1>   0.0800 
 30 H        4.6010     2.5490     1.8650 H     1 <1>   0.4000 
 31 H        4.6210     4.7980     2.2360 H     1 <1>   0.0800 
 32 H        3.7740     5.0140     0.7220 H     1 <1>   0.0800 
 33 H        5.9260     4.7840    -0.4940 H     1 <1>   0.0800 
 34 H        6.7650     4.6290     1.0290 H     1 <1>   0.0800 
 35 H        6.0540     6.9060     1.6580 H     1 <1>   0.0800 
 36 H        5.1720     7.0530     0.1520 H     1 <1>   0.0800 
 37 H        7.2640     6.7490    -1.1160 H     1 <1>   0.0800 
 38 H        8.1740     6.6640     0.3720 H     1 <1>   0.0800 
 39 H        6.4640     8.9650    -0.3150 H     1 <1>   0.4500 
 40 H        8.3260     8.4290    -1.9550 H     1 <1>   0.0800 
 41 H        9.3550     9.0360    -0.6850 H     1 <1>   0.0800 
 42 H        8.7880     9.3830     1.2840 H     1 <1>   0.0800 
 43 H        7.5990     8.3500     2.0280 H     1 <1>   0.0800 
 44 H        7.1070    10.4820    -2.1010 H     1 <1>   0.0800 
 45 H        8.7950    10.8070    -2.2120 H     1 <1>   0.0800 
 46 H        7.3630    10.8180     2.4460 H     1 <1>   0.0800 
 47 H        5.9280     9.9950     1.9630 H     1 <1>   0.0800 
 48 H        7.8220    12.5150    -0.8920 H     1 <1>   0.0800 
 49 H        8.8220    11.5850     0.1690 H     1 <1>   0.0800 
 50 H        6.4480    12.3000     0.9450 H     1 <1>   0.0800 
 51 H        5.8410    11.0840    -0.1160 H     1 <1>   0.0800 
@<TRIPOS>BOND
  1   1   2  1   
  2   2   3  ar  
  3   2   4  ar  
  4   3   5  ar  
  5   3   6  1   
  6   4   7  ar  
  7   4  23  1   
  8   5   8  ar  
  9   6   9  1   
 10   6  10  1   
 11   7   8  ar  
 12   8  11  1   
 13   9  24  1   
 14   9  25  1   
 15   9  26  1   
 16  10  27  1   
 17  10  28  1   
 18  10  29  1   
 19  11  12  1   
 20  11  30  1   
 21  12  13  1   
 22  12  31  1   
 23  12  32  1   
 24  13  14  1   
 25  13  33  1   
 26  13  34  1   
 27  14  15  1   
 28  14  35  1   
 29  14  36  1   
 30  15  16  1   
 31  15  37  1   
 32  15  38  1   
 33  16  17  1   
 34  16  18  1   
 35  16  39  1   
 36  17  19  1   
 37  17  40  1   
 38  17  41  1   
 39  18  20  1   
 40  18  42  1   
 41  18  43  1   
 42  19  21  1   
 43  19  44  1   
 44  19  45  1   
 45  20  22  1   
 46  20  46  1   
 47  20  47  1   
 48  21  22  1   
 49  21  48  1   
 50  21  49  1   
 51  22  50  1   
 52  22  51  1   
@<TRIPOS>SUBSTRUCTURE
  1 ****  13 GROUP 4 **** **** 0

# MOE 2024.06 (io_trps.svl 2023.06)
