@<TRIPOS>MOLECULE
NONAME
48 51 1 0 0 
SMALL
USER_CHARGES


@<TRIPOS>ATOM
  1 S       -0.6070    -1.5560    -0.2790 S.3   1 <1>  -0.0800 
  2 C       -2.1650    -0.8470     0.1620 C.2   1 <1>   0.0400 
  3 C        0.0610     0.0040    -0.7150 C.2   1 <1>  -0.1100 
  4 C       -3.2130    -1.7070     0.6330 C.2   1 <1>   0.4780 
  5 C       -2.1030     0.4950    -0.0370 C.2   1 <1>  -0.1500 
  6 C       -0.8530     0.9740    -0.5300 C.2   1 <1>  -0.1500 
  7 O       -4.3910    -1.1910     0.9370 O.3   1 <1>  -0.2800 
  8 N       -3.1750    -2.9970     0.8070 N.2   1 <1>  -0.5650 
  9 C       -5.1460    -2.1760     1.3260 C.2   1 <1>  -0.0400 
 10 C       -4.4100    -3.2950     1.2570 C.2   1 <1>   0.0460 
 11 C       -6.5750    -1.8840     1.7390 C.3   1 <1>  -0.0600 
 12 C       -4.7820    -4.7340     1.5750 C.3   1 <1>   0.5240 
 13 N       -4.2800    -5.5970     0.4690 N.4   1 <1>  -0.9590 
 14 C       -5.0830    -5.3940    -0.7690 C.3   1 <1>   0.3430 
 15 C       -4.3650    -7.0460     0.8120 C.3   1 <1>   0.3430 
 16 C       -6.1630    -6.4770    -0.7230 C.3   1 <1>   0.2000 
 17 C       -5.4430    -7.6700    -0.0940 C.3   1 <1>  -0.0800 
 18 O       -7.1700    -6.0670     0.1470 O.3   1 <1>  -0.6800 
 19 C       -4.8140    -8.5830    -1.1650 C.3   1 <1>   0.0210 
 20 C       -4.1840    -9.8120    -0.5390 C.2   1 <1>   0.1080 
 21 N       -3.1930    -9.7500     0.2950 N.2   1 <1>  -0.7070 
 22 C       -4.5860   -11.1210    -0.7830 C.2   1 <1>  -0.1500 
 23 N       -2.9250   -11.0380     0.6020 N.pl3 1 <1>   0.3000 
 24 C       -3.7600   -11.8830    -0.0360 C.2   1 <1>  -0.3320 
 25 C       -3.7140   -13.3940     0.1050 C.3   1 <1>  -0.0600 
 26 H        1.0770     0.0310    -1.0670 H     1 <1>   0.1500 
 27 H       -2.9170     1.1730     0.1520 H     1 <1>   0.1500 
 28 H       -0.6960     2.0220    -0.7230 H     1 <1>   0.1500 
 29 H       -7.0870    -2.7860     2.0220 H     1 <1>   0.0800 
 30 H       -7.1040    -1.4270     0.9210 H     1 <1>   0.0800 
 31 H       -6.5810    -1.2040     2.5720 H     1 <1>   0.0800 
 32 H       -5.8490    -4.8320     1.6870 H     1 <1>   0.0800 
 33 H       -4.3060    -5.0150     2.5000 H     1 <1>   0.0800 
 34 H       -3.3080    -5.2790     0.3130 H     1 <1>   0.4500 
 35 H       -5.5120    -4.4070    -0.8250 H     1 <1>   0.0800 
 36 H       -4.4560    -5.5550    -1.6300 H     1 <1>   0.0800 
 37 H       -3.4100    -7.5160     0.6470 H     1 <1>   0.0800 
 38 H       -4.6340    -7.1770     1.8480 H     1 <1>   0.0800 
 39 H       -6.5970    -6.6740    -1.6890 H     1 <1>   0.0800 
 40 H       -6.1180    -8.2680     0.4930 H     1 <1>   0.0800 
 41 H       -7.9410    -6.6720     0.1010 H     1 <1>   0.4000 
 42 H       -4.0570    -8.0580    -1.7200 H     1 <1>   0.0800 
 43 H       -5.5710    -8.9040    -1.8580 H     1 <1>   0.0800 
 44 H       -5.3830   -11.4380    -1.4330 H     1 <1>   0.1500 
 45 H       -2.1680   -11.3090     1.2420 H     1 <1>   0.2700 
 46 H       -4.4770   -13.8460    -0.5030 H     1 <1>   0.0800 
 47 H       -3.8800   -13.6780     1.1290 H     1 <1>   0.0800 
 48 H       -2.7570   -13.7690    -0.2130 H     1 <1>   0.0800 
@<TRIPOS>BOND
  1   1   2  1   
  2   1   3  1   
  3   2   4  1   
  4   2   5  2   
  5   3   6  2   
  6   3  26  1   
  7   4   7  1   
  8   4   8  2   
  9   5   6  1   
 10   5  27  1   
 11   6  28  1   
 12   7   9  1   
 13   8  10  1   
 14   9  10  2   
 15   9  11  1   
 16  10  12  1   
 17  11  29  1   
 18  11  30  1   
 19  11  31  1   
 20  12  13  1   
 21  12  32  1   
 22  12  33  1   
 23  13  14  1   
 24  13  15  1   
 25  13  34  1   
 26  14  16  1   
 27  14  35  1   
 28  14  36  1   
 29  15  17  1   
 30  15  37  1   
 31  15  38  1   
 32  16  17  1   
 33  16  18  1   
 34  16  39  1   
 35  17  19  1   
 36  17  40  1   
 37  18  41  1   
 38  19  20  1   
 39  19  42  1   
 40  19  43  1   
 41  20  21  2   
 42  20  22  1   
 43  21  23  1   
 44  22  24  2   
 45  22  44  1   
 46  23  24  1   
 47  23  45  1   
 48  24  25  1   
 49  25  46  1   
 50  25  47  1   
 51  25  48  1   
@<TRIPOS>SUBSTRUCTURE
  1 ****  13 GROUP 4 **** **** 0

# MOE 2024.06 (io_trps.svl 2023.06)
