@<TRIPOS>MOLECULE
NONAME
55 58 1 0 0 
SMALL
USER_CHARGES


@<TRIPOS>ATOM
  1 O        1.5640     0.1970    -1.6560 O.3   1 <1>  -0.6800 
  2 C        2.9250    -0.0700    -1.7150 C.3   1 <1>   0.2000 
  3 C        3.2370    -1.1260    -0.6570 C.3   1 <1>  -0.0800 
  4 C        3.6750     1.1870    -1.2370 C.3   1 <1>   0.3430 
  5 C        3.2990    -0.2740     0.6080 C.3   1 <1>   0.3430 
  6 C        4.5720    -1.8440    -0.9500 C.3   1 <1>   0.0210 
  7 N        4.0440     0.9380     0.1940 N.4   1 <1>  -0.9590 
  8 C        5.0440    -2.6720     0.2300 C.2   1 <1>   0.1080 
  9 C        3.8460     2.0960     1.0950 C.3   1 <1>   0.5240 
 10 N        5.5680    -2.1470     1.2960 N.2   1 <1>  -0.7070 
 11 C        4.9780    -4.0590     0.3020 C.2   1 <1>  -0.1500 
 12 C        4.6630     3.2960     0.6470 C.2   1 <1>  -0.1810 
 13 N        5.8670    -3.2050     2.0810 N.pl3 1 <1>   0.3000 
 14 C        5.5130    -4.3700     1.5000 C.2   1 <1>  -0.3320 
 15 C        5.9380     3.3080     0.0610 C.2   1 <1>   0.2350 
 16 C        4.3030     4.5940     0.7390 C.2   1 <1>  -0.3020 
 17 C        5.7160    -5.7340     2.1350 C.3   1 <1>  -0.0600 
 18 N        6.3170     4.5320    -0.1920 N.2   1 <1>  -0.7070 
 19 C        6.7230     2.1440    -0.2970 C.ar  1 <1>   0.0540 
 20 N        5.3190     5.3180     0.2330 N.pl3 1 <1>   0.3000 
 21 C        7.1640     1.1870     0.6250 C.ar  1 <1>  -0.1430 
 22 C        7.0040     1.9340    -1.6450 C.ar  1 <1>  -0.1500 
 23 C        7.7930     0.0390     0.1780 C.ar  1 <1>  -0.1500 
 24 C        7.0000     1.3590     2.1300 C.3   1 <1>  -0.0970 
 25 C        7.6390     0.7900    -2.0900 C.ar  1 <1>  -0.1430 
 26 C        8.0260    -0.1650    -1.1690 C.ar  1 <1>  -0.1500 
 27 C        7.9320     0.5830    -3.5650 C.3   1 <1>  -0.0970 
 28 H        1.0410    -0.5060    -2.0970 H     1 <1>   0.4000 
 29 H        3.1810    -0.3510    -2.7230 H     1 <1>   0.0800 
 30 H        2.4570    -1.8630    -0.5770 H     1 <1>   0.0800 
 31 H        3.0410     2.0520    -1.3380 H     1 <1>   0.0800 
 32 H        4.5680     1.3300    -1.8210 H     1 <1>   0.0800 
 33 H        3.7700    -0.7780     1.4340 H     1 <1>   0.0800 
 34 H        2.2940    -0.0020     0.8900 H     1 <1>   0.0800 
 35 H        5.3480    -1.1380    -1.1850 H     1 <1>   0.0800 
 36 H        4.4560    -2.4880    -1.8030 H     1 <1>   0.0800 
 37 H        5.0510     0.6960     0.2230 H     1 <1>   0.4500 
 38 H        2.8030     2.3650     1.1160 H     1 <1>   0.0800 
 39 H        4.1430     1.8260     2.0950 H     1 <1>   0.0800 
 40 H        4.5870    -4.7230    -0.4490 H     1 <1>   0.1500 
 41 H        6.3150    -3.1070     3.0010 H     1 <1>   0.2700 
 42 H        3.4080     5.0490     1.1260 H     1 <1>   0.1500 
 43 H        5.3560    -6.5060     1.4780 H     1 <1>   0.0800 
 44 H        5.1780    -5.7990     3.0640 H     1 <1>   0.0800 
 45 H        6.7610    -5.9070     2.3220 H     1 <1>   0.0800 
 46 H        5.3630     6.3440     0.1620 H     1 <1>   0.2700 
 47 H        6.7150     2.6960    -2.3490 H     1 <1>   0.1500 
 48 H        8.1150    -0.7120     0.8800 H     1 <1>   0.1500 
 49 H        7.9000     1.0430     2.6280 H     1 <1>   0.0800 
 50 H        6.1870     0.7560     2.4900 H     1 <1>   0.0800 
 51 H        6.8320     2.3880     2.3950 H     1 <1>   0.0800 
 52 H        8.5230    -1.0640    -1.4920 H     1 <1>   0.1500 
 53 H        7.6660    -0.4160    -3.8630 H     1 <1>   0.0800 
 54 H        8.9820     0.7280    -3.7480 H     1 <1>   0.0800 
 55 H        7.3810     1.2800    -4.1700 H     1 <1>   0.0800 
@<TRIPOS>BOND
  1   1   2  1   
  2   1  28  1   
  3   2   3  1   
  4   2   4  1   
  5   2  29  1   
  6   3   5  1   
  7   3   6  1   
  8   3  30  1   
  9   4   7  1   
 10   4  31  1   
 11   4  32  1   
 12   5   7  1   
 13   5  33  1   
 14   5  34  1   
 15   6   8  1   
 16   6  35  1   
 17   6  36  1   
 18   7   9  1   
 19   7  37  1   
 20   8  10  2   
 21   8  11  1   
 22   9  12  1   
 23   9  38  1   
 24   9  39  1   
 25  10  13  1   
 26  11  14  2   
 27  11  40  1   
 28  12  15  1   
 29  12  16  2   
 30  13  14  1   
 31  13  41  1   
 32  14  17  1   
 33  15  18  2   
 34  15  19  1   
 35  16  20  1   
 36  16  42  1   
 37  17  43  1   
 38  17  44  1   
 39  17  45  1   
 40  18  20  1   
 41  19  21  ar  
 42  19  22  ar  
 43  20  46  1   
 44  21  23  ar  
 45  21  24  1   
 46  22  25  ar  
 47  22  47  1   
 48  23  26  ar  
 49  23  48  1   
 50  24  49  1   
 51  24  50  1   
 52  24  51  1   
 53  25  26  ar  
 54  25  27  1   
 55  26  52  1   
 56  27  53  1   
 57  27  54  1   
 58  27  55  1   
@<TRIPOS>SUBSTRUCTURE
  1 ****   7 GROUP 4 **** **** 0

# MOE 2024.06 (io_trps.svl 2023.06)
