@<TRIPOS>MOLECULE
NONAME
48 50 1 0 0 
SMALL
USER_CHARGES


@<TRIPOS>ATOM
  1 S        0.0890     0.9600    -0.8050 S.o2  1 <1>   1.3330 
  2 O        0.0340    -0.2490    -1.5980 O.2   1 <1>  -0.6500 
  3 O        0.4780     2.2100    -1.4230 O.2   1 <1>  -0.6500 
  4 N       -1.4520     1.1970    -0.1290 N.am  1 <1>  -0.8490 
  5 C        1.1050     0.6480     0.6470 C.3   1 <1>   0.0890 
  6 C       -1.6500     2.5710     0.3450 C.3   1 <1>   0.1960 
  7 C       -2.5180     0.8550    -1.0760 C.3   1 <1>   0.1960 
  8 C        2.5780     0.4020     0.3430 C.ar  1 <1>  -0.1440 
  9 C       -2.9630     2.6670     1.1230 C.3   1 <1>  -0.1600 
 10 C       -3.8770     0.8910    -0.3730 C.3   1 <1>  -0.1600 
 11 C        3.1030    -0.8800     0.4040 C.ar  1 <1>  -0.1500 
 12 C        3.4050     1.4610     0.0010 C.ar  1 <1>  -0.1500 
 13 C       -4.1660     2.2600     0.2620 C.3   1 <1>   0.2800 
 14 C        4.4430    -1.0990     0.1340 C.ar  1 <1>  -0.1500 
 15 C        4.7450     1.2420    -0.2690 C.ar  1 <1>  -0.1500 
 16 O       -4.2380     3.1950    -0.7860 O.3   1 <1>  -0.5600 
 17 C       -5.4490     2.2470     1.1240 C.3   1 <1>  -0.1600 
 18 C        5.2650    -0.0380    -0.2010 C.ar  1 <1>  -0.1500 
 19 C       -5.4460     3.8290    -1.0930 C.3   1 <1>   0.1200 
 20 C       -6.7560     2.2080     0.3110 C.3   1 <1>   0.2800 
 21 C       -6.5850     2.8110    -1.0870 C.3   1 <1>  -0.1600 
 22 O       -7.6620     2.9960     0.9840 O.3   1 <1>  -0.6800 
 23 C       -7.3890     0.8180     0.2540 C.3   1 <1>  -0.2400 
 24 H        0.7090    -0.2030     1.1650 H     1 <1>   0.0800 
 25 H        1.0360     1.4860     1.3110 H     1 <1>   0.0800 
 26 H       -1.6670     3.2530    -0.4920 H     1 <1>   0.0800 
 27 H       -0.8380     2.8590     0.9900 H     1 <1>   0.0800 
 28 H       -2.3660    -0.1400    -1.4620 H     1 <1>   0.0800 
 29 H       -2.5070     1.5420    -1.9080 H     1 <1>   0.0800 
 30 H       -3.0960     3.6750     1.4720 H     1 <1>   0.0800 
 31 H       -2.8980     2.0270     1.9830 H     1 <1>   0.0800 
 32 H       -3.8810     0.1310     0.3870 H     1 <1>   0.0800 
 33 H       -4.6380     0.6420    -1.0850 H     1 <1>   0.0800 
 34 H        2.4730    -1.7160     0.6560 H     1 <1>   0.1500 
 35 H        3.0110     2.4620    -0.0650 H     1 <1>   0.1500 
 36 H        4.8450    -2.0960     0.1820 H     1 <1>   0.1500 
 37 H        5.3810     2.0680    -0.5350 H     1 <1>   0.1500 
 38 H       -5.4330     3.1330     1.7340 H     1 <1>   0.0800 
 39 H       -5.4140     1.4120     1.8000 H     1 <1>   0.0800 
 40 H        6.3060    -0.2080    -0.4110 H     1 <1>   0.1500 
 41 H       -5.3400     4.2740    -2.0670 H     1 <1>   0.0800 
 42 H       -5.6130     4.6090    -0.3710 H     1 <1>   0.0800 
 43 H       -6.3440     2.0440    -1.8000 H     1 <1>   0.0800 
 44 H       -7.5020     3.2680    -1.4150 H     1 <1>   0.0800 
 45 H       -7.3260     3.9080     1.0430 H     1 <1>   0.4000 
 46 H       -6.7400     0.1230    -0.2430 H     1 <1>   0.0800 
 47 H       -8.3190     0.8570    -0.2850 H     1 <1>   0.0800 
 48 H       -7.5790     0.4530     1.2470 H     1 <1>   0.0800 
@<TRIPOS>BOND
  1   1   2  2   
  2   1   3  2   
  3   1   4  am  
  4   1   5  1   
  5   4   6  1   
  6   4   7  1   
  7   5   8  1   
  8   5  24  1   
  9   5  25  1   
 10   6   9  1   
 11   6  26  1   
 12   6  27  1   
 13   7  10  1   
 14   7  28  1   
 15   7  29  1   
 16   8  11  ar  
 17   8  12  ar  
 18   9  13  1   
 19   9  30  1   
 20   9  31  1   
 21  10  13  1   
 22  10  32  1   
 23  10  33  1   
 24  11  14  ar  
 25  11  34  1   
 26  12  15  ar  
 27  12  35  1   
 28  13  16  1   
 29  13  17  1   
 30  14  18  ar  
 31  14  36  1   
 32  15  18  ar  
 33  15  37  1   
 34  16  19  1   
 35  17  20  1   
 36  17  38  1   
 37  17  39  1   
 38  18  40  1   
 39  19  21  1   
 40  19  41  1   
 41  19  42  1   
 42  20  21  1   
 43  20  22  1   
 44  20  23  1   
 45  21  43  1   
 46  21  44  1   
 47  22  45  1   
 48  23  46  1   
 49  23  47  1   
 50  23  48  1   
@<TRIPOS>SUBSTRUCTURE
  1 ****   4 GROUP 4 **** **** 0

# MOE 2024.06 (io_trps.svl 2023.06)
