@<TRIPOS>MOLECULE
NONAME
59 62 1 0 0 
SMALL
USER_CHARGES


@<TRIPOS>ATOM
  1 S        0.3220     0.2640    -1.2640 S.o2  1 <1>   1.5760 
  2 O        0.1910     1.4500    -2.0800 O.2   1 <1>  -0.6500 
  3 O        0.3760    -1.0470    -1.8690 O.2   1 <1>  -0.6500 
  4 N       -0.8930     0.2660    -0.0970 N.am  1 <1>  -0.8490 
  5 N        1.6750     0.4540    -0.2770 N.am  1 <1>  -0.8490 
  6 C       -0.8720    -0.9550     0.7220 C.3   1 <1>   0.1960 
  7 C       -2.2150     0.4090    -0.7170 C.3   1 <1>   0.1960 
  8 C        2.9070     0.1770    -1.0310 C.3   1 <1>   0.1960 
  9 C        1.7360     1.8120     0.2980 C.3   1 <1>   0.1960 
 10 C       -2.0100    -0.9410     1.7570 C.3   1 <1>   0.1200 
 11 C       -3.3290     0.3870     0.3470 C.3   1 <1>   0.1200 
 12 C        4.1740     0.3180    -0.1600 C.3   1 <1>   0.2090 
 13 C        2.9540     1.9870     1.2220 C.3   1 <1>   0.2090 
 14 O       -3.2480    -0.7740     1.1240 O.3   1 <1>  -0.5600 
 15 N        4.2330     1.6630     0.5020 N.pl3 1 <1>  -0.8380 
 16 C        5.2160     2.5770     0.2980 C.ar  1 <1>   0.4100 
 17 N        4.8770     3.8520     0.2820 N.ar  1 <1>  -0.6200 
 18 C        6.5510     2.1720     0.1110 C.ar  1 <1>  -0.1500 
 19 C        5.8250     4.7510     0.0600 C.ar  1 <1>   0.7710 
 20 C        7.5060     3.1070    -0.1120 C.ar  1 <1>   0.2180 
 21 N        7.1060     4.3990    -0.1380 N.ar  1 <1>  -0.1790 
 22 N        5.4970     6.0650     0.0260 N.pl3 1 <1>  -0.8380 
 23 C        8.9790     2.7800    -0.3250 C.3   1 <1>  -0.0170 
 24 C        4.0850     6.5170     0.1840 C.3   1 <1>   0.2090 
 25 C        6.3900     7.2430    -0.1450 C.3   1 <1>   0.2090 
 26 C        9.8680     3.3670     0.7790 C.3   1 <1>  -0.2400 
 27 C        4.1050     8.0080    -0.1240 C.3   1 <1>  -0.1600 
 28 C        5.5270     8.4470     0.2040 C.3   1 <1>  -0.1600 
 29 H        0.0710    -1.0300     1.2360 H     1 <1>   0.0800 
 30 H       -0.9800    -1.8280     0.0990 H     1 <1>   0.0800 
 31 H       -2.3830    -0.3910    -1.4210 H     1 <1>   0.0800 
 32 H       -2.2630     1.3410    -1.2540 H     1 <1>   0.0800 
 33 H        2.9810     0.8510    -1.8680 H     1 <1>   0.0800 
 34 H        2.8700    -0.8270    -1.4180 H     1 <1>   0.0800 
 35 H        0.8410     2.0030     0.8650 H     1 <1>   0.0800 
 36 H        1.7940     2.5480    -0.4870 H     1 <1>   0.0800 
 37 H       -1.8710    -0.1380     2.4600 H     1 <1>   0.0800 
 38 H       -2.0380    -1.8730     2.2930 H     1 <1>   0.0800 
 39 H       -4.2950     0.4010    -0.1250 H     1 <1>   0.0800 
 40 H       -3.2450     1.2420     0.9950 H     1 <1>   0.0800 
 41 H        5.0330     0.1640    -0.7870 H     1 <1>   0.0800 
 42 H        4.1670    -0.4500     0.5950 H     1 <1>   0.0800 
 43 H        2.8470     1.3250     2.0640 H     1 <1>   0.0800 
 44 H        2.9690     2.9930     1.6030 H     1 <1>   0.0800 
 45 H        6.7860     1.1260     0.1660 H     1 <1>   0.1500 
 46 H        7.7490     5.1620    -0.2990 H     1 <1>   0.4570 
 47 H        9.2980     3.1510    -1.2840 H     1 <1>   0.0800 
 48 H        9.1090     1.7110    -0.3380 H     1 <1>   0.0800 
 49 H        3.7700     6.3510     1.2020 H     1 <1>   0.0800 
 50 H        3.4260     5.9890    -0.4860 H     1 <1>   0.0800 
 51 H        6.7020     7.3110    -1.1750 H     1 <1>   0.0800 
 52 H        7.2480     7.1940     0.5040 H     1 <1>   0.0800 
 53 H        9.8360     4.4420     0.7850 H     1 <1>   0.0800 
 54 H       10.8900     3.0650     0.6230 H     1 <1>   0.0800 
 55 H        9.5580     3.0040     1.7450 H     1 <1>   0.0800 
 56 H        3.3670     8.5430     0.4470 H     1 <1>   0.0800 
 57 H        3.9070     8.1520    -1.1720 H     1 <1>   0.0800 
 58 H        5.8190     9.3260    -0.3430 H     1 <1>   0.0800 
 59 H        5.6110     8.6500     1.2580 H     1 <1>   0.0800 
@<TRIPOS>BOND
  1   1   2  2   
  2   1   3  2   
  3   1   4  am  
  4   1   5  am  
  5   4   6  1   
  6   4   7  1   
  7   5   8  1   
  8   5   9  1   
  9   6  10  1   
 10   6  29  1   
 11   6  30  1   
 12   7  11  1   
 13   7  31  1   
 14   7  32  1   
 15   8  12  1   
 16   8  33  1   
 17   8  34  1   
 18   9  13  1   
 19   9  35  1   
 20   9  36  1   
 21  10  14  1   
 22  10  37  1   
 23  10  38  1   
 24  11  14  1   
 25  11  39  1   
 26  11  40  1   
 27  12  15  1   
 28  12  41  1   
 29  12  42  1   
 30  13  15  1   
 31  13  43  1   
 32  13  44  1   
 33  15  16  1   
 34  16  17  ar  
 35  16  18  ar  
 36  17  19  ar  
 37  18  20  ar  
 38  18  45  1   
 39  19  21  ar  
 40  19  22  1   
 41  20  21  ar  
 42  20  23  1   
 43  21  46  1   
 44  22  24  1   
 45  22  25  1   
 46  23  26  1   
 47  23  47  1   
 48  23  48  1   
 49  24  27  1   
 50  24  49  1   
 51  24  50  1   
 52  25  28  1   
 53  25  51  1   
 54  25  52  1   
 55  26  53  1   
 56  26  54  1   
 57  26  55  1   
 58  27  28  1   
 59  27  56  1   
 60  27  57  1   
 61  28  58  1   
 62  28  59  1   
@<TRIPOS>SUBSTRUCTURE
  1 ****  13 GROUP 4 **** **** 0

# MOE 2024.06 (io_trps.svl 2023.06)
