@<TRIPOS>MOLECULE
NONAME
40 42 1 0 0 
SMALL
USER_CHARGES


@<TRIPOS>ATOM
  1 N       -0.0400     0.7380     1.0520 N.ar  1 <1>  -0.6200 
  2 C        0.1020     1.4050    -0.0870 C.ar  1 <1>   0.4100 
  3 C       -1.1340    -0.0050     1.0680 C.ar  1 <1>   0.1600 
  4 N        1.2320     2.1970    -0.2080 N.pl3 1 <1>  -0.8380 
  5 C       -0.8280     1.3100    -1.1360 C.ar  1 <1>   0.1600 
  6 C       -2.0420    -0.0900     0.0210 C.ar  1 <1>   0.1600 
  7 C        1.6250     3.0290     0.9710 C.3   1 <1>   0.2090 
  8 C        2.3490     1.6060    -0.9770 C.3   1 <1>   0.2090 
  9 N       -1.9200     0.5670    -1.1230 N.ar  1 <1>  -0.6200 
 10 C        2.0230     4.4480     0.5380 C.3   1 <1>   0.2090 
 11 C        3.2320     2.6840    -1.6090 C.3   1 <1>  -0.1600 
 12 N        3.4290     4.6000     0.0150 N.pl3 1 <1>  -0.8380 
 13 C        4.1060     3.4120    -0.5860 C.3   1 <1>   0.2090 
 14 C        4.1140     5.7580     0.1980 C.ar  1 <1>   0.1000 
 15 C        3.7110     6.9930    -0.3480 C.ar  1 <1>  -0.1430 
 16 C        5.2860     5.7470     0.9640 C.ar  1 <1>  -0.1500 
 17 C        4.4540     8.1210    -0.1020 C.ar  1 <1>   0.2110 
 18 C        2.4730     7.0910    -1.2360 C.3   1 <1>  -0.0970 
 19 C        5.9990     6.8930     1.1840 C.ar  1 <1>   0.2110 
 20 N        5.5780     8.0680     0.6550 N.ar  1 <1>  -0.1790 
 21 H       -1.3210    -0.5780     1.9590 H     1 <1>   0.1500 
 22 H       -0.6290     1.8910    -2.0160 H     1 <1>   0.1500 
 23 H       -2.9040    -0.7250     0.1310 H     1 <1>   0.1500 
 24 H        2.4190     2.5600     1.5240 H     1 <1>   0.0800 
 25 H        0.7770     3.1150     1.6300 H     1 <1>   0.0800 
 26 H        1.9450     0.9850    -1.7600 H     1 <1>   0.0800 
 27 H        2.9320     0.9730    -0.3290 H     1 <1>   0.0800 
 28 H        1.9110     5.0990     1.3870 H     1 <1>   0.0800 
 29 H        1.3250     4.7690    -0.2140 H     1 <1>   0.0800 
 30 H        2.6410     3.3800    -2.1770 H     1 <1>   0.0800 
 31 H        3.8890     2.1850    -2.2960 H     1 <1>   0.0800 
 32 H        4.9980     3.7500    -1.0870 H     1 <1>   0.0800 
 33 H        4.4100     2.7340     0.1940 H     1 <1>   0.0800 
 34 H        5.6090     4.8120     1.3870 H     1 <1>   0.1500 
 35 H        4.1610     9.0750    -0.5110 H     1 <1>   0.1500 
 36 H        2.4420     6.2600    -1.9210 H     1 <1>   0.0800 
 37 H        2.4730     7.9970    -1.8150 H     1 <1>   0.0800 
 38 H        1.5820     7.0720    -0.6340 H     1 <1>   0.0800 
 39 H        6.8990     6.8820     1.7780 H     1 <1>   0.1500 
 40 H        6.1170     8.9240     0.8240 H     1 <1>   0.4570 
@<TRIPOS>BOND
  1   1   2  ar  
  2   1   3  ar  
  3   2   4  1   
  4   2   5  ar  
  5   3   6  ar  
  6   3  21  1   
  7   4   7  1   
  8   4   8  1   
  9   5   9  ar  
 10   5  22  1   
 11   6   9  ar  
 12   6  23  1   
 13   7  10  1   
 14   7  24  1   
 15   7  25  1   
 16   8  11  1   
 17   8  26  1   
 18   8  27  1   
 19  10  12  1   
 20  10  28  1   
 21  10  29  1   
 22  11  13  1   
 23  11  30  1   
 24  11  31  1   
 25  12  13  1   
 26  12  14  1   
 27  13  32  1   
 28  13  33  1   
 29  14  15  ar  
 30  14  16  ar  
 31  15  17  ar  
 32  15  18  1   
 33  16  19  ar  
 34  16  34  1   
 35  17  20  ar  
 36  17  35  1   
 37  18  36  1   
 38  18  37  1   
 39  18  38  1   
 40  19  20  ar  
 41  19  39  1   
 42  20  40  1   
@<TRIPOS>SUBSTRUCTURE
  1 ****  10 GROUP 4 **** **** 0

# MOE 2024.06 (io_trps.svl 2023.06)
