@<TRIPOS>MOLECULE
NONAME
46 49 1 0 0 
SMALL
USER_CHARGES


@<TRIPOS>ATOM
  1 S        0.9140    -0.4790    -0.7890 S.3   1 <1>  -0.0800 
  2 C        1.1370    -1.3370     0.7340 C.2   1 <1>   0.3250 
  3 C        2.1260     0.6780    -0.3330 C.2   1 <1>  -0.1400 
  4 N        2.0150    -0.7720     1.4870 N.2   1 <1>  -0.5650 
  5 C        0.3260    -2.4950     1.0240 C.ar  1 <1>   0.0530 
  6 C        2.5710     0.3410     0.8880 C.2   1 <1>   0.0770 
  7 C        2.4180     1.7700    -1.3530 C.3   1 <1>   0.2900 
  8 C        0.1130    -3.5480     0.1190 C.ar  1 <1>   0.0830 
  9 C       -0.2790    -2.5860     2.2790 C.ar  1 <1>  -0.1500 
 10 N        3.4310     2.7490    -0.9220 N.3   1 <1>  -0.8100 
 11 O        0.7400    -3.4960    -1.0830 O.3   1 <1>  -0.3630 
 12 C       -0.7070    -4.6190     0.4700 C.ar  1 <1>  -0.1500 
 13 C       -1.0850    -3.6530     2.6250 C.ar  1 <1>  -0.1500 
 14 C        2.9720     3.5970     0.2110 C.3   1 <1>   0.1100 
 15 C        4.7890     2.1660    -0.8290 C.3   1 <1>   0.1100 
 16 C        0.6330    -4.5180    -2.0490 C.3   1 <1>   0.0400 
 17 C       -1.3040    -4.6710     1.7150 C.ar  1 <1>  -0.1500 
 18 C        3.8400     4.8440     0.5300 C.3   1 <1>   0.2200 
 19 C        5.9270     3.1990    -0.7060 C.3   1 <1>  -0.0190 
 20 N        4.6300     5.3120    -0.6390 N.am  1 <1>  -0.7300 
 21 C        4.7610     4.6090     1.7460 C.3   1 <1>   0.1200 
 22 C        5.5600     4.5600    -1.2640 C.2   1 <1>   0.5690 
 23 C        6.4750     3.3240     0.7250 C.3   1 <1>   0.1200 
 24 O        5.4580     3.3980     1.6790 O.3   1 <1>  -0.5600 
 25 O        6.1200     4.9780    -2.2470 O.2   1 <1>  -0.5700 
 26 H        3.3280     0.8670     1.4440 H     1 <1>   0.1500 
 27 H        1.5030     2.2920    -1.5730 H     1 <1>   0.0800 
 28 H        2.7460     1.3100    -2.2690 H     1 <1>   0.0800 
 29 H       -0.1080    -1.7980     2.9920 H     1 <1>   0.1500 
 30 H       -0.8910    -5.4280    -0.2100 H     1 <1>   0.1500 
 31 H       -1.5410    -3.6930     3.5990 H     1 <1>   0.1500 
 32 H        1.9860     3.9560    -0.0260 H     1 <1>   0.0800 
 33 H        2.8760     3.0030     1.1010 H     1 <1>   0.0800 
 34 H        4.8450     1.4720    -0.0100 H     1 <1>   0.0800 
 35 H        4.9660     1.6060    -1.7310 H     1 <1>   0.0800 
 36 H        1.2340    -4.2400    -2.8960 H     1 <1>   0.0800 
 37 H       -0.3970    -4.6110    -2.3460 H     1 <1>   0.0800 
 38 H        1.0000    -5.4360    -1.6270 H     1 <1>   0.0800 
 39 H       -1.9350    -5.5020     1.9800 H     1 <1>   0.1500 
 40 H        3.1730     5.6420     0.8060 H     1 <1>   0.0800 
 41 H        6.7450     2.8380    -1.3010 H     1 <1>   0.0800 
 42 H        4.3210     6.1510    -1.1270 H     1 <1>   0.3700 
 43 H        4.1580     4.5620     2.6350 H     1 <1>   0.0800 
 44 H        5.4630     5.4170     1.8600 H     1 <1>   0.0800 
 45 H        7.1170     4.1830     0.8240 H     1 <1>   0.0800 
 46 H        7.0500     2.4450     0.9600 H     1 <1>   0.0800 
@<TRIPOS>BOND
  1   1   2  1   
  2   1   3  1   
  3   2   4  2   
  4   2   5  1   
  5   3   6  2   
  6   3   7  1   
  7   4   6  1   
  8   5   8  ar  
  9   5   9  ar  
 10   6  26  1   
 11   7  10  1   
 12   7  27  1   
 13   7  28  1   
 14   8  11  1   
 15   8  12  ar  
 16   9  13  ar  
 17   9  29  1   
 18  10  14  1   
 19  10  15  1   
 20  11  16  1   
 21  12  17  ar  
 22  12  30  1   
 23  13  17  ar  
 24  13  31  1   
 25  14  18  1   
 26  14  32  1   
 27  14  33  1   
 28  15  19  1   
 29  15  34  1   
 30  15  35  1   
 31  16  36  1   
 32  16  37  1   
 33  16  38  1   
 34  17  39  1   
 35  18  20  1   
 36  18  21  1   
 37  18  40  1   
 38  19  22  1   
 39  19  23  1   
 40  19  41  1   
 41  20  22  am  
 42  20  42  1   
 43  21  24  1   
 44  21  43  1   
 45  21  44  1   
 46  22  25  2   
 47  23  24  1   
 48  23  45  1   
 49  23  46  1   
@<TRIPOS>SUBSTRUCTURE
  1 ****   3 GROUP 4 **** **** 0

# MOE 2024.06 (io_trps.svl 2023.06)
