@<TRIPOS>MOLECULE
NONAME
54 57 1 0 0 
SMALL
USER_CHARGES


@<TRIPOS>ATOM
  1 O       -0.3000    -1.8100    -0.1040 O.3   1 <1>  -0.5600 
  2 C        0.8230    -2.0010     0.7010 C.3   1 <1>   0.2000 
  3 C       -1.4770    -1.4990     0.5750 C.3   1 <1>   0.0400 
  4 C        2.0930    -1.7530    -0.1400 C.3   1 <1>   0.0000 
  5 C        0.8930    -3.4860     1.0840 C.3   1 <1>  -0.1600 
  6 C        3.2890    -1.5440     0.8190 C.3   1 <1>   0.2090 
  7 C        1.9880    -0.5170    -1.0630 C.3   1 <1>  -0.1600 
  8 C        2.2160    -3.0650    -0.9370 C.3   1 <1>  -0.1600 
  9 C        1.7420    -4.1780     0.0060 C.3   1 <1>  -0.1600 
 10 N        4.5760    -1.2940     0.0790 N.pl3 1 <1>  -0.8380 
 11 C        3.3190    -0.2160    -1.7700 C.3   1 <1>  -0.1600 
 12 C        5.6510    -2.1090     0.1370 C.ar  1 <1>   0.4610 
 13 C        4.4880    -0.0750    -0.7890 C.3   1 <1>   0.2090 
 14 N        5.4040    -3.4200     0.1770 N.ar  1 <1>  -0.1790 
 15 C        7.0230    -1.7060     0.1240 C.ar  1 <1>  -0.1440 
 16 C        6.3580    -4.4160     0.1080 C.ar  1 <1>   0.3610 
 17 C        8.0080    -2.6490     0.0410 C.ar  1 <1>  -0.1500 
 18 C        7.3870    -0.2260     0.2510 C.3   1 <1>   0.2630 
 19 C        7.7030    -4.0360     0.0180 C.ar  1 <1>   0.0000 
 20 C        6.0120    -5.7710     0.1070 C.ar  1 <1>  -0.1500 
 21 O        8.5860    -0.0820     0.9250 O.3   1 <1>  -0.6800 
 22 C        8.6770    -5.0370    -0.0750 C.ar  1 <1>  -0.1500 
 23 C        6.9830    -6.7420     0.0170 C.ar  1 <1>  -0.1440 
 24 C        8.3220    -6.3640    -0.0750 C.ar  1 <1>  -0.1500 
 25 C        6.6320    -8.2200     0.0140 C.3   1 <1>  -0.0970 
 26 H        0.7630    -1.3440     1.5530 H     1 <1>   0.0800 
 27 H       -2.2670    -1.4110    -0.1510 H     1 <1>   0.0800 
 28 H       -1.3540    -0.5620     1.0880 H     1 <1>   0.0800 
 29 H       -1.7140    -2.2850     1.2700 H     1 <1>   0.0800 
 30 H        1.3740    -3.5860     2.0400 H     1 <1>   0.0800 
 31 H       -0.0860    -3.9260     1.1530 H     1 <1>   0.0800 
 32 H        3.3920    -2.3810     1.4860 H     1 <1>   0.0800 
 33 H        3.0850    -0.6840     1.4350 H     1 <1>   0.0800 
 34 H        1.2200    -0.6660    -1.8030 H     1 <1>   0.0800 
 35 H        1.7010     0.3380    -0.4750 H     1 <1>   0.0800 
 36 H        1.5200    -3.0230    -1.7610 H     1 <1>   0.0800 
 37 H        3.1880    -3.2360    -1.3560 H     1 <1>   0.0800 
 38 H        2.5660    -4.6950     0.4610 H     1 <1>   0.0800 
 39 H        1.1460    -4.8930    -0.5390 H     1 <1>   0.0800 
 40 H        3.2210     0.6980    -2.3310 H     1 <1>   0.0800 
 41 H        3.5430    -0.9970    -2.4740 H     1 <1>   0.0800 
 42 H        4.3440     0.7980    -0.1730 H     1 <1>   0.0800 
 43 H        5.3860     0.0540    -1.3650 H     1 <1>   0.0800 
 44 H        4.4240    -3.6780     0.1380 H     1 <1>   0.4570 
 45 H        9.0510    -2.3750     0.0070 H     1 <1>   0.1500 
 46 H        6.6420     0.3160     0.8080 H     1 <1>   0.0800 
 47 H        7.5050     0.2210    -0.7210 H     1 <1>   0.0800 
 48 H        4.9790    -6.0590     0.1770 H     1 <1>   0.1500 
 49 H        8.5060    -0.3940     1.8470 H     1 <1>   0.4000 
 50 H        9.7150    -4.7590    -0.1460 H     1 <1>   0.1500 
 51 H        9.0830    -7.1250    -0.1470 H     1 <1>   0.1500 
 52 H        7.1000    -8.7110     0.8500 H     1 <1>   0.0800 
 53 H        6.9820    -8.6800    -0.8930 H     1 <1>   0.0800 
 54 H        5.5690    -8.3710     0.0840 H     1 <1>   0.0800 
@<TRIPOS>BOND
  1   1   2  1   
  2   1   3  1   
  3   2   4  1   
  4   2   5  1   
  5   2  26  1   
  6   3  27  1   
  7   3  28  1   
  8   3  29  1   
  9   4   6  1   
 10   4   7  1   
 11   4   8  1   
 12   5   9  1   
 13   5  30  1   
 14   5  31  1   
 15   6  10  1   
 16   6  32  1   
 17   6  33  1   
 18   7  11  1   
 19   7  34  1   
 20   7  35  1   
 21   8   9  1   
 22   8  36  1   
 23   8  37  1   
 24   9  38  1   
 25   9  39  1   
 26  10  12  1   
 27  10  13  1   
 28  11  13  1   
 29  11  40  1   
 30  11  41  1   
 31  12  14  ar  
 32  12  15  ar  
 33  13  42  1   
 34  13  43  1   
 35  14  16  ar  
 36  14  44  1   
 37  15  17  ar  
 38  15  18  1   
 39  16  19  ar  
 40  16  20  ar  
 41  17  19  ar  
 42  17  45  1   
 43  18  21  1   
 44  18  46  1   
 45  18  47  1   
 46  19  22  ar  
 47  20  23  ar  
 48  20  48  1   
 49  21  49  1   
 50  22  24  ar  
 51  22  50  1   
 52  23  24  ar  
 53  23  25  1   
 54  24  51  1   
 55  25  52  1   
 56  25  53  1   
 57  25  54  1   
@<TRIPOS>SUBSTRUCTURE
  1 ****  14 GROUP 4 **** **** 0

# MOE 2024.06 (io_trps.svl 2023.06)
