@<TRIPOS>MOLECULE
NONAME
42 44 1 0 0 
SMALL
USER_CHARGES


@<TRIPOS>ATOM
  1 O       -0.4790     0.3360     0.6160 O.2   1 <1>  -0.5700 
  2 C       -1.5340     0.9170     0.4380 C.2   1 <1>   0.7150 
  3 N       -2.6770     0.1710     0.2790 N.am  1 <1>  -0.6600 
  4 C       -1.5620     2.3570     0.3820 C.2   1 <1>  -0.2370 
  5 C       -3.9440     0.6700    -0.3190 C.3   1 <1>   0.1400 
  6 C       -2.6590    -1.3170     0.2530 C.3   1 <1>   0.1400 
  7 N       -0.6330     3.1040    -0.2970 N.pl3 1 <1>   0.0480 
  8 C       -2.4410     3.2340     0.9650 C.2   1 <1>  -0.1500 
  9 C       -4.8900    -0.5280    -0.2620 C.3   1 <1>   0.2000 
 10 C       -3.9580    -1.7260    -0.4510 C.3   1 <1>  -0.0800 
 11 C       -0.9490     4.4100    -0.1430 C.2   1 <1>  -0.3020 
 12 C        0.5230     2.5930    -1.0610 C.3   1 <1>   0.0160 
 13 C       -2.0650     4.5380     0.6340 C.2   1 <1>   0.0190 
 14 O       -5.4490    -0.5680     1.0070 O.3   1 <1>  -0.6800 
 15 C       -4.5150    -3.0850     0.0110 C.3   1 <1>   0.0210 
 16 C       -2.7370     5.7370     1.0490 C.1   1 <1>   0.5380 
 17 C       -3.4990    -4.1880    -0.2090 C.2   1 <1>   0.1080 
 18 N       -3.2800     6.6850     1.3770 N.1   1 <1>  -0.5570 
 19 N       -3.0130    -4.4760    -1.3760 N.2   1 <1>  -0.7070 
 20 C       -2.9710    -4.9950     0.7940 C.2   1 <1>  -0.1500 
 21 N       -2.1540    -5.4870    -1.1470 N.pl3 1 <1>   0.3000 
 22 C       -2.1100    -5.8190     0.1600 C.2   1 <1>  -0.3320 
 23 C       -1.2340    -6.9180     0.7320 C.3   1 <1>  -0.0600 
 24 H       -4.3490     1.5090     0.2170 H     1 <1>   0.0800 
 25 H       -3.7630     0.9470    -1.3430 H     1 <1>   0.0800 
 26 H       -1.7990    -1.6890    -0.2780 H     1 <1>   0.0800 
 27 H       -2.6350    -1.6850     1.2650 H     1 <1>   0.0800 
 28 H       -3.2810     2.9850     1.5890 H     1 <1>   0.1500 
 29 H       -5.6840    -0.4810    -0.9890 H     1 <1>   0.0800 
 30 H       -3.7350    -1.8020    -1.5010 H     1 <1>   0.0800 
 31 H       -0.3690     5.2010    -0.5860 H     1 <1>   0.1500 
 32 H        0.9920     3.3970    -1.5970 H     1 <1>   0.0800 
 33 H        0.1900     1.8440    -1.7550 H     1 <1>   0.0800 
 34 H        1.2300     2.1550    -0.3790 H     1 <1>   0.0800 
 35 H       -4.7310    -0.4730     1.6650 H     1 <1>   0.4000 
 36 H       -5.4020    -3.3180    -0.5490 H     1 <1>   0.0800 
 37 H       -4.7780    -3.0540     1.0530 H     1 <1>   0.0800 
 38 H       -3.2150    -4.9500     1.8400 H     1 <1>   0.1500 
 39 H       -1.6140    -5.9270    -1.9020 H     1 <1>   0.2700 
 40 H       -1.3770    -6.9890     1.7960 H     1 <1>   0.0800 
 41 H       -0.1970    -6.7060     0.5390 H     1 <1>   0.0800 
 42 H       -1.4880    -7.8650     0.2890 H     1 <1>   0.0800 
@<TRIPOS>BOND
  1   1   2  2   
  2   2   3  am  
  3   2   4  1   
  4   3   5  1   
  5   3   6  1   
  6   4   7  1   
  7   4   8  2   
  8   5   9  1   
  9   5  24  1   
 10   5  25  1   
 11   6  10  1   
 12   6  26  1   
 13   6  27  1   
 14   7  11  1   
 15   7  12  1   
 16   8  13  1   
 17   8  28  1   
 18   9  10  1   
 19   9  14  1   
 20   9  29  1   
 21  10  15  1   
 22  10  30  1   
 23  11  13  2   
 24  11  31  1   
 25  12  32  1   
 26  12  33  1   
 27  12  34  1   
 28  13  16  1   
 29  14  35  1   
 30  15  17  1   
 31  15  36  1   
 32  15  37  1   
 33  16  18  3   
 34  17  19  2   
 35  17  20  1   
 36  19  21  1   
 37  20  22  2   
 38  20  38  1   
 39  21  22  1   
 40  21  39  1   
 41  22  23  1   
 42  23  40  1   
 43  23  41  1   
 44  23  42  1   
@<TRIPOS>SUBSTRUCTURE
  1 ****   3 GROUP 4 **** **** 0

# MOE 2024.06 (io_trps.svl 2023.06)
