@<TRIPOS>MOLECULE
NONAME
46 47 1 0 0 
SMALL
USER_CHARGES


@<TRIPOS>ATOM
  1 S        0.8580     0.6060     0.0430 S.o2  1 <1>   1.4470 
  2 O        0.3010     1.5190    -0.9260 O.2   1 <1>  -0.6500 
  3 O        1.0550     1.0470     1.4050 O.2   1 <1>  -0.6500 
  4 N        2.3750     0.2350    -0.5720 N.am  1 <1>  -0.9140 
  5 C       -0.0510    -0.9760     0.0370 C.ar  1 <1>  -0.0090 
  6 C        3.3950     1.2460    -0.2350 C.3   1 <1>   0.2570 
  7 C       -1.4510    -1.0280     0.1010 C.ar  1 <1>  -0.1430 
  8 C        0.6510    -2.1840    -0.0050 C.ar  1 <1>  -0.1500 
  9 C        3.2080     2.5820    -0.9770 C.2   1 <1>   0.5690 
 10 C       -2.1110    -2.2490     0.0960 C.ar  1 <1>  -0.1500 
 11 C       -2.2930     0.2400     0.1810 C.3   1 <1>  -0.0960 
 12 C        0.0010    -3.4050    -0.0080 C.ar  1 <1>  -0.1500 
 13 O        3.4940     2.5680    -2.1530 O.2   1 <1>  -0.5700 
 14 N        2.7220     3.7150    -0.3700 N.am  1 <1>  -0.6600 
 15 C       -1.3760    -3.4140     0.0400 C.ar  1 <1>   0.1900 
 16 C        2.4070     4.9210    -1.1880 C.3   1 <1>   0.3210 
 17 C        2.3450     3.8470     1.0690 C.3   1 <1>   0.0600 
 18 F       -2.0020    -4.5590     0.0340 F     1 <1>  -0.1900 
 19 C        3.3140     6.0680    -0.7810 C.2   1 <1>  -0.1810 
 20 C        3.0430     7.2450    -0.1720 C.2   1 <1>  -0.3320 
 21 C        4.6880     6.0860    -0.9890 C.2   1 <1>   0.1390 
 22 N        4.2240     7.8950    -0.0470 N.pl3 1 <1>   0.3140 
 23 C        1.7120     7.8030     0.3090 C.3   1 <1>  -0.0600 
 24 N        5.2390     7.1760    -0.5510 N.2   1 <1>  -0.7070 
 25 C        4.4570     9.2160     0.5490 C.3   1 <1>   0.0160 
 26 H        2.2460     0.3320    -1.5820 H     1 <1>   0.4200 
 27 H        4.3520     0.8600    -0.5370 H     1 <1>   0.0800 
 28 H        3.4460     1.3840     0.8270 H     1 <1>   0.0800 
 29 H        1.7270    -2.1780    -0.0330 H     1 <1>   0.1500 
 30 H       -3.1840    -2.3090     0.1370 H     1 <1>   0.1500 
 31 H       -1.9380     0.8820     0.9670 H     1 <1>   0.0800 
 32 H       -3.3230     0.0070     0.3870 H     1 <1>   0.0800 
 33 H       -2.2510     0.7730    -0.7530 H     1 <1>   0.0800 
 34 H        0.5460    -4.3310    -0.0440 H     1 <1>   0.1500 
 35 H        1.3770     5.1880    -1.0360 H     1 <1>   0.0800 
 36 H        2.5390     4.7250    -2.2370 H     1 <1>   0.0800 
 37 H        2.8370     3.1160     1.6810 H     1 <1>   0.0800 
 38 H        1.2800     3.7300     1.1750 H     1 <1>   0.0800 
 39 H        2.6240     4.8200     1.4360 H     1 <1>   0.0800 
 40 H        5.2370     5.2860    -1.4580 H     1 <1>   0.1500 
 41 H        0.9160     7.1060     0.1220 H     1 <1>   0.0800 
 42 H        1.4880     8.7200    -0.2060 H     1 <1>   0.0800 
 43 H        1.7510     7.9960     1.3660 H     1 <1>   0.0800 
 44 H        4.1540     9.1960     1.5780 H     1 <1>   0.0800 
 45 H        3.8900     9.9500     0.0090 H     1 <1>   0.0800 
 46 H        5.5030     9.4500     0.4850 H     1 <1>   0.0800 
@<TRIPOS>BOND
  1   1   2  2   
  2   1   3  2   
  3   1   4  am  
  4   1   5  1   
  5   4   6  1   
  6   4  26  1   
  7   5   7  ar  
  8   5   8  ar  
  9   6   9  1   
 10   6  27  1   
 11   6  28  1   
 12   7  10  ar  
 13   7  11  1   
 14   8  12  ar  
 15   8  29  1   
 16   9  13  2   
 17   9  14  am  
 18  10  15  ar  
 19  10  30  1   
 20  11  31  1   
 21  11  32  1   
 22  11  33  1   
 23  12  15  ar  
 24  12  34  1   
 25  14  16  1   
 26  14  17  1   
 27  15  18  1   
 28  16  19  1   
 29  16  35  1   
 30  16  36  1   
 31  17  37  1   
 32  17  38  1   
 33  17  39  1   
 34  19  20  2   
 35  19  21  1   
 36  20  22  1   
 37  20  23  1   
 38  21  24  2   
 39  21  40  1   
 40  22  24  1   
 41  22  25  1   
 42  23  41  1   
 43  23  42  1   
 44  23  43  1   
 45  25  44  1   
 46  25  45  1   
 47  25  46  1   
@<TRIPOS>SUBSTRUCTURE
  1 ****   2 GROUP 4 **** **** 0

# MOE 2024.06 (io_trps.svl 2023.06)
