@<TRIPOS>MOLECULE
NONAME
47 50 1 0 0 
SMALL
USER_CHARGES


@<TRIPOS>ATOM
  1 O       -2.5960     1.7340    -1.6820 O.2   1 <1>  -0.5750 
  2 C       -3.1460     0.9860    -0.9090 C.2   1 <1>   0.6860 
  3 N       -3.6760    -0.2330    -1.3090 N.am  1 <1>  -0.4420 
  4 N       -3.2480     1.3630     0.3990 N.am  1 <1>  -0.4960 
  5 C       -4.3060    -1.0080    -0.3460 C.2   1 <1>   0.4200 
  6 C       -3.5810    -0.6830    -2.7290 C.3   1 <1>   0.0510 
  7 C       -3.8580     0.6100     1.3610 C.2   1 <1>   0.6990 
  8 N       -4.9070    -2.2200    -0.5070 N.pl3 1 <1>  -0.7040 
  9 C       -4.4170    -0.6450     0.9530 C.2   1 <1>   0.2700 
 10 O       -3.9040     1.0270     2.5010 O.2   1 <1>  -0.5750 
 11 C       -5.3810    -2.6040     0.6740 C.cat 1 <1>   1.0680 
 12 N       -5.1120    -1.6840     1.6010 N.pl3 1 <1>  -0.7680 
 13 N       -6.0320    -3.7350     0.9020 N.pl3 1 <1>  -0.7180 
 14 C       -5.4220    -1.6520     3.0590 C.3   1 <1>   0.2670 
 15 C       -6.3340    -4.8790     0.0130 C.3   1 <1>   0.2400 
 16 C       -7.8450    -5.0660    -0.1190 C.3   1 <1>  -0.0890 
 17 C       -5.9880    -6.1330     0.8000 C.3   1 <1>   0.1120 
 18 C       -8.2090    -5.8520     1.1510 C.3   1 <1>   0.1120 
 19 C       -8.6840    -3.7900    -0.3300 C.3   1 <1>  -0.0250 
 20 O       -6.9910    -6.1730     1.7600 O.3   1 <1>  -0.5650 
 21 C      -10.1540    -4.1370    -0.5020 C.ar  1 <1>  -0.1520 
 22 C      -10.6500    -4.6370    -1.6900 C.ar  1 <1>  -0.1580 
 23 C      -11.0710    -3.9740     0.5170 C.ar  1 <1>  -0.1580 
 24 C      -11.9960    -4.9460    -1.7950 C.ar  1 <1>   0.1520 
 25 C      -12.3970    -4.3140     0.3080 C.ar  1 <1>   0.1520 
 26 N      -12.8820    -4.7990    -0.8240 N.ar  1 <1>  -0.6250 
 27 H       -2.8470     2.2620     0.6600 H     1 <1>   0.3640 
 28 H       -3.2260    -1.6970    -2.7730 H     1 <1>   0.0710 
 29 H       -2.8940    -0.0630    -3.2800 H     1 <1>   0.0710 
 30 H       -4.5480    -0.6180    -3.1970 H     1 <1>   0.0710 
 31 H       -4.9930    -2.7410    -1.3730 H     1 <1>   0.4440 
 32 H       -6.3330    -3.9530     1.8550 H     1 <1>   0.4440 
 33 H       -6.0270    -0.7900     3.2860 H     1 <1>   0.0710 
 34 H       -4.5080    -1.5870     3.6270 H     1 <1>   0.0710 
 35 H       -5.9550    -2.5370     3.3620 H     1 <1>   0.0710 
 36 H       -5.8210    -4.8180    -0.9310 H     1 <1>   0.0710 
 37 H       -8.0260    -5.7200    -0.9550 H     1 <1>   0.0710 
 38 H       -5.0250    -6.0910     1.2790 H     1 <1>   0.0710 
 39 H       -6.0610    -7.0210     0.1930 H     1 <1>   0.0710 
 40 H       -8.7310    -6.7640     0.9150 H     1 <1>   0.0710 
 41 H       -8.7890    -5.2730     1.8480 H     1 <1>   0.0710 
 42 H       -8.3460    -3.2740    -1.2110 H     1 <1>   0.0710 
 43 H       -8.5810    -3.1220     0.5060 H     1 <1>   0.0710 
 44 H      -10.0080    -4.7920    -2.5370 H     1 <1>   0.1420 
 45 H      -10.7740    -3.5870     1.4740 H     1 <1>   0.1420 
 46 H      -12.3650    -5.3350    -2.7290 H     1 <1>   0.1420 
 47 H      -13.0970    -4.1810     1.1150 H     1 <1>   0.1420 
@<TRIPOS>BOND
  1   1   2  2   
  2   2   3  am  
  3   2   4  am  
  4   3   5  1   
  5   3   6  1   
  6   4   7  am  
  7   4  27  1   
  8   5   8  1   
  9   5   9  2   
 10   6  28  1   
 11   6  29  1   
 12   6  30  1   
 13   7   9  1   
 14   7  10  2   
 15   8  11  ar  
 16   8  31  1   
 17   9  12  1   
 18  11  12  ar  
 19  11  13  ar  
 20  12  14  1   
 21  13  15  1   
 22  13  32  1   
 23  14  33  1   
 24  14  34  1   
 25  14  35  1   
 26  15  16  1   
 27  15  17  1   
 28  15  36  1   
 29  16  18  1   
 30  16  19  1   
 31  16  37  1   
 32  17  20  1   
 33  17  38  1   
 34  17  39  1   
 35  18  20  1   
 36  18  40  1   
 37  18  41  1   
 38  19  21  1   
 39  19  42  1   
 40  19  43  1   
 41  21  22  ar  
 42  21  23  ar  
 43  22  24  ar  
 44  22  44  1   
 45  23  25  ar  
 46  23  45  1   
 47  24  26  ar  
 48  24  46  1   
 49  25  26  ar  
 50  25  47  1   
@<TRIPOS>SUBSTRUCTURE
  1 ****  11 GROUP 4 **** **** 0

# MOE 2024.06 (io_trps.svl 2023.06)
