@<TRIPOS>MOLECULE
NONAME
47 48 1 0 0 
SMALL
USER_CHARGES


@<TRIPOS>ATOM
  1 S        0.0100    -0.3100     0.3950 S.o2  1 <1>   1.3330 
  2 O       -0.8280     0.8520     0.5840 O.2   1 <1>  -0.6500 
  3 O        0.3920    -1.1070     1.5390 O.2   1 <1>  -0.6500 
  4 N       -0.7460    -1.3390    -0.7240 N.am  1 <1>  -0.8490 
  5 C        1.4760     0.2210    -0.4930 C.3   1 <1>  -0.0550 
  6 C       -2.2040    -1.3480    -0.5730 C.3   1 <1>   0.1160 
  7 C       -0.2320    -2.7120    -0.6920 C.3   1 <1>   0.1160 
  8 C        2.3220     1.2560     0.2770 C.3   1 <1>  -0.0800 
  9 C        3.4050     1.8480    -0.6080 C.3   1 <1>   0.2200 
 10 C        3.1460     0.6080     1.3940 C.3   1 <1>   0.1200 
 11 N        3.8140     3.1630    -0.0640 N.am  1 <1>  -0.7300 
 12 C        4.5390     0.8430    -0.4340 C.3   1 <1>   0.1200 
 13 O        4.3990     0.3110     0.8500 O.3   1 <1>  -0.5600 
 14 C        3.6510     4.3470    -0.7000 C.2   1 <1>   0.5690 
 15 O        3.1650     4.4220    -1.8000 O.2   1 <1>  -0.5700 
 16 C        4.0980     5.6130    -0.0130 C.3   1 <1>  -0.0990 
 17 C        5.1530     6.3290    -0.8610 C.3   1 <1>   0.0960 
 18 N        5.6320     7.5350    -0.1670 N.pl3 1 <1>   0.3140 
 19 N        6.4220     7.4590     0.9190 N.2   1 <1>  -0.7070 
 20 C        5.3560     8.8160    -0.4840 C.2   1 <1>  -0.3020 
 21 C        6.6320     8.6930     1.2630 C.2   1 <1>   0.1390 
 22 C        5.9880     9.5920     0.4200 C.2   1 <1>  -0.1810 
 23 C        6.0090    11.1030     0.5190 C.3   1 <1>  -0.0590 
 24 H        2.0800    -0.6330    -0.7320 H     1 <1>   0.0800 
 25 H        1.1550     0.6630    -1.4160 H     1 <1>   0.0800 
 26 H       -2.6520    -1.9970    -1.3060 H     1 <1>   0.0800 
 27 H       -2.5970    -0.3560    -0.7190 H     1 <1>   0.0800 
 28 H       -2.4760    -1.6850     0.4140 H     1 <1>   0.0800 
 29 H       -0.6780    -3.2920    -1.4820 H     1 <1>   0.0800 
 30 H       -0.4560    -3.1770     0.2540 H     1 <1>   0.0800 
 31 H        0.8350    -2.7130    -0.8320 H     1 <1>   0.0800 
 32 H        1.6700     2.0240     0.6600 H     1 <1>   0.0800 
 33 H        3.1070     1.9460    -1.6390 H     1 <1>   0.0800 
 34 H        2.7150    -0.2980     1.7830 H     1 <1>   0.0800 
 35 H        3.3010     1.3000     2.2030 H     1 <1>   0.0800 
 36 H        4.2670     3.1210     0.8520 H     1 <1>   0.3700 
 37 H        5.5110     1.2930    -0.5370 H     1 <1>   0.0800 
 38 H        4.4380     0.0320    -1.1340 H     1 <1>   0.0800 
 39 H        3.2430     6.2500     0.1180 H     1 <1>   0.0800 
 40 H        4.5080     5.3780     0.9530 H     1 <1>   0.0800 
 41 H        4.7390     6.6140    -1.8120 H     1 <1>   0.0800 
 42 H        5.9950     5.6840    -1.0290 H     1 <1>   0.0800 
 43 H        4.7390     9.0960    -1.3170 H     1 <1>   0.1500 
 44 H        7.2380     8.9760     2.1080 H     1 <1>   0.1500 
 45 H        5.6040    11.4140     1.4650 H     1 <1>   0.0800 
 46 H        5.4190    11.5340    -0.2700 H     1 <1>   0.0800 
 47 H        7.0180    11.4620     0.4330 H     1 <1>   0.0800 
@<TRIPOS>BOND
  1   1   2  2   
  2   1   3  2   
  3   1   4  am  
  4   1   5  1   
  5   4   6  1   
  6   4   7  1   
  7   5   8  1   
  8   5  24  1   
  9   5  25  1   
 10   6  26  1   
 11   6  27  1   
 12   6  28  1   
 13   7  29  1   
 14   7  30  1   
 15   7  31  1   
 16   8   9  1   
 17   8  10  1   
 18   8  32  1   
 19   9  11  1   
 20   9  12  1   
 21   9  33  1   
 22  10  13  1   
 23  10  34  1   
 24  10  35  1   
 25  11  14  am  
 26  11  36  1   
 27  12  13  1   
 28  12  37  1   
 29  12  38  1   
 30  14  15  2   
 31  14  16  1   
 32  16  17  1   
 33  16  39  1   
 34  16  40  1   
 35  17  18  1   
 36  17  41  1   
 37  17  42  1   
 38  18  19  1   
 39  18  20  1   
 40  19  21  2   
 41  20  22  2   
 42  20  43  1   
 43  21  22  1   
 44  21  44  1   
 45  22  23  1   
 46  23  45  1   
 47  23  46  1   
 48  23  47  1   
@<TRIPOS>SUBSTRUCTURE
  1 ****  11 GROUP 4 **** **** 0

# MOE 2024.06 (io_trps.svl 2023.06)
