@<TRIPOS>MOLECULE
NONAME
40 43 1 0 0 
SMALL
USER_CHARGES


@<TRIPOS>ATOM
  1 S       -0.8510     0.0700     1.9580 S.3   1 <1>  -0.0800 
  2 C       -1.2940     1.0270     0.5520 C.2   1 <1>  -0.1400 
  3 C       -2.3040    -0.9080     1.7910 C.2   1 <1>  -0.1100 
  4 C       -2.4610     0.6070     0.0440 C.2   1 <1>  -0.1810 
  5 C       -0.4330     2.1700     0.0240 C.3   1 <1>   0.4600 
  6 C       -3.0410    -0.5000     0.7400 C.2   1 <1>  -0.1500 
  7 C       -3.0400     1.3040    -1.1660 C.3   1 <1>   0.0210 
  8 O       -0.9840     2.6130    -1.2030 O.3   1 <1>  -0.5600 
  9 C        0.9840     1.6880    -0.2880 C.3   1 <1>  -0.1600 
 10 C       -0.3850     3.3420     1.0090 C.3   1 <1>  -0.1600 
 11 C       -2.3860     2.6920    -1.3100 C.3   1 <1>   0.1200 
 12 C        1.8630     2.8310    -0.7940 C.3   1 <1>   0.2090 
 13 C        0.5050     4.4700     0.4910 C.3   1 <1>   0.2090 
 14 N        1.8670     3.9400     0.2020 N.pl3 1 <1>  -0.8210 
 15 C        2.9020     4.8740     0.0790 C.2   1 <1>   0.5990 
 16 N        4.0100     4.6800    -0.5300 N.2   1 <1>  -0.4100 
 17 N        2.8090     6.0850     0.6170 N.2   1 <1>  -0.5650 
 18 O        4.7090     5.7780    -0.4150 O.3   1 <1>  -0.0190 
 19 C        3.9310     6.5710     0.2800 C.2   1 <1>   0.2980 
 20 C        4.4260     7.9650     0.6190 C.3   1 <1>   0.0200 
 21 C        4.5650     8.8450    -0.6310 C.3   1 <1>  -0.2400 
 22 H       -2.4530    -1.6960     2.5070 H     1 <1>   0.1500 
 23 H       -3.9730    -0.9330     0.4220 H     1 <1>   0.1500 
 24 H       -4.1030     1.4210    -1.0530 H     1 <1>   0.0800 
 25 H       -2.8530     0.7190    -2.0480 H     1 <1>   0.0800 
 26 H        0.9410     0.9050    -1.0220 H     1 <1>   0.0800 
 27 H        1.4350     1.2830     0.5980 H     1 <1>   0.0800 
 28 H        0.0170     3.0000     1.9450 H     1 <1>   0.0800 
 29 H       -1.3740     3.7090     1.2020 H     1 <1>   0.0800 
 30 H       -2.7500     3.3580    -0.5470 H     1 <1>   0.0800 
 31 H       -2.6180     3.1130    -2.2720 H     1 <1>   0.0800 
 32 H        1.4920     3.1970    -1.7370 H     1 <1>   0.0800 
 33 H        2.8630     2.4600    -0.9430 H     1 <1>   0.0800 
 34 H        0.5550     5.2410     1.2400 H     1 <1>   0.0800 
 35 H        0.0890     4.8930    -0.4080 H     1 <1>   0.0800 
 36 H        5.3760     7.8840     1.1150 H     1 <1>   0.0800 
 37 H        3.7320     8.4220     1.3010 H     1 <1>   0.0800 
 38 H        5.2760     8.4150    -1.3140 H     1 <1>   0.0800 
 39 H        4.9020     9.8290    -0.3550 H     1 <1>   0.0800 
 40 H        3.6150     8.9300    -1.1290 H     1 <1>   0.0800 
@<TRIPOS>BOND
  1   1   2  1   
  2   1   3  1   
  3   2   4  2   
  4   2   5  1   
  5   3   6  2   
  6   3  22  1   
  7   4   6  1   
  8   4   7  1   
  9   5   8  1   
 10   5   9  1   
 11   5  10  1   
 12   6  23  1   
 13   7  11  1   
 14   7  24  1   
 15   7  25  1   
 16   8  11  1   
 17   9  12  1   
 18   9  26  1   
 19   9  27  1   
 20  10  13  1   
 21  10  28  1   
 22  10  29  1   
 23  11  30  1   
 24  11  31  1   
 25  12  14  1   
 26  12  32  1   
 27  12  33  1   
 28  13  14  1   
 29  13  34  1   
 30  13  35  1   
 31  14  15  1   
 32  15  16  2   
 33  15  17  1   
 34  16  18  1   
 35  17  19  2   
 36  18  19  1   
 37  19  20  1   
 38  20  21  1   
 39  20  36  1   
 40  20  37  1   
 41  21  38  1   
 42  21  39  1   
 43  21  40  1   
@<TRIPOS>SUBSTRUCTURE
  1 ****  13 GROUP 4 **** **** 0

# MOE 2024.06 (io_trps.svl 2023.06)
