@<TRIPOS>MOLECULE
NONAME
50 51 1 0 0 
SMALL
USER_CHARGES


@<TRIPOS>ATOM
  1 O       -0.2210     2.3330    -1.4120 O.2   1 <1>  -0.5700 
  2 C       -0.7880     3.3610    -1.1250 C.2   1 <1>   0.5690 
  3 N       -1.7650     3.4380    -0.1630 N.am  1 <1>  -0.6600 
  4 C       -0.3400     4.6180    -1.8810 C.3   1 <1>   0.1810 
  5 C       -2.3930     4.7520     0.1730 C.3   1 <1>   0.3640 
  6 C       -2.2940     2.2840     0.6120 C.3   1 <1>   0.2200 
  7 O       -1.1150     5.7780    -1.6480 O.3   1 <1>  -0.5600 
  8 C       -3.8190     4.8010    -0.3800 C.ar  1 <1>  -0.1440 
  9 C       -1.5630     5.9650    -0.3120 C.3   1 <1>   0.2610 
 10 C       -1.2000     1.7040     1.5080 C.3   1 <1>  -0.2400 
 11 C       -2.9050     1.2340    -0.3140 C.3   1 <1>  -0.2400 
 12 C       -4.0850     4.5640    -1.7220 C.ar  1 <1>  -0.1500 
 13 C       -4.8760     5.0890     0.4730 C.ar  1 <1>  -0.1500 
 14 C       -0.4230     6.3000     0.6630 C.2   1 <1>   0.5690 
 15 C       -5.3820     4.6140    -2.2030 C.ar  1 <1>  -0.1500 
 16 C       -6.1730     5.1390    -0.0060 C.ar  1 <1>  -0.1500 
 17 O       -0.6160     6.1930     1.8520 O.2   1 <1>  -0.5700 
 18 N        0.7670     6.7300     0.1600 N.am  1 <1>  -0.7300 
 19 C       -6.4280     4.9020    -1.3450 C.ar  1 <1>  -0.1500 
 20 C        2.0580     6.9570     0.8250 C.3   1 <1>   0.3000 
 21 C        3.0810     7.3510    -0.2690 C.3   1 <1>   0.1200 
 22 C        1.9180     8.0990     1.8340 C.3   1 <1>  -0.2400 
 23 C        2.4940     5.6640     1.5240 C.3   1 <1>  -0.2400 
 24 O        3.0540     6.4610    -1.3470 O.3   1 <1>  -0.6800 
 25 H       -0.3770     4.4170    -2.9360 H     1 <1>   0.0800 
 26 H        0.6800     4.8290    -1.6220 H     1 <1>   0.0800 
 27 H       -2.4690     4.8140     1.2440 H     1 <1>   0.0800 
 28 H       -3.0840     2.6350     1.2550 H     1 <1>   0.0800 
 29 H       -2.2100     6.8220    -0.3250 H     1 <1>   0.0800 
 30 H       -0.4140     1.2660     0.9190 H     1 <1>   0.0800 
 31 H       -1.6140     0.9380     2.1380 H     1 <1>   0.0800 
 32 H       -0.7870     2.4750     2.1330 H     1 <1>   0.0800 
 33 H       -2.1540     0.7720    -0.9280 H     1 <1>   0.0800 
 34 H       -3.6490     1.6870    -0.9430 H     1 <1>   0.0800 
 35 H       -3.3780     0.4660     0.2700 H     1 <1>   0.0800 
 36 H       -3.2820     4.3380    -2.4020 H     1 <1>   0.1500 
 37 H       -4.6990     5.2770     1.5180 H     1 <1>   0.1500 
 38 H       -5.5750     4.4280    -3.2450 H     1 <1>   0.1500 
 39 H       -6.9860     5.3630     0.6630 H     1 <1>   0.1500 
 40 H        0.8550     6.7830    -0.8620 H     1 <1>   0.3700 
 41 H       -7.4360     4.9410    -1.7180 H     1 <1>   0.1500 
 42 H        4.0790     7.3720     0.1310 H     1 <1>   0.0800 
 43 H        2.8490     8.3300    -0.6520 H     1 <1>   0.0800 
 44 H        2.8700     8.3180     2.2820 H     1 <1>   0.0800 
 45 H        1.2360     7.8300     2.6200 H     1 <1>   0.0800 
 46 H        1.5550     8.9870     1.3490 H     1 <1>   0.0800 
 47 H        3.4780     5.7800     1.9410 H     1 <1>   0.0800 
 48 H        2.5080     4.8410     0.8330 H     1 <1>   0.0800 
 49 H        1.8230     5.4250     2.3290 H     1 <1>   0.0800 
 50 H        3.3430     5.5730    -1.0590 H     1 <1>   0.4000 
@<TRIPOS>BOND
  1   1   2  2   
  2   2   3  am  
  3   2   4  1   
  4   3   5  1   
  5   3   6  1   
  6   4   7  1   
  7   4  25  1   
  8   4  26  1   
  9   5   8  1   
 10   5   9  1   
 11   5  27  1   
 12   6  10  1   
 13   6  11  1   
 14   6  28  1   
 15   7   9  1   
 16   8  12  ar  
 17   8  13  ar  
 18   9  14  1   
 19   9  29  1   
 20  10  30  1   
 21  10  31  1   
 22  10  32  1   
 23  11  33  1   
 24  11  34  1   
 25  11  35  1   
 26  12  15  ar  
 27  12  36  1   
 28  13  16  ar  
 29  13  37  1   
 30  14  17  2   
 31  14  18  am  
 32  15  19  ar  
 33  15  38  1   
 34  16  19  ar  
 35  16  39  1   
 36  18  20  1   
 37  18  40  1   
 38  19  41  1   
 39  20  21  1   
 40  20  22  1   
 41  20  23  1   
 42  21  24  1   
 43  21  42  1   
 44  21  43  1   
 45  22  44  1   
 46  22  45  1   
 47  22  46  1   
 48  23  47  1   
 49  23  48  1   
 50  23  49  1   
 51  24  50  1   
@<TRIPOS>SUBSTRUCTURE
  1 ****   9 GROUP 4 **** **** 0

# MOE 2024.06 (io_trps.svl 2023.06)
