@<TRIPOS>MOLECULE
NONAME
51 53 1 0 0 
SMALL
USER_CHARGES


@<TRIPOS>ATOM
  1 N        0.1000    -0.8260     0.4140 N.ar  1 <1>  -0.6200 
  2 C        0.9570     0.1580     0.1730 C.ar  1 <1>   0.7710 
  3 C        0.5720    -2.0480     0.4920 C.ar  1 <1>   0.4100 
  4 N        2.2720    -0.0690     0.0090 N.ar  1 <1>  -0.1790 
  5 N        0.4980     1.4300     0.0870 N.pl3 1 <1>  -0.8380 
  6 N       -0.3550    -2.9840     0.7440 N.pl3 1 <1>  -0.8690 
  7 C        1.9390    -2.3340     0.3200 C.ar  1 <1>  -0.1500 
  8 C        2.7980    -1.3150     0.0740 C.ar  1 <1>   0.2170 
  9 C        1.2710     2.6850    -0.1210 C.3   1 <1>   0.2090 
 10 C       -0.9510     1.7460     0.2310 C.3   1 <1>   0.2090 
 11 C       -0.2460    -4.4460     0.9400 C.3   1 <1>   0.2090 
 12 C        4.2970    -1.5000    -0.1290 C.3   1 <1>  -0.0170 
 13 C        0.2900     3.8090     0.1800 C.3   1 <1>  -0.1600 
 14 C       -1.0780     3.2180    -0.1350 C.3   1 <1>  -0.1600 
 15 C       -0.9960    -5.1440    -0.1910 C.3   1 <1>  -0.1600 
 16 C        4.7420    -1.0990    -1.5420 C.3   1 <1>  -0.2400 
 17 C       -0.9270    -6.6600    -0.0340 C.3   1 <1>   0.2090 
 18 N       -1.7040    -7.2860    -1.1230 N.pl3 1 <1>  -0.8690 
 19 C       -2.9420    -7.8630    -0.8310 C.ar  1 <1>   0.1000 
 20 C       -4.1110    -7.4820    -1.4960 C.ar  1 <1>   0.1600 
 21 C       -3.0520    -8.8500     0.1340 C.ar  1 <1>  -0.1500 
 22 N       -5.3230    -7.9670    -1.2740 N.ar  1 <1>  -0.6200 
 23 C       -4.3030    -9.3720     0.3800 C.ar  1 <1>  -0.1500 
 24 C       -5.3900    -8.9020    -0.3390 C.ar  1 <1>   0.1600 
 25 H        2.8360     0.7480    -0.1830 H     1 <1>   0.4570 
 26 H       -1.3130    -2.6260     0.8330 H     1 <1>   0.4000 
 27 H        2.2750    -3.3500     0.3830 H     1 <1>   0.1500 
 28 H        1.5860     2.7470    -1.1500 H     1 <1>   0.0800 
 29 H        2.1240     2.7450     0.5350 H     1 <1>   0.0800 
 30 H       -1.2500     1.5890     1.2550 H     1 <1>   0.0800 
 31 H       -1.5550     1.1290    -0.4160 H     1 <1>   0.0800 
 32 H       -0.6860    -4.7050     1.8890 H     1 <1>   0.0800 
 33 H        0.7820    -4.7580     0.9510 H     1 <1>   0.0800 
 34 H        4.5540    -2.5330     0.0330 H     1 <1>   0.0800 
 35 H        4.8370    -0.9200     0.6000 H     1 <1>   0.0800 
 36 H        0.4970     4.6910    -0.4000 H     1 <1>   0.0800 
 37 H        0.3460     4.0580     1.2260 H     1 <1>   0.0800 
 38 H       -1.8700     3.6980     0.4120 H     1 <1>   0.0800 
 39 H       -1.2830     3.3000    -1.1890 H     1 <1>   0.0800 
 40 H       -0.5580    -4.8620    -1.1310 H     1 <1>   0.0800 
 41 H       -2.0280    -4.8380    -0.1690 H     1 <1>   0.0800 
 42 H        4.2100    -1.6730    -2.2820 H     1 <1>   0.0800 
 43 H        5.7940    -1.2960    -1.6610 H     1 <1>   0.0800 
 44 H        4.5770    -0.0530    -1.7280 H     1 <1>   0.0800 
 45 H       -1.3300    -6.9500     0.9230 H     1 <1>   0.0800 
 46 H        0.0940    -6.9990    -0.0920 H     1 <1>   0.0800 
 47 H       -1.6810    -6.7270    -1.9830 H     1 <1>   0.4000 
 48 H       -4.0280    -6.7260    -2.2540 H     1 <1>   0.1500 
 49 H       -2.1840    -9.1980     0.6620 H     1 <1>   0.1500 
 50 H       -4.4390   -10.1390     1.1200 H     1 <1>   0.1500 
 51 H       -6.3620    -9.3170    -0.1370 H     1 <1>   0.1500 
@<TRIPOS>BOND
  1   1   2  ar  
  2   1   3  ar  
  3   2   4  ar  
  4   2   5  1   
  5   3   6  1   
  6   3   7  ar  
  7   4   8  ar  
  8   4  25  1   
  9   5   9  1   
 10   5  10  1   
 11   6  11  1   
 12   6  26  1   
 13   7   8  ar  
 14   7  27  1   
 15   8  12  1   
 16   9  13  1   
 17   9  28  1   
 18   9  29  1   
 19  10  14  1   
 20  10  30  1   
 21  10  31  1   
 22  11  15  1   
 23  11  32  1   
 24  11  33  1   
 25  12  16  1   
 26  12  34  1   
 27  12  35  1   
 28  13  14  1   
 29  13  36  1   
 30  13  37  1   
 31  14  38  1   
 32  14  39  1   
 33  15  17  1   
 34  15  40  1   
 35  15  41  1   
 36  16  42  1   
 37  16  43  1   
 38  16  44  1   
 39  17  18  1   
 40  17  45  1   
 41  17  46  1   
 42  18  19  1   
 43  18  47  1   
 44  19  20  ar  
 45  19  21  ar  
 46  20  22  ar  
 47  20  48  1   
 48  21  23  ar  
 49  21  49  1   
 50  22  24  ar  
 51  23  24  ar  
 52  23  50  1   
 53  24  51  1   
@<TRIPOS>SUBSTRUCTURE
  1 ****   6 GROUP 4 **** **** 0

# MOE 2024.06 (io_trps.svl 2023.06)
