@<TRIPOS>MOLECULE
NONAME
58 61 1 0 0 
SMALL
USER_CHARGES


@<TRIPOS>ATOM
  1 O        2.5130    -5.0070     1.2180 O.3   1 <1>  -0.3630 
  2 C        1.1560    -5.1320     1.1900 C.ar  1 <1>   0.0820 
  3 C        3.2060    -4.1300     0.3600 C.3   1 <1>   0.1200 
  4 C        0.4870    -5.8150     2.2200 C.ar  1 <1>   0.0820 
  5 C        0.4080    -4.6180     0.1330 C.ar  1 <1>  -0.1500 
  6 C        4.6770    -4.1440     0.7650 C.3   1 <1>  -0.2400 
  7 O        1.0600    -6.3740     3.3240 O.3   1 <1>  -0.3620 
  8 C       -0.8860    -5.9760     2.1530 C.ar  1 <1>  -0.1500 
  9 C       -0.9620    -4.8000     0.0760 C.ar  1 <1>  -0.1500 
 10 C        2.2810    -5.9020     3.8520 C.3   1 <1>   0.0400 
 11 C       -1.6180    -5.4900     1.0810 C.ar  1 <1>  -0.1430 
 12 C       -3.1080    -5.7370     0.9830 C.3   1 <1>   0.4860 
 13 N       -3.2610    -7.1260     0.5040 N.4   1 <1>  -0.9590 
 14 C       -4.3830    -7.4080    -0.4290 C.3   1 <1>   0.3430 
 15 C       -3.2840    -8.1800     1.5440 C.3   1 <1>   0.3430 
 16 C       -4.6600    -8.9130    -0.2970 C.3   1 <1>   0.2000 
 17 C       -3.7150    -9.4420     0.7940 C.3   1 <1>  -0.0800 
 18 O       -5.9750    -9.1040     0.1090 O.3   1 <1>  -0.6800 
 19 C       -2.5070   -10.2240     0.2180 C.3   1 <1>  -0.0170 
 20 C       -1.3710    -9.3530    -0.3110 C.ar  1 <1>   0.1670 
 21 N       -1.6070    -8.6180    -1.3570 N.ar  1 <1>  -0.6200 
 22 C       -0.1420    -9.3610     0.3680 C.ar  1 <1>  -0.1500 
 23 C       -0.5840    -7.8610    -1.8440 C.ar  1 <1>   0.3100 
 24 C        0.8830    -8.5830    -0.0740 C.ar  1 <1>  -0.1500 
 25 C        0.6820    -7.8040    -1.2240 C.ar  1 <1>   0.0000 
 26 C       -0.7950    -7.0960    -3.0030 C.ar  1 <1>  -0.1500 
 27 C        1.6820    -6.9830    -1.7780 C.ar  1 <1>  -0.1500 
 28 C        0.1910    -6.3020    -3.5260 C.ar  1 <1>  -0.1500 
 29 C        1.4430    -6.2450    -2.9060 C.ar  1 <1>  -0.1500 
 30 H        3.0900    -4.4760    -0.6520 H     1 <1>   0.0800 
 31 H        2.7900    -3.1430     0.4700 H     1 <1>   0.0800 
 32 H        0.8750    -4.0860    -0.6740 H     1 <1>   0.1500 
 33 H        5.0770    -5.1370     0.6680 H     1 <1>   0.0800 
 34 H        4.7830    -3.8110     1.7810 H     1 <1>   0.0800 
 35 H        5.2360    -3.4840     0.1270 H     1 <1>   0.0800 
 36 H       -1.3650    -6.4950     2.9620 H     1 <1>   0.1500 
 37 H       -1.5020    -4.4050    -0.7680 H     1 <1>   0.1500 
 38 H        2.3780    -6.2710     4.8560 H     1 <1>   0.0800 
 39 H        2.2720    -4.8270     3.8540 H     1 <1>   0.0800 
 40 H        3.0890    -6.2760     3.2490 H     1 <1>   0.0800 
 41 H       -3.5370    -5.0470     0.2750 H     1 <1>   0.0800 
 42 H       -3.5850    -5.6020     1.9400 H     1 <1>   0.0800 
 43 H       -2.4040    -7.3260    -0.0570 H     1 <1>   0.4500 
 44 H       -5.2630    -6.8500    -0.1560 H     1 <1>   0.0800 
 45 H       -4.0950    -7.1680    -1.4400 H     1 <1>   0.0800 
 46 H       -2.3160    -8.3030     2.0040 H     1 <1>   0.0800 
 47 H       -4.0140    -7.9350     2.2970 H     1 <1>   0.0800 
 48 H       -4.5330    -9.4150    -1.2420 H     1 <1>   0.0800 
 49 H       -4.2400   -10.1080     1.4580 H     1 <1>   0.0800 
 50 H       -6.1290    -8.8730     1.0450 H     1 <1>   0.4000 
 51 H       -2.8380   -10.8770    -0.5710 H     1 <1>   0.0800 
 52 H       -2.1180   -10.8620     0.9920 H     1 <1>   0.0800 
 53 H       -0.0090    -9.9810     1.2370 H     1 <1>   0.1500 
 54 H        1.8350    -8.5520     0.4290 H     1 <1>   0.1500 
 55 H       -1.7560    -7.1590    -3.4780 H     1 <1>   0.1500 
 56 H        2.6420    -6.9480    -1.2930 H     1 <1>   0.1500 
 57 H        0.0210    -5.7220    -4.4180 H     1 <1>   0.1500 
 58 H        2.2110    -5.6200    -3.3300 H     1 <1>   0.1500 
@<TRIPOS>BOND
  1   1   2  1   
  2   1   3  1   
  3   2   4  ar  
  4   2   5  ar  
  5   3   6  1   
  6   3  30  1   
  7   3  31  1   
  8   4   7  1   
  9   4   8  ar  
 10   5   9  ar  
 11   5  32  1   
 12   6  33  1   
 13   6  34  1   
 14   6  35  1   
 15   7  10  1   
 16   8  11  ar  
 17   8  36  1   
 18   9  11  ar  
 19   9  37  1   
 20  10  38  1   
 21  10  39  1   
 22  10  40  1   
 23  11  12  1   
 24  12  13  1   
 25  12  41  1   
 26  12  42  1   
 27  13  14  1   
 28  13  15  1   
 29  13  43  1   
 30  14  16  1   
 31  14  44  1   
 32  14  45  1   
 33  15  17  1   
 34  15  46  1   
 35  15  47  1   
 36  16  17  1   
 37  16  18  1   
 38  16  48  1   
 39  17  19  1   
 40  17  49  1   
 41  18  50  1   
 42  19  20  1   
 43  19  51  1   
 44  19  52  1   
 45  20  21  ar  
 46  20  22  ar  
 47  21  23  ar  
 48  22  24  ar  
 49  22  53  1   
 50  23  25  ar  
 51  23  26  ar  
 52  24  25  ar  
 53  24  54  1   
 54  25  27  ar  
 55  26  28  ar  
 56  26  55  1   
 57  27  29  ar  
 58  27  56  1   
 59  28  29  ar  
 60  28  57  1   
 61  29  58  1   
@<TRIPOS>SUBSTRUCTURE
  1 ****  11 GROUP 4 **** **** 0

# MOE 2024.06 (io_trps.svl 2023.06)
