@<TRIPOS>MOLECULE
NONAME
55 58 1 0 0 
SMALL
USER_CHARGES


@<TRIPOS>ATOM
  1 O        2.0680     0.3620     1.6120 O.3   1 <1>  -0.6800 
  2 C        2.1530    -0.0990     0.3020 C.3   1 <1>   0.2000 
  3 C        2.9260    -1.4190     0.3060 C.3   1 <1>  -0.0800 
  4 C        3.0550     0.8450    -0.4950 C.3   1 <1>   0.3430 
  5 C        4.4000    -1.0300     0.0780 C.3   1 <1>   0.3430 
  6 C        2.4250    -2.3750    -0.7930 C.3   1 <1>   0.0210 
  7 N        4.4560     0.4480    -0.1430 N.4   1 <1>  -0.9590 
  8 C        3.1620    -3.7000    -0.7510 C.2   1 <1>   0.1080 
  9 C        4.9460     1.1380     1.0910 C.3   1 <1>   0.4860 
 10 N        4.4390    -3.8060    -0.9540 N.2   1 <1>  -0.7070 
 11 C        2.5650    -4.9300    -0.4990 C.2   1 <1>  -0.1500 
 12 C        4.9000     2.6360     0.9020 C.ar  1 <1>  -0.1430 
 13 N        4.6910    -5.1300    -0.8480 N.pl3 1 <1>   0.3000 
 14 C        3.5710    -5.8260    -0.5670 C.2   1 <1>  -0.3320 
 15 C        3.9010     3.3900     1.4720 C.ar  1 <1>   0.1600 
 16 C        5.8360     3.3100     0.1550 C.ar  1 <1>   0.1600 
 17 C        3.5280    -7.3320    -0.3820 C.3   1 <1>  -0.0600 
 18 N        3.8190     4.6810     1.2940 N.ar  1 <1>  -0.6200 
 19 N        5.7740     4.6010    -0.0350 N.ar  1 <1>  -0.6200 
 20 C        4.7610     5.2510     0.5400 C.ar  1 <1>   0.7200 
 21 N        4.6790     6.6130     0.3380 N.pl3 1 <1>  -0.8380 
 22 C        3.5080     7.4300     0.7720 C.3   1 <1>   0.2090 
 23 C        5.8090     7.4200    -0.2060 C.3   1 <1>   0.2090 
 24 C        3.0050     8.2750    -0.4030 C.3   1 <1>  -0.1600 
 25 C        5.3200     8.2570    -1.3920 C.3   1 <1>  -0.1600 
 26 C        4.1210     9.1360    -1.0100 C.3   1 <1>  -0.1600 
 27 H        1.3700    -0.1170     2.1100 H     1 <1>   0.4000 
 28 H        1.1580    -0.1640    -0.1060 H     1 <1>   0.0800 
 29 H        2.8260    -1.9240     1.2510 H     1 <1>   0.0800 
 30 H        2.8410     1.8770    -0.2730 H     1 <1>   0.0800 
 31 H        2.8920     0.6750    -1.5470 H     1 <1>   0.0800 
 32 H        4.7790    -1.5360    -0.7960 H     1 <1>   0.0800 
 33 H        5.0020    -1.3240     0.9220 H     1 <1>   0.0800 
 34 H        2.5610    -1.9430    -1.7680 H     1 <1>   0.0800 
 35 H        1.3740    -2.5650    -0.6580 H     1 <1>   0.0800 
 36 H        5.0870     0.6720    -0.9220 H     1 <1>   0.4500 
 37 H        4.3330     0.8660     1.9340 H     1 <1>   0.0800 
 38 H        5.9590     0.8350     1.3040 H     1 <1>   0.0800 
 39 H        1.5230    -5.1100    -0.2990 H     1 <1>   0.1500 
 40 H        5.6290    -5.5300    -0.9750 H     1 <1>   0.2700 
 41 H        3.1430     2.9260     2.0840 H     1 <1>   0.1500 
 42 H        6.6570     2.7880    -0.3050 H     1 <1>   0.1500 
 43 H        2.5240    -7.6510    -0.1690 H     1 <1>   0.0800 
 44 H        4.1610    -7.6270     0.4360 H     1 <1>   0.0800 
 45 H        3.8600    -7.8270    -1.2780 H     1 <1>   0.0800 
 46 H        2.7010     6.8120     1.1250 H     1 <1>   0.0800 
 47 H        3.8120     8.0710     1.5810 H     1 <1>   0.0800 
 48 H        6.1750     8.0700     0.5710 H     1 <1>   0.0800 
 49 H        6.6280     6.8000    -0.5240 H     1 <1>   0.0800 
 50 H        2.6100     7.6130    -1.1530 H     1 <1>   0.0800 
 51 H        2.2020     8.9060    -0.0660 H     1 <1>   0.0800 
 52 H        6.1250     8.8760    -1.7450 H     1 <1>   0.0800 
 53 H        5.0440     7.5900    -2.1890 H     1 <1>   0.0800 
 54 H        4.4330     9.8750    -0.2920 H     1 <1>   0.0800 
 55 H        3.7530     9.6500    -1.8810 H     1 <1>   0.0800 
@<TRIPOS>BOND
  1   1   2  1   
  2   1  27  1   
  3   2   3  1   
  4   2   4  1   
  5   2  28  1   
  6   3   5  1   
  7   3   6  1   
  8   3  29  1   
  9   4   7  1   
 10   4  30  1   
 11   4  31  1   
 12   5   7  1   
 13   5  32  1   
 14   5  33  1   
 15   6   8  1   
 16   6  34  1   
 17   6  35  1   
 18   7   9  1   
 19   7  36  1   
 20   8  10  2   
 21   8  11  1   
 22   9  12  1   
 23   9  37  1   
 24   9  38  1   
 25  10  13  1   
 26  11  14  2   
 27  11  39  1   
 28  12  15  ar  
 29  12  16  ar  
 30  13  14  1   
 31  13  40  1   
 32  14  17  1   
 33  15  18  ar  
 34  15  41  1   
 35  16  19  ar  
 36  16  42  1   
 37  17  43  1   
 38  17  44  1   
 39  17  45  1   
 40  18  20  ar  
 41  19  20  ar  
 42  20  21  1   
 43  21  22  1   
 44  21  23  1   
 45  22  24  1   
 46  22  46  1   
 47  22  47  1   
 48  23  25  1   
 49  23  48  1   
 50  23  49  1   
 51  24  26  1   
 52  24  50  1   
 53  24  51  1   
 54  25  26  1   
 55  25  52  1   
 56  25  53  1   
 57  26  54  1   
 58  26  55  1   
@<TRIPOS>SUBSTRUCTURE
  1 ****   7 GROUP 4 **** **** 0

# MOE 2024.06 (io_trps.svl 2023.06)
