@<TRIPOS>MOLECULE
NONAME
51 53 1 0 0 
SMALL
USER_CHARGES


@<TRIPOS>ATOM
  1 O       -2.9230     1.3130     2.0210 O.2   1 <1>  -0.5700 
  2 C       -2.5890     1.2270     0.8630 C.2   1 <1>   0.5690 
  3 N       -2.2980     0.0300     0.2870 N.am  1 <1>  -0.7300 
  4 C       -2.5370     2.4950    -0.0210 C.3   1 <1>   0.0610 
  5 C       -2.3400    -1.3610     0.8190 C.3   1 <1>   0.2200 
  6 C       -1.2970     2.4720    -0.9480 C.3   1 <1>   0.1200 
  7 C       -3.8300     2.5920    -0.8600 C.3   1 <1>  -0.2400 
  8 C       -2.4430     3.7740     0.8410 C.3   1 <1>  -0.2400 
  9 C       -3.6970    -2.0360     0.6860 C.3   1 <1>  -0.0800 
 10 C       -2.0130    -1.5660     2.2990 C.3   1 <1>   0.1200 
 11 O       -1.3780     1.4450    -1.9000 O.3   1 <1>  -0.5600 
 12 C       -3.5220    -3.1960     1.6680 C.3   1 <1>   0.1200 
 13 C       -4.8950    -1.1400     1.0780 C.3   1 <1>  -0.0170 
 14 O       -2.6490    -2.7570     2.6670 O.3   1 <1>  -0.5600 
 15 C       -0.3140     1.4290    -2.7970 C.3   1 <1>   0.0400 
 16 C       -6.2260    -1.8750     0.9460 C.ar  1 <1>  -0.1440 
 17 C       -6.8370    -2.1210    -0.3070 C.ar  1 <1>   0.0000 
 18 C       -6.8730    -2.3200     2.0610 C.ar  1 <1>  -0.1500 
 19 C       -8.0600    -2.8340    -0.3120 C.ar  1 <1>   0.3100 
 20 C       -6.3100    -1.6970    -1.5490 C.ar  1 <1>  -0.1500 
 21 C       -8.0860    -3.0080     1.9450 C.ar  1 <1>   0.1600 
 22 N       -8.6700    -3.2710     0.8190 N.ar  1 <1>  -0.6200 
 23 C       -8.6820    -3.1060    -1.5420 C.ar  1 <1>  -0.1500 
 24 C       -6.9430    -1.9770    -2.7300 C.ar  1 <1>  -0.1500 
 25 C       -8.1430    -2.6920    -2.7290 C.ar  1 <1>  -0.1500 
 26 H       -2.0110     0.1030    -0.7000 H     1 <1>   0.3700 
 27 H       -1.6190    -1.9370     0.2640 H     1 <1>   0.0800 
 28 H       -0.4040     2.3250    -0.3630 H     1 <1>   0.0800 
 29 H       -1.2220     3.4070    -1.4760 H     1 <1>   0.0800 
 30 H       -3.8110     3.4620    -1.4910 H     1 <1>   0.0800 
 31 H       -4.6880     2.6520    -0.2140 H     1 <1>   0.0800 
 32 H       -3.9420     1.7230    -1.4840 H     1 <1>   0.0800 
 33 H       -2.3960     4.6540     0.2250 H     1 <1>   0.0800 
 34 H       -1.5660     3.7400     1.4640 H     1 <1>   0.0800 
 35 H       -3.3030     3.8570     1.4840 H     1 <1>   0.0800 
 36 H       -3.8320    -2.4200    -0.3080 H     1 <1>   0.0800 
 37 H       -2.4170    -0.7920     2.9240 H     1 <1>   0.0800 
 38 H       -0.9560    -1.6660     2.4690 H     1 <1>   0.0800 
 39 H       -3.0570    -4.0360     1.1820 H     1 <1>   0.0800 
 40 H       -4.4420    -3.5170     2.1230 H     1 <1>   0.0800 
 41 H       -4.9290    -0.2600     0.4630 H     1 <1>   0.0800 
 42 H       -4.7690    -0.7990     2.0920 H     1 <1>   0.0800 
 43 H       -0.4620     0.6100    -3.4790 H     1 <1>   0.0800 
 44 H        0.6070     1.2910    -2.2580 H     1 <1>   0.0800 
 45 H       -0.2970     2.3550    -3.3460 H     1 <1>   0.0800 
 46 H       -6.4700    -2.1590     3.0450 H     1 <1>   0.1500 
 47 H       -5.3930    -1.1400    -1.5710 H     1 <1>   0.1500 
 48 H       -8.5610    -3.3430     2.8520 H     1 <1>   0.1500 
 49 H       -9.6050    -3.6550    -1.5160 H     1 <1>   0.1500 
 50 H       -6.5310    -1.6500    -3.6690 H     1 <1>   0.1500 
 51 H       -8.6310    -2.9080    -3.6640 H     1 <1>   0.1500 
@<TRIPOS>BOND
  1   1   2  2   
  2   2   3  am  
  3   2   4  1   
  4   3   5  1   
  5   3  26  1   
  6   4   6  1   
  7   4   7  1   
  8   4   8  1   
  9   5   9  1   
 10   5  10  1   
 11   5  27  1   
 12   6  11  1   
 13   6  28  1   
 14   6  29  1   
 15   7  30  1   
 16   7  31  1   
 17   7  32  1   
 18   8  33  1   
 19   8  34  1   
 20   8  35  1   
 21   9  12  1   
 22   9  13  1   
 23   9  36  1   
 24  10  14  1   
 25  10  37  1   
 26  10  38  1   
 27  11  15  1   
 28  12  14  1   
 29  12  39  1   
 30  12  40  1   
 31  13  16  1   
 32  13  41  1   
 33  13  42  1   
 34  15  43  1   
 35  15  44  1   
 36  15  45  1   
 37  16  17  ar  
 38  16  18  ar  
 39  17  19  ar  
 40  17  20  ar  
 41  18  21  ar  
 42  18  46  1   
 43  19  22  ar  
 44  19  23  ar  
 45  20  24  ar  
 46  20  47  1   
 47  21  22  ar  
 48  21  48  1   
 49  23  25  ar  
 50  23  49  1   
 51  24  25  ar  
 52  24  50  1   
 53  25  51  1   
@<TRIPOS>SUBSTRUCTURE
  1 ****  13 GROUP 4 **** **** 0

# MOE 2024.06 (io_trps.svl 2023.06)
