@<TRIPOS>MOLECULE
NONAME
54 58 1 0 0 
SMALL
USER_CHARGES


@<TRIPOS>ATOM
  1 O        0.0460    -0.0250     0.5890 O.2   1 <1>  -0.5700 
  2 C       -0.4580     1.0650     0.7130 C.2   1 <1>   0.5690 
  3 N       -1.7480     1.3150     0.3170 N.am  1 <1>  -0.6600 
  4 C        0.4210     2.1450     1.3030 C.3   1 <1>  -0.0990 
  5 C       -2.4640     2.6340     0.4320 C.3   1 <1>   0.1400 
  6 C       -2.5860     0.1660    -0.1530 C.3   1 <1>   0.1400 
  7 C        1.1670     2.8580     0.1730 C.3   1 <1>   0.0960 
  8 C       -3.1750     3.0540    -0.8800 C.3   1 <1>   0.1440 
  9 C       -3.8970     0.6140    -0.8160 C.3   1 <1>  -0.1600 
 10 N        1.4410     4.2580     0.5330 N.pl3 1 <1>   0.3140 
 11 C       -4.3190     3.9820    -0.5000 C.ar  1 <1>   0.1660 
 12 C       -3.6620     1.8390    -1.7080 C.3   1 <1>  -0.1600 
 13 C       -2.2840     3.9880    -1.7410 C.3   1 <1>  -0.1600 
 14 N        0.4880     5.2060     0.4490 N.2   1 <1>  -0.7070 
 15 C        2.6020     4.7690     0.9860 C.2   1 <1>  -0.3020 
 16 N       -5.4610     3.6090     0.0290 N.ar  1 <1>  -0.6200 
 17 C       -4.0210     5.2830    -0.7630 C.ar  1 <1>  -0.1440 
 18 C       -2.6430     5.4330    -1.3550 C.3   1 <1>  -0.0170 
 19 C        1.0700     6.2960     0.8490 C.2   1 <1>   0.1390 
 20 C        2.3980     6.0860     1.1990 C.2   1 <1>  -0.1500 
 21 C       -6.3370     4.5900     0.2880 C.ar  1 <1>   0.6200 
 22 C       -4.9650     6.2300    -0.4650 C.ar  1 <1>   0.1600 
 23 N       -6.1230     5.8940     0.0570 N.ar  1 <1>  -0.6200 
 24 C       -7.6200     4.2080     0.8640 C.ar  1 <1>   0.0000 
 25 C       -8.7690     4.9810     0.6710 C.ar  1 <1>  -0.1500 
 26 C       -7.7650     3.0510     1.6360 C.ar  1 <1>  -0.1500 
 27 C       -9.9900     4.6230     1.2150 C.ar  1 <1>  -0.1500 
 28 C       -8.9820     2.6850     2.1820 C.ar  1 <1>  -0.1500 
 29 C      -10.0990     3.4720     1.9730 C.ar  1 <1>  -0.1500 
 30 H        1.1340     1.6880     1.9640 H     1 <1>   0.0800 
 31 H       -0.1670     2.8260     1.8870 H     1 <1>   0.0800 
 32 H       -1.8030     3.4250     0.7320 H     1 <1>   0.0800 
 33 H       -3.2050     2.5300     1.2070 H     1 <1>   0.0800 
 34 H       -2.8000    -0.4810     0.6800 H     1 <1>   0.0800 
 35 H       -2.0120    -0.4000    -0.8680 H     1 <1>   0.0800 
 36 H        0.5720     2.8640    -0.7210 H     1 <1>   0.0800 
 37 H        2.0910     2.3540    -0.0430 H     1 <1>   0.0800 
 38 H       -4.6250     0.8470    -0.0580 H     1 <1>   0.0800 
 39 H       -4.2900    -0.1980    -1.4010 H     1 <1>   0.0800 
 40 H       -2.9160     1.5750    -2.4380 H     1 <1>   0.0800 
 41 H       -4.5650     2.0920    -2.2360 H     1 <1>   0.0800 
 42 H       -2.5280     3.8580    -2.7810 H     1 <1>   0.0800 
 43 H       -1.2360     3.7920    -1.6130 H     1 <1>   0.0800 
 44 H        3.4910     4.1820     1.1290 H     1 <1>   0.1500 
 45 H       -2.6390     6.0850    -2.2110 H     1 <1>   0.0800 
 46 H       -1.9660     5.8080    -0.6070 H     1 <1>   0.0800 
 47 H        0.5730     7.2510     0.9010 H     1 <1>   0.1500 
 48 H        3.0860     6.8300     1.5590 H     1 <1>   0.1500 
 49 H       -4.7710     7.2710    -0.6550 H     1 <1>   0.1500 
 50 H       -8.7050     5.8800     0.0830 H     1 <1>   0.1500 
 51 H       -6.9070     2.4250     1.8110 H     1 <1>   0.1500 
 52 H      -10.8550     5.2400     1.0470 H     1 <1>   0.1500 
 53 H       -9.0600     1.7880     2.7710 H     1 <1>   0.1500 
 54 H      -11.0470     3.1910     2.3970 H     1 <1>   0.1500 
@<TRIPOS>BOND
  1   1   2  2   
  2   2   3  am  
  3   2   4  1   
  4   3   5  1   
  5   3   6  1   
  6   4   7  1   
  7   4  30  1   
  8   4  31  1   
  9   5   8  1   
 10   5  32  1   
 11   5  33  1   
 12   6   9  1   
 13   6  34  1   
 14   6  35  1   
 15   7  10  1   
 16   7  36  1   
 17   7  37  1   
 18   8  11  1   
 19   8  12  1   
 20   8  13  1   
 21   9  12  1   
 22   9  38  1   
 23   9  39  1   
 24  10  14  1   
 25  10  15  1   
 26  11  16  ar  
 27  11  17  ar  
 28  12  40  1   
 29  12  41  1   
 30  13  18  1   
 31  13  42  1   
 32  13  43  1   
 33  14  19  2   
 34  15  20  2   
 35  15  44  1   
 36  16  21  ar  
 37  17  18  1   
 38  17  22  ar  
 39  18  45  1   
 40  18  46  1   
 41  19  20  1   
 42  19  47  1   
 43  20  48  1   
 44  21  23  ar  
 45  21  24  1   
 46  22  23  ar  
 47  22  49  1   
 48  24  25  ar  
 49  24  26  ar  
 50  25  27  ar  
 51  25  50  1   
 52  26  28  ar  
 53  26  51  1   
 54  27  29  ar  
 55  27  52  1   
 56  28  29  ar  
 57  28  53  1   
 58  29  54  1   
@<TRIPOS>SUBSTRUCTURE
  1 ****  11 GROUP 4 **** **** 0

# MOE 2024.06 (io_trps.svl 2023.06)
