@<TRIPOS>MOLECULE
NONAME
57 60 1 0 0 
SMALL
USER_CHARGES


@<TRIPOS>ATOM
  1 CL      -0.2150    -2.5430    -2.3590 Cl    1 <1>  -0.1770 
  2 C        0.5460    -1.4440    -1.2290 C.ar  1 <1>   0.1770 
  3 C        0.7160    -1.8030     0.1050 C.ar  1 <1>  -0.0230 
  4 C        0.9540    -0.2130    -1.7060 C.ar  1 <1>  -0.1500 
  5 N        0.3030    -3.0670     0.5930 N.pl3 1 <1>   0.5930 
  6 C        1.3000    -0.8750     0.9630 C.ar  1 <1>  -0.1500 
  7 C        1.5380     0.6950    -0.8390 C.ar  1 <1>  -0.1500 
  8 N       -0.5620    -3.2090     1.6300 N.2   1 <1>  -0.7070 
  9 C        0.6600    -4.2960     0.1350 C.2   1 <1>  -0.3020 
 10 C        1.7080     0.3630     0.4940 C.ar  1 <1>  -0.1500 
 11 C       -0.6970    -4.4810     1.8100 C.2   1 <1>   0.1390 
 12 C        0.0150    -5.2240     0.8760 C.2   1 <1>  -0.1810 
 13 C        0.0120    -6.7380     0.7880 C.3   1 <1>   0.5240 
 14 N       -0.6270    -7.2080    -0.4870 N.4   1 <1>  -0.9590 
 15 C       -2.0680    -6.8780    -0.7590 C.3   1 <1>   0.4230 
 16 C       -0.4130    -8.6810    -0.6340 C.3   1 <1>   0.2630 
 17 C       -2.1990    -5.5810    -1.5540 C.3   1 <1>  -0.1600 
 18 C       -2.9910    -6.7530     0.4600 C.3   1 <1>  -0.1600 
 19 C       -3.5040    -4.9080    -1.1060 C.3   1 <1>  -0.0800 
 20 C       -4.0320    -5.6730     0.1080 C.3   1 <1>  -0.0800 
 21 C       -3.3470    -3.4400    -0.6780 C.3   1 <1>  -0.1600 
 22 C       -4.3020    -4.6340     1.2140 C.3   1 <1>  -0.1600 
 23 C       -4.1730    -3.2400     0.5940 C.3   1 <1>   0.4230 
 24 N       -5.5200    -2.6400     0.3340 N.4   1 <1>  -0.9590 
 25 C       -6.3470    -3.3430    -0.6990 C.3   1 <1>   0.2630 
 26 C       -5.3930    -1.1860     0.0020 C.3   1 <1>   0.2630 
 27 H        0.8150     0.0360    -2.7430 H     1 <1>   0.1500 
 28 H        1.4330    -1.1190     2.0040 H     1 <1>   0.1500 
 29 H        1.8590     1.6580    -1.2000 H     1 <1>   0.1500 
 30 H        1.3430    -4.4060    -0.6880 H     1 <1>   0.1500 
 31 H        2.1590     1.0710     1.1690 H     1 <1>   0.1500 
 32 H       -1.3000    -4.8940     2.6030 H     1 <1>   0.1500 
 33 H       -0.5050    -7.1530     1.6370 H     1 <1>   0.0800 
 34 H        1.0340    -7.0810     0.8260 H     1 <1>   0.0800 
 35 H       -0.0970    -6.7410    -1.2350 H     1 <1>   0.4500 
 36 H       -2.4850    -7.6500    -1.3860 H     1 <1>   0.0800 
 37 H       -0.9540    -9.2170     0.1300 H     1 <1>   0.0800 
 38 H        0.6350    -8.9210    -0.5480 H     1 <1>   0.0800 
 39 H       -0.7600    -9.0150    -1.5990 H     1 <1>   0.0800 
 40 H       -1.3620    -4.9370    -1.3920 H     1 <1>   0.0800 
 41 H       -2.2460    -5.8020    -2.6060 H     1 <1>   0.0800 
 42 H       -3.4860    -7.6910     0.6410 H     1 <1>   0.0800 
 43 H       -2.4670    -6.4820     1.3500 H     1 <1>   0.0800 
 44 H       -4.2290    -4.9730    -1.9010 H     1 <1>   0.0800 
 45 H       -4.9570    -6.1550    -0.1670 H     1 <1>   0.0800 
 46 H       -3.6050    -2.7600    -1.4700 H     1 <1>   0.0800 
 47 H       -2.3280    -3.2430    -0.4120 H     1 <1>   0.0800 
 48 H       -3.5610    -4.7050     1.9870 H     1 <1>   0.0800 
 49 H       -5.2610    -4.7890     1.6770 H     1 <1>   0.0800 
 50 H       -3.6320    -2.5990     1.2740 H     1 <1>   0.0800 
 51 H       -6.0300    -2.6970     1.2280 H     1 <1>   0.4500 
 52 H       -5.8670    -3.2910    -1.6620 H     1 <1>   0.0800 
 53 H       -7.3190    -2.8830    -0.7750 H     1 <1>   0.0800 
 54 H       -6.4780    -4.3790    -0.4330 H     1 <1>   0.0800 
 55 H       -4.8730    -1.0560    -0.9330 H     1 <1>   0.0800 
 56 H       -4.8430    -0.6710     0.7740 H     1 <1>   0.0800 
 57 H       -6.3680    -0.7340    -0.0820 H     1 <1>   0.0800 
@<TRIPOS>BOND
  1   1   2  1   
  2   2   3  ar  
  3   2   4  ar  
  4   3   5  1   
  5   3   6  ar  
  6   4   7  ar  
  7   4  27  1   
  8   5   8  1   
  9   5   9  1   
 10   6  10  ar  
 11   6  28  1   
 12   7  10  ar  
 13   7  29  1   
 14   8  11  2   
 15   9  12  2   
 16   9  30  1   
 17  10  31  1   
 18  11  12  1   
 19  11  32  1   
 20  12  13  1   
 21  13  14  1   
 22  13  33  1   
 23  13  34  1   
 24  14  15  1   
 25  14  16  1   
 26  14  35  1   
 27  15  17  1   
 28  15  18  1   
 29  15  36  1   
 30  16  37  1   
 31  16  38  1   
 32  16  39  1   
 33  17  19  1   
 34  17  40  1   
 35  17  41  1   
 36  18  20  1   
 37  18  42  1   
 38  18  43  1   
 39  19  20  1   
 40  19  21  1   
 41  19  44  1   
 42  20  22  1   
 43  20  45  1   
 44  21  23  1   
 45  21  46  1   
 46  21  47  1   
 47  22  23  1   
 48  22  48  1   
 49  22  49  1   
 50  23  24  1   
 51  23  50  1   
 52  24  25  1   
 53  24  26  1   
 54  24  51  1   
 55  25  52  1   
 56  25  53  1   
 57  25  54  1   
 58  26  55  1   
 59  26  56  1   
 60  26  57  1   
@<TRIPOS>SUBSTRUCTURE
  1 ****  21 GROUP 4 **** **** 0

# MOE 2024.06 (io_trps.svl 2023.06)
