@<TRIPOS>MOLECULE
NONAME
45 47 1 0 0 
SMALL
USER_CHARGES


@<TRIPOS>ATOM
  1 F        3.4720    -1.3300    -0.6800 F     1 <1>  -0.1900 
  2 C        2.3490    -1.9210    -0.3720 C.ar  1 <1>   0.1900 
  3 C        2.3760    -3.1000     0.3570 C.ar  1 <1>  -0.1440 
  4 C        1.1700    -1.3340    -0.7910 C.ar  1 <1>  -0.1500 
  5 C        1.1650    -3.7020     0.6640 C.ar  1 <1>  -0.1500 
  6 C        3.6930    -3.7140     0.8110 C.3   1 <1>  -0.0960 
  7 C       -0.0300    -1.9480    -0.4760 C.ar  1 <1>  -0.1500 
  8 C       -0.0360    -3.1360     0.2460 C.ar  1 <1>  -0.1440 
  9 C       -1.3500    -3.8170     0.5770 C.3   1 <1>   0.4870 
 10 N       -1.8850    -4.4620    -0.6570 N.4   1 <1>  -0.9590 
 11 C       -3.2790    -4.9400    -0.4570 C.3   1 <1>   0.4230 
 12 C       -0.9770    -5.5630    -1.1130 C.3   1 <1>   0.2630 
 13 C       -3.8680    -5.5380    -1.7280 C.3   1 <1>  -0.1600 
 14 C       -4.2370    -3.7980    -0.1240 C.3   1 <1>  -0.1600 
 15 C       -5.3860    -5.4530    -1.5340 C.3   1 <1>  -0.0800 
 16 C       -5.6280    -4.2630    -0.5890 C.3   1 <1>  -0.0800 
 17 C       -5.9710    -6.6930    -0.8310 C.3   1 <1>  -0.1600 
 18 C       -6.5030    -4.8030     0.5550 C.3   1 <1>  -0.1600 
 19 C       -6.2460    -6.3020     0.6160 C.3   1 <1>   0.2000 
 20 O       -5.1050    -6.5230     1.3680 O.3   1 <1>  -0.6800 
 21 H        1.2020    -0.4150    -1.3480 H     1 <1>   0.1500 
 22 H        1.1660    -4.6150     1.2350 H     1 <1>   0.1500 
 23 H        3.5330    -4.6210     1.3650 H     1 <1>   0.0800 
 24 H        4.2220    -3.0190     1.4400 H     1 <1>   0.0800 
 25 H        4.3080    -3.9370    -0.0430 H     1 <1>   0.0800 
 26 H       -0.9480    -1.4850    -0.7970 H     1 <1>   0.1500 
 27 H       -2.0420    -3.0770     0.9440 H     1 <1>   0.0800 
 28 H       -1.2030    -4.5550     1.3480 H     1 <1>   0.0800 
 29 H       -1.9010    -3.7400    -1.3860 H     1 <1>   0.4500 
 30 H       -3.3130    -5.6800     0.3250 H     1 <1>   0.0800 
 31 H       -0.9370    -6.3460    -0.3740 H     1 <1>   0.0800 
 32 H        0.0210    -5.1850    -1.2700 H     1 <1>   0.0800 
 33 H       -1.3290    -5.9820    -2.0410 H     1 <1>   0.0800 
 34 H       -3.6000    -4.9350    -2.5780 H     1 <1>   0.0800 
 35 H       -3.5460    -6.5510    -1.8880 H     1 <1>   0.0800 
 36 H       -4.2290    -3.5690     0.9270 H     1 <1>   0.0800 
 37 H       -3.9730    -2.9190    -0.6850 H     1 <1>   0.0800 
 38 H       -5.8770    -5.3090    -2.4830 H     1 <1>   0.0800 
 39 H       -6.1370    -3.4570    -1.0920 H     1 <1>   0.0800 
 40 H       -5.3520    -7.5700    -0.8980 H     1 <1>   0.0800 
 41 H       -6.9150    -6.9230    -1.2920 H     1 <1>   0.0800 
 42 H       -7.5350    -4.6580     0.2840 H     1 <1>   0.0800 
 43 H       -6.3390    -4.3130     1.4990 H     1 <1>   0.0800 
 44 H       -7.0610    -6.8610     1.0480 H     1 <1>   0.0800 
 45 H       -5.3410    -6.5250     2.3180 H     1 <1>   0.4000 
@<TRIPOS>BOND
  1   1   2  1   
  2   2   3  ar  
  3   2   4  ar  
  4   3   5  ar  
  5   3   6  1   
  6   4   7  ar  
  7   4  21  1   
  8   5   8  ar  
  9   5  22  1   
 10   6  23  1   
 11   6  24  1   
 12   6  25  1   
 13   7   8  ar  
 14   7  26  1   
 15   8   9  1   
 16   9  10  1   
 17   9  27  1   
 18   9  28  1   
 19  10  11  1   
 20  10  12  1   
 21  10  29  1   
 22  11  13  1   
 23  11  14  1   
 24  11  30  1   
 25  12  31  1   
 26  12  32  1   
 27  12  33  1   
 28  13  15  1   
 29  13  34  1   
 30  13  35  1   
 31  14  16  1   
 32  14  36  1   
 33  14  37  1   
 34  15  16  1   
 35  15  17  1   
 36  15  38  1   
 37  16  18  1   
 38  16  39  1   
 39  17  19  1   
 40  17  40  1   
 41  17  41  1   
 42  18  19  1   
 43  18  42  1   
 44  18  43  1   
 45  19  20  1   
 46  19  44  1   
 47  20  45  1   
@<TRIPOS>SUBSTRUCTURE
  1 ****  10 GROUP 4 **** **** 0

# MOE 2024.06 (io_trps.svl 2023.06)
