@<TRIPOS>MOLECULE
NONAME
45 46 1 0 0 
SMALL
USER_CHARGES


@<TRIPOS>ATOM
  1 CL       0.4020    -1.2280    -3.0530 Cl    1 <1>  -0.1770 
  2 C        1.3200    -1.5460    -1.5910 C.ar  1 <1>   0.1770 
  3 C        1.3040    -2.8000    -0.9930 C.ar  1 <1>   0.4100 
  4 C        2.0710    -0.5590    -1.0140 C.ar  1 <1>   0.1600 
  5 N        2.0000    -3.0200     0.1090 N.ar  1 <1>  -0.6200 
  6 N        0.5710    -3.8440    -1.5190 N.pl3 1 <1>  -0.8690 
  7 N        2.7730    -0.7710     0.0860 N.ar  1 <1>  -0.6200 
  8 C        2.6920    -1.9970     0.5800 C.ar  1 <1>   0.4770 
  9 C        0.5650    -5.2400    -1.0310 C.3   1 <1>   0.2090 
 10 C        3.4820    -2.2590     1.8390 C.3   1 <1>  -0.0970 
 11 C       -0.8740    -5.6300    -0.7030 C.3   1 <1>  -0.1600 
 12 C       -0.9370    -7.0510    -0.1390 C.3   1 <1>   0.1100 
 13 N       -2.3340    -7.4940     0.0020 N.3   1 <1>  -0.8100 
 14 C       -2.4150    -8.9650     0.1740 C.3   1 <1>   0.1100 
 15 C       -3.0430    -6.8090     1.1160 C.3   1 <1>   0.1100 
 16 C       -3.8780    -9.4690     0.2430 C.3   1 <1>   0.3430 
 17 C       -4.4780    -7.3490     1.3350 C.3   1 <1>   0.3430 
 18 N       -4.8520    -8.3240     0.2600 N.4   1 <1>  -0.9590 
 19 C       -6.2800    -8.7180     0.3000 C.3   1 <1>   0.3430 
 20 C       -6.6660    -9.3850    -1.0150 C.3   1 <1>  -0.2400 
 21 H        2.1010     0.4200    -1.4570 H     1 <1>   0.1500 
 22 H        0.0800    -3.6740    -2.4020 H     1 <1>   0.4000 
 23 H        1.1800    -5.3370    -0.1530 H     1 <1>   0.0800 
 24 H        0.9640    -5.8840    -1.7970 H     1 <1>   0.0800 
 25 H        3.8510    -3.2680     1.8390 H     1 <1>   0.0800 
 26 H        2.8470    -2.1160     2.6920 H     1 <1>   0.0800 
 27 H        4.3150    -1.5840     1.9030 H     1 <1>   0.0800 
 28 H       -1.4640    -5.5770    -1.6000 H     1 <1>   0.0800 
 29 H       -1.2510    -4.9290     0.0180 H     1 <1>   0.0800 
 30 H       -0.4280    -7.1010     0.8110 H     1 <1>   0.0800 
 31 H       -0.4280    -7.7090    -0.8250 H     1 <1>   0.0800 
 32 H       -1.8970    -9.2560     1.0730 H     1 <1>   0.0800 
 33 H       -1.9240    -9.4510    -0.6520 H     1 <1>   0.0800 
 34 H       -3.1120    -5.7560     0.9020 H     1 <1>   0.0800 
 35 H       -2.4840    -6.9150     2.0300 H     1 <1>   0.0800 
 36 H       -4.0030   -10.0770     1.1230 H     1 <1>   0.0800 
 37 H       -4.0650   -10.0930    -0.6150 H     1 <1>   0.0800 
 38 H       -5.1660    -6.5190     1.3380 H     1 <1>   0.0800 
 39 H       -4.5330    -7.8270     2.2990 H     1 <1>   0.0800 
 40 H       -4.6470    -7.8140    -0.6130 H     1 <1>   0.4500 
 41 H       -6.8920    -7.8400     0.4370 H     1 <1>   0.0800 
 42 H       -6.4610    -9.3890     1.1250 H     1 <1>   0.0800 
 43 H       -6.4580    -8.7370    -1.8480 H     1 <1>   0.0800 
 44 H       -7.7220    -9.5880    -1.0090 H     1 <1>   0.0800 
 45 H       -6.1560   -10.3220    -1.1460 H     1 <1>   0.0800 
@<TRIPOS>BOND
  1   1   2  1   
  2   2   3  ar  
  3   2   4  ar  
  4   3   5  ar  
  5   3   6  1   
  6   4   7  ar  
  7   4  21  1   
  8   5   8  ar  
  9   6   9  1   
 10   6  22  1   
 11   7   8  ar  
 12   8  10  1   
 13   9  11  1   
 14   9  23  1   
 15   9  24  1   
 16  10  25  1   
 17  10  26  1   
 18  10  27  1   
 19  11  12  1   
 20  11  28  1   
 21  11  29  1   
 22  12  13  1   
 23  12  30  1   
 24  12  31  1   
 25  13  14  1   
 26  13  15  1   
 27  14  16  1   
 28  14  32  1   
 29  14  33  1   
 30  15  17  1   
 31  15  34  1   
 32  15  35  1   
 33  16  18  1   
 34  16  36  1   
 35  16  37  1   
 36  17  18  1   
 37  17  38  1   
 38  17  39  1   
 39  18  19  1   
 40  18  40  1   
 41  19  20  1   
 42  19  41  1   
 43  19  42  1   
 44  20  43  1   
 45  20  44  1   
 46  20  45  1   
@<TRIPOS>SUBSTRUCTURE
  1 ****  11 GROUP 4 **** **** 0

# MOE 2024.06 (io_trps.svl 2023.06)
