@<TRIPOS>MOLECULE
NONAME
46 48 1 0 0 
SMALL
USER_CHARGES


@<TRIPOS>ATOM
  1 S        0.6370     1.0510     0.0190 S.3   1 <1>  -0.3320 
  2 C        1.5290    -0.3400    -0.6890 C.ar  1 <1>   0.4120 
  3 C       -0.8130     0.3270     0.9150 C.3   1 <1>   0.0700 
  4 N        1.0720    -1.5360    -0.3460 N.ar  1 <1>  -0.6200 
  5 C        2.6190    -0.0830    -1.5220 C.ar  1 <1>   0.0860 
  6 C       -1.9030    -0.0110    -0.1020 C.3   1 <1>  -0.0160 
  7 C        1.7230    -2.5580    -0.8760 C.ar  1 <1>   0.1600 
  8 C        3.0580     1.2560    -1.8200 C.2   1 <1>   0.5440 
  9 C        3.2710    -1.1830    -2.0610 C.ar  1 <1>  -0.1500 
 10 C       -3.1150    -0.5900     0.6070 C.ar  1 <1>  -0.1440 
 11 C        2.8090    -2.4380    -1.7270 C.ar  1 <1>  -0.1500 
 12 O        2.7190     1.7630    -2.8720 O.2   1 <1>  -0.5700 
 13 N        3.8820     1.9640    -0.9660 N.am  1 <1>  -0.6600 
 14 C       -4.1910     0.2180     0.9400 C.ar  1 <1>  -0.1500 
 15 C       -3.1480    -1.9370     0.9330 C.ar  1 <1>  -0.1500 
 16 C        4.2450     3.3890    -1.2330 C.3   1 <1>   0.1400 
 17 C        4.4110     1.4280     0.3200 C.3   1 <1>   0.1400 
 18 C       -5.2900    -0.3160     1.5910 C.ar  1 <1>  -0.1500 
 19 C       -4.2460    -2.4720     1.5840 C.ar  1 <1>  -0.1500 
 20 C        3.7280     4.2810    -0.0970 C.3   1 <1>   0.1200 
 21 C        3.9210     2.3000     1.4830 C.3   1 <1>  -0.1600 
 22 C       -5.3180    -1.6610     1.9140 C.ar  1 <1>  -0.1500 
 23 C        4.1380     5.6930    -0.3450 C.1   1 <1>   0.3570 
 24 C        4.2490     3.7870     1.2670 C.3   1 <1>  -0.1600 
 25 N        4.4670     6.7660    -0.5290 N.1   1 <1>  -0.5570 
 26 H       -1.1560     1.0700     1.6130 H     1 <1>   0.0800 
 27 H       -0.4770    -0.5430     1.4500 H     1 <1>   0.0800 
 28 H       -1.5290    -0.7250    -0.8140 H     1 <1>   0.0800 
 29 H       -2.1810     0.8780    -0.6400 H     1 <1>   0.0800 
 30 H        1.3730    -3.5450    -0.6220 H     1 <1>   0.1500 
 31 H        4.1090    -1.0480    -2.7240 H     1 <1>   0.1500 
 32 H        3.2830    -3.3190    -2.1220 H     1 <1>   0.1500 
 33 H       -4.1780     1.2650     0.6940 H     1 <1>   0.1500 
 34 H       -2.3170    -2.5730     0.6800 H     1 <1>   0.1500 
 35 H        3.8270     3.7240    -2.1680 H     1 <1>   0.0800 
 36 H        5.3160     3.4680    -1.3050 H     1 <1>   0.0800 
 37 H        5.4870     1.4410     0.2850 H     1 <1>   0.0800 
 38 H        4.0990     0.4110     0.4770 H     1 <1>   0.0800 
 39 H       -6.1220     0.3160     1.8470 H     1 <1>   0.1500 
 40 H       -4.2660    -3.5180     1.8340 H     1 <1>   0.1500 
 41 H        2.6530     4.2450    -0.1040 H     1 <1>   0.0800 
 42 H        4.3770     1.9590     2.3960 H     1 <1>   0.0800 
 43 H        2.8580     2.1760     1.5890 H     1 <1>   0.0800 
 44 H       -6.1720    -2.0760     2.4200 H     1 <1>   0.1500 
 45 H        3.8100     4.3710     2.0570 H     1 <1>   0.0800 
 46 H        5.3170     3.9210     1.3110 H     1 <1>   0.0800 
@<TRIPOS>BOND
  1   1   2  1   
  2   1   3  1   
  3   2   4  ar  
  4   2   5  ar  
  5   3   6  1   
  6   3  26  1   
  7   3  27  1   
  8   4   7  ar  
  9   5   8  1   
 10   5   9  ar  
 11   6  10  1   
 12   6  28  1   
 13   6  29  1   
 14   7  11  ar  
 15   7  30  1   
 16   8  12  2   
 17   8  13  am  
 18   9  11  ar  
 19   9  31  1   
 20  10  14  ar  
 21  10  15  ar  
 22  11  32  1   
 23  13  16  1   
 24  13  17  1   
 25  14  18  ar  
 26  14  33  1   
 27  15  19  ar  
 28  15  34  1   
 29  16  20  1   
 30  16  35  1   
 31  16  36  1   
 32  17  21  1   
 33  17  37  1   
 34  17  38  1   
 35  18  22  ar  
 36  18  39  1   
 37  19  22  ar  
 38  19  40  1   
 39  20  23  1   
 40  20  24  1   
 41  20  41  1   
 42  21  24  1   
 43  21  42  1   
 44  21  43  1   
 45  22  44  1   
 46  23  25  3   
 47  24  45  1   
 48  24  46  1   
@<TRIPOS>SUBSTRUCTURE
  1 ****   1 GROUP 4 **** **** 0

# MOE 2024.06 (io_trps.svl 2023.06)
