@<TRIPOS>MOLECULE
NONAME
24 25 1 0 0 
SMALL
USER_CHARGES


@<TRIPOS>ATOM
  1 S        0.0470     0.0960    -0.3840 S.3   1 <1>  -0.0800 
  2 C        1.3440     0.6300    -1.4530 C.2   1 <1>  -0.1100 
  3 C        1.2070    -0.4550     0.8260 C.2   1 <1>  -0.1100 
  4 C        2.5450     0.3960    -0.8920 C.2   1 <1>   0.0620 
  5 C        2.4670    -0.2390     0.4050 C.2   1 <1>   0.0620 
  6 O        3.7170     0.7470    -1.4910 O.3   1 <1>  -0.3420 
  7 O        3.5580    -0.6060     1.1330 O.3   1 <1>  -0.3420 
  8 C        4.7380     1.2250    -0.6370 C.3   1 <1>   0.1200 
  9 C        4.6620    -1.0980     0.4000 C.3   1 <1>   0.1200 
 10 C        5.5730     0.0570    -0.0690 C.3   1 <1>   0.0000 
 11 C        6.4090     0.5740     1.1150 C.3   1 <1>  -0.2400 
 12 C        6.5310    -0.4720    -1.1500 C.3   1 <1>  -0.2400 
 13 H        1.0720     1.0750    -2.3920 H     1 <1>   0.1500 
 14 H        0.8240    -0.8960     1.7270 H     1 <1>   0.1500 
 15 H        4.2760     1.7920     0.1530 H     1 <1>   0.0800 
 16 H        5.3590     1.8890    -1.2110 H     1 <1>   0.0800 
 17 H        4.2860    -1.6600    -0.4380 H     1 <1>   0.0800 
 18 H        5.2050    -1.7710     1.0400 H     1 <1>   0.0800 
 19 H        5.7660     0.9310     1.9010 H     1 <1>   0.0800 
 20 H        7.0480     1.3830     0.8050 H     1 <1>   0.0800 
 21 H        7.0260    -0.2110     1.5160 H     1 <1>   0.0800 
 22 H        5.9760    -0.8200    -2.0040 H     1 <1>   0.0800 
 23 H        7.1190    -1.2900    -0.7710 H     1 <1>   0.0800 
 24 H        7.2000     0.3040    -1.4780 H     1 <1>   0.0800 
@<TRIPOS>BOND
  1   1   2  1   
  2   1   3  1   
  3   2   4  2   
  4   2  13  1   
  5   3   5  2   
  6   3  14  1   
  7   4   5  1   
  8   4   6  1   
  9   5   7  1   
 10   6   8  1   
 11   7   9  1   
 12   8  10  1   
 13   8  15  1   
 14   8  16  1   
 15   9  10  1   
 16   9  17  1   
 17   9  18  1   
 18  10  11  1   
 19  10  12  1   
 20  11  19  1   
 21  11  20  1   
 22  11  21  1   
 23  12  22  1   
 24  12  23  1   
 25  12  24  1   
@<TRIPOS>SUBSTRUCTURE
  1 ****   5 GROUP 4 **** **** 0

# MOE 2024.06 (io_trps.svl 2023.06)
