@<TRIPOS>MOLECULE
NONAME
38 39 1 0 0 
SMALL
USER_CHARGES


@<TRIPOS>ATOM
  1 F       -2.3470    -0.9280    -0.9590 F     1 <1>  -0.1900 
  2 C       -2.5670     0.2270    -0.3820 C.ar  1 <1>   0.1900 
  3 C       -3.1500     0.2620     0.8770 C.ar  1 <1>  -0.1440 
  4 C       -2.1970     1.3670    -1.0680 C.ar  1 <1>  -0.1500 
  5 C       -3.3600     1.5040     1.4600 C.ar  1 <1>  -0.1500 
  6 C       -3.5470    -1.0160     1.5990 C.3   1 <1>   0.2540 
  7 C       -2.4160     2.6040    -0.4710 C.ar  1 <1>   0.0820 
  8 C       -2.9950     2.6610     0.7880 C.ar  1 <1>  -0.1500 
  9 N       -4.6880    -1.6440     0.9160 N.3   1 <1>  -0.8100 
 10 O       -2.0940     3.7870    -1.0500 O.3   1 <1>  -0.3630 
 11 C       -4.8060    -3.0870     1.2310 C.3   1 <1>   0.2900 
 12 C       -5.9530    -0.9030     1.1240 C.3   1 <1>   0.1100 
 13 C       -1.5180     3.8410    -2.3360 C.3   1 <1>   0.0400 
 14 C       -5.1220    -3.8620    -0.0350 C.2   1 <1>   0.0060 
 15 C       -7.0290    -1.2870     0.1000 C.3   1 <1>   0.1200 
 16 N       -5.8560    -4.9270    -0.0990 N.2   1 <1>  -0.5650 
 17 N       -4.6400    -3.4630    -1.2300 N.pl3 1 <1>   0.0330 
 18 O       -8.1760    -0.5440     0.3440 O.3   1 <1>  -0.6800 
 19 C       -5.8490    -5.2400    -1.4100 C.2   1 <1>   0.0770 
 20 C       -5.1120    -4.3560    -2.1170 C.2   1 <1>  -0.3020 
 21 H       -1.7520     1.2680    -2.0380 H     1 <1>   0.1500 
 22 H       -3.8110     1.5800     2.4340 H     1 <1>   0.1500 
 23 H       -3.7960    -0.8150     2.6280 H     1 <1>   0.0800 
 24 H       -2.6990    -1.6790     1.5830 H     1 <1>   0.0800 
 25 H       -3.1600     3.6230     1.2390 H     1 <1>   0.1500 
 26 H       -5.5700    -3.2610     1.9690 H     1 <1>   0.0800 
 27 H       -3.8780    -3.4710     1.6180 H     1 <1>   0.0800 
 28 H       -5.7700     0.1520     1.0090 H     1 <1>   0.0800 
 29 H       -6.3160    -1.0790     2.1220 H     1 <1>   0.0800 
 30 H       -1.3590     4.8740    -2.5870 H     1 <1>   0.0800 
 31 H       -2.1960     3.3940    -3.0420 H     1 <1>   0.0800 
 32 H       -0.5780     3.3200    -2.3210 H     1 <1>   0.0800 
 33 H       -7.2900    -2.3300     0.1620 H     1 <1>   0.0800 
 34 H       -6.6920    -1.0560    -0.8950 H     1 <1>   0.0800 
 35 H       -4.0650    -2.6230    -1.3740 H     1 <1>   0.2700 
 36 H       -8.6390    -0.8780     1.1360 H     1 <1>   0.4000 
 37 H       -6.3850    -6.0980    -1.7810 H     1 <1>   0.1500 
 38 H       -4.9040    -4.3130    -3.1710 H     1 <1>   0.1500 
@<TRIPOS>BOND
  1   1   2  1   
  2   2   3  ar  
  3   2   4  ar  
  4   3   5  ar  
  5   3   6  1   
  6   4   7  ar  
  7   4  21  1   
  8   5   8  ar  
  9   5  22  1   
 10   6   9  1   
 11   6  23  1   
 12   6  24  1   
 13   7   8  ar  
 14   7  10  1   
 15   8  25  1   
 16   9  11  1   
 17   9  12  1   
 18  10  13  1   
 19  11  14  1   
 20  11  26  1   
 21  11  27  1   
 22  12  15  1   
 23  12  28  1   
 24  12  29  1   
 25  13  30  1   
 26  13  31  1   
 27  13  32  1   
 28  14  16  2   
 29  14  17  1   
 30  15  18  1   
 31  15  33  1   
 32  15  34  1   
 33  16  19  1   
 34  17  20  1   
 35  17  35  1   
 36  18  36  1   
 37  19  20  2   
 38  19  37  1   
 39  20  38  1   
@<TRIPOS>SUBSTRUCTURE
  1 ****   9 GROUP 4 **** **** 0

# MOE 2024.06 (io_trps.svl 2023.06)
