@<TRIPOS>MOLECULE
NONAME
40 41 1 0 0 
SMALL
USER_CHARGES


@<TRIPOS>ATOM
  1 F        0.7710     2.0330     2.3790 F     1 <1>  -0.1900 
  2 C        1.8610     2.1410     1.6590 C.ar  1 <1>   0.1900 
  3 C        2.4390     1.0330     1.0950 C.ar  1 <1>   0.1600 
  4 C        2.4430     3.3680     1.4580 C.ar  1 <1>   0.1600 
  5 N        3.5340     1.1380     0.3730 N.ar  1 <1>  -0.6200 
  6 N        3.5400     3.4970     0.7360 N.ar  1 <1>  -0.6200 
  7 C        4.0390     2.3640     0.2210 C.ar  1 <1>   0.7200 
  8 N        5.1910     2.4800    -0.5350 N.pl3 1 <1>  -0.8380 
  9 C        5.5780     3.7820    -1.1410 C.3   1 <1>   0.2090 
 10 C        5.8690     1.2690    -1.0960 C.3   1 <1>   0.1290 
 11 C        6.3200     4.6340    -0.0930 C.3   1 <1>   0.3430 
 12 N        6.0770     6.1170    -0.2310 N.4   1 <1>  -0.9590 
 13 C        7.0490     6.9090     0.5750 C.3   1 <1>   0.4230 
 14 C        4.6650     6.4150     0.1830 C.3   1 <1>   0.2630 
 15 C        6.8830     8.4200     0.3390 C.3   1 <1>  -0.1600 
 16 C        8.4970     6.5920     0.1820 C.3   1 <1>  -0.1600 
 17 C        8.2370     8.9560    -0.1370 C.3   1 <1>  -0.1600 
 18 C        9.2520     7.9120     0.3050 C.3   1 <1>  -0.1600 
 19 H        2.0000     0.0610     1.2400 H     1 <1>   0.1500 
 20 H        1.9940     4.2410     1.8980 H     1 <1>   0.1500 
 21 H        4.6860     4.2770    -1.4820 H     1 <1>   0.0800 
 22 H        6.2130     3.6190    -1.9940 H     1 <1>   0.0800 
 23 H        5.8660     0.4690    -0.3740 H     1 <1>   0.0800 
 24 H        6.8920     1.4890    -1.3470 H     1 <1>   0.0800 
 25 H        5.3490     0.9380    -1.9790 H     1 <1>   0.0800 
 26 H        7.3700     4.4160    -0.1730 H     1 <1>   0.0800 
 27 H        5.9920     4.3190     0.8840 H     1 <1>   0.0800 
 28 H        6.2130     6.3930    -1.2120 H     1 <1>   0.4500 
 29 H        6.9150     6.7030     1.6260 H     1 <1>   0.0800 
 30 H        4.5110     6.1280     1.2110 H     1 <1>   0.0800 
 31 H        3.9660     5.8640    -0.4250 H     1 <1>   0.0800 
 32 H        4.4480     7.4660     0.0820 H     1 <1>   0.0800 
 33 H        6.6350     8.8860     1.2770 H     1 <1>   0.0800 
 34 H        6.1250     8.6640    -0.3820 H     1 <1>   0.0800 
 35 H        8.5530     6.2690    -0.8430 H     1 <1>   0.0800 
 36 H        8.9290     5.8450     0.8240 H     1 <1>   0.0800 
 37 H        8.4570     9.9280     0.2740 H     1 <1>   0.0800 
 38 H        8.2430     9.0260    -1.2120 H     1 <1>   0.0800 
 39 H       10.1430     7.9320    -0.3010 H     1 <1>   0.0800 
 40 H        9.5250     8.0850     1.3340 H     1 <1>   0.0800 
@<TRIPOS>BOND
  1   1   2  1   
  2   2   3  ar  
  3   2   4  ar  
  4   3   5  ar  
  5   3  19  1   
  6   4   6  ar  
  7   4  20  1   
  8   5   7  ar  
  9   6   7  ar  
 10   7   8  1   
 11   8   9  1   
 12   8  10  1   
 13   9  11  1   
 14   9  21  1   
 15   9  22  1   
 16  10  23  1   
 17  10  24  1   
 18  10  25  1   
 19  11  12  1   
 20  11  26  1   
 21  11  27  1   
 22  12  13  1   
 23  12  14  1   
 24  12  28  1   
 25  13  15  1   
 26  13  16  1   
 27  13  29  1   
 28  14  30  1   
 29  14  31  1   
 30  14  32  1   
 31  15  17  1   
 32  15  33  1   
 33  15  34  1   
 34  16  18  1   
 35  16  35  1   
 36  16  36  1   
 37  17  18  1   
 38  17  37  1   
 39  17  38  1   
 40  18  39  1   
 41  18  40  1   
@<TRIPOS>SUBSTRUCTURE
  1 ****  11 GROUP 4 **** **** 0

# MOE 2024.06 (io_trps.svl 2023.06)
