@<TRIPOS>MOLECULE
NONAME
45 48 1 0 0 
SMALL
USER_CHARGES


@<TRIPOS>ATOM
  1 O       -1.6760    -0.0240     1.8730 O.2   1 <1>  -0.5700 
  2 C       -1.9350     0.6240     0.8720 C.2   1 <1>   0.7150 
  3 N       -2.6590     0.0040    -0.1330 N.am  1 <1>  -0.6600 
  4 C       -1.4710     1.9960     0.8000 C.2   1 <1>   0.0550 
  5 C       -2.7270    -1.4920    -0.2360 C.3   1 <1>   0.1400 
  6 C       -3.4590     0.7430    -1.1500 C.3   1 <1>   0.1400 
  7 O       -1.2920     2.6380    -0.3540 O.3   1 <1>  -0.2800 
  8 C       -1.1150     2.8400     1.8100 C.2   1 <1>  -0.1500 
  9 C       -4.1780    -2.0020    -0.2640 C.3   1 <1>   0.2890 
 10 C       -4.9090     0.2470    -1.1470 C.3   1 <1>  -0.1600 
 11 C       -0.8460     3.8480    -0.1070 C.2   1 <1>  -0.0100 
 12 C       -0.7150     4.0400     1.2220 C.2   1 <1>  -0.1500 
 13 N       -4.2040    -3.4540    -0.5730 N.pl3 1 <1>  -0.8690 
 14 C       -5.0000    -1.2740    -1.3320 C.3   1 <1>  -0.1600 
 15 C       -5.1340    -4.3520    -0.0840 C.ar  1 <1>   0.4100 
 16 N       -6.0690    -3.8930     0.7230 N.ar  1 <1>  -0.3100 
 17 C       -5.0650    -5.7120    -0.4800 C.ar  1 <1>   0.0000 
 18 N       -7.0140    -4.7010     1.1840 N.ar  1 <1>  -0.3100 
 19 C       -6.0760    -6.5580     0.0010 C.ar  1 <1>   0.0000 
 20 C       -4.0620    -6.2640    -1.3100 C.ar  1 <1>  -0.1500 
 21 C       -7.0300    -5.9600     0.8470 C.ar  1 <1>   0.1670 
 22 C       -6.0640    -7.9190    -0.3850 C.ar  1 <1>  -0.1500 
 23 C       -4.0710    -7.5850    -1.6640 C.ar  1 <1>  -0.1500 
 24 C       -8.1610    -6.7920     1.4270 C.3   1 <1>  -0.0970 
 25 C       -5.0870    -8.4220    -1.1990 C.ar  1 <1>  -0.1500 
 26 H       -2.2170    -1.9540     0.5910 H     1 <1>   0.0800 
 27 H       -2.2310    -1.7870    -1.1430 H     1 <1>   0.0800 
 28 H       -3.0170     0.5940    -2.1210 H     1 <1>   0.0800 
 29 H       -3.4650     1.7980    -0.9410 H     1 <1>   0.0800 
 30 H       -1.1290     2.6280     2.8650 H     1 <1>   0.1500 
 31 H       -4.6100    -1.8280     0.7070 H     1 <1>   0.0800 
 32 H       -5.4530     0.7380    -1.9350 H     1 <1>   0.0800 
 33 H       -5.3690     0.5250    -0.2140 H     1 <1>   0.0800 
 34 H       -0.6460     4.5120    -0.9310 H     1 <1>   0.1500 
 35 H       -0.3740     4.9150     1.7460 H     1 <1>   0.1500 
 36 H       -3.6570    -3.7350    -1.3840 H     1 <1>   0.4000 
 37 H       -6.0280    -1.5840    -1.2560 H     1 <1>   0.0800 
 38 H       -4.6340    -1.5340    -2.3090 H     1 <1>   0.0800 
 39 H       -3.2700    -5.6320    -1.6660 H     1 <1>   0.1500 
 40 H       -6.8380    -8.5750    -0.0320 H     1 <1>   0.1500 
 41 H       -3.3030    -7.9940    -2.2980 H     1 <1>   0.1500 
 42 H       -8.7920    -6.1870     2.0530 H     1 <1>   0.0800 
 43 H       -7.7600    -7.5920     2.0220 H     1 <1>   0.0800 
 44 H       -8.7610    -7.1990     0.6340 H     1 <1>   0.0800 
 45 H       -5.0840    -9.4590    -1.4870 H     1 <1>   0.1500 
@<TRIPOS>BOND
  1   1   2  2   
  2   2   3  am  
  3   2   4  1   
  4   3   5  1   
  5   3   6  1   
  6   4   7  1   
  7   4   8  2   
  8   5   9  1   
  9   5  26  1   
 10   5  27  1   
 11   6  10  1   
 12   6  28  1   
 13   6  29  1   
 14   7  11  1   
 15   8  12  1   
 16   8  30  1   
 17   9  13  1   
 18   9  14  1   
 19   9  31  1   
 20  10  14  1   
 21  10  32  1   
 22  10  33  1   
 23  11  12  2   
 24  11  34  1   
 25  12  35  1   
 26  13  15  1   
 27  13  36  1   
 28  14  37  1   
 29  14  38  1   
 30  15  16  ar  
 31  15  17  ar  
 32  16  18  ar  
 33  17  19  ar  
 34  17  20  ar  
 35  18  21  ar  
 36  19  21  ar  
 37  19  22  ar  
 38  20  23  ar  
 39  20  39  1   
 40  21  24  1   
 41  22  25  ar  
 42  22  40  1   
 43  23  25  ar  
 44  23  41  1   
 45  24  42  1   
 46  24  43  1   
 47  24  44  1   
 48  25  45  1   
@<TRIPOS>SUBSTRUCTURE
  1 ****   9 GROUP 4 **** **** 0

# MOE 2024.06 (io_trps.svl 2023.06)
