@<TRIPOS>MOLECULE
NONAME
37 38 1 0 0 
SMALL
USER_CHARGES


@<TRIPOS>ATOM
  1 O        3.1710    -1.2360    -1.8440 O.2   1 <1>  -0.5760 
  2 C        2.4760    -1.2970    -0.8600 C.2   1 <1>   0.8480 
  3 N        2.1560    -0.1590    -0.2040 N.pl3 1 <1>  -0.7350 
  4 C        1.9590    -2.6550    -0.3040 C.3   1 <1>   0.2720 
  5 C        2.4500     1.0990    -0.4810 C.cat 1 <1>   1.0680 
  6 N        0.5350    -2.6810     0.2060 N.am  1 <1>  -0.6660 
  7 C        2.0110    -3.7900    -1.3390 C.3   1 <1>  -0.1700 
  8 N        3.1460     1.5300    -1.5140 N.pl3 1 <1>  -0.7050 
  9 N        2.0700     2.1290     0.2700 N.pl3 1 <1>  -0.7690 
 10 C        0.1030    -2.0110     1.3230 C.2   1 <1>   0.5630 
 11 C       -0.2110    -3.7970    -0.4340 C.3   1 <1>   0.1300 
 12 C        0.8660    -4.7240    -0.9730 C.3   1 <1>  -0.1700 
 13 C        3.2270     2.9000    -1.4430 C.2   1 <1>   0.1900 
 14 C        2.5600     3.2740    -0.3350 C.2   1 <1>   0.1900 
 15 C        1.2770     2.0960     1.5300 C.3   1 <1>   0.2650 
 16 O        0.8090    -1.1890     1.8620 O.2   1 <1>  -0.5760 
 17 C       -1.2900    -2.2220     1.9030 C.3   1 <1>  -0.1100 
 18 C       -2.3960    -1.5730     1.0540 C.3   1 <1>  -0.2490 
 19 H        1.6000    -0.3140     0.6390 H     1 <1>   0.4420 
 20 H        2.5960    -2.9280     0.5190 H     1 <1>   0.0690 
 21 H        1.8360    -3.3980    -2.3270 H     1 <1>   0.0690 
 22 H        2.9630    -4.2920    -1.3340 H     1 <1>   0.0690 
 23 H        3.5320     0.8790    -2.2080 H     1 <1>   0.4420 
 24 H       -0.8450    -4.3210     0.2580 H     1 <1>   0.0690 
 25 H       -0.8050    -3.4070    -1.2440 H     1 <1>   0.0690 
 26 H        1.1740    -5.4000    -0.1930 H     1 <1>   0.0690 
 27 H        0.5180    -5.2960    -1.8140 H     1 <1>   0.0690 
 28 H        3.7460     3.5020    -2.1730 H     1 <1>   0.1400 
 29 H        2.4010     4.2660     0.0610 H     1 <1>   0.1400 
 30 H        1.1650     3.0900     1.9270 H     1 <1>   0.0690 
 31 H        1.7760     1.4860     2.2660 H     1 <1>   0.0690 
 32 H        0.2990     1.6860     1.3410 H     1 <1>   0.0690 
 33 H       -1.4840    -3.2710     2.0250 H     1 <1>   0.0690 
 34 H       -1.3160    -1.7870     2.8860 H     1 <1>   0.0690 
 35 H       -2.4250    -2.0040     0.0700 H     1 <1>   0.0690 
 36 H       -2.2240    -0.5150     0.9650 H     1 <1>   0.0690 
 37 H       -3.3530    -1.7260     1.5220 H     1 <1>   0.0690 
@<TRIPOS>BOND
  1   1   2  2   
  2   2   3  1   
  3   2   4  1   
  4   3   5  ar  
  5   3  19  1   
  6   4   6  1   
  7   4   7  1   
  8   4  20  1   
  9   5   8  ar  
 10   5   9  ar  
 11   6  10  am  
 12   6  11  1   
 13   7  12  1   
 14   7  21  1   
 15   7  22  1   
 16   8  13  1   
 17   8  23  1   
 18   9  14  1   
 19   9  15  1   
 20  10  16  2   
 21  10  17  1   
 22  11  12  1   
 23  11  24  1   
 24  11  25  1   
 25  12  26  1   
 26  12  27  1   
 27  13  14  2   
 28  13  28  1   
 29  14  29  1   
 30  15  30  1   
 31  15  31  1   
 32  15  32  1   
 33  17  18  1   
 34  17  33  1   
 35  17  34  1   
 36  18  35  1   
 37  18  36  1   
 38  18  37  1   
@<TRIPOS>SUBSTRUCTURE
  1 ****   3 GROUP 4 **** **** 0

# MOE 2024.06 (io_trps.svl 2023.06)
