@<TRIPOS>MOLECULE
NONAME
46 48 1 0 0 
SMALL
USER_CHARGES


@<TRIPOS>ATOM
  1 S        0.4710     0.1190    -0.2490 S.3   1 <1>  -0.3320 
  2 C       -1.1000    -0.6750     0.1420 C.ar  1 <1>   0.1020 
  3 C        0.2210     1.9290     0.0100 C.3   1 <1>   0.0700 
  4 C       -1.1660    -2.0470    -0.0250 C.ar  1 <1>  -0.1500 
  5 C       -2.1990     0.0470     0.5890 C.ar  1 <1>  -0.1500 
  6 C        1.5350     2.6370    -0.3180 C.3   1 <1>  -0.0990 
  7 C       -2.3480    -2.7090     0.2550 C.ar  1 <1>   0.0830 
  8 C       -3.3800    -0.6190     0.8760 C.ar  1 <1>  -0.1500 
  9 C        1.3810     4.1380    -0.2100 C.2   1 <1>   0.5690 
 10 O       -2.4070    -4.0520     0.0700 O.3   1 <1>  -0.3630 
 11 C       -3.4570    -1.9930     0.7160 C.ar  1 <1>   0.0830 
 12 O        0.7850     4.6090     0.7290 O.2   1 <1>  -0.5700 
 13 N        1.9440     4.9220    -1.1590 N.am  1 <1>  -0.7300 
 14 C       -3.6940    -4.6400     0.0550 C.3   1 <1>   0.1200 
 15 O       -4.6220    -2.6220     1.0200 O.3   1 <1>  -0.3630 
 16 C        1.8890     6.3930    -1.1570 C.3   1 <1>   0.3200 
 17 C       -4.5700    -4.0290     1.1580 C.3   1 <1>   0.1200 
 18 C        2.9370     6.9040    -0.1990 C.2   1 <1>  -0.3320 
 19 N        2.8940     6.6270     1.1180 N.pl3 1 <1>   0.3000 
 20 C        4.0300     7.6710    -0.3990 C.2   1 <1>  -0.1500 
 21 N        3.9260     7.1900     1.7790 N.2   1 <1>  -0.7070 
 22 C        4.6040     7.8160     0.8610 C.2   1 <1>   0.1080 
 23 C        5.8710     8.6030     1.1720 C.3   1 <1>   0.3010 
 24 O        6.4330     9.1420     0.0060 O.3   1 <1>  -0.5600 
 25 C        7.5950     9.8720     0.2260 C.3   1 <1>   0.0400 
 26 H       -0.0590     2.0780     1.0380 H     1 <1>   0.0800 
 27 H       -0.5710     2.2440    -0.6470 H     1 <1>   0.0800 
 28 H       -0.3110    -2.5950    -0.3730 H     1 <1>   0.1500 
 29 H       -2.1570     1.1100     0.7220 H     1 <1>   0.1500 
 30 H        1.8410     2.3750    -1.3140 H     1 <1>   0.0800 
 31 H        2.2950     2.3200     0.3720 H     1 <1>   0.0800 
 32 H       -4.2430    -0.0810     1.2250 H     1 <1>   0.1500 
 33 H        2.5910     4.5200    -1.8380 H     1 <1>   0.3700 
 34 H       -3.5760    -5.6980     0.2020 H     1 <1>   0.0800 
 35 H       -4.1320    -4.4630    -0.9110 H     1 <1>   0.0800 
 36 H        0.9120     6.7220    -0.8420 H     1 <1>   0.0800 
 37 H        2.0740     6.7660    -2.1500 H     1 <1>   0.0800 
 38 H       -4.1620    -4.2550     2.1270 H     1 <1>   0.0800 
 39 H       -5.5750    -4.4050     1.1000 H     1 <1>   0.0800 
 40 H        2.1750     6.0390     1.5690 H     1 <1>   0.2700 
 41 H        4.4130     8.1000    -1.3090 H     1 <1>   0.1500 
 42 H        6.5900     7.9490     1.6320 H     1 <1>   0.0800 
 43 H        5.6320     9.4080     1.8440 H     1 <1>   0.0800 
 44 H        7.9440    10.2390    -0.7240 H     1 <1>   0.0800 
 45 H        8.3420     9.2320     0.6630 H     1 <1>   0.0800 
 46 H        7.3770    10.7020     0.8760 H     1 <1>   0.0800 
@<TRIPOS>BOND
  1   1   2  1   
  2   1   3  1   
  3   2   4  ar  
  4   2   5  ar  
  5   3   6  1   
  6   3  26  1   
  7   3  27  1   
  8   4   7  ar  
  9   4  28  1   
 10   5   8  ar  
 11   5  29  1   
 12   6   9  1   
 13   6  30  1   
 14   6  31  1   
 15   7  10  1   
 16   7  11  ar  
 17   8  11  ar  
 18   8  32  1   
 19   9  12  2   
 20   9  13  am  
 21  10  14  1   
 22  11  15  1   
 23  13  16  1   
 24  13  33  1   
 25  14  17  1   
 26  14  34  1   
 27  14  35  1   
 28  15  17  1   
 29  16  18  1   
 30  16  36  1   
 31  16  37  1   
 32  17  38  1   
 33  17  39  1   
 34  18  19  1   
 35  18  20  2   
 36  19  21  1   
 37  19  40  1   
 38  20  22  1   
 39  20  41  1   
 40  21  22  2   
 41  22  23  1   
 42  23  24  1   
 43  23  42  1   
 44  23  43  1   
 45  24  25  1   
 46  25  44  1   
 47  25  45  1   
 48  25  46  1   
@<TRIPOS>SUBSTRUCTURE
  1 ****   3 GROUP 4 **** **** 0

# MOE 2024.06 (io_trps.svl 2023.06)
