@<TRIPOS>MOLECULE
NONAME
44 46 1 0 0 
SMALL
USER_CHARGES


@<TRIPOS>ATOM
  1 O       -0.0670     0.8610     1.4670 O.2   1 <1>  -0.5700 
  2 C       -0.0390     2.0430     1.1620 C.2   1 <1>   0.7160 
  3 N       -1.2460     2.7260     1.1260 N.am  1 <1>  -0.6600 
  4 C        1.2470     2.6560     0.8410 C.2   1 <1>   0.2030 
  5 C       -2.4700     2.2000     1.7970 C.3   1 <1>   0.1400 
  6 C       -1.4420     4.0580     0.4850 C.3   1 <1>   0.1400 
  7 N        1.6040     3.8780     1.1130 N.2   1 <1>  -0.4100 
  8 C        2.3230     2.0260     0.2170 C.2   1 <1>  -0.1810 
  9 C       -3.6110     2.1000     0.7830 C.3   1 <1>  -0.1600 
 10 C       -2.5810     3.9710    -0.5340 C.3   1 <1>  -0.1600 
 11 O        2.8330     4.0990     0.7220 O.3   1 <1>  -0.0190 
 12 C        3.2660     2.9770     0.1920 C.2   1 <1>  -0.0400 
 13 C        2.3640     0.5900    -0.2820 C.3   1 <1>   0.3010 
 14 C       -3.8760     3.4420     0.0970 C.3   1 <1>   0.4180 
 15 C        4.6930     2.9540    -0.3210 C.3   1 <1>  -0.0600 
 16 O        2.9240     0.5800    -1.5470 O.3   1 <1>  -0.6800 
 17 O       -4.2990     4.3240     1.1090 O.3   1 <1>  -0.5600 
 18 C       -4.9690     3.2760    -0.9550 C.2   1 <1>  -0.2880 
 19 C       -5.0010     5.4700     0.7160 C.3   1 <1>   0.1200 
 20 C       -6.0910     3.9990    -0.9920 C.2   1 <1>  -0.2760 
 21 C       -6.3250     5.0880     0.0400 C.3   1 <1>  -0.0220 
 22 C       -7.2020     3.8140    -2.0100 C.3   1 <1>  -0.1020 
 23 H       -2.7490     2.8720     2.5920 H     1 <1>   0.0800 
 24 H       -2.2890     1.2330     2.2330 H     1 <1>   0.0800 
 25 H       -0.5530     4.3820    -0.0240 H     1 <1>   0.0800 
 26 H       -1.6800     4.7830     1.2450 H     1 <1>   0.0800 
 27 H       -4.5080     1.7730     1.2750 H     1 <1>   0.0800 
 28 H       -3.3530     1.3600     0.0480 H     1 <1>   0.0800 
 29 H       -2.2810     3.3080    -1.3240 H     1 <1>   0.0800 
 30 H       -2.7520     4.9330    -0.9780 H     1 <1>   0.0800 
 31 H        1.3800     0.1630    -0.3630 H     1 <1>   0.0800 
 32 H        2.9670    -0.0250     0.3630 H     1 <1>   0.0800 
 33 H        4.9650     1.9710    -0.6600 H     1 <1>   0.0800 
 34 H        5.3650     3.2410     0.4670 H     1 <1>   0.0800 
 35 H        4.7980     3.6450    -1.1370 H     1 <1>   0.0800 
 36 H        2.4730     1.2470    -2.0990 H     1 <1>   0.4000 
 37 H       -4.7470     2.5020    -1.6670 H     1 <1>   0.1500 
 38 H       -4.3850     6.0390     0.0430 H     1 <1>   0.0800 
 39 H       -5.1880     6.0600     1.5950 H     1 <1>   0.0800 
 40 H       -6.7350     5.9640    -0.4290 H     1 <1>   0.0800 
 41 H       -7.0250     4.7430     0.7800 H     1 <1>   0.0800 
 42 H       -7.3410     4.7160    -2.5780 H     1 <1>   0.0800 
 43 H       -8.1230     3.5710    -1.5110 H     1 <1>   0.0800 
 44 H       -6.9620     3.0160    -2.6890 H     1 <1>   0.0800 
@<TRIPOS>BOND
  1   1   2  2   
  2   2   3  am  
  3   2   4  1   
  4   3   5  1   
  5   3   6  1   
  6   4   7  2   
  7   4   8  1   
  8   5   9  1   
  9   5  23  1   
 10   5  24  1   
 11   6  10  1   
 12   6  25  1   
 13   6  26  1   
 14   7  11  1   
 15   8  12  2   
 16   8  13  1   
 17   9  14  1   
 18   9  27  1   
 19   9  28  1   
 20  10  14  1   
 21  10  29  1   
 22  10  30  1   
 23  11  12  1   
 24  12  15  1   
 25  13  16  1   
 26  13  31  1   
 27  13  32  1   
 28  14  17  1   
 29  14  18  1   
 30  15  33  1   
 31  15  34  1   
 32  15  35  1   
 33  16  36  1   
 34  17  19  1   
 35  18  20  2   
 36  18  37  1   
 37  19  21  1   
 38  19  38  1   
 39  19  39  1   
 40  20  21  1   
 41  20  22  1   
 42  21  40  1   
 43  21  41  1   
 44  22  42  1   
 45  22  43  1   
 46  22  44  1   
@<TRIPOS>SUBSTRUCTURE
  1 ****   3 GROUP 4 **** **** 0

# MOE 2024.06 (io_trps.svl 2023.06)
