@<TRIPOS>MOLECULE
NONAME
55 58 1 0 0 
SMALL
USER_CHARGES


@<TRIPOS>ATOM
  1 O       -1.1560    -1.6190    -1.3690 O.3   1 <1>  -0.5600 
  2 C        0.0730    -2.2520    -1.5610 C.3   1 <1>   0.1200 
  3 C       -2.2190    -2.4950    -1.1250 C.3   1 <1>   0.1200 
  4 C        0.4660    -3.0600    -0.3080 C.3   1 <1>   0.2090 
  5 C       -1.9580    -3.3190     0.1470 C.3   1 <1>   0.2090 
  6 N       -0.6240    -4.0260     0.0760 N.pl3 1 <1>  -0.8380 
  7 C       -0.5110    -5.3650     0.2960 C.ar  1 <1>   0.7710 
  8 N       -1.6070    -6.0920     0.4600 N.ar  1 <1>  -0.6200 
  9 N        0.7130    -5.9230     0.3470 N.ar  1 <1>  -0.1790 
 10 C       -1.4760    -7.3820     0.6540 C.ar  1 <1>   0.4100 
 11 C        0.8940    -7.2490     0.5580 C.ar  1 <1>   0.2180 
 12 N       -2.6300    -8.0470     0.7880 N.pl3 1 <1>  -0.8690 
 13 C       -0.2180    -8.0060     0.7160 C.ar  1 <1>  -0.1500 
 14 C        2.3120    -7.8070     0.6090 C.3   1 <1>  -0.0170 
 15 C       -2.9200    -9.4930     0.7690 C.3   1 <1>   0.3900 
 16 C        3.1190    -7.2280     1.7790 C.3   1 <1>  -0.2400 
 17 C       -4.1590    -9.6960    -0.0710 C.2   1 <1>  -0.1810 
 18 C       -4.2930    -9.3770    -1.4160 C.2   1 <1>   0.1390 
 19 C       -5.3600   -10.2060     0.2790 C.2   1 <1>  -0.3020 
 20 N       -5.4730    -9.6630    -1.8730 N.2   1 <1>  -0.7070 
 21 N       -6.1400   -10.1830    -0.8230 N.pl3 1 <1>   0.3140 
 22 C       -7.5490   -10.6200    -0.9510 C.3   1 <1>   0.2390 
 23 C       -7.9100   -11.6990     0.0650 C.ar  1 <1>  -0.1440 
 24 C       -7.4740   -13.0020    -0.1210 C.ar  1 <1>  -0.1500 
 25 C       -8.6710   -11.3880     1.1830 C.ar  1 <1>  -0.1500 
 26 C       -7.7950   -13.9840     0.8000 C.ar  1 <1>  -0.1500 
 27 C       -8.9920   -12.3700     2.1030 C.ar  1 <1>  -0.1500 
 28 C       -8.5550   -13.6690     1.9120 C.ar  1 <1>  -0.1500 
 29 H        0.8040    -1.4870    -1.7570 H     1 <1>   0.0800 
 30 H        0.0000    -2.8900    -2.4250 H     1 <1>   0.0800 
 31 H       -2.3440    -3.1390    -1.9780 H     1 <1>   0.0800 
 32 H       -3.1100    -1.9040    -1.0070 H     1 <1>   0.0800 
 33 H        0.6300    -2.3690     0.5030 H     1 <1>   0.0800 
 34 H        1.3920    -3.5630    -0.5090 H     1 <1>   0.0800 
 35 H       -2.7760    -4.0050     0.2790 H     1 <1>   0.0800 
 36 H       -1.9620    -2.6550     0.9940 H     1 <1>   0.0800 
 37 H        1.4930    -5.2890     0.2540 H     1 <1>   0.4570 
 38 H       -3.4880    -7.4860     0.7470 H     1 <1>   0.4000 
 39 H       -0.1650    -9.0630     0.8940 H     1 <1>   0.1500 
 40 H        2.8170    -7.6010    -0.3190 H     1 <1>   0.0800 
 41 H        2.2700    -8.8780     0.7180 H     1 <1>   0.0800 
 42 H       -3.0980    -9.8390     1.7730 H     1 <1>   0.0800 
 43 H       -2.1020   -10.0450     0.3430 H     1 <1>   0.0800 
 44 H        3.2590    -6.1660     1.6790 H     1 <1>   0.0800 
 45 H        4.0920    -7.6900     1.8120 H     1 <1>   0.0800 
 46 H        2.6250    -7.4280     2.7150 H     1 <1>   0.0800 
 47 H       -3.5170    -8.9380    -2.0200 H     1 <1>   0.1500 
 48 H       -5.7020   -10.5800     1.2270 H     1 <1>   0.1500 
 49 H       -7.6920   -10.9970    -1.9460 H     1 <1>   0.0800 
 50 H       -8.1780    -9.7590    -0.8250 H     1 <1>   0.0800 
 51 H       -6.8790   -13.2580    -0.9810 H     1 <1>   0.1500 
 52 H       -9.0160   -10.3810     1.3450 H     1 <1>   0.1500 
 53 H       -7.4540   -14.9940     0.6510 H     1 <1>   0.1500 
 54 H       -9.5830   -12.1240     2.9690 H     1 <1>   0.1500 
 55 H       -8.8060   -14.4330     2.6280 H     1 <1>   0.1500 
@<TRIPOS>BOND
  1   1   2  1   
  2   1   3  1   
  3   2   4  1   
  4   2  29  1   
  5   2  30  1   
  6   3   5  1   
  7   3  31  1   
  8   3  32  1   
  9   4   6  1   
 10   4  33  1   
 11   4  34  1   
 12   5   6  1   
 13   5  35  1   
 14   5  36  1   
 15   6   7  1   
 16   7   8  ar  
 17   7   9  ar  
 18   8  10  ar  
 19   9  11  ar  
 20   9  37  1   
 21  10  12  1   
 22  10  13  ar  
 23  11  13  ar  
 24  11  14  1   
 25  12  15  1   
 26  12  38  1   
 27  13  39  1   
 28  14  16  1   
 29  14  40  1   
 30  14  41  1   
 31  15  17  1   
 32  15  42  1   
 33  15  43  1   
 34  16  44  1   
 35  16  45  1   
 36  16  46  1   
 37  17  18  1   
 38  17  19  2   
 39  18  20  2   
 40  18  47  1   
 41  19  21  1   
 42  19  48  1   
 43  20  21  1   
 44  21  22  1   
 45  22  23  1   
 46  22  49  1   
 47  22  50  1   
 48  23  24  ar  
 49  23  25  ar  
 50  24  26  ar  
 51  24  51  1   
 52  25  27  ar  
 53  25  52  1   
 54  26  28  ar  
 55  26  53  1   
 56  27  28  ar  
 57  27  54  1   
 58  28  55  1   
@<TRIPOS>SUBSTRUCTURE
  1 ****  12 GROUP 4 **** **** 0

# MOE 2024.06 (io_trps.svl 2023.06)
