@<TRIPOS>MOLECULE
NONAME
48 51 1 0 0 
SMALL
USER_CHARGES


@<TRIPOS>ATOM
  1 CL       2.0310    -4.1900    -2.8240 Cl    1 <1>  -0.1770 
  2 C        1.5930    -3.9690    -1.1450 C.ar  1 <1>   0.1770 
  3 C        0.6460    -3.0170    -0.7820 C.ar  1 <1>  -0.1440 
  4 C        2.1890    -4.7960    -0.2110 C.ar  1 <1>  -0.1500 
  5 C        0.3090    -2.8940     0.5590 C.ar  1 <1>  -0.1500 
  6 C       -0.0980    -2.1690    -1.8130 C.3   1 <1>   0.0450 
  7 C        1.8240    -4.6860     1.1180 C.ar  1 <1>   0.0830 
  8 C        0.8790    -3.7320     1.5020 C.ar  1 <1>   0.0830 
  9 C       -1.4020    -2.8600    -2.1740 C.2   1 <1>   0.5690 
 10 O        2.3790    -5.5330     2.0210 O.3   1 <1>  -0.3630 
 11 O        0.4740    -3.6320     2.7920 O.3   1 <1>  -0.3630 
 12 O       -2.4490    -2.3060    -1.9460 O.2   1 <1>  -0.5700 
 13 N       -1.3530    -4.1170    -2.6810 N.am  1 <1>  -0.7300 
 14 C        2.1590    -5.2560     3.3930 C.3   1 <1>   0.1200 
 15 C        0.7280    -4.7500     3.6210 C.3   1 <1>   0.1200 
 16 C       -2.4960    -5.0580    -2.7450 C.3   1 <1>   0.2200 
 17 C       -2.4020    -6.1060    -1.6380 C.3   1 <1>  -0.0800 
 18 C       -2.3400    -5.9380    -3.9760 C.3   1 <1>   0.1200 
 19 C       -1.4600    -7.1550    -2.2390 C.3   1 <1>   0.1200 
 20 C       -1.9610    -5.5870    -0.2560 C.3   1 <1>  -0.0170 
 21 O       -1.4090    -6.9140    -3.6160 O.3   1 <1>  -0.5600 
 22 C       -1.8700    -6.6910     0.7840 C.ar  1 <1>  -0.1430 
 23 C       -0.6690    -7.2970     1.0940 C.ar  1 <1>  -0.1500 
 24 C       -2.9730    -7.1310     1.4860 C.ar  1 <1>  -0.1500 
 25 C       -0.6290    -8.2840     2.0640 C.ar  1 <1>   0.1600 
 26 C       -2.8250    -8.1250     2.4380 C.ar  1 <1>   0.1600 
 27 N       -1.6790    -8.7110     2.7470 N.ar  1 <1>  -0.6200 
 28 H        2.9180    -5.5250    -0.5130 H     1 <1>   0.1500 
 29 H       -0.4210    -2.1710     0.8820 H     1 <1>   0.1500 
 30 H        0.4840    -2.0170    -2.7010 H     1 <1>   0.0800 
 31 H       -0.3180    -1.2020    -1.3990 H     1 <1>   0.0800 
 32 H       -0.4490    -4.5560    -2.8820 H     1 <1>   0.3700 
 33 H        2.3350    -6.1610     3.9460 H     1 <1>   0.0800 
 34 H        2.8700    -4.5110     3.7010 H     1 <1>   0.0800 
 35 H        0.5870    -4.4450     4.6420 H     1 <1>   0.0800 
 36 H        0.0120    -5.5170     3.3810 H     1 <1>   0.0800 
 37 H       -3.4310    -4.5220    -2.7380 H     1 <1>   0.0800 
 38 H       -3.3680    -6.5660    -1.5310 H     1 <1>   0.0800 
 39 H       -1.9840    -5.3950    -4.8350 H     1 <1>   0.0800 
 40 H       -3.2650    -6.4340    -4.2110 H     1 <1>   0.0800 
 41 H       -1.8160    -8.1570    -2.0700 H     1 <1>   0.0800 
 42 H       -0.4590    -7.0560    -1.8580 H     1 <1>   0.0800 
 43 H       -2.6470    -4.8290     0.0810 H     1 <1>   0.0800 
 44 H       -0.9940    -5.1330    -0.3310 H     1 <1>   0.0800 
 45 H        0.2390    -7.0100     0.5970 H     1 <1>   0.1500 
 46 H       -3.9440    -6.7070     1.3030 H     1 <1>   0.1500 
 47 H        0.3180    -8.7440     2.2890 H     1 <1>   0.1500 
 48 H       -3.6970    -8.4560     2.9770 H     1 <1>   0.1500 
@<TRIPOS>BOND
  1   1   2  1   
  2   2   3  ar  
  3   2   4  ar  
  4   3   5  ar  
  5   3   6  1   
  6   4   7  ar  
  7   4  28  1   
  8   5   8  ar  
  9   5  29  1   
 10   6   9  1   
 11   6  30  1   
 12   6  31  1   
 13   7   8  ar  
 14   7  10  1   
 15   8  11  1   
 16   9  12  2   
 17   9  13  am  
 18  10  14  1   
 19  11  15  1   
 20  13  16  1   
 21  13  32  1   
 22  14  15  1   
 23  14  33  1   
 24  14  34  1   
 25  15  35  1   
 26  15  36  1   
 27  16  17  1   
 28  16  18  1   
 29  16  37  1   
 30  17  19  1   
 31  17  20  1   
 32  17  38  1   
 33  18  21  1   
 34  18  39  1   
 35  18  40  1   
 36  19  21  1   
 37  19  41  1   
 38  19  42  1   
 39  20  22  1   
 40  20  43  1   
 41  20  44  1   
 42  22  23  ar  
 43  22  24  ar  
 44  23  25  ar  
 45  23  45  1   
 46  24  26  ar  
 47  24  46  1   
 48  25  27  ar  
 49  25  47  1   
 50  26  27  ar  
 51  26  48  1   
@<TRIPOS>SUBSTRUCTURE
  1 ****  20 GROUP 4 **** **** 0

# MOE 2024.06 (io_trps.svl 2023.06)
