@<TRIPOS>MOLECULE
NONAME
49 51 1 0 0 
SMALL
USER_CHARGES


@<TRIPOS>ATOM
  1 O       -4.6330     2.6110     0.9030 O.2   1 <1>  -0.5700 
  2 C       -4.0350     2.1230    -0.0380 C.2   1 <1>   0.5440 
  3 N       -4.7470     1.3310    -0.9140 N.am  1 <1>  -0.6600 
  4 C       -2.6120     2.3490    -0.1770 C.ar  1 <1>   0.0860 
  5 C       -4.0900     0.4140    -1.8990 C.3   1 <1>   0.3210 
  6 C       -6.2050     1.1000    -0.7140 C.3   1 <1>   0.1400 
  7 C       -1.7300     1.9160     0.8190 C.ar  1 <1>  -0.1500 
  8 C       -2.0780     2.9910    -1.3020 C.ar  1 <1>  -0.1500 
  9 C       -3.8890    -0.9820    -1.3110 C.2   1 <1>   0.0460 
 10 C       -6.4470     0.3600     0.6150 C.3   1 <1>   0.3430 
 11 C       -0.3720     2.0990     0.6630 C.ar  1 <1>  -0.1440 
 12 C       -0.7140     3.1700    -1.4550 C.ar  1 <1>  -0.1500 
 13 N       -4.9320    -1.8190    -1.0930 N.2   1 <1>  -0.5650 
 14 C       -2.7200    -1.5720    -0.9620 C.2   1 <1>  -0.3320 
 15 N       -7.8180    -0.2450     0.7110 N.4   1 <1>  -0.9590 
 16 C        0.1240     2.7090    -0.4580 C.ar  1 <1>   0.0830 
 17 C        0.7770     1.7360     1.5570 C.3   1 <1>  -0.0170 
 18 C       -4.3730    -2.8920    -0.6340 C.2   1 <1>   0.0360 
 19 N       -3.0330    -2.8050    -0.5270 N.pl3 1 <1>   0.0330 
 20 C       -1.2830    -1.0730    -1.0130 C.3   1 <1>  -0.0600 
 21 C       -8.1010    -0.6170     2.1280 C.3   1 <1>   0.2630 
 22 C       -7.9190    -1.4470    -0.1770 C.3   1 <1>   0.2630 
 23 O        1.4590     2.7990    -0.4560 O.3   1 <1>  -0.3630 
 24 C        1.9810     2.2540     0.7480 C.3   1 <1>   0.1200 
 25 H       -3.1420     0.8080    -2.2080 H     1 <1>   0.0800 
 26 H       -4.7000     0.3370    -2.7810 H     1 <1>   0.0800 
 27 H       -6.5870     0.5260    -1.5390 H     1 <1>   0.0800 
 28 H       -6.7070     2.0510    -0.6910 H     1 <1>   0.0800 
 29 H       -2.1200     1.4420     1.7020 H     1 <1>   0.1500 
 30 H       -2.7470     3.3540    -2.0620 H     1 <1>   0.1500 
 31 H       -6.3030     1.0630     1.4190 H     1 <1>   0.0800 
 32 H       -5.7070    -0.4170     0.7180 H     1 <1>   0.0800 
 33 H       -0.2980     3.6580    -2.3180 H     1 <1>   0.1500 
 34 H       -8.5030     0.4640     0.4120 H     1 <1>   0.4500 
 35 H        0.8400     0.6730     1.7040 H     1 <1>   0.0800 
 36 H        0.7080     2.2350     2.5060 H     1 <1>   0.0800 
 37 H       -4.9020    -3.7890    -0.3610 H     1 <1>   0.1500 
 38 H       -2.3890    -3.5320    -0.1980 H     1 <1>   0.2700 
 39 H       -1.2280    -0.0810    -1.4220 H     1 <1>   0.0800 
 40 H       -0.6860    -1.7220    -1.6290 H     1 <1>   0.0800 
 41 H       -0.8630    -1.0510    -0.0240 H     1 <1>   0.0800 
 42 H       -7.3870    -1.3490     2.4710 H     1 <1>   0.0800 
 43 H       -9.0910    -1.0330     2.2160 H     1 <1>   0.0800 
 44 H       -8.0340     0.2520     2.7620 H     1 <1>   0.0800 
 45 H       -7.1880    -2.1860     0.1130 H     1 <1>   0.0800 
 46 H       -7.7300    -1.1780    -1.2040 H     1 <1>   0.0800 
 47 H       -8.9010    -1.8850    -0.1110 H     1 <1>   0.0800 
 48 H        2.6600     1.4600     0.4920 H     1 <1>   0.0800 
 49 H        2.5010     3.0370     1.2710 H     1 <1>   0.0800 
@<TRIPOS>BOND
  1   1   2  2   
  2   2   3  am  
  3   2   4  1   
  4   3   5  1   
  5   3   6  1   
  6   4   7  ar  
  7   4   8  ar  
  8   5   9  1   
  9   5  25  1   
 10   5  26  1   
 11   6  10  1   
 12   6  27  1   
 13   6  28  1   
 14   7  11  ar  
 15   7  29  1   
 16   8  12  ar  
 17   8  30  1   
 18   9  13  1   
 19   9  14  2   
 20  10  15  1   
 21  10  31  1   
 22  10  32  1   
 23  11  16  ar  
 24  11  17  1   
 25  12  16  ar  
 26  12  33  1   
 27  13  18  2   
 28  14  19  1   
 29  14  20  1   
 30  15  21  1   
 31  15  22  1   
 32  15  34  1   
 33  16  23  1   
 34  17  24  1   
 35  17  35  1   
 36  17  36  1   
 37  18  19  1   
 38  18  37  1   
 39  19  38  1   
 40  20  39  1   
 41  20  40  1   
 42  20  41  1   
 43  21  42  1   
 44  21  43  1   
 45  21  44  1   
 46  22  45  1   
 47  22  46  1   
 48  22  47  1   
 49  23  24  1   
 50  24  48  1   
 51  24  49  1   
@<TRIPOS>SUBSTRUCTURE
  1 ****   2 GROUP 4 **** **** 0

# MOE 2024.06 (io_trps.svl 2023.06)
