@<TRIPOS>MOLECULE
NONAME
39 41 1 0 0 
SMALL
USER_CHARGES


@<TRIPOS>ATOM
  1 CL       0.7430    -1.7700    -0.6920 Cl    1 <1>  -0.1240 
  2 C       -0.6650    -2.6450    -0.1580 C.2   1 <1>   0.1640 
  3 S       -0.6030    -4.3880    -0.2900 S.3   1 <1>  -0.0800 
  4 C       -1.8320    -2.2220     0.3550 C.2   1 <1>  -0.1500 
  5 C       -2.2270    -4.5250     0.3770 C.2   1 <1>  -0.1400 
  6 C       -2.7260    -3.3000     0.6620 C.2   1 <1>  -0.1500 
  7 C       -2.7450    -5.9450     0.5050 C.3   1 <1>   0.5230 
  8 N       -4.2110    -5.9360     0.7820 N.4   1 <1>  -0.9590 
  9 C       -4.9990    -5.4530    -0.4040 C.3   1 <1>   0.3430 
 10 C       -4.6830    -7.3190     1.0900 C.3   1 <1>   0.3430 
 11 C       -6.0160    -6.5550    -0.7360 C.3   1 <1>   0.2000 
 12 C       -5.3900    -7.8260    -0.1720 C.3   1 <1>  -0.0800 
 13 O       -7.2120    -6.3020    -0.0740 O.3   1 <1>  -0.6800 
 14 C       -4.4240    -8.4570    -1.2010 C.3   1 <1>   0.0210 
 15 C       -3.3890    -9.3590    -0.5600 C.2   1 <1>   0.1080 
 16 N       -2.3080    -8.8990    -0.0060 N.2   1 <1>  -0.7070 
 17 C       -3.4680   -10.7450    -0.4990 C.2   1 <1>  -0.1500 
 18 N       -1.6470   -10.0040     0.4090 N.pl3 1 <1>   0.3000 
 19 C       -2.3370   -11.1280     0.1290 C.2   1 <1>  -0.3320 
 20 C       -1.8610   -12.5280     0.4750 C.3   1 <1>  -0.0600 
 21 H       -2.0950    -1.1930     0.5290 H     1 <1>   0.1500 
 22 H       -3.6910    -3.0780     1.0830 H     1 <1>   0.1500 
 23 H       -2.2170    -6.4460     1.3000 H     1 <1>   0.0800 
 24 H       -2.5460    -6.4830    -0.4080 H     1 <1>   0.0800 
 25 H       -4.3630    -5.3230     1.5920 H     1 <1>   0.4500 
 26 H       -5.5020    -4.5220    -0.2020 H     1 <1>   0.0800 
 27 H       -4.3390    -5.3180    -1.2450 H     1 <1>   0.0800 
 28 H       -3.8800    -7.9650     1.4020 H     1 <1>   0.0800 
 29 H       -5.4030    -7.2760     1.8910 H     1 <1>   0.0800 
 30 H       -6.2320    -6.6080    -1.7900 H     1 <1>   0.0800 
 31 H       -6.1340    -8.5610     0.0850 H     1 <1>   0.0800 
 32 H       -7.1560    -6.4090     0.8940 H     1 <1>   0.4000 
 33 H       -3.8930    -7.7000    -1.7490 H     1 <1>   0.0800 
 34 H       -4.9900    -9.0260    -1.9190 H     1 <1>   0.0800 
 35 H       -4.2620   -11.3610    -0.8830 H     1 <1>   0.1500 
 36 H       -0.7270    -9.9690     0.8680 H     1 <1>   0.2700 
 37 H       -2.5810   -13.2570     0.1460 H     1 <1>   0.0800 
 38 H       -1.7350   -12.6300     1.5380 H     1 <1>   0.0800 
 39 H       -0.9230   -12.7340    -0.0100 H     1 <1>   0.0800 
@<TRIPOS>BOND
  1   1   2  1   
  2   2   3  1   
  3   2   4  2   
  4   3   5  1   
  5   4   6  1   
  6   4  21  1   
  7   5   6  2   
  8   5   7  1   
  9   6  22  1   
 10   7   8  1   
 11   7  23  1   
 12   7  24  1   
 13   8   9  1   
 14   8  10  1   
 15   8  25  1   
 16   9  11  1   
 17   9  26  1   
 18   9  27  1   
 19  10  12  1   
 20  10  28  1   
 21  10  29  1   
 22  11  12  1   
 23  11  13  1   
 24  11  30  1   
 25  12  14  1   
 26  12  31  1   
 27  13  32  1   
 28  14  15  1   
 29  14  33  1   
 30  14  34  1   
 31  15  16  2   
 32  15  17  1   
 33  16  18  1   
 34  17  19  2   
 35  17  35  1   
 36  18  19  1   
 37  18  36  1   
 38  19  20  1   
 39  20  37  1   
 40  20  38  1   
 41  20  39  1   
@<TRIPOS>SUBSTRUCTURE
  1 ****   7 GROUP 4 **** **** 0

# MOE 2024.06 (io_trps.svl 2023.06)
