@<TRIPOS>MOLECULE
NONAME
47 50 1 0 0 
SMALL
USER_CHARGES


@<TRIPOS>ATOM
  1 O        0.0840     0.7820     1.0770 O.2   1 <1>  -0.5700 
  2 C       -0.5150     1.8350     0.8730 C.2   1 <1>   0.5440 
  3 N       -1.8650     1.7130     0.5440 N.am  1 <1>  -0.6600 
  4 C        0.1930     3.0910     1.0180 C.ar  1 <1>   0.3960 
  5 C       -2.8490     2.8370     0.6230 C.3   1 <1>   0.1400 
  6 C       -2.4510     0.3730     0.2370 C.3   1 <1>   0.1400 
  7 N       -0.0610     4.1460     0.1950 N.ar  1 <1>  -0.6200 
  8 C        1.1590     3.1960     2.0300 C.ar  1 <1>   0.1600 
  9 C       -3.6400     2.9830    -0.6960 C.3   1 <1>   0.1440 
 10 C       -3.9060     0.4660    -0.2560 C.3   1 <1>  -0.1600 
 11 C        0.6440     5.2070     0.4790 C.ar  1 <1>   0.1600 
 12 N        1.8660     4.2580     2.3270 N.ar  1 <1>  -0.6200 
 13 C       -4.8030     3.9170    -0.4050 C.ar  1 <1>   0.1670 
 14 C       -4.0790     1.6080    -1.2720 C.3   1 <1>  -0.1600 
 15 C       -2.8480     3.7980    -1.7490 C.3   1 <1>  -0.1600 
 16 C        1.5910     5.3010     1.5250 C.ar  1 <1>   0.1390 
 17 N       -5.9140     3.5880     0.2090 N.ar  1 <1>  -0.6200 
 18 C       -4.5420     5.1810    -0.8420 C.ar  1 <1>  -0.1440 
 19 C       -3.1880     5.2760    -1.5000 C.3   1 <1>  -0.0170 
 20 O        2.1940     6.3670     1.7250 O.3   1 <1>  -0.8290 
 21 C       -6.7890     4.5830     0.3720 C.ar  1 <1>   0.7200 
 22 C       -5.4980     6.1400    -0.6260 C.ar  1 <1>   0.1600 
 23 N       -6.6270     5.8510    -0.0220 N.ar  1 <1>  -0.6200 
 24 N       -7.9730     4.2730     1.0130 N.pl3 1 <1>  -0.8380 
 25 C       -9.1390     5.1980     1.0100 C.3   1 <1>   0.1290 
 26 C       -8.1690     2.9830     1.7290 C.3   1 <1>   0.1290 
 27 H       -2.3800     3.7670     0.8810 H     1 <1>   0.0800 
 28 H       -3.5410     2.6150     1.4180 H     1 <1>   0.0800 
 29 H       -2.4010    -0.2450     1.1180 H     1 <1>   0.0800 
 30 H       -1.8470    -0.0900    -0.5250 H     1 <1>   0.0800 
 31 H        1.3390     2.3240     2.6300 H     1 <1>   0.1500 
 32 H       -4.5600     0.6280     0.5840 H     1 <1>   0.0800 
 33 H       -4.1880    -0.4690    -0.7050 H     1 <1>   0.0800 
 34 H        0.5210     6.0980    -0.1050 H     1 <1>   0.1500 
 35 H       -3.4750     1.3660    -2.1290 H     1 <1>   0.0800 
 36 H       -5.1020     1.6540    -1.6010 H     1 <1>   0.0800 
 37 H       -3.1990     3.5470    -2.7340 H     1 <1>   0.0800 
 38 H       -1.7910     3.6070    -1.7100 H     1 <1>   0.0800 
 39 H       -3.2190     5.8380    -2.4170 H     1 <1>   0.0800 
 40 H       -2.4790     5.7170    -0.8200 H     1 <1>   0.0800 
 41 H       -5.3350     7.1520    -0.9510 H     1 <1>   0.1500 
 42 H       -9.1440     5.7980     0.1150 H     1 <1>   0.0800 
 43 H       -9.0840     5.8480     1.8650 H     1 <1>   0.0800 
 44 H      -10.0580     4.6390     1.0450 H     1 <1>   0.0800 
 45 H       -7.2380     2.6380     2.1450 H     1 <1>   0.0800 
 46 H       -8.5400     2.2430     1.0420 H     1 <1>   0.0800 
 47 H       -8.8720     3.1080     2.5340 H     1 <1>   0.0800 
@<TRIPOS>BOND
  1   1   2  2   
  2   2   3  am  
  3   2   4  1   
  4   3   5  1   
  5   3   6  1   
  6   4   7  ar  
  7   4   8  ar  
  8   5   9  1   
  9   5  27  1   
 10   5  28  1   
 11   6  10  1   
 12   6  29  1   
 13   6  30  1   
 14   7  11  ar  
 15   8  12  ar  
 16   8  31  1   
 17   9  13  1   
 18   9  14  1   
 19   9  15  1   
 20  10  14  1   
 21  10  32  1   
 22  10  33  1   
 23  11  16  ar  
 24  11  34  1   
 25  12  16  ar  
 26  13  17  ar  
 27  13  18  ar  
 28  14  35  1   
 29  14  36  1   
 30  15  19  1   
 31  15  37  1   
 32  15  38  1   
 33  16  20  1   
 34  17  21  ar  
 35  18  19  1   
 36  18  22  ar  
 37  19  39  1   
 38  19  40  1   
 39  21  23  ar  
 40  21  24  1   
 41  22  23  ar  
 42  22  41  1   
 43  24  25  1   
 44  24  26  1   
 45  25  42  1   
 46  25  43  1   
 47  25  44  1   
 48  26  45  1   
 49  26  46  1   
 50  26  47  1   
@<TRIPOS>SUBSTRUCTURE
  1 ****   5 GROUP 4 **** **** 0

# MOE 2024.06 (io_trps.svl 2023.06)
