@<TRIPOS>MOLECULE
NONAME
49 52 1 0 0 
SMALL
USER_CHARGES


@<TRIPOS>ATOM
  1 O        0.1280    -0.2030    -0.1150 O.2   1 <1>  -0.5700 
  2 C       -0.8760     0.2510     0.3990 C.2   1 <1>   0.7160 
  3 N       -1.9300    -0.5850     0.5800 N.am  1 <1>  -0.7300 
  4 C       -0.9850     1.6280     0.7830 C.2   1 <1>  -0.0860 
  5 C       -2.1030    -1.9160    -0.0280 C.3   1 <1>   0.2200 
  6 C       -2.1730     2.2920     1.1270 C.2   1 <1>   0.3720 
  7 C       -0.0370     2.5960     0.9350 C.2   1 <1>   0.0870 
  8 C       -2.8330    -1.7840    -1.3590 C.3   1 <1>   0.1200 
  9 C       -3.1240    -2.6840     0.7810 C.3   1 <1>  -0.1600 
 10 N       -1.9460     3.5140     1.4560 N.2   1 <1>  -0.4100 
 11 N       -3.4590     1.7260     1.0980 N.pl3 1 <1>  -0.8210 
 12 O       -0.6560     3.6760     1.3380 O.3   1 <1>  -0.0190 
 13 C        1.3920     2.6380     0.7620 C.ar  1 <1>   0.0530 
 14 O       -4.1890    -1.6520    -1.0420 O.3   1 <1>  -0.5600 
 15 C       -4.4580    -2.2010     0.2150 C.3   1 <1>   0.1200 
 16 C       -4.3930     2.1320     2.1850 C.3   1 <1>   0.2090 
 17 C       -4.1560     1.8780    -0.2110 C.3   1 <1>   0.2090 
 18 C        2.2030     3.2220     1.7350 C.ar  1 <1>  -0.1500 
 19 C        2.0210     2.1260    -0.3730 C.ar  1 <1>  -0.1500 
 20 C       -5.7760     2.1080     1.5540 C.3   1 <1>  -0.1600 
 21 C       -5.5190     2.4820     0.1020 C.3   1 <1>  -0.1600 
 22 C        3.5760     3.2830     1.5870 C.ar  1 <1>  -0.1500 
 23 C        3.3940     2.1800    -0.5280 C.ar  1 <1>  -0.1500 
 24 C        4.1850     2.7620     0.4580 C.ar  1 <1>   0.0830 
 25 O        5.5340     2.8550     0.3880 O.3   1 <1>  -0.3630 
 26 C        6.2530     2.3180    -0.7000 C.3   1 <1>   0.0400 
 27 H       -2.8030    -0.1070     0.8450 H     1 <1>   0.3700 
 28 H       -1.1570    -2.4230    -0.1190 H     1 <1>   0.0800 
 29 H       -2.7190    -2.6800    -1.9420 H     1 <1>   0.0800 
 30 H       -2.5070    -0.9310    -1.9270 H     1 <1>   0.0800 
 31 H       -3.0350    -2.5160     1.8400 H     1 <1>   0.0800 
 32 H       -3.0230    -3.7370     0.5870 H     1 <1>   0.0800 
 33 H       -4.8800    -1.4220     0.8260 H     1 <1>   0.0800 
 34 H       -5.1660    -3.0050     0.1020 H     1 <1>   0.0800 
 35 H       -4.1690     3.1290     2.5290 H     1 <1>   0.0800 
 36 H       -4.3280     1.4490     3.0140 H     1 <1>   0.0800 
 37 H       -4.2790     0.9070    -0.6590 H     1 <1>   0.0800 
 38 H       -3.6010     2.5100    -0.8850 H     1 <1>   0.0800 
 39 H        1.7470     3.6330     2.6190 H     1 <1>   0.1500 
 40 H        1.4230     1.6790    -1.1470 H     1 <1>   0.1500 
 41 H       -6.4500     2.7890     2.0420 H     1 <1>   0.0800 
 42 H       -6.1730     1.1100     1.6140 H     1 <1>   0.0800 
 43 H       -6.2810     2.1120    -0.5610 H     1 <1>   0.0800 
 44 H       -5.4550     3.5520     0.0050 H     1 <1>   0.0800 
 45 H        4.1870     3.7350     2.3470 H     1 <1>   0.1500 
 46 H        3.8270     1.7650    -1.4180 H     1 <1>   0.1500 
 47 H        7.2990     2.4980    -0.5300 H     1 <1>   0.0800 
 48 H        5.9390     2.8110    -1.6030 H     1 <1>   0.0800 
 49 H        6.0670     1.2600    -0.7520 H     1 <1>   0.0800 
@<TRIPOS>BOND
  1   1   2  2   
  2   2   3  am  
  3   2   4  1   
  4   3   5  1   
  5   3  27  1   
  6   4   6  1   
  7   4   7  2   
  8   5   8  1   
  9   5   9  1   
 10   5  28  1   
 11   6  10  2   
 12   6  11  1   
 13   7  12  1   
 14   7  13  1   
 15   8  14  1   
 16   8  29  1   
 17   8  30  1   
 18   9  15  1   
 19   9  31  1   
 20   9  32  1   
 21  10  12  1   
 22  11  16  1   
 23  11  17  1   
 24  13  18  ar  
 25  13  19  ar  
 26  14  15  1   
 27  15  33  1   
 28  15  34  1   
 29  16  20  1   
 30  16  35  1   
 31  16  36  1   
 32  17  21  1   
 33  17  37  1   
 34  17  38  1   
 35  18  22  ar  
 36  18  39  1   
 37  19  23  ar  
 38  19  40  1   
 39  20  21  1   
 40  20  41  1   
 41  20  42  1   
 42  21  43  1   
 43  21  44  1   
 44  22  24  ar  
 45  22  45  1   
 46  23  24  ar  
 47  23  46  1   
 48  24  25  1   
 49  25  26  1   
 50  26  47  1   
 51  26  48  1   
 52  26  49  1   
@<TRIPOS>SUBSTRUCTURE
  1 ****   4 GROUP 4 **** **** 0

# MOE 2024.06 (io_trps.svl 2023.06)
