@<TRIPOS>MOLECULE
NONAME
65 68 1 0 0 
SMALL
USER_CHARGES


@<TRIPOS>ATOM
  1 O        3.3530    -0.7890    -2.9650 O.2   1 <1>  -0.5700 
  2 C        2.9970    -1.6140    -2.1600 C.2   1 <1>   0.5690 
  3 N        3.8090    -1.9580    -1.1100 N.am  1 <1>  -0.6600 
  4 C        1.6310    -2.2320    -2.4050 C.3   1 <1>  -0.0990 
  5 C        3.4640    -2.9240    -0.0240 C.3   1 <1>   0.1400 
  6 C        5.1190    -1.2330    -0.8820 C.3   1 <1>   0.2010 
  7 C        0.9450    -2.8860    -1.2050 C.3   1 <1>   0.1200 
  8 C        2.8290    -4.2640    -0.4970 C.3   1 <1>   0.2800 
  9 C        5.2040    -0.5410     0.4850 C.2   1 <1>   0.5690 
 10 O        1.5010    -4.1360    -0.9070 O.3   1 <1>  -0.5600 
 11 C        3.5840    -4.9270    -1.6580 C.3   1 <1>  -0.1600 
 12 C        2.7990    -5.2620     0.6670 C.3   1 <1>  -0.1600 
 13 O        5.6010    -1.2120     1.4140 O.2   1 <1>  -0.5700 
 14 N        4.8410     0.7760     0.6490 N.am  1 <1>  -0.6600 
 15 C        5.0010    -5.2890    -1.2410 C.3   1 <1>   0.3430 
 16 C        4.2080    -5.6770     1.0960 C.3   1 <1>   0.3430 
 17 C        4.2220     1.6100    -0.4210 C.3   1 <1>   0.0600 
 18 C        5.0130     1.4810     1.9510 C.3   1 <1>   0.0600 
 19 N        4.9840    -6.2160    -0.0630 N.4   1 <1>  -0.9590 
 20 C        6.3820    -6.5740     0.3550 C.3   1 <1>   0.4860 
 21 C        7.2560    -5.3300     0.4720 C.ar  1 <1>  -0.1440 
 22 C        8.0730    -4.9560    -0.5870 C.ar  1 <1>  -0.1500 
 23 C        7.2530    -4.5500     1.6190 C.ar  1 <1>  -0.1500 
 24 C        8.8440    -3.8110    -0.5090 C.ar  1 <1>  -0.1500 
 25 C        8.0250    -3.4050     1.6890 C.ar  1 <1>  -0.1500 
 26 C        8.8340    -3.0090     0.6290 C.ar  1 <1>   0.0000 
 27 C        9.6400    -1.8090     0.7080 C.ar  1 <1>   0.0000 
 28 C       10.9960    -1.8190     0.3800 C.ar  1 <1>   0.1600 
 29 C        9.0990    -0.5980     1.1130 C.ar  1 <1>  -0.1500 
 30 N       11.8110    -0.7760     0.4070 N.ar  1 <1>  -0.6200 
 31 C        9.9280     0.5010     1.1530 C.ar  1 <1>  -0.1500 
 32 C       11.2570     0.3610     0.7940 C.ar  1 <1>   0.1600 
 33 H        1.6990    -2.9380    -3.2110 H     1 <1>   0.0800 
 34 H        0.9910    -1.4380    -2.7440 H     1 <1>   0.0800 
 35 H        2.8300    -2.4430     0.7000 H     1 <1>   0.0800 
 36 H        4.3750    -3.1570     0.4920 H     1 <1>   0.0800 
 37 H        5.3000    -0.5090    -1.6530 H     1 <1>   0.0800 
 38 H        5.9200    -1.9470    -0.9370 H     1 <1>   0.0800 
 39 H       -0.0870    -3.0650    -1.4520 H     1 <1>   0.0800 
 40 H        0.9650    -2.2540    -0.3340 H     1 <1>   0.0800 
 41 H        3.6410    -4.2640    -2.5000 H     1 <1>   0.0800 
 42 H        3.0660    -5.8130    -1.9780 H     1 <1>   0.0800 
 43 H        2.2450    -6.1390     0.3830 H     1 <1>   0.0800 
 44 H        2.2960    -4.8160     1.5060 H     1 <1>   0.0800 
 45 H        5.5310    -4.3830    -0.9910 H     1 <1>   0.0800 
 46 H        5.5100    -5.7540    -2.0700 H     1 <1>   0.0800 
 47 H        4.1380    -6.4240     1.8710 H     1 <1>   0.0800 
 48 H        4.7180    -4.8210     1.5070 H     1 <1>   0.0800 
 49 H        3.6930     1.0000    -1.1300 H     1 <1>   0.0800 
 50 H        4.9860     2.1660    -0.9360 H     1 <1>   0.0800 
 51 H        3.5190     2.3010     0.0110 H     1 <1>   0.0800 
 52 H        5.5510     0.8680     2.6530 H     1 <1>   0.0800 
 53 H        4.0490     1.7140     2.3670 H     1 <1>   0.0800 
 54 H        5.5650     2.3920     1.8010 H     1 <1>   0.0800 
 55 H        4.5140    -7.0800    -0.3630 H     1 <1>   0.4500 
 56 H        6.8190    -7.2330    -0.3780 H     1 <1>   0.0800 
 57 H        6.3660    -7.0950     1.2990 H     1 <1>   0.0800 
 58 H        8.1200    -5.5470    -1.4860 H     1 <1>   0.1500 
 59 H        6.6560    -4.8140     2.4750 H     1 <1>   0.1500 
 60 H        9.4640    -3.5290    -1.3430 H     1 <1>   0.1500 
 61 H        8.0040    -2.8030     2.5820 H     1 <1>   0.1500 
 62 H       11.4330    -2.7550     0.0780 H     1 <1>   0.1500 
 63 H        8.0630    -0.5190     1.3880 H     1 <1>   0.1500 
 64 H        9.5510     1.4590     1.4600 H     1 <1>   0.1500 
 65 H       11.8970     1.2270     0.8270 H     1 <1>   0.1500 
@<TRIPOS>BOND
  1   1   2  2   
  2   2   3  am  
  3   2   4  1   
  4   3   5  1   
  5   3   6  1   
  6   4   7  1   
  7   4  33  1   
  8   4  34  1   
  9   5   8  1   
 10   5  35  1   
 11   5  36  1   
 12   6   9  1   
 13   6  37  1   
 14   6  38  1   
 15   7  10  1   
 16   7  39  1   
 17   7  40  1   
 18   8  10  1   
 19   8  11  1   
 20   8  12  1   
 21   9  13  2   
 22   9  14  am  
 23  11  15  1   
 24  11  41  1   
 25  11  42  1   
 26  12  16  1   
 27  12  43  1   
 28  12  44  1   
 29  14  17  1   
 30  14  18  1   
 31  15  19  1   
 32  15  45  1   
 33  15  46  1   
 34  16  19  1   
 35  16  47  1   
 36  16  48  1   
 37  17  49  1   
 38  17  50  1   
 39  17  51  1   
 40  18  52  1   
 41  18  53  1   
 42  18  54  1   
 43  19  20  1   
 44  19  55  1   
 45  20  21  1   
 46  20  56  1   
 47  20  57  1   
 48  21  22  ar  
 49  21  23  ar  
 50  22  24  ar  
 51  22  58  1   
 52  23  25  ar  
 53  23  59  1   
 54  24  26  ar  
 55  24  60  1   
 56  25  26  ar  
 57  25  61  1   
 58  26  27  1   
 59  27  28  ar  
 60  27  29  ar  
 61  28  30  ar  
 62  28  62  1   
 63  29  31  ar  
 64  29  63  1   
 65  30  32  ar  
 66  31  32  ar  
 67  31  64  1   
 68  32  65  1   
@<TRIPOS>SUBSTRUCTURE
  1 ****   6 GROUP 4 **** **** 0

# MOE 2024.06 (io_trps.svl 2023.06)
