@<TRIPOS>MOLECULE
NONAME
50 53 1 0 0 
SMALL
USER_CHARGES


@<TRIPOS>ATOM
  1 O       -0.3220    -0.0740     0.5550 O.2   1 <1>  -0.5700 
  2 C        0.7860    -0.5750     0.6260 C.2   1 <1>   0.7150 
  3 N        1.8670     0.2420     0.5040 N.am  1 <1>  -0.7300 
  4 C        0.9550    -1.9960     0.8350 C.2   1 <1>   0.0550 
  5 C        1.7980     1.6930     0.2650 C.3   1 <1>   0.3640 
  6 O       -0.0990    -2.7700     1.0730 O.3   1 <1>  -0.2800 
  7 C        2.0640    -2.7890     0.8340 C.2   1 <1>  -0.1500 
  8 C        3.1210     2.1160    -0.2960 C.ar  1 <1>  -0.1440 
  9 C        1.7720     2.4780     1.5910 C.3   1 <1>   0.1200 
 10 C        0.2910    -4.0160     1.2140 C.2   1 <1>  -0.0400 
 11 C        1.6330    -4.0950     1.0770 C.2   1 <1>  -0.1500 
 12 C        3.7970     2.8160     0.6700 C.ar  1 <1>   0.0830 
 13 C        3.6930     1.8950    -1.5360 C.ar  1 <1>  -0.1500 
 14 O        3.0950     2.9530     1.8070 O.3   1 <1>  -0.3620 
 15 C       -0.7540    -5.0870     1.4800 C.3   1 <1>   0.5230 
 16 C        5.0670     3.3150     0.4450 C.ar  1 <1>  -0.1500 
 17 C        4.9660     2.3930    -1.7790 C.ar  1 <1>  -0.1500 
 18 N       -1.7770    -5.0620     0.3950 N.4   1 <1>  -0.9590 
 19 C        5.6500     3.0970    -0.7940 C.ar  1 <1>  -0.1500 
 20 C       -2.7940    -3.9900     0.6220 C.3   1 <1>   0.3430 
 21 C       -2.4060    -6.3950     0.1910 C.3   1 <1>   0.3430 
 22 C       -3.7260    -3.9020    -0.5860 C.3   1 <1>  -0.1600 
 23 C       -3.3310    -6.3480    -1.0260 C.3   1 <1>  -0.1600 
 24 C       -4.3960    -5.2500    -0.8870 C.3   1 <1>  -0.0800 
 25 C       -5.2450    -5.1580    -2.1590 C.3   1 <1>  -0.2400 
 26 H        2.8140    -0.1110     0.6370 H     1 <1>   0.3700 
 27 H        0.9680     1.9480    -0.3720 H     1 <1>   0.0800 
 28 H        3.0880    -2.4970     0.6760 H     1 <1>   0.1500 
 29 H        1.4690     1.8710     2.4260 H     1 <1>   0.0800 
 30 H        1.1320     3.3370     1.5040 H     1 <1>   0.0800 
 31 H        2.2780    -4.9560     1.1350 H     1 <1>   0.1500 
 32 H        3.1640     1.3470    -2.2960 H     1 <1>   0.1500 
 33 H       -1.2200    -4.9140     2.4360 H     1 <1>   0.0800 
 34 H       -0.2650    -6.0460     1.5060 H     1 <1>   0.0800 
 35 H        5.5760     3.8580     1.2200 H     1 <1>   0.1500 
 36 H        5.4290     2.2330    -2.7370 H     1 <1>   0.1500 
 37 H       -1.2730    -4.8030    -0.4640 H     1 <1>   0.4500 
 38 H        6.6370     3.4780    -0.9940 H     1 <1>   0.1500 
 39 H       -2.3130    -3.0340     0.7640 H     1 <1>   0.0800 
 40 H       -3.3700    -4.2110     1.5060 H     1 <1>   0.0800 
 41 H       -2.9780    -6.6670     1.0640 H     1 <1>   0.0800 
 42 H       -1.6480    -7.1450     0.0330 H     1 <1>   0.0800 
 43 H       -3.1650    -3.5620    -1.4390 H     1 <1>   0.0800 
 44 H       -4.4820    -3.1630    -0.3850 H     1 <1>   0.0800 
 45 H       -3.8150    -7.3030    -1.1330 H     1 <1>   0.0800 
 46 H       -2.7420    -6.1850    -1.9130 H     1 <1>   0.0800 
 47 H       -5.0480    -5.5030    -0.0660 H     1 <1>   0.0800 
 48 H       -4.6390    -4.9040    -3.0110 H     1 <1>   0.0800 
 49 H       -6.0070    -4.4060    -2.0470 H     1 <1>   0.0800 
 50 H       -5.7320    -6.0980    -2.3550 H     1 <1>   0.0800 
@<TRIPOS>BOND
  1   1   2  2   
  2   2   3  am  
  3   2   4  1   
  4   3   5  1   
  5   3  26  1   
  6   4   6  1   
  7   4   7  2   
  8   5   8  1   
  9   5   9  1   
 10   5  27  1   
 11   6  10  1   
 12   7  11  1   
 13   7  28  1   
 14   8  12  ar  
 15   8  13  ar  
 16   9  14  1   
 17   9  29  1   
 18   9  30  1   
 19  10  11  2   
 20  10  15  1   
 21  11  31  1   
 22  12  14  1   
 23  12  16  ar  
 24  13  17  ar  
 25  13  32  1   
 26  15  18  1   
 27  15  33  1   
 28  15  34  1   
 29  16  19  ar  
 30  16  35  1   
 31  17  19  ar  
 32  17  36  1   
 33  18  20  1   
 34  18  21  1   
 35  18  37  1   
 36  19  38  1   
 37  20  22  1   
 38  20  39  1   
 39  20  40  1   
 40  21  23  1   
 41  21  41  1   
 42  21  42  1   
 43  22  24  1   
 44  22  43  1   
 45  22  44  1   
 46  23  24  1   
 47  23  45  1   
 48  23  46  1   
 49  24  25  1   
 50  24  47  1   
 51  25  48  1   
 52  25  49  1   
 53  25  50  1   
@<TRIPOS>SUBSTRUCTURE
  1 ****   2 GROUP 4 **** **** 0

# MOE 2024.06 (io_trps.svl 2023.06)
