@<TRIPOS>MOLECULE
NONAME
38 39 1 0 0 
SMALL
USER_CHARGES


@<TRIPOS>ATOM
  1 O        0.7050     0.4920     0.7390 O.2   1 <1>  -0.5700 
  2 C        1.6560    -0.1350     0.3090 C.2   1 <1>   0.7150 
  3 N        2.5420     0.5100    -0.5270 N.am  1 <1>  -0.6600 
  4 C        1.8080    -1.5250     0.6620 C.2   1 <1>  -0.2370 
  5 C        2.5020     2.0040    -0.6540 C.3   1 <1>   0.3200 
  6 C        3.4380    -0.2080    -1.4760 C.3   1 <1>   0.1400 
  7 N        0.7640    -2.4170     0.7150 N.pl3 1 <1>   0.0480 
  8 C        2.9460    -2.2090     1.0130 C.2   1 <1>  -0.1500 
  9 C        3.5720     2.6890     0.1840 C.2   1 <1>   0.2980 
 10 C        4.9070     0.0290    -1.1300 C.3   1 <1>  -0.2400 
 11 C        1.2580    -3.6260     1.0740 C.2   1 <1>  -0.3020 
 12 C       -0.6590    -2.1340     0.4440 C.3   1 <1>   0.0160 
 13 C        2.5990    -3.5320     1.2650 C.2   1 <1>  -0.1500 
 14 O        3.6440     2.4200     1.4640 O.3   1 <1>  -0.0190 
 15 N        4.4320     3.5240    -0.2510 N.2   1 <1>  -0.5650 
 16 N        4.6460     3.1350     1.8790 N.2   1 <1>  -0.4100 
 17 C        5.1050     3.7650     0.8700 C.2   1 <1>   0.3350 
 18 C        6.2870     4.7300     0.9140 C.3   1 <1>   0.3010 
 19 O        7.4300     4.1630     0.3290 O.3   1 <1>  -0.5600 
 20 C        8.5420     4.9980     0.3250 C.3   1 <1>   0.0400 
 21 H        1.5440     2.3880    -0.3530 H     1 <1>   0.0800 
 22 H        2.6430     2.2770    -1.6850 H     1 <1>   0.0800 
 23 H        3.2430     0.1320    -2.4800 H     1 <1>   0.0800 
 24 H        3.2320    -1.2650    -1.4530 H     1 <1>   0.0800 
 25 H        3.9410    -1.8100     1.0940 H     1 <1>   0.1500 
 26 H        5.1970     1.0380    -1.3620 H     1 <1>   0.0800 
 27 H        5.5250    -0.6310    -1.7110 H     1 <1>   0.0800 
 28 H        5.0900    -0.1600    -0.0880 H     1 <1>   0.0800 
 29 H        0.6360    -4.4970     1.1830 H     1 <1>   0.1500 
 30 H       -0.7500    -1.6440    -0.5070 H     1 <1>   0.0800 
 31 H       -1.0410    -1.4900     1.2160 H     1 <1>   0.0800 
 32 H       -1.2160    -3.0520     0.4330 H     1 <1>   0.0800 
 33 H        3.2800    -4.3120     1.5600 H     1 <1>   0.1500 
 34 H        6.5140     4.9700     1.9370 H     1 <1>   0.0800 
 35 H        6.0340     5.6260     0.3770 H     1 <1>   0.0800 
 36 H        9.3550     4.4680    -0.1420 H     1 <1>   0.0800 
 37 H        8.8070     5.2450     1.3380 H     1 <1>   0.0800 
 38 H        8.3190     5.8860    -0.2400 H     1 <1>   0.0800 
@<TRIPOS>BOND
  1   1   2  2   
  2   2   3  am  
  3   2   4  1   
  4   3   5  1   
  5   3   6  1   
  6   4   7  1   
  7   4   8  2   
  8   5   9  1   
  9   5  21  1   
 10   5  22  1   
 11   6  10  1   
 12   6  23  1   
 13   6  24  1   
 14   7  11  1   
 15   7  12  1   
 16   8  13  1   
 17   8  25  1   
 18   9  14  1   
 19   9  15  2   
 20  10  26  1   
 21  10  27  1   
 22  10  28  1   
 23  11  13  2   
 24  11  29  1   
 25  12  30  1   
 26  12  31  1   
 27  12  32  1   
 28  13  33  1   
 29  14  16  1   
 30  15  17  1   
 31  16  17  2   
 32  17  18  1   
 33  18  19  1   
 34  18  34  1   
 35  18  35  1   
 36  19  20  1   
 37  20  36  1   
 38  20  37  1   
 39  20  38  1   
@<TRIPOS>SUBSTRUCTURE
  1 ****   3 GROUP 4 **** **** 0

# MOE 2024.06 (io_trps.svl 2023.06)
