@<TRIPOS>MOLECULE
NONAME
43 45 1 0 0 
SMALL
USER_CHARGES


@<TRIPOS>ATOM
  1 O       -0.4260     0.7050     1.2790 O.2   1 <1>  -0.5700 
  2 C       -1.4510     1.0760     0.7500 C.2   1 <1>   0.5440 
  3 N       -1.5610     2.4010     0.4800 N.am  1 <1>  -0.7300 
  4 C       -2.5450     0.1820     0.4160 C.ar  1 <1>   0.0860 
  5 C       -2.7580     2.9920    -0.1960 C.3   1 <1>   0.2810 
  6 C       -3.8130     0.7100     0.1480 C.ar  1 <1>  -0.1440 
  7 C       -2.3810    -1.2000     0.3460 C.ar  1 <1>  -0.1500 
  8 C       -2.8570     4.5140     0.0040 C.2   1 <1>   0.5690 
  9 C       -4.0180     2.2220     0.2490 C.3   1 <1>  -0.0160 
 10 C       -4.8680    -0.1220    -0.1860 C.ar  1 <1>  -0.1500 
 11 C       -3.4340    -2.0310     0.0110 C.ar  1 <1>  -0.1500 
 12 O       -3.8940     5.0030     0.3880 O.2   1 <1>  -0.5700 
 13 N       -1.7350     5.2500    -0.2750 N.am  1 <1>  -0.4940 
 14 C       -4.6790    -1.4910    -0.2570 C.ar  1 <1>  -0.1500 
 15 C       -1.4390     6.6270    -0.1170 C.2   1 <1>  -0.0880 
 16 N       -2.2850     7.6920    -0.2270 N.pl3 1 <1>   0.3140 
 17 C       -0.2160     7.1440     0.1550 C.2   1 <1>  -0.1810 
 18 N       -1.6330     8.8580    -0.0350 N.2   1 <1>  -0.7070 
 19 C       -3.7060     7.7200    -0.5990 C.3   1 <1>   0.0160 
 20 C       -0.4040     8.5230     0.1950 C.2   1 <1>   0.1080 
 21 C        1.0990     6.4150     0.3790 C.3   1 <1>  -0.0590 
 22 C        0.6690     9.5620     0.4670 C.3   1 <1>   0.0210 
 23 C        1.3570    10.0020    -0.8290 C.3   1 <1>  -0.2400 
 24 H       -0.9100     3.0160     0.9720 H     1 <1>   0.3700 
 25 H       -2.6410     2.8260    -1.2520 H     1 <1>   0.0800 
 26 H       -1.4120    -1.6200     0.5570 H     1 <1>   0.1500 
 27 H       -4.8500     2.5260    -0.3610 H     1 <1>   0.0800 
 28 H       -4.2510     2.4770     1.2680 H     1 <1>   0.0800 
 29 H       -5.8440     0.2850    -0.3890 H     1 <1>   0.1500 
 30 H       -3.2860    -3.0960    -0.0390 H     1 <1>   0.1500 
 31 H       -0.9270     4.6960    -0.5620 H     1 <1>   0.3700 
 32 H       -5.5010    -2.1370    -0.5170 H     1 <1>   0.1500 
 33 H       -3.8960     6.9690    -1.3410 H     1 <1>   0.0800 
 34 H       -3.9470     8.6880    -0.9960 H     1 <1>   0.0800 
 35 H       -4.2990     7.5330     0.2760 H     1 <1>   0.0800 
 36 H        0.9710     5.3520     0.2950 H     1 <1>   0.0800 
 37 H        1.4730     6.6360     1.3620 H     1 <1>   0.0800 
 38 H        1.8220     6.7340    -0.3500 H     1 <1>   0.0800 
 39 H        1.3950     9.1630     1.1520 H     1 <1>   0.0800 
 40 H        0.2090    10.4140     0.9350 H     1 <1>   0.0800 
 41 H        1.8300     9.1620    -1.3050 H     1 <1>   0.0800 
 42 H        2.0980    10.7520    -0.6210 H     1 <1>   0.0800 
 43 H        0.6260    10.4120    -1.5040 H     1 <1>   0.0800 
@<TRIPOS>BOND
  1   1   2  2   
  2   2   3  am  
  3   2   4  1   
  4   3   5  1   
  5   3  24  1   
  6   4   6  ar  
  7   4   7  ar  
  8   5   8  1   
  9   5   9  1   
 10   5  25  1   
 11   6   9  1   
 12   6  10  ar  
 13   7  11  ar  
 14   7  26  1   
 15   8  12  2   
 16   8  13  am  
 17   9  27  1   
 18   9  28  1   
 19  10  14  ar  
 20  10  29  1   
 21  11  14  ar  
 22  11  30  1   
 23  13  15  1   
 24  13  31  1   
 25  14  32  1   
 26  15  16  1   
 27  15  17  2   
 28  16  18  1   
 29  16  19  1   
 30  17  20  1   
 31  17  21  1   
 32  18  20  2   
 33  19  33  1   
 34  19  34  1   
 35  19  35  1   
 36  20  22  1   
 37  21  36  1   
 38  21  37  1   
 39  21  38  1   
 40  22  23  1   
 41  22  39  1   
 42  22  40  1   
 43  23  41  1   
 44  23  42  1   
 45  23  43  1   
@<TRIPOS>SUBSTRUCTURE
  1 ****   8 GROUP 4 **** **** 0

# MOE 2024.06 (io_trps.svl 2023.06)
