@<TRIPOS>MOLECULE
NONAME
53 55 1 0 0 
SMALL
USER_CHARGES


@<TRIPOS>ATOM
  1 O        0.1740     0.1620    -0.2660 O.3   1 <1>  -0.5600 
  2 C        1.3870    -0.5030    -0.4810 C.3   1 <1>   0.3440 
  3 C        0.1570     1.5230    -0.6090 C.3   1 <1>   0.2000 
  4 C        1.2530    -1.9610    -0.0670 C.ar  1 <1>  -0.1440 
  5 C        2.4970     0.1630     0.3610 C.3   1 <1>   0.3430 
  6 C       -1.2870     2.0780    -0.4500 C.3   1 <1>   0.0000 
  7 C        1.1960     2.2730     0.2580 C.3   1 <1>   0.3430 
  8 C        1.9450    -2.9400    -0.7680 C.ar  1 <1>  -0.1500 
  9 C        0.4670    -2.3340     1.0150 C.ar  1 <1>  -0.1500 
 10 N        2.5770     1.6620     0.1730 N.4   1 <1>  -0.9590 
 11 C       -1.8050     1.9430     0.9950 C.3   1 <1>  -0.2400 
 12 C       -1.3420     3.5640    -0.8510 C.3   1 <1>  -0.2400 
 13 C       -2.2410     1.3070    -1.3800 C.3   1 <1>  -0.2400 
 14 C        1.8600    -4.2670    -0.3860 C.ar  1 <1>  -0.1500 
 15 C        0.3820    -3.6610     1.3970 C.ar  1 <1>  -0.1500 
 16 C        3.5300     2.2800     1.1420 C.3   1 <1>   0.4860 
 17 C        1.0810    -4.6280     0.6980 C.ar  1 <1>  -0.1500 
 18 C        3.6350     3.7620     0.8630 C.ar  1 <1>  -0.1430 
 19 C        4.3940     4.2520    -0.1750 C.ar  1 <1>   0.1600 
 20 C        2.9640     4.6830     1.6350 C.ar  1 <1>   0.1600 
 21 N        4.4570     5.5300    -0.4490 N.ar  1 <1>  -0.6200 
 22 N        3.0060     5.9650     1.3820 N.ar  1 <1>  -0.6200 
 23 C        3.7550     6.3320     0.3510 C.ar  1 <1>   0.7030 
 24 O        3.7820     7.6520     0.1160 O.3   1 <1>  -0.3620 
 25 C        4.5620     8.2210    -0.9160 C.3   1 <1>   0.0400 
 26 H        1.6170    -0.4470    -1.5310 H     1 <1>   0.0800 
 27 H        0.4330     1.6040    -1.6460 H     1 <1>   0.0800 
 28 H        3.4400    -0.2950     0.1130 H     1 <1>   0.0800 
 29 H        2.2910    -0.0620     1.3950 H     1 <1>   0.0800 
 30 H        0.8530     2.2540     1.2790 H     1 <1>   0.0800 
 31 H        1.2310     3.3040    -0.0560 H     1 <1>   0.0800 
 32 H        2.5540    -2.6880    -1.6190 H     1 <1>   0.1500 
 33 H       -0.0930    -1.5970     1.5660 H     1 <1>   0.1500 
 34 H        2.9260     1.8480    -0.7770 H     1 <1>   0.4500 
 35 H       -2.8240     2.2830     1.0580 H     1 <1>   0.0800 
 36 H       -1.2240     2.5260     1.6840 H     1 <1>   0.0800 
 37 H       -1.7830     0.9140     1.3100 H     1 <1>   0.0800 
 38 H       -2.3590     3.9190    -0.8200 H     1 <1>   0.0800 
 39 H       -0.9770     3.7050    -1.8530 H     1 <1>   0.0800 
 40 H       -0.7670     4.1820    -0.1840 H     1 <1>   0.0800 
 41 H       -3.2420     1.6960    -1.3090 H     1 <1>   0.0800 
 42 H       -2.2740     0.2640    -1.1140 H     1 <1>   0.0800 
 43 H       -1.9240     1.3830    -2.4050 H     1 <1>   0.0800 
 44 H        2.3970    -5.0240    -0.9330 H     1 <1>   0.1500 
 45 H       -0.2310    -3.9440     2.2350 H     1 <1>   0.1500 
 46 H        3.1840     2.1230     2.1510 H     1 <1>   0.0800 
 47 H        4.5040     1.8270     1.0460 H     1 <1>   0.0800 
 48 H        1.0140    -5.6610     0.9940 H     1 <1>   0.1500 
 49 H        4.9650     3.5900    -0.8060 H     1 <1>   0.1500 
 50 H        2.3700     4.3740     2.4800 H     1 <1>   0.1500 
 51 H        4.4240     9.2870    -0.8940 H     1 <1>   0.0800 
 52 H        4.2340     7.8270    -1.8620 H     1 <1>   0.0800 
 53 H        5.5970     7.9800    -0.7460 H     1 <1>   0.0800 
@<TRIPOS>BOND
  1   1   2  1   
  2   1   3  1   
  3   2   4  1   
  4   2   5  1   
  5   2  26  1   
  6   3   6  1   
  7   3   7  1   
  8   3  27  1   
  9   4   8  ar  
 10   4   9  ar  
 11   5  10  1   
 12   5  28  1   
 13   5  29  1   
 14   6  11  1   
 15   6  12  1   
 16   6  13  1   
 17   7  10  1   
 18   7  30  1   
 19   7  31  1   
 20   8  14  ar  
 21   8  32  1   
 22   9  15  ar  
 23   9  33  1   
 24  10  16  1   
 25  10  34  1   
 26  11  35  1   
 27  11  36  1   
 28  11  37  1   
 29  12  38  1   
 30  12  39  1   
 31  12  40  1   
 32  13  41  1   
 33  13  42  1   
 34  13  43  1   
 35  14  17  ar  
 36  14  44  1   
 37  15  17  ar  
 38  15  45  1   
 39  16  18  1   
 40  16  46  1   
 41  16  47  1   
 42  17  48  1   
 43  18  19  ar  
 44  18  20  ar  
 45  19  21  ar  
 46  19  49  1   
 47  20  22  ar  
 48  20  50  1   
 49  21  23  ar  
 50  22  23  ar  
 51  23  24  1   
 52  24  25  1   
 53  25  51  1   
 54  25  52  1   
 55  25  53  1   
@<TRIPOS>SUBSTRUCTURE
  1 ****   7 GROUP 4 **** **** 0

# MOE 2024.06 (io_trps.svl 2023.06)
