@<TRIPOS>MOLECULE
NONAME
47 50 1 0 0 
SMALL
USER_CHARGES


@<TRIPOS>ATOM
  1 CL      -4.0970    -2.3410    -1.6830 Cl    1 <1>  -0.1770 
  2 C       -3.4350    -0.7330    -1.4840 C.ar  1 <1>   0.1770 
  3 C       -3.5320    -0.0710    -0.2590 C.ar  1 <1>   0.0540 
  4 C       -2.8090    -0.1670    -2.5800 C.ar  1 <1>  -0.1500 
  5 C       -4.1900    -0.6400     0.8960 C.2   1 <1>   0.4620 
  6 C       -2.9500     1.1950    -0.1800 C.ar  1 <1>  -0.1500 
  7 C       -2.2510     1.0940    -2.4730 C.ar  1 <1>  -0.1500 
  8 N       -3.7010    -0.6630     2.0820 N.2   1 <1>  -0.4100 
  9 N       -5.4160    -1.1850     0.8560 N.2   1 <1>  -0.5650 
 10 C       -2.3210     1.7720    -1.2690 C.ar  1 <1>  -0.1500 
 11 O       -4.5690    -1.2160     2.8670 O.3   1 <1>  -0.0190 
 12 C       -5.5730    -1.4970     2.0820 C.2   1 <1>   0.2980 
 13 C       -6.8100    -2.1460     2.6960 C.3   1 <1>   0.3890 
 14 N       -7.0350    -3.5640     2.2670 N.pl3 1 <1>  -0.8690 
 15 C       -7.0820    -4.1680     1.0720 C.ar  1 <1>   0.7710 
 16 N       -7.5230    -5.4080     1.0980 N.ar  1 <1>  -0.6200 
 17 N       -6.7180    -3.5480    -0.0650 N.ar  1 <1>  -0.1790 
 18 C       -7.6440    -6.0540    -0.0490 C.ar  1 <1>   0.4100 
 19 C       -6.8090    -4.1780    -1.2600 C.ar  1 <1>   0.2110 
 20 N       -8.1340    -7.3220    -0.0150 N.pl3 1 <1>  -0.8380 
 21 C       -7.2750    -5.4480    -1.2670 C.ar  1 <1>  -0.1500 
 22 C       -8.9550    -7.9370    -1.0990 C.3   1 <1>   0.2090 
 23 C       -8.0020    -8.2010     1.1880 C.3   1 <1>   0.2090 
 24 C       -8.2940    -9.2380    -1.5530 C.3   1 <1>  -0.1600 
 25 C       -7.3480    -9.5220     0.7790 C.3   1 <1>  -0.1600 
 26 C       -8.1270   -10.1790    -0.3600 C.3   1 <1>   0.2000 
 27 O       -7.4370   -11.2940    -0.7780 O.3   1 <1>  -0.6800 
 28 H       -2.7540    -0.7070    -3.5080 H     1 <1>   0.1500 
 29 H       -2.9910     1.7360     0.7510 H     1 <1>   0.1500 
 30 H       -1.7600     1.5450    -3.3200 H     1 <1>   0.1500 
 31 H       -1.8820     2.7520    -1.1810 H     1 <1>   0.1500 
 32 H       -7.6750    -1.5590     2.4380 H     1 <1>   0.0800 
 33 H       -6.7120    -2.1200     3.7690 H     1 <1>   0.0800 
 34 H       -7.3300    -4.1810     3.0320 H     1 <1>   0.4000 
 35 H       -6.3130    -2.6100     0.0230 H     1 <1>   0.4570 
 36 H       -6.5030    -3.6590    -2.1550 H     1 <1>   0.1500 
 37 H       -7.3510    -6.0090    -2.1790 H     1 <1>   0.1500 
 38 H       -9.0740    -7.2700    -1.9330 H     1 <1>   0.0800 
 39 H       -9.9390    -8.1490    -0.7130 H     1 <1>   0.0800 
 40 H       -8.9790    -8.3830     1.6040 H     1 <1>   0.0800 
 41 H       -7.3990    -7.7320     1.9470 H     1 <1>   0.0800 
 42 H       -7.3390    -9.0090    -1.9890 H     1 <1>   0.0800 
 43 H       -8.9130    -9.7090    -2.2950 H     1 <1>   0.0800 
 44 H       -7.3270   -10.1820     1.6270 H     1 <1>   0.0800 
 45 H       -6.3370    -9.3200     0.4740 H     1 <1>   0.0800 
 46 H       -9.0920   -10.5060    -0.0080 H     1 <1>   0.0800 
 47 H       -6.5380   -11.0460    -1.0630 H     1 <1>   0.4000 
@<TRIPOS>BOND
  1   1   2  1   
  2   2   3  ar  
  3   2   4  ar  
  4   3   5  1   
  5   3   6  ar  
  6   4   7  ar  
  7   4  28  1   
  8   5   8  2   
  9   5   9  1   
 10   6  10  ar  
 11   6  29  1   
 12   7  10  ar  
 13   7  30  1   
 14   8  11  1   
 15   9  12  2   
 16  10  31  1   
 17  11  12  1   
 18  12  13  1   
 19  13  14  1   
 20  13  32  1   
 21  13  33  1   
 22  14  15  1   
 23  14  34  1   
 24  15  16  ar  
 25  15  17  ar  
 26  16  18  ar  
 27  17  19  ar  
 28  17  35  1   
 29  18  20  1   
 30  18  21  ar  
 31  19  21  ar  
 32  19  36  1   
 33  20  22  1   
 34  20  23  1   
 35  21  37  1   
 36  22  24  1   
 37  22  38  1   
 38  22  39  1   
 39  23  25  1   
 40  23  40  1   
 41  23  41  1   
 42  24  26  1   
 43  24  42  1   
 44  24  43  1   
 45  25  26  1   
 46  25  44  1   
 47  25  45  1   
 48  26  27  1   
 49  26  46  1   
 50  27  47  1   
@<TRIPOS>SUBSTRUCTURE
  1 ****  17 GROUP 4 **** **** 0

# MOE 2024.06 (io_trps.svl 2023.06)
