@<TRIPOS>MOLECULE
NONAME
40 42 1 0 0 
SMALL
USER_CHARGES


@<TRIPOS>ATOM
  1 F        0.7510     1.3670    -1.1090 F     1 <1>  -0.1900 
  2 C        0.2970     2.3880    -0.4320 C.ar  1 <1>   0.1900 
  3 C       -0.9510     2.8930    -0.7480 C.ar  1 <1>  -0.1500 
  4 C        1.0810     2.9230     0.5700 C.ar  1 <1>  -0.1500 
  5 C       -1.4380     3.9820    -0.0380 C.ar  1 <1>  -0.1440 
  6 C        0.5920     4.0050     1.2820 C.ar  1 <1>  -0.1500 
  7 C       -0.6570     4.5250     0.9790 C.ar  1 <1>  -0.1500 
  8 C       -2.8160     4.5620    -0.3830 C.3   1 <1>   0.3940 
  9 N       -2.7690     6.0610    -0.2810 N.3   1 <1>  -0.8100 
 10 C       -3.9360     3.8890     0.4580 C.2   1 <1>   0.5690 
 11 C       -4.1200     6.6520    -0.1990 C.3   1 <1>   0.1100 
 12 C       -1.9450     6.6540    -1.3690 C.3   1 <1>   0.2910 
 13 O       -4.0250     2.6860     0.5120 O.2   1 <1>  -0.5700 
 14 N       -4.8660     4.6520     1.0890 N.am  1 <1>  -0.7300 
 15 C       -4.8860     6.1340     1.0340 C.3   1 <1>   0.1400 
 16 C       -1.6750     8.1500    -1.1940 C.2   1 <1>   0.3350 
 17 N       -2.3250     9.0720    -1.8010 N.2   1 <1>  -0.4100 
 18 N       -0.7120     8.6030    -0.3830 N.2   1 <1>  -0.5650 
 19 O       -1.7840    10.1500    -1.3760 O.3   1 <1>  -0.0190 
 20 C       -0.8220     9.8840    -0.5310 C.2   1 <1>   0.3930 
 21 C       -0.0770    10.9840     0.0670 C.2   1 <1>   0.7150 
 22 O        0.8350    10.7880     0.8530 O.2   1 <1>  -0.5700 
 23 N       -0.3840    12.2920    -0.2390 N.am  1 <1>  -0.7300 
 24 C        0.2960    13.5000     0.3000 C.3   1 <1>   0.0600 
 25 H       -1.5240     2.4300    -1.5300 H     1 <1>   0.1500 
 26 H        2.0460     2.5020     0.7860 H     1 <1>   0.1500 
 27 H        1.1790     4.4450     2.0700 H     1 <1>   0.1500 
 28 H       -1.0230     5.3690     1.5410 H     1 <1>   0.1500 
 29 H       -3.0380     4.3080    -1.4040 H     1 <1>   0.0800 
 30 H       -4.6780     6.4230    -1.0920 H     1 <1>   0.0800 
 31 H       -4.0480     7.7230    -0.1190 H     1 <1>   0.0800 
 32 H       -2.4340     6.4990    -2.3140 H     1 <1>   0.0800 
 33 H       -0.9890     6.1620    -1.4060 H     1 <1>   0.0800 
 34 H       -5.5520     4.1690     1.6730 H     1 <1>   0.3700 
 35 H       -5.9040     6.4780     0.9930 H     1 <1>   0.0800 
 36 H       -4.4300     6.5270     1.9260 H     1 <1>   0.0800 
 37 H       -1.1450    12.4690    -0.8990 H     1 <1>   0.3700 
 38 H        1.0800    13.2230     0.9840 H     1 <1>   0.0800 
 39 H       -0.4160    14.1150     0.8240 H     1 <1>   0.0800 
 40 H        0.7270    14.0670    -0.5070 H     1 <1>   0.0800 
@<TRIPOS>BOND
  1   1   2  1   
  2   2   3  ar  
  3   2   4  ar  
  4   3   5  ar  
  5   3  25  1   
  6   4   6  ar  
  7   4  26  1   
  8   5   7  ar  
  9   5   8  1   
 10   6   7  ar  
 11   6  27  1   
 12   7  28  1   
 13   8   9  1   
 14   8  10  1   
 15   8  29  1   
 16   9  11  1   
 17   9  12  1   
 18  10  13  2   
 19  10  14  am  
 20  11  15  1   
 21  11  30  1   
 22  11  31  1   
 23  12  16  1   
 24  12  32  1   
 25  12  33  1   
 26  14  15  1   
 27  14  34  1   
 28  15  35  1   
 29  15  36  1   
 30  16  17  2   
 31  16  18  1   
 32  17  19  1   
 33  18  20  2   
 34  19  20  1   
 35  20  21  1   
 36  21  22  2   
 37  21  23  am  
 38  23  24  1   
 39  23  37  1   
 40  24  38  1   
 41  24  39  1   
 42  24  40  1   
@<TRIPOS>SUBSTRUCTURE
  1 ****  12 GROUP 4 **** **** 0

# MOE 2024.06 (io_trps.svl 2023.06)
