@<TRIPOS>MOLECULE
NONAME
51 54 1 0 0 
SMALL
USER_CHARGES


@<TRIPOS>ATOM
  1 O        0.7430     0.4050     2.0300 O.2   1 <1>  -0.5700 
  2 C        1.7250     0.1130     1.3850 C.2   1 <1>   0.7150 
  3 N        2.0260    -1.2110     1.3750 N.am  1 <1>  -0.7300 
  4 C        2.4620     1.1410     0.7090 C.2   1 <1>  -0.2370 
  5 C        3.2300    -1.9990     0.9970 C.3   1 <1>   0.1400 
  6 N        3.4180     0.9760    -0.2330 N.pl3 1 <1>   0.3140 
  7 C        2.3400     2.4850     0.8520 C.2   1 <1>  -0.1500 
  8 C        4.3770    -1.1980     0.3630 C.3   1 <1>   0.2000 
  9 N        3.9120     2.1390    -0.6710 N.2   1 <1>  -0.7070 
 10 C        3.9240    -0.2920    -0.7790 C.3   1 <1>   0.0960 
 11 C        3.2510     3.0800    -0.0160 C.2   1 <1>   0.2030 
 12 O        5.3090    -2.1010    -0.1320 O.3   1 <1>  -0.6800 
 13 C        3.4100     4.5270    -0.1490 C.2   1 <1>   0.7160 
 14 O        2.6810     5.2860     0.4690 O.2   1 <1>  -0.5700 
 15 N        4.3920     5.1220    -0.9270 N.am  1 <1>  -0.6600 
 16 C        4.2560     6.5400    -1.3670 C.3   1 <1>   0.1400 
 17 C        5.7900     4.6050    -0.9810 C.3   1 <1>   0.1400 
 18 C        5.1710     7.4410    -0.5210 C.3   1 <1>   0.3430 
 19 C        6.7260     5.5210    -0.1680 C.3   1 <1>   0.3430 
 20 N        6.6100     6.9760    -0.5570 N.4   1 <1>  -0.9590 
 21 C        7.4990     7.8130     0.3080 C.3   1 <1>   0.3430 
 22 C        7.7290     9.2090    -0.2830 C.3   1 <1>   0.0000 
 23 C        8.6720    10.0870     0.5800 C.3   1 <1>   0.0000 
 24 C        6.6250    10.2670    -0.0070 C.3   1 <1>   0.0000 
 25 C        7.7690    11.2910     0.2080 C.3   1 <1>   0.0000 
 26 H        1.3310    -1.7460     1.9030 H     1 <1>   0.3700 
 27 H        2.9150    -2.7620     0.3070 H     1 <1>   0.0800 
 28 H        3.6070    -2.4860     1.8810 H     1 <1>   0.0800 
 29 H        1.6640     3.0110     1.5060 H     1 <1>   0.1500 
 30 H        4.8850    -0.6190     1.1170 H     1 <1>   0.0800 
 31 H        4.7600    -0.0640    -1.4160 H     1 <1>   0.0800 
 32 H        3.1470    -0.7530    -1.3580 H     1 <1>   0.0800 
 33 H        4.9360    -2.6630    -0.8400 H     1 <1>   0.4000 
 34 H        3.2350     6.8700    -1.2660 H     1 <1>   0.0800 
 35 H        4.5170     6.6190    -2.4080 H     1 <1>   0.0800 
 36 H        6.1130     4.5500    -2.0060 H     1 <1>   0.0800 
 37 H        5.8530     3.6150    -0.5680 H     1 <1>   0.0800 
 38 H        4.8080     7.4320     0.4940 H     1 <1>   0.0800 
 39 H        5.0980     8.4490    -0.8900 H     1 <1>   0.0800 
 40 H        7.7420     5.1870    -0.3000 H     1 <1>   0.0800 
 41 H        6.4770     5.4090     0.8750 H     1 <1>   0.0800 
 42 H        6.9380     7.0650    -1.5280 H     1 <1>   0.4500 
 43 H        8.4590     7.3300     0.3990 H     1 <1>   0.0800 
 44 H        7.0800     7.9020     1.2980 H     1 <1>   0.0800 
 45 H        8.0480     9.1930    -1.3120 H     1 <1>   0.0000 
 46 H        9.6740    10.1600     0.1950 H     1 <1>   0.0000 
 47 H        8.6300     9.8510     1.6300 H     1 <1>   0.0000 
 48 H        6.0700    10.0730     0.8960 H     1 <1>   0.0000 
 49 H        6.0050    10.4850    -0.8580 H     1 <1>   0.0000 
 50 H        8.0730    11.7720    -0.7060 H     1 <1>   0.0000 
 51 H        7.5950    11.9740     1.0200 H     1 <1>   0.0000 
@<TRIPOS>BOND
  1   1   2  2   
  2   2   3  am  
  3   2   4  1   
  4   3   5  1   
  5   3  26  1   
  6   4   6  1   
  7   4   7  2   
  8   5   8  1   
  9   5  27  1   
 10   5  28  1   
 11   6   9  1   
 12   6  10  1   
 13   7  11  1   
 14   7  29  1   
 15   8  10  1   
 16   8  12  1   
 17   8  30  1   
 18   9  11  2   
 19  10  31  1   
 20  10  32  1   
 21  11  13  1   
 22  12  33  1   
 23  13  14  2   
 24  13  15  am  
 25  15  16  1   
 26  15  17  1   
 27  16  18  1   
 28  16  34  1   
 29  16  35  1   
 30  17  19  1   
 31  17  36  1   
 32  17  37  1   
 33  18  20  1   
 34  18  38  1   
 35  18  39  1   
 36  19  20  1   
 37  19  40  1   
 38  19  41  1   
 39  20  21  1   
 40  20  42  1   
 41  21  22  1   
 42  21  43  1   
 43  21  44  1   
 44  22  23  1   
 45  22  24  1   
 46  22  45  1   
 47  23  25  1   
 48  23  46  1   
 49  23  47  1   
 50  24  25  1   
 51  24  48  1   
 52  24  49  1   
 53  25  50  1   
 54  25  51  1   
@<TRIPOS>SUBSTRUCTURE
  1 ****  13 GROUP 4 **** **** 0

# MOE 2024.06 (io_trps.svl 2023.06)
