@<TRIPOS>MOLECULE
NONAME
56 59 1 0 0 
SMALL
USER_CHARGES


@<TRIPOS>ATOM
  1 O       -1.1790    -0.1540     1.0480 O.3   1 <1>  -0.3630 
  2 C       -2.1080     0.8380     1.0180 C.ar  1 <1>   0.0830 
  3 C        0.0900    -0.0470     0.4300 C.3   1 <1>   0.2000 
  4 C       -3.4030     0.5080     1.4090 C.ar  1 <1>  -0.1440 
  5 C       -1.8230     2.1380     0.6100 C.ar  1 <1>  -0.1500 
  6 C       -0.0720    -0.1630    -1.0860 C.3   1 <1>  -0.1600 
  7 C        0.8730    -1.3020     0.7950 C.3   1 <1>  -0.1600 
  8 C       -4.3990     1.4720     1.3840 C.ar  1 <1>  -0.1500 
  9 C       -3.7270    -0.9050     1.8590 C.3   1 <1>   0.4860 
 10 C       -2.8230     3.0930     0.5870 C.ar  1 <1>  -0.1500 
 11 C       -0.1950    -1.6630    -1.3810 C.3   1 <1>  -0.1600 
 12 C        0.3590    -2.3920    -0.1510 C.3   1 <1>  -0.1600 
 13 C       -4.1100     2.7610     0.9720 C.ar  1 <1>  -0.1500 
 14 N       -3.3880    -1.8460     0.7640 N.4   1 <1>  -0.9590 
 15 C       -4.2550    -1.6330    -0.4330 C.3   1 <1>   0.3430 
 16 C       -3.5340    -3.2680     1.1880 C.3   1 <1>   0.3430 
 17 C       -5.1960    -2.8410    -0.4810 C.3   1 <1>   0.2000 
 18 C       -4.3470    -3.9710     0.0930 C.3   1 <1>  -0.0800 
 19 O       -6.2540    -2.6080     0.3920 O.3   1 <1>  -0.6800 
 20 C       -3.4440    -4.6070    -0.9820 C.3   1 <1>   0.0210 
 21 C       -2.5870    -5.7120    -0.4000 C.2   1 <1>   0.1080 
 22 N       -1.5530    -5.4780     0.3450 N.2   1 <1>  -0.7070 
 23 C       -2.8010    -7.0720    -0.5940 C.2   1 <1>  -0.1500 
 24 N       -1.0640    -6.7010     0.6420 N.pl3 1 <1>   0.3000 
 25 C       -1.8080    -7.6800     0.0880 C.2   1 <1>  -0.3320 
 26 C       -1.5160    -9.1620     0.2410 C.3   1 <1>  -0.0600 
 27 H        0.5820     0.8500     0.7620 H     1 <1>   0.0800 
 28 H       -0.8340     2.4280     0.3080 H     1 <1>   0.1500 
 29 H       -0.9030     0.4030    -1.4650 H     1 <1>   0.0800 
 30 H        0.8280     0.2050    -1.5480 H     1 <1>   0.0800 
 31 H        1.9150    -1.1270     0.5910 H     1 <1>   0.0800 
 32 H        0.7640    -1.5650     1.8330 H     1 <1>   0.0800 
 33 H       -5.4060     1.2340     1.6840 H     1 <1>   0.1500 
 34 H       -4.7740    -0.9890     2.1060 H     1 <1>   0.0800 
 35 H       -3.1430    -1.1360     2.7340 H     1 <1>   0.0800 
 36 H       -2.6010     4.0990     0.2710 H     1 <1>   0.1500 
 37 H       -1.2230    -1.9320    -1.5360 H     1 <1>   0.0800 
 38 H        0.3650    -1.9200    -2.2660 H     1 <1>   0.0800 
 39 H        1.1460    -3.0770    -0.4170 H     1 <1>   0.0800 
 40 H       -0.4280    -2.9480     0.3290 H     1 <1>   0.0800 
 41 H       -4.8840     3.5100     0.9550 H     1 <1>   0.1500 
 42 H       -2.4020    -1.6280     0.5320 H     1 <1>   0.4500 
 43 H       -4.8100    -0.7110    -0.3800 H     1 <1>   0.0800 
 44 H       -3.6410    -1.6240    -1.3180 H     1 <1>   0.0800 
 45 H       -2.5730    -3.7270     1.3470 H     1 <1>   0.0800 
 46 H       -4.0920    -3.3140     2.1090 H     1 <1>   0.0800 
 47 H       -5.5890    -3.0280    -1.4660 H     1 <1>   0.0800 
 48 H       -4.9580    -4.7470     0.5200 H     1 <1>   0.0800 
 49 H       -6.9510    -3.2900     0.2950 H     1 <1>   0.4000 
 50 H       -2.7900    -3.8750    -1.4220 H     1 <1>   0.0800 
 51 H       -4.0500    -5.0210    -1.7680 H     1 <1>   0.0800 
 52 H       -3.5900    -7.5230    -1.1700 H     1 <1>   0.1500 
 53 H       -0.2220    -6.8380     1.2170 H     1 <1>   0.2700 
 54 H       -2.2470    -9.7410    -0.2930 H     1 <1>   0.0800 
 55 H       -1.5480    -9.4440     1.2790 H     1 <1>   0.0800 
 56 H       -0.5420    -9.3930    -0.1550 H     1 <1>   0.0800 
@<TRIPOS>BOND
  1   1   2  1   
  2   1   3  1   
  3   2   4  ar  
  4   2   5  ar  
  5   3   6  1   
  6   3   7  1   
  7   3  27  1   
  8   4   8  ar  
  9   4   9  1   
 10   5  10  ar  
 11   5  28  1   
 12   6  11  1   
 13   6  29  1   
 14   6  30  1   
 15   7  12  1   
 16   7  31  1   
 17   7  32  1   
 18   8  13  ar  
 19   8  33  1   
 20   9  14  1   
 21   9  34  1   
 22   9  35  1   
 23  10  13  ar  
 24  10  36  1   
 25  11  12  1   
 26  11  37  1   
 27  11  38  1   
 28  12  39  1   
 29  12  40  1   
 30  13  41  1   
 31  14  15  1   
 32  14  16  1   
 33  14  42  1   
 34  15  17  1   
 35  15  43  1   
 36  15  44  1   
 37  16  18  1   
 38  16  45  1   
 39  16  46  1   
 40  17  18  1   
 41  17  19  1   
 42  17  47  1   
 43  18  20  1   
 44  18  48  1   
 45  19  49  1   
 46  20  21  1   
 47  20  50  1   
 48  20  51  1   
 49  21  22  2   
 50  21  23  1   
 51  22  24  1   
 52  23  25  2   
 53  23  52  1   
 54  24  25  1   
 55  24  53  1   
 56  25  26  1   
 57  26  54  1   
 58  26  55  1   
 59  26  56  1   
@<TRIPOS>SUBSTRUCTURE
  1 ****  14 GROUP 4 **** **** 0

# MOE 2024.06 (io_trps.svl 2023.06)
