@<TRIPOS>MOLECULE
NONAME
57 60 1 0 0 
SMALL
USER_CHARGES


@<TRIPOS>ATOM
  1 S       -1.4430     3.0580     2.1360 S.3   1 <1>  -0.0800 
  2 C        0.0450     2.9580     1.2180 C.2   1 <1>  -0.1400 
  3 C       -1.1510     4.7600     2.4590 C.2   1 <1>  -0.1100 
  4 C        0.6940     4.1290     1.1870 C.2   1 <1>  -0.1810 
  5 C        0.5020     1.6900     0.5520 C.3   1 <1>   0.0200 
  6 C        0.0030     5.1690     1.8960 C.2   1 <1>  -0.1500 
  7 C        2.0300     4.2680     0.4540 C.3   1 <1>   0.4610 
  8 C        1.5510     2.0840    -0.5010 C.3   1 <1>   0.1200 
  9 O        2.4860     2.9970     0.0260 O.3   1 <1>  -0.5600 
 10 C        1.9010     5.1880    -0.7670 C.3   1 <1>  -0.1600 
 11 C        3.1070     4.8050     1.4020 C.3   1 <1>  -0.1600 
 12 C        3.2460     5.3920    -1.4680 C.3   1 <1>   0.1400 
 13 C        4.4400     5.0100     0.6810 C.3   1 <1>   0.1400 
 14 N        4.2430     5.9190    -0.4880 N.am  1 <1>  -0.6600 
 15 C        4.9350     7.1010    -0.5940 C.2   1 <1>   0.5690 
 16 O        5.5880     7.5330     0.3330 O.2   1 <1>  -0.5700 
 17 C        4.8820     7.9410    -1.8750 C.3   1 <1>  -0.0190 
 18 C        6.1750     8.7600    -2.0470 C.3   1 <1>   0.1400 
 19 C        3.7750     9.0060    -1.7520 C.3   1 <1>  -0.0990 
 20 N        5.8560    10.0380    -1.3800 N.am  1 <1>  -0.6600 
 21 C        4.5230    10.1750    -1.1770 C.2   1 <1>   0.5690 
 22 C        6.9240    10.9380    -0.8540 C.3   1 <1>   0.1400 
 23 O        4.0020    11.0660    -0.5530 O.2   1 <1>  -0.5700 
 24 C        6.6990    11.2680     0.6340 C.3   1 <1>   0.3430 
 25 N        6.4290    10.0290     1.4310 N.4   1 <1>  -0.9590 
 26 C        5.3540    10.2620     2.4350 C.3   1 <1>   0.2630 
 27 C        7.6470     9.4200     2.0320 C.3   1 <1>   0.2630 
 28 H       -1.8860     5.2820     3.0460 H     1 <1>   0.1500 
 29 H       -0.3240     1.1940     0.0760 H     1 <1>   0.0800 
 30 H        0.9340     1.0270     1.2800 H     1 <1>   0.0800 
 31 H        0.3970     6.1680     1.9530 H     1 <1>   0.1500 
 32 H        1.0730     2.5370    -1.3510 H     1 <1>   0.0800 
 33 H        2.0900     1.2140    -0.8310 H     1 <1>   0.0800 
 34 H        1.5300     6.1450    -0.4490 H     1 <1>   0.0800 
 35 H        1.1820     4.7850    -1.4550 H     1 <1>   0.0800 
 36 H        3.2330     4.1140     2.2150 H     1 <1>   0.0800 
 37 H        2.7940     5.7440     1.8190 H     1 <1>   0.0800 
 38 H        3.1030     6.0640    -2.2930 H     1 <1>   0.0800 
 39 H        3.6000     4.4520    -1.8580 H     1 <1>   0.0800 
 40 H        4.8140     4.0620     0.3310 H     1 <1>   0.0800 
 41 H        5.1620     5.4140     1.3690 H     1 <1>   0.0800 
 42 H        4.7510     7.3090    -2.7320 H     1 <1>   0.0800 
 43 H        6.3750     8.9450    -3.0890 H     1 <1>   0.0800 
 44 H        7.0250     8.2750    -1.5970 H     1 <1>   0.0800 
 45 H        2.9720     8.7000    -1.1050 H     1 <1>   0.0800 
 46 H        3.3880     9.2800    -2.7160 H     1 <1>   0.0800 
 47 H        6.9220    11.8510    -1.4240 H     1 <1>   0.0800 
 48 H        7.8850    10.4710    -0.9760 H     1 <1>   0.0800 
 49 H        5.8450    11.9240     0.6930 H     1 <1>   0.0800 
 50 H        7.5480    11.7970     1.0320 H     1 <1>   0.0800 
 51 H        6.0410     9.3260     0.7590 H     1 <1>   0.4500 
 52 H        5.6750    10.9770     3.1740 H     1 <1>   0.0800 
 53 H        5.1010     9.3370     2.9270 H     1 <1>   0.0800 
 54 H        4.4700    10.6400     1.9440 H     1 <1>   0.0800 
 55 H        8.0840    10.0880     2.7560 H     1 <1>   0.0800 
 56 H        8.3740     9.2100     1.2640 H     1 <1>   0.0800 
 57 H        7.3920     8.4930     2.5190 H     1 <1>   0.0800 
@<TRIPOS>BOND
  1   1   2  1   
  2   1   3  1   
  3   2   4  2   
  4   2   5  1   
  5   3   6  2   
  6   3  28  1   
  7   4   6  1   
  8   4   7  1   
  9   5   8  1   
 10   5  29  1   
 11   5  30  1   
 12   6  31  1   
 13   7   9  1   
 14   7  10  1   
 15   7  11  1   
 16   8   9  1   
 17   8  32  1   
 18   8  33  1   
 19  10  12  1   
 20  10  34  1   
 21  10  35  1   
 22  11  13  1   
 23  11  36  1   
 24  11  37  1   
 25  12  14  1   
 26  12  38  1   
 27  12  39  1   
 28  13  14  1   
 29  13  40  1   
 30  13  41  1   
 31  14  15  am  
 32  15  16  2   
 33  15  17  1   
 34  17  18  1   
 35  17  19  1   
 36  17  42  1   
 37  18  20  1   
 38  18  43  1   
 39  18  44  1   
 40  19  21  1   
 41  19  45  1   
 42  19  46  1   
 43  20  21  am  
 44  20  22  1   
 45  21  23  2   
 46  22  24  1   
 47  22  47  1   
 48  22  48  1   
 49  24  25  1   
 50  24  49  1   
 51  24  50  1   
 52  25  26  1   
 53  25  27  1   
 54  25  51  1   
 55  26  52  1   
 56  26  53  1   
 57  26  54  1   
 58  27  55  1   
 59  27  56  1   
 60  27  57  1   
@<TRIPOS>SUBSTRUCTURE
  1 ****  14 GROUP 4 **** **** 0

# MOE 2024.06 (io_trps.svl 2023.06)
