@<TRIPOS>MOLECULE
NONAME
48 50 1 0 0 
SMALL
USER_CHARGES


@<TRIPOS>ATOM
  1 O        1.2140    -0.7960     0.2910 O.3   1 <1>  -0.5600 
  2 C        0.7650    -1.4440     1.4390 C.3   1 <1>   0.1200 
  3 C        0.5450    -1.0820    -0.8880 C.3   1 <1>   0.1200 
  4 C        1.2970    -2.8910     1.4870 C.3   1 <1>   0.4230 
  5 C        0.9510    -2.4690    -1.4030 C.3   1 <1>  -0.0800 
  6 N        0.4350    -3.8770     0.7180 N.4   1 <1>  -0.9590 
  7 C        2.7970    -2.9120     1.0450 C.3   1 <1>   0.3430 
  8 C        0.1480    -3.5950    -0.7360 C.3   1 <1>   0.3430 
  9 C        2.4820    -2.6370    -1.4570 C.3   1 <1>   0.3430 
 10 C       -0.8490    -4.1700     1.4220 C.3   1 <1>   0.5240 
 11 N        3.0910    -3.4480    -0.3460 N.4   1 <1>  -0.9590 
 12 C       -1.3430    -5.4660     0.8330 C.2   1 <1>  -0.1810 
 13 C        4.5780    -3.4860    -0.5540 C.3   1 <1>   0.2630 
 14 C       -0.8310    -6.7300     1.1120 C.2   1 <1>   0.1080 
 15 C       -2.3250    -5.6790    -0.0750 C.2   1 <1>  -0.3320 
 16 N       -1.4040    -7.6410     0.4070 N.2   1 <1>  -0.7070 
 17 C        0.2510    -7.1090     2.1030 C.3   1 <1>  -0.0590 
 18 N       -2.3430    -7.0120    -0.3130 N.pl3 1 <1>   0.3140 
 19 C       -3.2880    -4.7060    -0.7430 C.3   1 <1>  -0.0600 
 20 C       -3.2450    -7.7630    -1.2000 C.3   1 <1>   0.0160 
 21 H        1.1680    -0.8930     2.2720 H     1 <1>   0.0800 
 22 H       -0.3090    -1.3880     1.4960 H     1 <1>   0.0800 
 23 H       -0.5180    -0.9910    -0.7330 H     1 <1>   0.0800 
 24 H        0.8390    -0.3270    -1.6000 H     1 <1>   0.0800 
 25 H        1.2750    -3.1770     2.5260 H     1 <1>   0.0800 
 26 H        0.6300    -2.4710    -2.4300 H     1 <1>   0.0800 
 27 H        0.8860    -4.8000     0.7410 H     1 <1>   0.4500 
 28 H        3.3390    -3.5060     1.7630 H     1 <1>   0.0800 
 29 H        3.1850    -1.9090     1.1270 H     1 <1>   0.0800 
 30 H        0.2900    -4.5060    -1.2970 H     1 <1>   0.0800 
 31 H       -0.8960    -3.3450    -0.8380 H     1 <1>   0.0800 
 32 H        2.9300    -1.6550    -1.4670 H     1 <1>   0.0800 
 33 H        2.7340    -3.1050    -2.3960 H     1 <1>   0.0800 
 34 H       -0.6960    -4.2940     2.4820 H     1 <1>   0.0800 
 35 H       -1.5690    -3.3850     1.2590 H     1 <1>   0.0800 
 36 H        2.7610    -4.4180    -0.4320 H     1 <1>   0.4500 
 37 H        4.9930    -2.4920    -0.4930 H     1 <1>   0.0800 
 38 H        4.8140    -3.8950    -1.5240 H     1 <1>   0.0800 
 39 H        5.0510    -4.1010     0.1960 H     1 <1>   0.0800 
 40 H        0.4570    -6.3160     2.7940 H     1 <1>   0.0800 
 41 H        1.1470    -7.3850     1.5780 H     1 <1>   0.0800 
 42 H       -0.0800    -7.9660     2.6640 H     1 <1>   0.0800 
 43 H       -3.1440    -3.7030    -0.3850 H     1 <1>   0.0800 
 44 H       -4.3030    -4.9910    -0.5260 H     1 <1>   0.0800 
 45 H       -3.1530    -4.7170    -1.8100 H     1 <1>   0.0800 
 46 H       -3.1590    -7.3860    -2.2010 H     1 <1>   0.0800 
 47 H       -4.2540    -7.6550    -0.8500 H     1 <1>   0.0800 
 48 H       -2.9710    -8.8020    -1.1820 H     1 <1>   0.0800 
@<TRIPOS>BOND
  1   1   2  1   
  2   1   3  1   
  3   2   4  1   
  4   2  21  1   
  5   2  22  1   
  6   3   5  1   
  7   3  23  1   
  8   3  24  1   
  9   4   6  1   
 10   4   7  1   
 11   4  25  1   
 12   5   8  1   
 13   5   9  1   
 14   5  26  1   
 15   6   8  1   
 16   6  10  1   
 17   6  27  1   
 18   7  11  1   
 19   7  28  1   
 20   7  29  1   
 21   8  30  1   
 22   8  31  1   
 23   9  11  1   
 24   9  32  1   
 25   9  33  1   
 26  10  12  1   
 27  10  34  1   
 28  10  35  1   
 29  11  13  1   
 30  11  36  1   
 31  12  14  1   
 32  12  15  2   
 33  13  37  1   
 34  13  38  1   
 35  13  39  1   
 36  14  16  2   
 37  14  17  1   
 38  15  18  1   
 39  15  19  1   
 40  16  18  1   
 41  17  40  1   
 42  17  41  1   
 43  17  42  1   
 44  18  20  1   
 45  19  43  1   
 46  19  44  1   
 47  19  45  1   
 48  20  46  1   
 49  20  47  1   
 50  20  48  1   
@<TRIPOS>SUBSTRUCTURE
  1 ****   6 GROUP 4 **** **** 0

# MOE 2024.06 (io_trps.svl 2023.06)
