@<TRIPOS>MOLECULE
NONAME
47 49 1 0 0 
SMALL
USER_CHARGES


@<TRIPOS>ATOM
  1 S       -0.1050     0.0290     1.7290 S.o2  1 <1>   1.4470 
  2 O       -0.8040    -0.9570     2.5260 O.2   1 <1>  -0.6500 
  3 O        0.2740     1.2910     2.3310 O.2   1 <1>  -0.6500 
  4 N       -1.0860     0.3920     0.3960 N.am  1 <1>  -0.8490 
  5 C        1.3430    -0.7540     0.9650 C.ar  1 <1>  -0.0090 
  6 C       -2.4590     0.7260     0.8170 C.3   1 <1>   0.1960 
  7 C       -0.5300     1.4720    -0.4220 C.3   1 <1>   0.1960 
  8 C        1.1970    -1.8240     0.0920 C.ar  1 <1>  -0.1500 
  9 C        2.6320    -0.3060     1.2300 C.ar  1 <1>  -0.1500 
 10 C       -3.4050     0.8770    -0.4020 C.3   1 <1>   0.0000 
 11 C       -1.3650     1.6550    -1.6940 C.3   1 <1>  -0.1600 
 12 C        2.2940    -2.4230    -0.5030 C.ar  1 <1>  -0.1500 
 13 C        3.7340    -0.9000     0.6390 C.ar  1 <1>  -0.1500 
 14 C       -4.8380     1.2230     0.0400 C.3   1 <1>   0.2000 
 15 C       -2.8370     1.9420    -1.3610 C.3   1 <1>  -0.1600 
 16 C       -3.6110    -0.4840    -1.0920 C.3   1 <1>  -0.1600 
 17 C        3.5700    -1.9620    -0.2330 C.ar  1 <1>  -0.1430 
 18 O       -4.8370     2.1350     1.0970 O.3   1 <1>  -0.5600 
 19 C       -5.4810    -0.1060     0.4490 C.3   1 <1>  -0.1600 
 20 C       -4.6880    -1.2030    -0.2750 C.3   1 <1>  -0.1600 
 21 C        4.7760    -2.6180    -0.8810 C.3   1 <1>  -0.0970 
 22 C       -6.0660     2.7340     1.3590 C.3   1 <1>   0.0400 
 23 H       -2.8400    -0.0460     1.4630 H     1 <1>   0.0800 
 24 H       -2.4400     1.6420     1.3850 H     1 <1>   0.0800 
 25 H       -0.5190     2.3920     0.1420 H     1 <1>   0.0800 
 26 H        0.4830     1.2360    -0.7010 H     1 <1>   0.0800 
 27 H        0.2070    -2.1900    -0.1240 H     1 <1>   0.1500 
 28 H        2.7760     0.5190     1.9070 H     1 <1>   0.1500 
 29 H       -0.9610     2.4700    -2.2670 H     1 <1>   0.0800 
 30 H       -1.2870     0.7640    -2.2920 H     1 <1>   0.0800 
 31 H        2.1480    -3.2520    -1.1740 H     1 <1>   0.1500 
 32 H        4.7210    -0.5320     0.8640 H     1 <1>   0.1500 
 33 H       -5.3720     1.6490    -0.7940 H     1 <1>   0.0800 
 34 H       -3.4160     1.9850    -2.2670 H     1 <1>   0.0800 
 35 H       -2.9030     2.9050    -0.8840 H     1 <1>   0.0800 
 36 H       -3.9790    -0.3310    -2.0920 H     1 <1>   0.0800 
 37 H       -2.7040    -1.0620    -1.1490 H     1 <1>   0.0800 
 38 H       -5.3990    -0.2480     1.5130 H     1 <1>   0.0800 
 39 H       -6.5160    -0.1280     0.1590 H     1 <1>   0.0800 
 40 H       -4.2230    -1.8490     0.4510 H     1 <1>   0.0800 
 41 H       -5.3220    -1.7980    -0.9110 H     1 <1>   0.0800 
 42 H        4.5190    -3.0010    -1.8520 H     1 <1>   0.0800 
 43 H        5.1210    -3.4310    -0.2670 H     1 <1>   0.0800 
 44 H        5.5750    -1.9080    -0.9980 H     1 <1>   0.0800 
 45 H       -5.9340     3.4230     2.1740 H     1 <1>   0.0800 
 46 H       -6.7820     1.9800     1.6380 H     1 <1>   0.0800 
 47 H       -6.3970     3.2660     0.4840 H     1 <1>   0.0800 
@<TRIPOS>BOND
  1   1   2  2   
  2   1   3  2   
  3   1   4  am  
  4   1   5  1   
  5   4   6  1   
  6   4   7  1   
  7   5   8  ar  
  8   5   9  ar  
  9   6  10  1   
 10   6  23  1   
 11   6  24  1   
 12   7  11  1   
 13   7  25  1   
 14   7  26  1   
 15   8  12  ar  
 16   8  27  1   
 17   9  13  ar  
 18   9  28  1   
 19  10  14  1   
 20  10  15  1   
 21  10  16  1   
 22  11  15  1   
 23  11  29  1   
 24  11  30  1   
 25  12  17  ar  
 26  12  31  1   
 27  13  17  ar  
 28  13  32  1   
 29  14  18  1   
 30  14  19  1   
 31  14  33  1   
 32  15  34  1   
 33  15  35  1   
 34  16  20  1   
 35  16  36  1   
 36  16  37  1   
 37  17  21  1   
 38  18  22  1   
 39  19  20  1   
 40  19  38  1   
 41  19  39  1   
 42  20  40  1   
 43  20  41  1   
 44  21  42  1   
 45  21  43  1   
 46  21  44  1   
 47  22  45  1   
 48  22  46  1   
 49  22  47  1   
@<TRIPOS>SUBSTRUCTURE
  1 ****   4 GROUP 4 **** **** 0

# MOE 2024.06 (io_trps.svl 2023.06)
