@<TRIPOS>MOLECULE
NONAME
44 46 1 0 0 
SMALL
USER_CHARGES


@<TRIPOS>ATOM
  1 S       -0.7610    -0.1870     0.1480 S.o2  1 <1>   1.4470 
  2 O       -1.2970     0.0770     1.4590 O.2   1 <1>  -0.6500 
  3 O       -1.1570     0.6090    -0.9870 O.2   1 <1>  -0.6500 
  4 N        0.8410     0.1930     0.3120 N.am  1 <1>  -0.9780 
  5 C       -0.7610    -1.9630    -0.2290 C.ar  1 <1>  -0.0090 
  6 C       -1.1640    -2.4440    -1.4690 C.ar  1 <1>  -0.1500 
  7 C       -0.3430    -2.8950     0.7130 C.ar  1 <1>  -0.1500 
  8 C       -1.1550    -3.7980    -1.7510 C.ar  1 <1>  -0.1500 
  9 C       -0.3320    -4.2500     0.4320 C.ar  1 <1>  -0.1500 
 10 C       -0.7440    -4.7400    -0.8080 C.ar  1 <1>   0.0860 
 11 C       -0.7500    -6.1610    -1.1190 C.2   1 <1>   0.5440 
 12 O       -0.7280    -6.5500    -2.2690 O.2   1 <1>  -0.5700 
 13 N       -0.8080    -7.0960    -0.1270 N.am  1 <1>  -0.7300 
 14 C       -0.7740    -8.5650    -0.3240 C.3   1 <1>   0.2200 
 15 C       -2.1610    -9.1760    -0.1720 C.3   1 <1>  -0.0800 
 16 C       -0.0640    -9.1950     0.8650 C.3   1 <1>   0.1200 
 17 C       -2.2950    -9.3560     1.3460 C.3   1 <1>   0.1200 
 18 C       -3.3170    -8.3960    -0.8250 C.3   1 <1>  -0.0170 
 19 O       -1.0140    -9.1980     1.8860 O.3   1 <1>  -0.5600 
 20 C       -4.6300    -9.1500    -0.6800 C.ar  1 <1>  -0.1430 
 21 C       -5.5510    -8.8410     0.3010 C.ar  1 <1>  -0.1500 
 22 C       -4.9670   -10.1860    -1.5270 C.ar  1 <1>  -0.1500 
 23 C       -6.7270    -9.5670     0.3890 C.ar  1 <1>   0.1600 
 24 C       -6.1700   -10.8480    -1.3540 C.ar  1 <1>   0.1600 
 25 N       -7.0580   -10.5660    -0.4140 N.ar  1 <1>  -0.6200 
 26 H        0.8480     0.8310     1.1040 H     1 <1>   0.4200 
 27 H        1.0320     0.7610    -0.5090 H     1 <1>   0.4200 
 28 H       -1.4900    -1.7490    -2.2260 H     1 <1>   0.1500 
 29 H       -0.0190    -2.5500     1.6810 H     1 <1>   0.1500 
 30 H       -1.4720    -4.1400    -2.7220 H     1 <1>   0.1500 
 31 H        0.0120    -4.9320     1.1890 H     1 <1>   0.1500 
 32 H       -0.9440    -6.8210     0.8470 H     1 <1>   0.3700 
 33 H       -0.3060    -8.8160    -1.2620 H     1 <1>   0.0800 
 34 H       -2.1340   -10.1580    -0.6090 H     1 <1>   0.0800 
 35 H        0.8050    -8.6430     1.1760 H     1 <1>   0.0800 
 36 H        0.2030   -10.2160     0.6560 H     1 <1>   0.0800 
 37 H       -2.6640   -10.3360     1.5980 H     1 <1>   0.0800 
 38 H       -2.9290    -8.6060     1.7840 H     1 <1>   0.0800 
 39 H       -3.1030    -8.2510    -1.8700 H     1 <1>   0.0800 
 40 H       -3.4150    -7.4220    -0.3790 H     1 <1>   0.0800 
 41 H       -5.3670    -8.0440     0.9980 H     1 <1>   0.1500 
 42 H       -4.3050   -10.4820    -2.3200 H     1 <1>   0.1500 
 43 H       -7.4330    -9.3130     1.1600 H     1 <1>   0.1500 
 44 H       -6.4160   -11.6540    -2.0240 H     1 <1>   0.1500 
@<TRIPOS>BOND
  1   1   2  2   
  2   1   3  2   
  3   1   4  am  
  4   1   5  1   
  5   4  26  1   
  6   4  27  1   
  7   5   6  ar  
  8   5   7  ar  
  9   6   8  ar  
 10   6  28  1   
 11   7   9  ar  
 12   7  29  1   
 13   8  10  ar  
 14   8  30  1   
 15   9  10  ar  
 16   9  31  1   
 17  10  11  1   
 18  11  12  2   
 19  11  13  am  
 20  13  14  1   
 21  13  32  1   
 22  14  15  1   
 23  14  16  1   
 24  14  33  1   
 25  15  17  1   
 26  15  18  1   
 27  15  34  1   
 28  16  19  1   
 29  16  35  1   
 30  16  36  1   
 31  17  19  1   
 32  17  37  1   
 33  17  38  1   
 34  18  20  1   
 35  18  39  1   
 36  18  40  1   
 37  20  21  ar  
 38  20  22  ar  
 39  21  23  ar  
 40  21  41  1   
 41  22  24  ar  
 42  22  42  1   
 43  23  25  ar  
 44  23  43  1   
 45  24  25  ar  
 46  24  44  1   
@<TRIPOS>SUBSTRUCTURE
  1 ****  11 GROUP 4 **** **** 0

# MOE 2024.06 (io_trps.svl 2023.06)
