@<TRIPOS>MOLECULE
NONAME
47 49 1 0 0 
SMALL
USER_CHARGES


@<TRIPOS>ATOM
  1 O       -0.4990     1.8310    -1.3730 O.2   1 <1>  -0.5700 
  2 C       -0.4370     2.9790    -1.0170 C.2   1 <1>   0.5690 
  3 N       -0.9620     3.3600     0.1580 N.am  1 <1>  -0.7300 
  4 C        0.2620     4.0080    -1.8980 C.3   1 <1>   0.1810 
  5 C       -0.9740     4.7560     0.6380 C.3   1 <1>   0.3640 
  6 O        0.2350     5.3420    -1.4170 O.3   1 <1>  -0.5600 
  7 C       -2.3850     5.3110     0.4320 C.ar  1 <1>  -0.1440 
  8 C        0.1420     5.6920    -0.0120 C.3   1 <1>   0.2610 
  9 C       -2.9090     5.5150    -0.8400 C.ar  1 <1>  -0.1500 
 10 C       -3.1670     5.6310     1.5360 C.ar  1 <1>  -0.1500 
 11 C        1.6270     6.1020     1.1010 C.2   1 <1>   0.5690 
 12 C       -4.1790     6.0360    -1.0130 C.ar  1 <1>   0.0830 
 13 C       -4.4440     6.1390     1.3730 C.ar  1 <1>  -0.1500 
 14 O        2.7350     6.6990     1.5540 O.2   1 <1>  -0.5700 
 15 N        1.3400     5.4380     1.7580 N.am  1 <1>  -0.6600 
 16 O       -4.6020     6.2400    -2.2840 O.3   1 <1>  -0.3620 
 17 C       -4.9650     6.3320     0.1060 C.ar  1 <1>   0.0830 
 18 C        0.5480     7.0400     1.9260 C.3   1 <1>   0.1400 
 19 C        2.3300     4.8100     0.4100 C.3   1 <1>   0.1400 
 20 C       -4.7810     7.5830    -2.6760 C.3   1 <1>   0.0400 
 21 O       -6.2320     6.8050     0.0170 O.3   1 <1>  -0.3630 
 22 C        0.9940     8.1910     0.5290 C.3   1 <1>   0.1200 
 23 C        2.6800     6.1250    -0.8810 C.3   1 <1>   0.1200 
 24 C       -7.1870     5.9400    -0.5590 C.3   1 <1>   0.0400 
 25 O        1.8530     7.5530    -0.7290 O.3   1 <1>  -0.5600 
 26 H       -1.5270     2.6830     0.6710 H     1 <1>   0.3700 
 27 H       -0.2130     4.0100    -2.8620 H     1 <1>   0.0800 
 28 H        1.2850     3.7160    -2.0400 H     1 <1>   0.0800 
 29 H       -0.8500     4.6990     1.7040 H     1 <1>   0.0800 
 30 H       -0.4440     6.5780    -0.1380 H     1 <1>   0.0800 
 31 H       -2.3360     5.2780    -1.7170 H     1 <1>   0.1500 
 32 H       -2.7940     5.4820     2.5350 H     1 <1>   0.1500 
 33 H       -5.0490     6.3820     2.2280 H     1 <1>   0.1500 
 34 H       -0.5230     6.9630     2.0340 H     1 <1>   0.0800 
 35 H        0.8670     7.5000     2.8550 H     1 <1>   0.0800 
 36 H        3.2840     4.4740     0.7990 H     1 <1>   0.0800 
 37 H        1.9090     3.9120    -0.0020 H     1 <1>   0.0800 
 38 H       -5.0430     7.5960    -3.7180 H     1 <1>   0.0800 
 39 H       -3.8600     8.1150    -2.5200 H     1 <1>   0.0800 
 40 H       -5.5710     8.0220    -2.0940 H     1 <1>   0.0800 
 41 H        1.6030     8.9820     0.9340 H     1 <1>   0.0800 
 42 H        0.1130     8.6590     0.1240 H     1 <1>   0.0800 
 43 H        2.5420     5.7550    -1.8810 H     1 <1>   0.0800 
 44 H        3.7230     6.3820    -0.8040 H     1 <1>   0.0800 
 45 H       -8.1570     6.3890    -0.4500 H     1 <1>   0.0800 
 46 H       -7.1570     4.9960    -0.0440 H     1 <1>   0.0800 
 47 H       -6.9630     5.8030    -1.6020 H     1 <1>   0.0800 
@<TRIPOS>BOND
  1   1   2  2   
  2   2   3  am  
  3   2   4  1   
  4   3   5  1   
  5   3  26  1   
  6   4   6  1   
  7   4  27  1   
  8   4  28  1   
  9   5   7  1   
 10   5   8  1   
 11   5  29  1   
 12   6   8  1   
 13   7   9  ar  
 14   7  10  ar  
 15   8  11  1   
 16   8  30  1   
 17   9  12  ar  
 18   9  31  1   
 19  10  13  ar  
 20  10  32  1   
 21  11  14  2   
 22  11  15  am  
 23  12  16  1   
 24  12  17  ar  
 25  13  17  ar  
 26  13  33  1   
 27  15  18  1   
 28  15  19  1   
 29  16  20  1   
 30  17  21  1   
 31  18  22  1   
 32  18  34  1   
 33  18  35  1   
 34  19  23  1   
 35  19  36  1   
 36  19  37  1   
 37  20  38  1   
 38  20  39  1   
 39  20  40  1   
 40  21  24  1   
 41  22  25  1   
 42  22  41  1   
 43  22  42  1   
 44  23  25  1   
 45  23  43  1   
 46  23  44  1   
 47  24  45  1   
 48  24  46  1   
 49  24  47  1   
@<TRIPOS>SUBSTRUCTURE
  1 ****   5 GROUP 4 **** **** 0

# MOE 2024.06 (io_trps.svl 2023.06)
