@<TRIPOS>MOLECULE
NONAME
47 49 1 0 0 
SMALL
USER_CHARGES


@<TRIPOS>ATOM
  1 CL      -1.2940    -0.2910    -2.9180 Cl    1 <1>  -0.1770 
  2 C       -1.9100     1.0550    -1.9960 C.ar  1 <1>   0.1770 
  3 C       -1.1540     1.5640    -0.9560 C.ar  1 <1>  -0.1500 
  4 C       -3.1450     1.5870    -2.3260 C.ar  1 <1>  -0.1500 
  5 C       -1.6220     2.6410    -0.2050 C.ar  1 <1>   0.0860 
  6 C       -3.6340     2.6540    -1.5920 C.ar  1 <1>  -0.1500 
  7 C       -2.8700     3.1560    -0.5530 C.ar  1 <1>   0.1900 
  8 C       -0.8400     3.1840     0.8800 C.2   1 <1>   0.5440 
  9 F       -3.3560     4.1630     0.1200 F     1 <1>  -0.1900 
 10 O       -0.9560     2.6880     1.9840 O.2   1 <1>  -0.5700 
 11 N        0.0490     4.2220     0.6860 N.am  1 <1>  -0.6600 
 12 C        0.9150     4.7290     1.7970 C.3   1 <1>   0.1400 
 13 C        0.2130     4.9290    -0.6170 C.3   1 <1>   0.1400 
 14 C        0.6400     6.2040     2.1210 C.3   1 <1>   0.1400 
 15 C       -0.6020     6.2280    -0.5970 C.3   1 <1>  -0.1600 
 16 N        1.1340     7.1060     1.0330 N.am  1 <1>  -0.6600 
 17 C        0.1340     7.4490    -0.0230 C.3   1 <1>   0.1400 
 18 C        2.4710     7.4400     0.9930 C.2   1 <1>   0.5690 
 19 O        3.2490     6.9320     1.7710 O.2   1 <1>  -0.5700 
 20 C        3.0250     8.4810     0.0200 C.3   1 <1>   0.0420 
 21 C        3.4470     7.8080    -1.2800 C.2   1 <1>   0.5690 
 22 C        4.1640     9.3330     0.6410 C.3   1 <1>  -0.1600 
 23 O        2.7500     6.9630    -1.7880 O.2   1 <1>  -0.5700 
 24 N        4.5730     8.2020    -1.9230 N.am  1 <1>  -0.7300 
 25 C        4.8800    10.1540    -0.4390 C.3   1 <1>  -0.1600 
 26 C        5.5320     9.2370    -1.4780 C.3   1 <1>   0.1400 
 27 H       -0.1990     1.1260    -0.7220 H     1 <1>   0.1500 
 28 H       -3.7090     1.1680    -3.1410 H     1 <1>   0.1500 
 29 H       -4.5920     3.0910    -1.8180 H     1 <1>   0.1500 
 30 H        1.9500     4.6070     1.5300 H     1 <1>   0.0800 
 31 H        0.7480     4.1530     2.6890 H     1 <1>   0.0800 
 32 H       -0.1320     4.3040    -1.4210 H     1 <1>   0.0800 
 33 H        1.2550     5.1330    -0.7970 H     1 <1>   0.0800 
 34 H        1.1500     6.4530     3.0360 H     1 <1>   0.0800 
 35 H       -0.4130     6.3510     2.2870 H     1 <1>   0.0800 
 36 H       -1.5170     6.0740    -0.0560 H     1 <1>   0.0800 
 37 H       -0.8780     6.4680    -1.6080 H     1 <1>   0.0800 
 38 H       -0.5850     8.1390     0.3850 H     1 <1>   0.0800 
 39 H        0.6190     7.9400    -0.8450 H     1 <1>   0.0800 
 40 H        2.2410     9.1680    -0.2260 H     1 <1>   0.0800 
 41 H        4.8890     8.6900     1.1120 H     1 <1>   0.0800 
 42 H        3.7580     9.9810     1.3980 H     1 <1>   0.0800 
 43 H        4.8060     7.6900    -2.7770 H     1 <1>   0.3700 
 44 H        5.6390    10.7670     0.0150 H     1 <1>   0.0800 
 45 H        4.1810    10.8100    -0.9290 H     1 <1>   0.0800 
 46 H        5.8580     9.8160    -2.3250 H     1 <1>   0.0800 
 47 H        6.3910     8.7490    -1.0460 H     1 <1>   0.0800 
@<TRIPOS>BOND
  1   1   2  1   
  2   2   3  ar  
  3   2   4  ar  
  4   3   5  ar  
  5   3  27  1   
  6   4   6  ar  
  7   4  28  1   
  8   5   7  ar  
  9   5   8  1   
 10   6   7  ar  
 11   6  29  1   
 12   7   9  1   
 13   8  10  2   
 14   8  11  am  
 15  11  12  1   
 16  11  13  1   
 17  12  14  1   
 18  12  30  1   
 19  12  31  1   
 20  13  15  1   
 21  13  32  1   
 22  13  33  1   
 23  14  16  1   
 24  14  34  1   
 25  14  35  1   
 26  15  17  1   
 27  15  36  1   
 28  15  37  1   
 29  16  17  1   
 30  16  18  am  
 31  17  38  1   
 32  17  39  1   
 33  18  19  2   
 34  18  20  1   
 35  20  21  1   
 36  20  22  1   
 37  20  40  1   
 38  21  23  2   
 39  21  24  am  
 40  22  25  1   
 41  22  41  1   
 42  22  42  1   
 43  24  26  1   
 44  24  43  1   
 45  25  26  1   
 46  25  44  1   
 47  25  45  1   
 48  26  46  1   
 49  26  47  1   
@<TRIPOS>SUBSTRUCTURE
  1 ****  13 GROUP 4 **** **** 0

# MOE 2024.06 (io_trps.svl 2023.06)
