@<TRIPOS>MOLECULE
NONAME
50 52 1 0 0 
SMALL
USER_CHARGES


@<TRIPOS>ATOM
  1 S        0.3060     0.4020    -1.2000 S.o2  1 <1>   1.4470 
  2 O        1.1140     1.4830    -1.7270 O.2   1 <1>  -0.6500 
  3 O       -0.3260    -0.5030    -2.1380 O.2   1 <1>  -0.6500 
  4 N       -0.9240     1.1040    -0.2620 N.am  1 <1>  -0.8490 
  5 C        1.2700    -0.5540     0.0180 C.ar  1 <1>  -0.0090 
  6 C       -1.8980     0.1410     0.3030 C.3   1 <1>   0.1960 
  7 C       -1.5270     2.3000    -0.8420 C.3   1 <1>   0.1960 
  8 C        1.9740     0.0300     1.0760 C.ar  1 <1>  -0.1440 
  9 C        1.3010    -1.9420    -0.0900 C.ar  1 <1>  -0.1500 
 10 C       -3.3570     0.2640    -0.2260 C.3   1 <1>   0.0000 
 11 C       -2.5130     1.9540    -1.9690 C.3   1 <1>  -0.1600 
 12 C        2.6710    -0.7650     1.9740 C.ar  1 <1>  -0.1500 
 13 C        2.0070     1.5400     1.2830 C.3   1 <1>  -0.0970 
 14 C        1.9930    -2.7380     0.8050 C.ar  1 <1>  -0.1430 
 15 C       -4.2570     1.2270     0.5840 C.3   1 <1>   0.2000 
 16 C       -3.3250     0.6690    -1.7200 C.3   1 <1>  -0.1600 
 17 C       -4.1010    -1.0740    -0.0750 C.3   1 <1>  -0.1600 
 18 C        2.6820    -2.1400     1.8420 C.ar  1 <1>  -0.1500 
 19 C        1.9990    -4.2470     0.6480 C.3   1 <1>  -0.0970 
 20 O       -3.9990     1.0780     1.9510 O.3   1 <1>  -0.5600 
 21 C       -5.6910     0.7510     0.3200 C.3   1 <1>  -0.1600 
 22 C       -5.5960    -0.7370    -0.0380 C.3   1 <1>  -0.1600 
 23 C       -4.2940     2.1910     2.7330 C.3   1 <1>   0.0400 
 24 H       -1.5570    -0.8580     0.0920 H     1 <1>   0.0800 
 25 H       -1.8800     0.2340     1.3750 H     1 <1>   0.0800 
 26 H       -2.0450     2.8240    -0.0590 H     1 <1>   0.0800 
 27 H       -0.7650     2.9660    -1.2110 H     1 <1>   0.0800 
 28 H        0.7690    -2.4120    -0.9000 H     1 <1>   0.1500 
 29 H       -3.1830     2.7860    -2.0930 H     1 <1>   0.0800 
 30 H       -1.9680     1.8510    -2.8910 H     1 <1>   0.0800 
 31 H        3.2140    -0.3180     2.7880 H     1 <1>   0.1500 
 32 H        2.5800     1.8000     2.1550 H     1 <1>   0.0800 
 33 H        1.0110     1.9230     1.4170 H     1 <1>   0.0800 
 34 H        2.4570     2.0230     0.4350 H     1 <1>   0.0800 
 35 H       -4.1130     2.2560     0.3050 H     1 <1>   0.0800 
 36 H       -2.8610    -0.1290    -2.2730 H     1 <1>   0.0800 
 37 H       -4.3160     0.7840    -2.1200 H     1 <1>   0.0800 
 38 H       -3.8640    -1.7720    -0.8590 H     1 <1>   0.0800 
 39 H       -3.8350    -1.5190     0.8690 H     1 <1>   0.0800 
 40 H        3.2290    -2.7390     2.5490 H     1 <1>   0.1500 
 41 H        2.0880    -4.7250     1.6060 H     1 <1>   0.0800 
 42 H        2.8280    -4.5450     0.0310 H     1 <1>   0.0800 
 43 H        1.0860    -4.5820     0.1870 H     1 <1>   0.0800 
 44 H       -6.3330     0.9150     1.1660 H     1 <1>   0.0800 
 45 H       -6.0900     1.2900    -0.5210 H     1 <1>   0.0800 
 46 H       -6.0980    -1.3440     0.6960 H     1 <1>   0.0800 
 47 H       -6.0430    -0.9130    -1.0020 H     1 <1>   0.0800 
 48 H       -4.0910     1.9400     3.7590 H     1 <1>   0.0800 
 49 H       -5.3330     2.4460     2.6210 H     1 <1>   0.0800 
 50 H       -3.6660     3.0110     2.4310 H     1 <1>   0.0800 
@<TRIPOS>BOND
  1   1   2  2   
  2   1   3  2   
  3   1   4  am  
  4   1   5  1   
  5   4   6  1   
  6   4   7  1   
  7   5   8  ar  
  8   5   9  ar  
  9   6  10  1   
 10   6  24  1   
 11   6  25  1   
 12   7  11  1   
 13   7  26  1   
 14   7  27  1   
 15   8  12  ar  
 16   8  13  1   
 17   9  14  ar  
 18   9  28  1   
 19  10  15  1   
 20  10  16  1   
 21  10  17  1   
 22  11  16  1   
 23  11  29  1   
 24  11  30  1   
 25  12  18  ar  
 26  12  31  1   
 27  13  32  1   
 28  13  33  1   
 29  13  34  1   
 30  14  18  ar  
 31  14  19  1   
 32  15  20  1   
 33  15  21  1   
 34  15  35  1   
 35  16  36  1   
 36  16  37  1   
 37  17  22  1   
 38  17  38  1   
 39  17  39  1   
 40  18  40  1   
 41  19  41  1   
 42  19  42  1   
 43  19  43  1   
 44  20  23  1   
 45  21  22  1   
 46  21  44  1   
 47  21  45  1   
 48  22  46  1   
 49  22  47  1   
 50  23  48  1   
 51  23  49  1   
 52  23  50  1   
@<TRIPOS>SUBSTRUCTURE
  1 ****   6 GROUP 4 **** **** 0

# MOE 2024.06 (io_trps.svl 2023.06)
