@<TRIPOS>MOLECULE
NONAME
37 39 1 0 0 
SMALL
USER_CHARGES


@<TRIPOS>ATOM
  1 S        1.4860    -0.8100     1.6480 S.3   1 <1>  -0.0800 
  2 C        0.2730    -0.3400     0.4790 C.2   1 <1>   0.4620 
  3 C        1.3090    -2.4560     1.1240 C.2   1 <1>  -0.1100 
  4 N       -0.1970    -1.3060    -0.2080 N.2   1 <1>  -0.5650 
  5 N       -0.0730     0.9650     0.3800 N.pl3 1 <1>  -0.8840 
  6 C        0.3830    -2.5340     0.1410 C.2   1 <1>   0.1410 
  7 C       -0.0170    -3.7710    -0.5240 C.2   1 <1>   0.7160 
  8 O       -0.4860    -3.7910    -1.6470 O.2   1 <1>  -0.5700 
  9 N        0.1220    -4.9680     0.1230 N.am  1 <1>  -0.7300 
 10 C       -0.3280    -6.2700    -0.4190 C.3   1 <1>   0.2200 
 11 C       -1.7610    -6.5210     0.0220 C.3   1 <1>  -0.0800 
 12 C        0.4130    -7.4020     0.2810 C.3   1 <1>   0.1200 
 13 C       -1.5840    -7.1800     1.3970 C.3   1 <1>   0.1200 
 14 C       -2.5070    -7.4290    -0.9730 C.3   1 <1>  -0.0170 
 15 O       -0.2470    -7.5830     1.4950 O.3   1 <1>  -0.5600 
 16 C       -3.9550    -7.6290    -0.5560 C.ar  1 <1>  -0.1430 
 17 C       -4.4140    -8.8190    -0.0280 C.ar  1 <1>  -0.1500 
 18 C       -4.8890    -6.6210    -0.6870 C.ar  1 <1>  -0.1500 
 19 C       -5.7450    -8.9380     0.3380 C.ar  1 <1>   0.1600 
 20 C       -6.1970    -6.8420    -0.2900 C.ar  1 <1>   0.1600 
 21 N       -6.6470    -7.9760     0.2220 N.ar  1 <1>  -0.6200 
 22 H        1.9220    -3.1980     1.6010 H     1 <1>   0.1500 
 23 H        0.4260     1.7010     0.8790 H     1 <1>   0.4000 
 24 H       -0.7140     1.2500    -0.3620 H     1 <1>   0.4000 
 25 H        0.3320    -4.9830     1.1220 H     1 <1>   0.3700 
 26 H       -0.1980    -6.2950    -1.4880 H     1 <1>   0.0800 
 27 H       -2.3050    -5.5960     0.1110 H     1 <1>   0.0800 
 28 H        1.4490    -7.1760     0.4600 H     1 <1>   0.0800 
 29 H        0.3290    -8.3170    -0.2780 H     1 <1>   0.0800 
 30 H       -2.2140    -8.0420     1.5310 H     1 <1>   0.0800 
 31 H       -1.7720    -6.4760     2.1890 H     1 <1>   0.0800 
 32 H       -2.0140    -8.3820    -1.0520 H     1 <1>   0.0800 
 33 H       -2.4930    -6.9730    -1.9480 H     1 <1>   0.0800 
 34 H       -3.7530    -9.6560     0.1030 H     1 <1>   0.1500 
 35 H       -4.6110    -5.6650    -1.0940 H     1 <1>   0.1500 
 36 H       -6.0850    -9.8730     0.7480 H     1 <1>   0.1500 
 37 H       -6.9100    -6.0430    -0.3990 H     1 <1>   0.1500 
@<TRIPOS>BOND
  1   1   2  1   
  2   1   3  1   
  3   2   4  2   
  4   2   5  1   
  5   3   6  2   
  6   3  22  1   
  7   4   6  1   
  8   5  23  1   
  9   5  24  1   
 10   6   7  1   
 11   7   8  2   
 12   7   9  am  
 13   9  10  1   
 14   9  25  1   
 15  10  11  1   
 16  10  12  1   
 17  10  26  1   
 18  11  13  1   
 19  11  14  1   
 20  11  27  1   
 21  12  15  1   
 22  12  28  1   
 23  12  29  1   
 24  13  15  1   
 25  13  30  1   
 26  13  31  1   
 27  14  16  1   
 28  14  32  1   
 29  14  33  1   
 30  16  17  ar  
 31  16  18  ar  
 32  17  19  ar  
 33  17  34  1   
 34  18  20  ar  
 35  18  35  1   
 36  19  21  ar  
 37  19  36  1   
 38  20  21  ar  
 39  20  37  1   
@<TRIPOS>SUBSTRUCTURE
  1 ****  11 GROUP 4 **** **** 0

# MOE 2024.06 (io_trps.svl 2023.06)
