@<TRIPOS>MOLECULE
NONAME
52 55 1 0 0 
SMALL
USER_CHARGES


@<TRIPOS>ATOM
  1 O       -1.2730    -0.7800    -1.9230 O.2   1 <1>  -0.5700 
  2 C       -1.0400    -1.7670    -1.2370 C.2   1 <1>   0.5440 
  3 N       -1.7370    -2.9500    -1.4440 N.am  1 <1>  -0.2980 
  4 C       -0.0530    -1.7390    -0.1930 C.ar  1 <1>   0.0860 
  5 N       -1.5030    -4.0980    -0.7290 N.2   1 <1>  -0.5120 
  6 C       -2.7840    -3.0450    -2.5130 C.3   1 <1>   0.2010 
  7 C        0.1610    -2.9130     0.5460 C.ar  1 <1>   0.0860 
  8 C        0.6900    -0.5920     0.1080 C.ar  1 <1>  -0.1500 
  9 C       -0.6190    -4.0730     0.2010 C.2   1 <1>   0.3030 
 10 C       -4.1640    -3.4560    -1.9950 C.2   1 <1>   0.5690 
 11 C        1.1180    -2.8850     1.5720 C.ar  1 <1>  -0.1500 
 12 C        1.6250    -0.5910     1.1190 C.ar  1 <1>  -0.1500 
 13 C       -0.4080    -5.3680     0.9660 C.3   1 <1>  -0.1790 
 14 O       -4.6190    -4.4960    -2.4200 O.2   1 <1>  -0.5700 
 15 N       -4.8880    -2.6700    -1.1240 N.am  1 <1>  -0.6600 
 16 C        1.8390    -1.7460     1.8550 C.ar  1 <1>  -0.1500 
 17 C       -4.4990    -1.3050    -0.6750 C.3   1 <1>   0.1400 
 18 C       -6.1240    -3.1820    -0.4680 C.3   1 <1>   0.1400 
 19 C       -5.6480    -0.3320    -0.9440 C.3   1 <1>  -0.1600 
 20 C       -7.2850    -2.2210    -0.7310 C.3   1 <1>  -0.1600 
 21 C       -6.9520    -0.7960    -0.2830 C.3   1 <1>   0.4180 
 22 O       -6.7780    -0.8510     1.1130 O.3   1 <1>  -0.5600 
 23 C       -8.1070     0.1380    -0.6370 C.2   1 <1>  -0.2880 
 24 C       -6.8790     0.3510     1.8240 C.3   1 <1>   0.1200 
 25 C       -8.7360     0.9210     0.2440 C.2   1 <1>  -0.2760 
 26 C       -8.2910     0.9380     1.6950 C.3   1 <1>  -0.0220 
 27 C       -9.9100     1.8230    -0.0910 C.3   1 <1>  -0.1020 
 28 H       -2.4610    -3.7830    -3.2230 H     1 <1>   0.0800 
 29 H       -2.8830    -2.1150    -3.0390 H     1 <1>   0.0800 
 30 H        0.5220     0.3040    -0.4660 H     1 <1>   0.1500 
 31 H        1.3050    -3.7660     2.1590 H     1 <1>   0.1500 
 32 H        2.1900     0.3000     1.3390 H     1 <1>   0.1500 
 33 H       -0.6320    -5.2240     2.0070 H     1 <1>   0.0800 
 34 H        0.6070    -5.7020     0.8550 H     1 <1>   0.0800 
 35 H       -1.0590    -6.1360     0.5850 H     1 <1>   0.0800 
 36 H        2.5710    -1.7440     2.6460 H     1 <1>   0.1500 
 37 H       -3.6300    -0.9560    -1.1970 H     1 <1>   0.0800 
 38 H       -4.2740    -1.3310     0.3780 H     1 <1>   0.0800 
 39 H       -5.9490    -3.2620     0.5920 H     1 <1>   0.0800 
 40 H       -6.3760    -4.1620    -0.8360 H     1 <1>   0.0800 
 41 H       -5.7970    -0.2680    -2.0060 H     1 <1>   0.0800 
 42 H       -5.3870     0.6510    -0.6030 H     1 <1>   0.0800 
 43 H       -8.1630    -2.5590    -0.2120 H     1 <1>   0.0800 
 44 H       -7.5030    -2.2300    -1.7830 H     1 <1>   0.0800 
 45 H       -8.3700     0.0960    -1.6780 H     1 <1>   0.1500 
 46 H       -6.1480     1.0400     1.4420 H     1 <1>   0.0800 
 47 H       -6.6540     0.1430     2.8540 H     1 <1>   0.0800 
 48 H       -8.2780     1.9450     2.0690 H     1 <1>   0.0800 
 49 H       -8.9780     0.3650     2.2920 H     1 <1>   0.0800 
 50 H      -10.7670     1.5460     0.4960 H     1 <1>   0.0800 
 51 H      -10.1660     1.7370    -1.1320 H     1 <1>   0.0800 
 52 H       -9.6620     2.8490     0.1160 H     1 <1>   0.0800 
@<TRIPOS>BOND
  1   1   2  2   
  2   2   3  am  
  3   2   4  1   
  4   3   5  1   
  5   3   6  1   
  6   4   7  ar  
  7   4   8  ar  
  8   5   9  2   
  9   6  10  1   
 10   6  28  1   
 11   6  29  1   
 12   7   9  1   
 13   7  11  ar  
 14   8  12  ar  
 15   8  30  1   
 16   9  13  1   
 17  10  14  2   
 18  10  15  am  
 19  11  16  ar  
 20  11  31  1   
 21  12  16  ar  
 22  12  32  1   
 23  13  33  1   
 24  13  34  1   
 25  13  35  1   
 26  15  17  1   
 27  15  18  1   
 28  16  36  1   
 29  17  19  1   
 30  17  37  1   
 31  17  38  1   
 32  18  20  1   
 33  18  39  1   
 34  18  40  1   
 35  19  21  1   
 36  19  41  1   
 37  19  42  1   
 38  20  21  1   
 39  20  43  1   
 40  20  44  1   
 41  21  22  1   
 42  21  23  1   
 43  22  24  1   
 44  23  25  2   
 45  23  45  1   
 46  24  26  1   
 47  24  46  1   
 48  24  47  1   
 49  25  26  1   
 50  25  27  1   
 51  26  48  1   
 52  26  49  1   
 53  27  50  1   
 54  27  51  1   
 55  27  52  1   
@<TRIPOS>SUBSTRUCTURE
  1 ****  17 GROUP 4 **** **** 0

# MOE 2024.06 (io_trps.svl 2023.06)
