@<TRIPOS>MOLECULE
NONAME
45 48 1 0 0 
SMALL
USER_CHARGES


@<TRIPOS>ATOM
  1 O       -3.4040     0.9590    -2.0640 O.2   1 <1>  -0.5700 
  2 C       -2.7470     1.0080    -1.0520 C.2   1 <1>   0.5770 
  3 N       -2.3570    -0.1280    -0.4180 N.am  1 <1>  -0.7300 
  4 C       -2.3770     2.3710    -0.4770 C.3   1 <1>   0.0530 
  5 C       -2.7030    -1.4940    -0.8650 C.3   1 <1>   0.2200 
  6 C       -0.8990     2.5480    -0.0350 C.3   1 <1>   0.0000 
  7 C       -2.7700     2.5970     1.0080 C.3   1 <1>   0.0000 
  8 C       -3.9750    -1.9340    -0.1620 C.3   1 <1>  -0.0800 
  9 C       -1.6860    -2.4930    -0.3270 C.3   1 <1>   0.1200 
 10 C       -1.4400     3.3820     1.1560 C.3   1 <1>   0.0000 
 11 C       -3.4430    -2.4800     1.1670 C.3   1 <1>   0.1200 
 12 C       -4.7280    -3.0030    -0.9780 C.3   1 <1>  -0.0170 
 13 O       -2.0930    -2.7960     0.9740 O.3   1 <1>  -0.5600 
 14 C       -6.0660    -3.3560    -0.3350 C.ar  1 <1>  -0.1440 
 15 C       -7.1900    -2.4990    -0.4100 C.ar  1 <1>   0.0000 
 16 C       -6.2120    -4.5310     0.3430 C.ar  1 <1>  -0.1500 
 17 C       -8.3780    -2.9160     0.2390 C.ar  1 <1>   0.3100 
 18 C       -7.2080    -1.2590    -1.0910 C.ar  1 <1>  -0.1500 
 19 C       -7.4360    -4.8500     0.9440 C.ar  1 <1>   0.1600 
 20 N       -8.4840    -4.0900     0.9100 N.ar  1 <1>  -0.6200 
 21 C       -9.5070    -2.0820     0.1910 C.ar  1 <1>  -0.1500 
 22 C       -8.3260    -0.4710    -1.1190 C.ar  1 <1>  -0.1500 
 23 C       -9.4910    -0.8840    -0.4700 C.ar  1 <1>  -0.1500 
 24 H       -1.8670    -0.0850     0.4780 H     1 <1>   0.3700 
 25 H       -2.7020     3.1900    -1.0990 H     1 <1>   0.0000 
 26 H       -2.7770    -1.5230    -1.9400 H     1 <1>   0.0800 
 27 H       -0.4260     1.6370     0.2880 H     1 <1>   0.0000 
 28 H       -0.3040     3.1170    -0.7270 H     1 <1>   0.0000 
 29 H       -3.6480     3.2040     1.1380 H     1 <1>   0.0000 
 30 H       -2.7800     1.6960     1.5970 H     1 <1>   0.0000 
 31 H       -4.6290    -1.0980     0.0100 H     1 <1>   0.0800 
 32 H       -0.6850    -2.1010    -0.3130 H     1 <1>   0.0800 
 33 H       -1.7120    -3.4050    -0.8960 H     1 <1>   0.0800 
 34 H       -1.5450     4.4270     0.9170 H     1 <1>   0.0000 
 35 H       -0.9270     3.2000     2.0840 H     1 <1>   0.0000 
 36 H       -3.9640    -3.3600     1.5000 H     1 <1>   0.0800 
 37 H       -3.4920    -1.7260     1.9330 H     1 <1>   0.0800 
 38 H       -4.1230    -3.8890    -1.0630 H     1 <1>   0.0800 
 39 H       -4.9040    -2.6480    -1.9780 H     1 <1>   0.0800 
 40 H       -5.4050    -5.2340     0.4360 H     1 <1>   0.1500 
 41 H       -6.3260    -0.9180    -1.6020 H     1 <1>   0.1500 
 42 H       -7.5080    -5.7870     1.4700 H     1 <1>   0.1500 
 43 H      -10.3920    -2.4220     0.6960 H     1 <1>   0.1500 
 44 H       -8.3220     0.4720    -1.6400 H     1 <1>   0.1500 
 45 H      -10.3640    -0.2550    -0.4980 H     1 <1>   0.1500 
@<TRIPOS>BOND
  1   1   2  2   
  2   2   3  am  
  3   2   4  1   
  4   3   5  1   
  5   3  24  1   
  6   4   6  1   
  7   4   7  1   
  8   4  25  1   
  9   5   8  1   
 10   5   9  1   
 11   5  26  1   
 12   6  10  1   
 13   6  27  1   
 14   6  28  1   
 15   7  10  1   
 16   7  29  1   
 17   7  30  1   
 18   8  11  1   
 19   8  12  1   
 20   8  31  1   
 21   9  13  1   
 22   9  32  1   
 23   9  33  1   
 24  10  34  1   
 25  10  35  1   
 26  11  13  1   
 27  11  36  1   
 28  11  37  1   
 29  12  14  1   
 30  12  38  1   
 31  12  39  1   
 32  14  15  ar  
 33  14  16  ar  
 34  15  17  ar  
 35  15  18  ar  
 36  16  19  ar  
 37  16  40  1   
 38  17  20  ar  
 39  17  21  ar  
 40  18  22  ar  
 41  18  41  1   
 42  19  20  ar  
 43  19  42  1   
 44  21  23  ar  
 45  21  43  1   
 46  22  23  ar  
 47  22  44  1   
 48  23  45  1   
@<TRIPOS>SUBSTRUCTURE
  1 ****   8 GROUP 4 **** **** 0

# MOE 2024.06 (io_trps.svl 2023.06)
