@<TRIPOS>MOLECULE
NONAME
42 43 1 0 0 
SMALL
USER_CHARGES


@<TRIPOS>ATOM
  1 F       -2.3930    -1.7630     0.4720 F     1 <1>  -0.1900 
  2 C       -2.5850    -0.4770     0.3260 C.ar  1 <1>   0.1900 
  3 C       -3.3810    -0.0360    -0.7170 C.ar  1 <1>  -0.1440 
  4 C       -1.9890     0.3850     1.2260 C.ar  1 <1>  -0.1500 
  5 C       -3.5750     1.3310    -0.8530 C.ar  1 <1>  -0.1500 
  6 C       -4.0160    -1.0220    -1.6740 C.3   1 <1>   0.4870 
  7 C       -2.1960     1.7460     1.0810 C.ar  1 <1>  -0.1500 
  8 C       -2.9920     2.2210     0.0380 C.ar  1 <1>   0.0830 
  9 N       -5.1310    -1.7290    -0.9970 N.4   1 <1>  -0.9590 
 10 O       -3.2470     3.5340    -0.1780 O.3   1 <1>  -0.3630 
 11 C       -5.6280    -2.8820    -1.7960 C.3   1 <1>   0.5240 
 12 C       -6.2100    -0.8120    -0.5020 C.3   1 <1>   0.3430 
 13 C       -2.6930     4.5370     0.6460 C.3   1 <1>   0.0400 
 14 C       -5.8880    -4.0290    -0.8310 C.2   1 <1>   0.0460 
 15 C       -7.1030    -1.4480     0.5740 C.3   1 <1>   0.1200 
 16 N       -5.1450    -4.1450     0.2910 N.2   1 <1>  -0.5650 
 17 C       -6.8110    -5.0140    -0.8970 C.2   1 <1>  -0.3020 
 18 O       -8.0450    -0.5060     0.9520 O.3   1 <1>  -0.6800 
 19 C       -5.6170    -5.1980     0.8730 C.2   1 <1>   0.0060 
 20 N       -6.6360    -5.7750     0.2000 N.pl3 1 <1>   0.0330 
 21 C       -5.0880    -5.7470     2.1820 C.3   1 <1>  -0.0600 
 22 H       -1.3780    -0.0020     2.0230 H     1 <1>   0.1500 
 23 H       -4.1790     1.7360    -1.6470 H     1 <1>   0.1500 
 24 H       -3.2670    -1.7340    -1.9870 H     1 <1>   0.0800 
 25 H       -4.3790    -0.5020    -2.5450 H     1 <1>   0.0800 
 26 H       -1.7340     2.4170     1.7810 H     1 <1>   0.1500 
 27 H       -4.7210    -2.2070    -0.1680 H     1 <1>   0.4500 
 28 H       -4.8710    -3.2000    -2.4940 H     1 <1>   0.0800 
 29 H       -6.5230    -2.6260    -2.3390 H     1 <1>   0.0800 
 30 H       -6.8270    -0.4950    -1.3260 H     1 <1>   0.0800 
 31 H       -5.7610     0.0640    -0.0630 H     1 <1>   0.0800 
 32 H       -3.0260     5.4920     0.2800 H     1 <1>   0.0800 
 33 H       -1.6200     4.4810     0.5930 H     1 <1>   0.0800 
 34 H       -3.0380     4.3930     1.6550 H     1 <1>   0.0800 
 35 H       -6.5250    -1.7150     1.4430 H     1 <1>   0.0800 
 36 H       -7.6310    -2.3060     0.1990 H     1 <1>   0.0800 
 37 H       -7.5630    -5.2260    -1.6380 H     1 <1>   0.1500 
 38 H       -8.6060    -0.8360     1.6860 H     1 <1>   0.4000 
 39 H       -7.1520    -6.6190     0.4710 H     1 <1>   0.2700 
 40 H       -4.2770    -5.1350     2.5360 H     1 <1>   0.0800 
 41 H       -4.7230    -6.7480     2.0420 H     1 <1>   0.0800 
 42 H       -5.8640    -5.7520     2.9250 H     1 <1>   0.0800 
@<TRIPOS>BOND
  1   1   2  1   
  2   2   3  ar  
  3   2   4  ar  
  4   3   5  ar  
  5   3   6  1   
  6   4   7  ar  
  7   4  22  1   
  8   5   8  ar  
  9   5  23  1   
 10   6   9  1   
 11   6  24  1   
 12   6  25  1   
 13   7   8  ar  
 14   7  26  1   
 15   8  10  1   
 16   9  11  1   
 17   9  12  1   
 18   9  27  1   
 19  10  13  1   
 20  11  14  1   
 21  11  28  1   
 22  11  29  1   
 23  12  15  1   
 24  12  30  1   
 25  12  31  1   
 26  13  32  1   
 27  13  33  1   
 28  13  34  1   
 29  14  16  1   
 30  14  17  2   
 31  15  18  1   
 32  15  35  1   
 33  15  36  1   
 34  16  19  2   
 35  17  20  1   
 36  17  37  1   
 37  18  38  1   
 38  19  20  1   
 39  19  21  1   
 40  20  39  1   
 41  21  40  1   
 42  21  41  1   
 43  21  42  1   
@<TRIPOS>SUBSTRUCTURE
  1 ****   9 GROUP 4 **** **** 0

# MOE 2024.06 (io_trps.svl 2023.06)
