@<TRIPOS>MOLECULE
NONAME
39 41 1 0 0 
SMALL
USER_CHARGES


@<TRIPOS>ATOM
  1 O       -0.5550    -0.1570     0.4760 O.3   1 <1>  -0.3630 
  2 C       -1.7090    -0.8260     0.1830 C.ar  1 <1>   0.0820 
  3 C       -0.4700     1.2380     0.2790 C.3   1 <1>   0.0400 
  4 C       -2.8700    -0.2420    -0.2920 C.ar  1 <1>   0.1600 
  5 C       -1.7450    -2.1900     0.3660 C.ar  1 <1>   0.1600 
  6 N       -3.9510    -0.9390    -0.5570 N.ar  1 <1>  -0.6200 
  7 N       -2.8110    -2.9150     0.1100 N.ar  1 <1>  -0.6200 
  8 C       -3.8700    -2.2520    -0.3490 C.ar  1 <1>   0.7200 
  9 N       -4.9920    -2.9960    -0.6340 N.pl3 1 <1>  -0.8380 
 10 C       -6.3470    -2.4050    -0.7970 C.3   1 <1>   0.2090 
 11 C       -5.1010    -4.4440    -0.3200 C.3   1 <1>   0.2090 
 12 C       -7.2760    -3.4050    -0.1090 C.3   1 <1>   0.2000 
 13 C       -6.6010    -4.7560    -0.3690 C.3   1 <1>  -0.0800 
 14 O       -7.2610    -3.1390     1.2530 O.3   1 <1>  -0.6800 
 15 C       -7.0300    -5.8980     0.5700 C.3   1 <1>  -0.0170 
 16 C       -6.3500    -7.2040     0.1880 C.ar  1 <1>  -0.1430 
 17 C       -6.8350    -8.0060    -0.8260 C.ar  1 <1>  -0.1500 
 18 C       -5.2140    -7.6540     0.8300 C.ar  1 <1>  -0.1500 
 19 C       -6.1780    -9.1840    -1.1400 C.ar  1 <1>   0.1600 
 20 C       -4.6330    -8.8480     0.4370 C.ar  1 <1>   0.1600 
 21 N       -5.0870    -9.6240    -0.5330 N.ar  1 <1>  -0.6200 
 22 H        0.5190     1.5550     0.5600 H     1 <1>   0.0800 
 23 H       -1.1990     1.7270     0.9010 H     1 <1>   0.0800 
 24 H       -0.6390     1.4570    -0.7610 H     1 <1>   0.0800 
 25 H       -2.9200     0.8170    -0.4590 H     1 <1>   0.1500 
 26 H       -0.8660    -2.6890     0.7330 H     1 <1>   0.1500 
 27 H       -6.4310    -1.4260    -0.3580 H     1 <1>   0.0800 
 28 H       -6.5750    -2.3470    -1.8470 H     1 <1>   0.0800 
 29 H       -4.5520    -5.0310    -1.0370 H     1 <1>   0.0800 
 30 H       -4.7080    -4.6280     0.6660 H     1 <1>   0.0800 
 31 H       -8.2920    -3.3550    -0.4600 H     1 <1>   0.0800 
 32 H       -6.8300    -5.0450    -1.3790 H     1 <1>   0.0800 
 33 H       -6.3350    -2.9450     1.5090 H     1 <1>   0.4000 
 34 H       -8.0980    -6.0230     0.5160 H     1 <1>   0.0800 
 35 H       -6.7880    -5.6560     1.5900 H     1 <1>   0.0800 
 36 H       -7.7160    -7.7270    -1.3730 H     1 <1>   0.1500 
 37 H       -4.7750    -7.0890     1.6310 H     1 <1>   0.1500 
 38 H       -6.5700    -9.7980    -1.9330 H     1 <1>   0.1500 
 39 H       -3.7470    -9.1820     0.9490 H     1 <1>   0.1500 
@<TRIPOS>BOND
  1   1   2  1   
  2   1   3  1   
  3   2   4  ar  
  4   2   5  ar  
  5   3  22  1   
  6   3  23  1   
  7   3  24  1   
  8   4   6  ar  
  9   4  25  1   
 10   5   7  ar  
 11   5  26  1   
 12   6   8  ar  
 13   7   8  ar  
 14   8   9  1   
 15   9  10  1   
 16   9  11  1   
 17  10  12  1   
 18  10  27  1   
 19  10  28  1   
 20  11  13  1   
 21  11  29  1   
 22  11  30  1   
 23  12  13  1   
 24  12  14  1   
 25  12  31  1   
 26  13  15  1   
 27  13  32  1   
 28  14  33  1   
 29  15  16  1   
 30  15  34  1   
 31  15  35  1   
 32  16  17  ar  
 33  16  18  ar  
 34  17  19  ar  
 35  17  36  1   
 36  18  20  ar  
 37  18  37  1   
 38  19  21  ar  
 39  19  38  1   
 40  20  21  ar  
 41  20  39  1   
@<TRIPOS>SUBSTRUCTURE
  1 ****  11 GROUP 4 **** **** 0

# MOE 2024.06 (io_trps.svl 2023.06)
