@<TRIPOS>MOLECULE
NONAME
39 41 1 0 0 
SMALL
USER_CHARGES


@<TRIPOS>ATOM
  1 S       -1.9480    -2.0270     1.8970 S.3   1 <1>  -0.0800 
  2 C       -2.7600    -1.8150     0.3680 C.2   1 <1>  -0.1400 
  3 C       -3.3710    -1.4220     2.7080 C.2   1 <1>   0.2280 
  4 C       -3.9780    -1.2960     0.5930 C.2   1 <1>   0.0460 
  5 C       -2.0200    -2.2570    -0.8820 C.3   1 <1>   0.0200 
  6 N       -4.3330    -1.1350     1.9210 N.2   1 <1>  -0.5650 
  7 C       -5.0190    -0.8980    -0.4350 C.3   1 <1>  -0.0590 
  8 C       -2.5650    -3.6010    -1.3930 C.3   1 <1>   0.2090 
  9 N       -2.4800    -4.6850    -0.3590 N.pl3 1 <1>  -0.8380 
 10 C       -3.5860    -5.1660     0.2920 C.ar  1 <1>   0.7710 
 11 C       -1.2460    -5.5250    -0.4530 C.3   1 <1>   0.1290 
 12 N       -4.3380    -4.2650     0.9830 N.ar  1 <1>  -0.1790 
 13 N       -3.8840    -6.4380     0.2490 N.ar  1 <1>  -0.5670 
 14 C       -5.4540    -4.5720     1.6440 C.ar  1 <1>   0.4610 
 15 C       -5.0160    -6.7990     0.9090 C.ar  1 <1>   0.1050 
 16 N       -6.1300    -3.6070     2.2870 N.pl3 1 <1>  -0.9000 
 17 C       -5.8190    -5.9220     1.6010 C.ar  1 <1>   0.0000 
 18 N       -5.5850    -8.0240     1.0300 N.pl3 1 <1>   0.3140 
 19 C       -6.8510    -6.7280     2.1030 C.2   1 <1>   0.1390 
 20 N       -6.7200    -7.9670     1.7710 N.2   1 <1>  -0.7070 
 21 C       -5.1090    -9.2960     0.4680 C.3   1 <1>   0.0160 
 22 H       -3.3340    -1.3530     3.7830 H     1 <1>   0.1500 
 23 H       -0.9650    -2.3380    -0.6860 H     1 <1>   0.0800 
 24 H       -2.1470    -1.5140    -1.6500 H     1 <1>   0.0800 
 25 H       -4.6540    -1.0480    -1.4350 H     1 <1>   0.0800 
 26 H       -5.2580     0.1440    -0.3140 H     1 <1>   0.0800 
 27 H       -5.9180    -1.4710    -0.2990 H     1 <1>   0.0800 
 28 H       -2.0110    -3.8960    -2.2700 H     1 <1>   0.0800 
 29 H       -3.5910    -3.4740    -1.6970 H     1 <1>   0.0800 
 30 H       -0.3690    -4.9040    -0.3880 H     1 <1>   0.0800 
 31 H       -1.2320    -6.0590    -1.3880 H     1 <1>   0.0800 
 32 H       -1.2140    -6.2420     0.3520 H     1 <1>   0.0800 
 33 H       -3.9650    -3.3200     1.0210 H     1 <1>   0.4570 
 34 H       -6.9940    -3.7760     2.8160 H     1 <1>   0.4000 
 35 H       -5.8460    -2.6110     2.3150 H     1 <1>   0.4000 
 36 H       -7.6680    -6.3600     2.7020 H     1 <1>   0.1500 
 37 H       -4.2240    -9.1290    -0.1180 H     1 <1>   0.0800 
 38 H       -5.8800    -9.7150    -0.1510 H     1 <1>   0.0800 
 39 H       -4.8900    -9.9740     1.2720 H     1 <1>   0.0800 
@<TRIPOS>BOND
  1   1   2  1   
  2   1   3  1   
  3   2   4  2   
  4   2   5  1   
  5   3   6  2   
  6   3  22  1   
  7   4   6  1   
  8   4   7  1   
  9   5   8  1   
 10   5  23  1   
 11   5  24  1   
 12   7  25  1   
 13   7  26  1   
 14   7  27  1   
 15   8   9  1   
 16   8  28  1   
 17   8  29  1   
 18   9  10  1   
 19   9  11  1   
 20  10  12  ar  
 21  10  13  ar  
 22  11  30  1   
 23  11  31  1   
 24  11  32  1   
 25  12  14  ar  
 26  12  33  1   
 27  13  15  ar  
 28  14  16  1   
 29  14  17  ar  
 30  15  17  ar  
 31  15  18  1   
 32  16  34  1   
 33  16  35  1   
 34  17  19  1   
 35  18  20  1   
 36  18  21  1   
 37  19  20  2   
 38  19  36  1   
 39  21  37  1   
 40  21  38  1   
 41  21  39  1   
@<TRIPOS>SUBSTRUCTURE
  1 ****  12 GROUP 4 **** **** 0

# MOE 2024.06 (io_trps.svl 2023.06)
