@<TRIPOS>MOLECULE
NONAME
41 43 1 0 0 
SMALL
USER_CHARGES


@<TRIPOS>ATOM
  1 O       -1.7090     2.5040     1.5870 O.2   1 <1>  -0.5700 
  2 C       -1.4160     2.3940     0.4070 C.2   1 <1>   0.5440 
  3 N       -0.1070     2.5460     0.0060 N.am  1 <1>  -0.4200 
  4 C       -2.4020     2.1070    -0.5970 C.ar  1 <1>   0.0860 
  5 C        0.2110     2.4210    -1.3250 C.2   1 <1>   0.4500 
  6 C        0.9600     2.8520     0.9900 C.3   1 <1>   0.1400 
  7 C       -1.9590     2.0000    -1.9220 C.ar  1 <1>   0.1790 
  8 C       -3.7610     1.9310    -0.3230 C.ar  1 <1>  -0.1500 
  9 N       -0.6290     2.1650    -2.2540 N.2   1 <1>  -0.6290 
 10 C        1.0950     4.3690     1.1550 C.3   1 <1>  -0.1600 
 11 C       -2.8780     1.7220    -2.9290 C.ar  1 <1>  -0.1500 
 12 C       -4.6600     1.6570    -1.3320 C.ar  1 <1>  -0.1500 
 13 C        2.2120     4.7290     2.1490 C.3   1 <1>  -0.0990 
 14 C       -4.2160     1.5510    -2.6430 C.ar  1 <1>  -0.1500 
 15 C        2.3500     6.2280     2.3290 C.2   1 <1>   0.5690 
 16 O        2.0100     6.7360     3.3660 O.2   1 <1>  -0.5700 
 17 N        2.8500     6.9590     1.3100 N.am  1 <1>  -0.7300 
 18 C        2.9160     8.4420     1.3010 C.3   1 <1>   0.3210 
 19 C        3.0200     8.9890    -0.1220 C.2   1 <1>   0.3350 
 20 N        3.1480     8.2830    -1.1790 N.2   1 <1>  -0.4100 
 21 N        2.9860    10.2930    -0.3640 N.2   1 <1>  -0.5650 
 22 O        3.2030     9.1040    -2.1830 O.3   1 <1>  -0.0190 
 23 C        3.1000    10.2860    -1.6300 C.2   1 <1>   0.2980 
 24 C        3.1260    11.5100    -2.5160 C.3   1 <1>  -0.0600 
 25 H        1.2480     2.5530    -1.5790 H     1 <1>   0.0600 
 26 H        1.8910     2.4320     0.6500 H     1 <1>   0.0800 
 27 H        0.7200     2.3990     1.9380 H     1 <1>   0.0800 
 28 H       -4.1010     2.0140     0.6960 H     1 <1>   0.1500 
 29 H        0.1630     4.7680     1.5220 H     1 <1>   0.0800 
 30 H        1.3050     4.8180     0.2000 H     1 <1>   0.0800 
 31 H       -2.5220     1.6430    -3.9400 H     1 <1>   0.1500 
 32 H       -5.7050     1.5240    -1.1080 H     1 <1>   0.1500 
 33 H        3.1540     4.3370     1.8110 H     1 <1>   0.0800 
 34 H        1.9960     4.2930     3.1080 H     1 <1>   0.0800 
 35 H       -4.9170     1.3370    -3.4320 H     1 <1>   0.1500 
 36 H        3.0820     6.5350     0.4080 H     1 <1>   0.3700 
 37 H        3.7740     8.7620     1.8640 H     1 <1>   0.0800 
 38 H        2.0350     8.8440     1.7700 H     1 <1>   0.0800 
 39 H        3.0320    12.3980    -1.9180 H     1 <1>   0.0800 
 40 H        2.3100    11.4690    -3.2140 H     1 <1>   0.0800 
 41 H        4.0530    11.5470    -3.0570 H     1 <1>   0.0800 
@<TRIPOS>BOND
  1   1   2  2   
  2   2   3  am  
  3   2   4  1   
  4   3   5  1   
  5   3   6  1   
  6   4   7  ar  
  7   4   8  ar  
  8   5   9  2   
  9   5  25  1   
 10   6  10  1   
 11   6  26  1   
 12   6  27  1   
 13   7   9  1   
 14   7  11  ar  
 15   8  12  ar  
 16   8  28  1   
 17  10  13  1   
 18  10  29  1   
 19  10  30  1   
 20  11  14  ar  
 21  11  31  1   
 22  12  14  ar  
 23  12  32  1   
 24  13  15  1   
 25  13  33  1   
 26  13  34  1   
 27  14  35  1   
 28  15  16  2   
 29  15  17  am  
 30  17  18  1   
 31  17  36  1   
 32  18  19  1   
 33  18  37  1   
 34  18  38  1   
 35  19  20  2   
 36  19  21  1   
 37  20  22  1   
 38  21  23  2   
 39  22  23  1   
 40  23  24  1   
 41  24  39  1   
 42  24  40  1   
 43  24  41  1   
@<TRIPOS>SUBSTRUCTURE
  1 ****  10 GROUP 4 **** **** 0

# MOE 2024.06 (io_trps.svl 2023.06)
