@<TRIPOS>MOLECULE
NONAME
55 57 1 0 0 
SMALL
USER_CHARGES


@<TRIPOS>ATOM
  1 O        0.5360    -0.3480     0.5320 O.3   1 <1>  -0.5600 
  2 C        0.5080     0.8820     1.1980 C.3   1 <1>   0.2950 
  3 C        1.8090    -0.8650     0.2750 C.3   1 <1>   0.2000 
  4 C       -0.9670     1.2270     1.4500 C.3   1 <1>  -0.1950 
  5 C        1.2530     1.9440     0.3540 C.3   1 <1>   0.3430 
  6 C        2.6000     0.1120    -0.6280 C.3   1 <1>   0.3430 
  7 C        1.6080    -2.2370    -0.3790 C.3   1 <1>  -0.1600 
  8 C       -1.8690     1.8190     0.4110 C.3   1 <1>  -0.2000 
  9 C       -1.4660     2.6310     1.6110 C.3   1 <1>  -0.2000 
 10 N        2.6320     1.4970    -0.0550 N.4   1 <1>  -0.9590 
 11 C        2.9310    -2.9800    -0.6270 C.3   1 <1>  -0.1600 
 12 C        3.2760     2.4640    -0.9760 C.3   1 <1>   0.4860 
 13 C        2.6710    -4.3720    -1.2150 C.3   1 <1>  -0.1600 
 14 C        3.3030     3.8560    -0.3500 C.ar  1 <1>  -0.1430 
 15 C        3.9850    -5.1170    -1.4670 C.3   1 <1>  -0.2400 
 16 C        2.7300     4.8950    -1.0650 C.ar  1 <1>   0.0830 
 17 C        3.8610     4.1860     0.8860 C.ar  1 <1>  -0.1430 
 18 O        2.1650     4.6290    -2.2620 O.3   1 <1>  -0.5330 
 19 C        2.7360     6.1900    -0.5500 C.ar  1 <1>   0.1670 
 20 C        3.8070     5.5130     1.2950 C.ar  1 <1>   0.1600 
 21 C        4.5140     3.2260     1.8820 C.3   1 <1>   0.2630 
 22 N        3.2640     6.5050     0.6150 N.ar  1 <1>  -0.6200 
 23 C        2.1170     7.3460    -1.3180 C.3   1 <1>  -0.0970 
 24 O        5.0710     2.1300     1.2420 O.3   1 <1>  -0.6800 
 25 H        1.0000     0.7630     2.1470 H     1 <1>   0.0800 
 26 H        2.3160    -0.9950     1.2160 H     1 <1>   0.0800 
 27 H       -1.4130     0.4940     2.1020 H     1 <1>   0.1000 
 28 H        1.3150     2.8600     0.9180 H     1 <1>   0.0800 
 29 H        0.6660     2.1440    -0.5260 H     1 <1>   0.0800 
 30 H        2.1270     0.1280    -1.5960 H     1 <1>   0.0800 
 31 H        3.6040    -0.2560    -0.7540 H     1 <1>   0.0800 
 32 H        0.9950    -2.8350     0.2740 H     1 <1>   0.0800 
 33 H        1.0820    -2.1170    -1.3100 H     1 <1>   0.0800 
 34 H       -1.4820     2.0870    -0.5560 H     1 <1>   0.1000 
 35 H       -2.8810     1.4530     0.3500 H     1 <1>   0.1000 
 36 H       -2.2130     2.8280     2.3640 H     1 <1>   0.1000 
 37 H       -0.8280     3.4820     1.4490 H     1 <1>   0.1000 
 38 H        3.2600     1.4900     0.7680 H     1 <1>   0.4500 
 39 H        3.5500    -2.4280    -1.3130 H     1 <1>   0.0800 
 40 H        3.4660    -3.0880     0.3020 H     1 <1>   0.0800 
 41 H        4.2880     2.1540    -1.1810 H     1 <1>   0.0800 
 42 H        2.7400     2.4850    -1.9090 H     1 <1>   0.0800 
 43 H        2.0660    -4.9470    -0.5340 H     1 <1>   0.0800 
 44 H        2.1330    -4.2830    -2.1430 H     1 <1>   0.0800 
 45 H        4.5310    -5.2430    -0.5480 H     1 <1>   0.0800 
 46 H        4.5990    -4.5790    -2.1660 H     1 <1>   0.0800 
 47 H        3.7800    -6.0920    -1.8750 H     1 <1>   0.0800 
 48 H        1.8380     5.4300    -2.7200 H     1 <1>   0.4500 
 49 H        4.2330     5.7860     2.2470 H     1 <1>   0.1500 
 50 H        3.7760     2.8640     2.5780 H     1 <1>   0.0800 
 51 H        5.2960     3.7160     2.4400 H     1 <1>   0.0800 
 52 H        1.0820     7.1460    -1.5240 H     1 <1>   0.0800 
 53 H        2.6480     7.5040    -2.2390 H     1 <1>   0.0800 
 54 H        2.1740     8.2510    -0.7390 H     1 <1>   0.0800 
 55 H        5.9940     2.3450     0.9820 H     1 <1>   0.4000 
@<TRIPOS>BOND
  1   1   2  1   
  2   1   3  1   
  3   2   4  1   
  4   2   5  1   
  5   2  25  1   
  6   3   6  1   
  7   3   7  1   
  8   3  26  1   
  9   4   8  1   
 10   4   9  1   
 11   4  27  1   
 12   5  10  1   
 13   5  28  1   
 14   5  29  1   
 15   6  10  1   
 16   6  30  1   
 17   6  31  1   
 18   7  11  1   
 19   7  32  1   
 20   7  33  1   
 21   8   9  1   
 22   8  34  1   
 23   8  35  1   
 24   9  36  1   
 25   9  37  1   
 26  10  12  1   
 27  10  38  1   
 28  11  13  1   
 29  11  39  1   
 30  11  40  1   
 31  12  14  1   
 32  12  41  1   
 33  12  42  1   
 34  13  15  1   
 35  13  43  1   
 36  13  44  1   
 37  14  16  ar  
 38  14  17  ar  
 39  15  45  1   
 40  15  46  1   
 41  15  47  1   
 42  16  18  1   
 43  16  19  ar  
 44  17  20  ar  
 45  17  21  1   
 46  18  48  1   
 47  19  22  ar  
 48  19  23  1   
 49  20  22  ar  
 50  20  49  1   
 51  21  24  1   
 52  21  50  1   
 53  21  51  1   
 54  23  52  1   
 55  23  53  1   
 56  23  54  1   
 57  24  55  1   
@<TRIPOS>SUBSTRUCTURE
  1 ****  10 GROUP 4 **** **** 0

# MOE 2024.06 (io_trps.svl 2023.06)
