@<TRIPOS>MOLECULE
NONAME
53 56 1 0 0 
SMALL
USER_CHARGES


@<TRIPOS>ATOM
  1 O       -0.4350     0.1020     1.3900 O.2   1 <1>  -0.5700 
  2 C       -1.0570     0.6090     0.4880 C.2   1 <1>   0.5690 
  3 N       -0.6610     1.7770    -0.0730 N.am  1 <1>  -0.7300 
  4 C       -2.3320    -0.0420    -0.0460 C.3   1 <1>  -0.0190 
  5 C        0.4030     2.6430     0.4590 C.3   1 <1>   0.2840 
  6 C       -3.5770     0.7340     0.4200 C.3   1 <1>  -0.1600 
  7 C       -2.4760    -1.5190     0.3640 C.3   1 <1>  -0.1600 
  8 C       -0.1210     4.0660     0.4340 C.ar  1 <1>  -0.1440 
  9 C       -4.8660     0.1180    -0.1260 C.3   1 <1>   0.2090 
 10 C       -3.7670    -2.1370    -0.1760 C.3   1 <1>   0.2090 
 11 C       -1.0640     4.4680     1.3680 C.ar  1 <1>  -0.1500 
 12 C        0.3200     4.9710    -0.5200 C.ar  1 <1>  -0.1500 
 13 N       -4.9440    -1.3230     0.2400 N.pl3 1 <1>  -0.8210 
 14 C       -1.5620     5.7580     1.3450 C.ar  1 <1>  -0.1500 
 15 C       -0.1760     6.2640    -0.5440 C.ar  1 <1>  -0.1500 
 16 C       -6.2050    -1.9220     0.1490 C.2   1 <1>   0.5990 
 17 C       -1.1260     6.6630     0.3920 C.ar  1 <1>   0.0820 
 18 N       -7.3170    -1.2860     0.0790 N.2   1 <1>  -0.4100 
 19 N       -6.3360    -3.2550     0.1280 N.2   1 <1>  -0.5650 
 20 O       -1.6670     7.9060     0.4370 O.3   1 <1>  -0.3630 
 21 O       -8.1960    -2.2250     0.0170 O.3   1 <1>  -0.0190 
 22 C       -7.6110    -3.3910     0.0490 C.2   1 <1>   0.4250 
 23 C       -1.2720     8.9120    -0.4690 C.3   1 <1>   0.0400 
 24 C       -8.3810    -4.6150    -0.0050 C.ar  1 <1>   0.0530 
 25 C       -9.7730    -4.6070    -0.1280 C.ar  1 <1>  -0.1500 
 26 C       -7.7540    -5.8610     0.0630 C.ar  1 <1>  -0.1500 
 27 C      -10.5000    -5.7820    -0.1800 C.ar  1 <1>  -0.1500 
 28 C       -8.4760    -7.0390     0.0110 C.ar  1 <1>  -0.1500 
 29 C       -9.8520    -7.0020    -0.1110 C.ar  1 <1>  -0.1500 
 30 H       -1.2350     2.2260    -0.7860 H     1 <1>   0.3700 
 31 H       -2.2860    -0.0010    -1.1190 H     1 <1>   0.0800 
 32 H        1.2830     2.5480    -0.1530 H     1 <1>   0.0800 
 33 H        0.6530     2.3560     1.4670 H     1 <1>   0.0800 
 34 H       -3.5180     1.7580     0.0980 H     1 <1>   0.0800 
 35 H       -3.6230     0.7320     1.4950 H     1 <1>   0.0800 
 36 H       -2.4820    -1.6020     1.4370 H     1 <1>   0.0800 
 37 H       -1.6340    -2.0800     0.0000 H     1 <1>   0.0800 
 38 H       -4.9000     0.2130    -1.1980 H     1 <1>   0.0800 
 39 H       -5.7050     0.6510     0.2880 H     1 <1>   0.0800 
 40 H       -3.8520    -3.1390     0.2090 H     1 <1>   0.0800 
 41 H       -3.7340    -2.1900    -1.2510 H     1 <1>   0.0800 
 42 H       -1.4150     3.7740     2.1130 H     1 <1>   0.1500 
 43 H        1.0520     4.6740    -1.2510 H     1 <1>   0.1500 
 44 H       -2.2940     6.0730     2.0670 H     1 <1>   0.1500 
 45 H        0.1850     6.9410    -1.2940 H     1 <1>   0.1500 
 46 H       -1.8240     9.8050    -0.2360 H     1 <1>   0.0800 
 47 H       -1.5020     8.5910    -1.4690 H     1 <1>   0.0800 
 48 H       -0.2180     9.0930    -0.3520 H     1 <1>   0.0800 
 49 H      -10.2980    -3.6690    -0.1830 H     1 <1>   0.1500 
 50 H       -6.6820    -5.9040     0.1590 H     1 <1>   0.1500 
 51 H      -11.5720    -5.7500    -0.2750 H     1 <1>   0.1500 
 52 H       -7.9660    -7.9860     0.0660 H     1 <1>   0.1500 
 53 H      -10.4170    -7.9180    -0.1510 H     1 <1>   0.1500 
@<TRIPOS>BOND
  1   1   2  2   
  2   2   3  am  
  3   2   4  1   
  4   3   5  1   
  5   3  30  1   
  6   4   6  1   
  7   4   7  1   
  8   4  31  1   
  9   5   8  1   
 10   5  32  1   
 11   5  33  1   
 12   6   9  1   
 13   6  34  1   
 14   6  35  1   
 15   7  10  1   
 16   7  36  1   
 17   7  37  1   
 18   8  11  ar  
 19   8  12  ar  
 20   9  13  1   
 21   9  38  1   
 22   9  39  1   
 23  10  13  1   
 24  10  40  1   
 25  10  41  1   
 26  11  14  ar  
 27  11  42  1   
 28  12  15  ar  
 29  12  43  1   
 30  13  16  1   
 31  14  17  ar  
 32  14  44  1   
 33  15  17  ar  
 34  15  45  1   
 35  16  18  2   
 36  16  19  1   
 37  17  20  1   
 38  18  21  1   
 39  19  22  2   
 40  20  23  1   
 41  21  22  1   
 42  22  24  1   
 43  23  46  1   
 44  23  47  1   
 45  23  48  1   
 46  24  25  ar  
 47  24  26  ar  
 48  25  27  ar  
 49  25  49  1   
 50  26  28  ar  
 51  26  50  1   
 52  27  29  ar  
 53  27  51  1   
 54  28  29  ar  
 55  28  52  1   
 56  29  53  1   
@<TRIPOS>SUBSTRUCTURE
  1 ****   9 GROUP 4 **** **** 0

# MOE 2024.06 (io_trps.svl 2023.06)
