@<TRIPOS>MOLECULE
NONAME
36 37 1 0 0 
SMALL
USER_CHARGES


@<TRIPOS>ATOM
  1 CL      -0.3270    -1.2850     2.8550 Cl    1 <1>  -0.1770 
  2 C       -0.4910    -2.6540     1.7770 C.ar  1 <1>   0.1770 
  3 C       -1.5520    -2.7500     0.8800 C.ar  1 <1>  -0.1440 
  4 C        0.4850    -3.6260     1.8590 C.ar  1 <1>  -0.1500 
  5 C       -1.6180    -3.8540     0.0200 C.ar  1 <1>  -0.0090 
  6 C       -2.6280    -1.6630     0.8360 C.3   1 <1>  -0.0970 
  7 C        0.4140    -4.7260     1.0300 C.ar  1 <1>  -0.1500 
  8 S       -2.9460    -4.1040    -1.2100 S.o2  1 <1>   1.4470 
  9 C       -0.6270    -4.8280     0.1270 C.ar  1 <1>  -0.1500 
 10 O       -3.2400    -2.8520    -1.8790 O.2   1 <1>  -0.6500 
 11 O       -2.6560    -5.2520    -2.0410 O.2   1 <1>  -0.6500 
 12 N       -4.3140    -4.4910    -0.2880 N.am  1 <1>  -0.8490 
 13 C       -4.1280    -5.6750     0.5890 C.3   1 <1>   0.1960 
 14 C       -5.5160    -4.5330    -1.1320 C.3   1 <1>   0.1960 
 15 C       -4.8630    -6.9100     0.0760 C.3   1 <1>  -0.1860 
 16 C       -6.6930    -5.1790    -0.3980 C.3   1 <1>  -0.1600 
 17 C       -4.4580    -8.1120     0.9040 C.2   1 <1>   0.9060 
 18 C       -6.3750    -6.6260     0.0070 C.3   1 <1>   0.2000 
 19 O       -3.2540    -8.3550     1.0190 O.co2 1 <1>  -0.9000 
 20 O       -5.3210    -8.8090     1.4540 O.co2 1 <1>  -0.9000 
 21 O       -6.9480    -6.8300     1.2430 O.3   1 <1>  -0.6800 
 22 H        1.2870    -3.5220     2.5680 H     1 <1>   0.1500 
 23 H       -3.6090    -2.0980     0.7680 H     1 <1>   0.0800 
 24 H       -2.4730    -1.0290    -0.0180 H     1 <1>   0.0800 
 25 H       -2.6260    -1.0490     1.7160 H     1 <1>   0.0800 
 26 H        1.1590    -5.5020     1.0860 H     1 <1>   0.1500 
 27 H       -0.6720    -5.6990    -0.5100 H     1 <1>   0.1500 
 28 H       -3.0830    -5.9070     0.7070 H     1 <1>   0.0800 
 29 H       -4.5100    -5.4410     1.5680 H     1 <1>   0.0800 
 30 H       -5.7750    -3.5300    -1.4250 H     1 <1>   0.0800 
 31 H       -5.3120    -5.0980    -2.0270 H     1 <1>   0.0800 
 32 H       -4.5030    -7.1140    -0.9140 H     1 <1>   0.0800 
 33 H       -7.5570    -5.1740    -1.0350 H     1 <1>   0.0800 
 34 H       -6.9110    -4.5810     0.4700 H     1 <1>   0.0800 
 35 H       -6.8310    -7.3260    -0.6730 H     1 <1>   0.0800 
 36 H       -6.5410    -7.6850     1.5830 H     1 <1>   0.4000 
@<TRIPOS>BOND
  1   1   2  1   
  2   2   3  ar  
  3   2   4  ar  
  4   3   5  ar  
  5   3   6  1   
  6   4   7  ar  
  7   4  22  1   
  8   5   8  1   
  9   5   9  ar  
 10   6  23  1   
 11   6  24  1   
 12   6  25  1   
 13   7   9  ar  
 14   7  26  1   
 15   8  10  2   
 16   8  11  2   
 17   8  12  am  
 18   9  27  1   
 19  12  13  1   
 20  12  14  1   
 21  13  15  1   
 22  13  28  1   
 23  13  29  1   
 24  14  16  1   
 25  14  30  1   
 26  14  31  1   
 27  15  17  1   
 28  15  18  1   
 29  15  32  1   
 30  16  18  1   
 31  16  33  1   
 32  16  34  1   
 33  17  19  ar  
 34  17  20  ar  
 35  18  21  1   
 36  18  35  1   
 37  21  36  1   
@<TRIPOS>SUBSTRUCTURE
  1 ****  13 GROUP 4 **** **** 0

# MOE 2024.06 (io_trps.svl 2023.06)
