@<TRIPOS>MOLECULE
NONAME
50 51 1 0 0 
SMALL
USER_CHARGES


@<TRIPOS>ATOM
  1 O        1.4800     1.2210    -1.3390 O.3   1 <1>  -0.2800 
  2 C        1.9880     0.9420    -0.1520 C.2   1 <1>  -0.0400 
  3 C        0.3730     1.9120    -1.1510 C.2   1 <1>  -0.0100 
  4 C        1.2050     1.4570     0.8250 C.2   1 <1>  -0.1500 
  5 C        3.2860     0.1390    -0.1030 C.3   1 <1>   0.6030 
  6 C        0.1450     2.0930     0.1660 C.2   1 <1>  -0.1500 
  7 N        2.9600    -1.3360    -0.0090 N.4   1 <1>  -0.9590 
  8 C        4.1980     0.6520     1.0500 C.3   1 <1>   0.2090 
  9 C        4.1710    -2.1970     0.0800 C.3   1 <1>   0.3430 
 10 C        2.0810    -1.7660    -1.1390 C.3   1 <1>   0.3430 
 11 N        4.4700     2.1240     1.0000 N.pl3 1 <1>  -0.8690 
 12 C        4.2630    -2.7630     1.4910 C.3   1 <1>  -0.2400 
 13 C        1.4340    -3.1080    -0.8130 C.3   1 <1>  -0.2400 
 14 C        5.0660     2.8050     0.0070 C.ar  1 <1>   0.4100 
 15 N        5.4840     2.0900    -1.0460 N.ar  1 <1>  -0.6200 
 16 C        5.2440     4.2000     0.0710 C.ar  1 <1>  -0.1430 
 17 C        6.0780     2.7260    -2.0150 C.ar  1 <1>   0.5270 
 18 C        5.8730     4.8120    -0.9770 C.ar  1 <1>   0.2110 
 19 C        4.7310     4.9700     1.2960 C.3   1 <1>  -0.0170 
 20 N        6.2870     4.0570    -2.0150 N.ar  1 <1>  -0.1790 
 21 C        6.5630     1.9300    -3.2100 C.3   1 <1>  -0.0970 
 22 C        4.9450     6.4880     1.2540 C.3   1 <1>  -0.2400 
 23 H       -0.1950     2.2390    -2.0060 H     1 <1>   0.1500 
 24 H        1.3170     1.4220     1.8950 H     1 <1>   0.1500 
 25 H        3.8130     0.3150    -1.0250 H     1 <1>   0.0800 
 26 H       -0.6710     2.6120     0.6410 H     1 <1>   0.1500 
 27 H        2.4030    -1.4620     0.8440 H     1 <1>   0.4500 
 28 H        5.1450     0.1450     1.0120 H     1 <1>   0.0800 
 29 H        3.7310     0.4270     1.9930 H     1 <1>   0.0800 
 30 H        5.0600    -1.6340    -0.1560 H     1 <1>   0.0800 
 31 H        4.1030    -3.0130    -0.6210 H     1 <1>   0.0800 
 32 H        2.6490    -1.8360    -2.0530 H     1 <1>   0.0800 
 33 H        1.2900    -1.0500    -1.2930 H     1 <1>   0.0800 
 34 H        4.1570     2.6390     1.8310 H     1 <1>   0.4000 
 35 H        4.3660    -1.9860     2.2270 H     1 <1>   0.0800 
 36 H        5.1300    -3.3960     1.5600 H     1 <1>   0.0800 
 37 H        3.4000    -3.3640     1.7170 H     1 <1>   0.0800 
 38 H        2.1600    -3.8970    -0.7400 H     1 <1>   0.0800 
 39 H        0.7530    -3.3670    -1.6040 H     1 <1>   0.0800 
 40 H        0.8680    -3.0480     0.0990 H     1 <1>   0.0800 
 41 H        6.0530     5.8740    -1.0140 H     1 <1>   0.1500 
 42 H        5.2190     4.5870     2.1770 H     1 <1>   0.0800 
 43 H        3.6750     4.7850     1.4040 H     1 <1>   0.0800 
 44 H        6.7610     4.4860    -2.8120 H     1 <1>   0.4570 
 45 H        6.3510     0.8850    -3.0730 H     1 <1>   0.0800 
 46 H        7.6260     2.0420    -3.3280 H     1 <1>   0.0800 
 47 H        6.0680     2.2590    -4.1050 H     1 <1>   0.0800 
 48 H        5.9920     6.7290     1.2070 H     1 <1>   0.0800 
 49 H        4.5450     6.9310     2.1500 H     1 <1>   0.0800 
 50 H        4.4330     6.9260     0.4150 H     1 <1>   0.0800 
@<TRIPOS>BOND
  1   1   2  1   
  2   1   3  1   
  3   2   4  2   
  4   2   5  1   
  5   3   6  2   
  6   3  23  1   
  7   4   6  1   
  8   4  24  1   
  9   5   7  1   
 10   5   8  1   
 11   5  25  1   
 12   6  26  1   
 13   7   9  1   
 14   7  10  1   
 15   7  27  1   
 16   8  11  1   
 17   8  28  1   
 18   8  29  1   
 19   9  12  1   
 20   9  30  1   
 21   9  31  1   
 22  10  13  1   
 23  10  32  1   
 24  10  33  1   
 25  11  14  1   
 26  11  34  1   
 27  12  35  1   
 28  12  36  1   
 29  12  37  1   
 30  13  38  1   
 31  13  39  1   
 32  13  40  1   
 33  14  15  ar  
 34  14  16  ar  
 35  15  17  ar  
 36  16  18  ar  
 37  16  19  1   
 38  17  20  ar  
 39  17  21  1   
 40  18  20  ar  
 41  18  41  1   
 42  19  22  1   
 43  19  42  1   
 44  19  43  1   
 45  20  44  1   
 46  21  45  1   
 47  21  46  1   
 48  21  47  1   
 49  22  48  1   
 50  22  49  1   
 51  22  50  1   
@<TRIPOS>SUBSTRUCTURE
  1 ****   5 GROUP 4 **** **** 0

# MOE 2024.06 (io_trps.svl 2023.06)
