@<TRIPOS>MOLECULE
NONAME
45 46 1 0 0 
SMALL
USER_CHARGES


@<TRIPOS>ATOM
  1 O       -2.9700     2.2560     2.6900 O.2   1 <1>  -0.5700 
  2 C       -2.9420     2.0340     1.4990 C.2   1 <1>   0.5690 
  3 N       -3.6150     0.9550     0.9730 N.am  1 <1>  -0.6600 
  4 C       -2.1350     2.9990     0.6060 C.3   1 <1>   0.1250 
  5 C       -4.3250    -0.0010     1.8920 C.3   1 <1>   0.3210 
  6 C       -3.6010     0.5500    -0.4730 C.3   1 <1>   0.1400 
  7 C       -0.8400     2.3520     0.1110 C.ar  1 <1>  -0.1440 
  8 C       -1.7970     4.3410     1.2810 C.3   1 <1>  -0.2400 
  9 C       -3.8820    -1.4420     1.6650 C.2   1 <1>   0.0460 
 10 C       -5.0190     0.5280    -1.0570 C.3   1 <1>   0.1200 
 11 C        0.0160     1.7230     1.0030 C.ar  1 <1>  -0.1500 
 12 C       -0.5010     2.3860    -1.2330 C.ar  1 <1>  -0.1500 
 13 N       -4.7310    -2.3510     1.1420 N.2   1 <1>  -0.5650 
 14 C       -2.6700    -1.9960     1.9050 C.2   1 <1>  -0.3320 
 15 O       -4.9530     0.5370    -2.4450 O.3   1 <1>  -0.6800 
 16 C        1.1820     1.1270     0.5580 C.ar  1 <1>  -0.1500 
 17 C        0.6650     1.7890    -1.6780 C.ar  1 <1>  -0.1500 
 18 C       -4.0230    -3.4310     1.0740 C.2   1 <1>   0.0360 
 19 N       -2.7600    -3.2820     1.5230 N.pl3 1 <1>   0.0330 
 20 C       -1.4030    -1.3770     2.4700 C.3   1 <1>  -0.0600 
 21 C        1.5120     1.1530    -0.7860 C.ar  1 <1>  -0.1440 
 22 C        2.7920     0.5020    -1.2780 C.3   1 <1>  -0.0970 
 23 H       -2.7550     3.2360    -0.2380 H     1 <1>   0.0800 
 24 H       -5.3850     0.0710     1.7290 H     1 <1>   0.0800 
 25 H       -4.1410     0.2440     2.9230 H     1 <1>   0.0800 
 26 H       -3.1620    -0.4280    -0.5720 H     1 <1>   0.0800 
 27 H       -3.0010     1.2270    -1.0480 H     1 <1>   0.0800 
 28 H       -1.1710     4.1790     2.1410 H     1 <1>   0.0800 
 29 H       -2.6990     4.8310     1.6030 H     1 <1>   0.0800 
 30 H       -1.2770     4.9830     0.5940 H     1 <1>   0.0800 
 31 H       -5.5780     1.3930    -0.7450 H     1 <1>   0.0800 
 32 H       -5.5330    -0.3690    -0.7560 H     1 <1>   0.0800 
 33 H       -0.2230     1.6970     2.0530 H     1 <1>   0.1500 
 34 H       -1.1400     2.8780    -1.9450 H     1 <1>   0.1500 
 35 H       -4.6240     1.3940    -2.7770 H     1 <1>   0.4000 
 36 H        1.8340     0.6460     1.2660 H     1 <1>   0.1500 
 37 H        0.9140     1.8230    -2.7250 H     1 <1>   0.1500 
 38 H       -4.3890    -4.3700     0.6970 H     1 <1>   0.1500 
 39 H       -2.0290    -3.9970     1.5590 H     1 <1>   0.2700 
 40 H       -1.5850    -0.3620     2.7720 H     1 <1>   0.0800 
 41 H       -0.6290    -1.3740     1.7230 H     1 <1>   0.0800 
 42 H       -1.0660    -1.9310     3.3270 H     1 <1>   0.0800 
 43 H        3.0980    -0.2830    -0.6100 H     1 <1>   0.0800 
 44 H        3.5750     1.2360    -1.3330 H     1 <1>   0.0800 
 45 H        2.6430     0.0770    -2.2550 H     1 <1>   0.0800 
@<TRIPOS>BOND
  1   1   2  2   
  2   2   3  am  
  3   2   4  1   
  4   3   5  1   
  5   3   6  1   
  6   4   7  1   
  7   4   8  1   
  8   4  23  1   
  9   5   9  1   
 10   5  24  1   
 11   5  25  1   
 12   6  10  1   
 13   6  26  1   
 14   6  27  1   
 15   7  11  ar  
 16   7  12  ar  
 17   8  28  1   
 18   8  29  1   
 19   8  30  1   
 20   9  13  1   
 21   9  14  2   
 22  10  15  1   
 23  10  31  1   
 24  10  32  1   
 25  11  16  ar  
 26  11  33  1   
 27  12  17  ar  
 28  12  34  1   
 29  13  18  2   
 30  14  19  1   
 31  14  20  1   
 32  15  35  1   
 33  16  21  ar  
 34  16  36  1   
 35  17  21  ar  
 36  17  37  1   
 37  18  19  1   
 38  18  38  1   
 39  19  39  1   
 40  20  40  1   
 41  20  41  1   
 42  20  42  1   
 43  21  22  1   
 44  22  43  1   
 45  22  44  1   
 46  22  45  1   
@<TRIPOS>SUBSTRUCTURE
  1 ****   3 GROUP 4 **** **** 0

# MOE 2024.06 (io_trps.svl 2023.06)
