@<TRIPOS>MOLECULE
NONAME
54 56 1 0 0 
SMALL
USER_CHARGES


@<TRIPOS>ATOM
  1 O        0.3370     0.8880    -0.3830 O.2   1 <1>  -0.5700 
  2 C        0.1300     2.0740    -0.2820 C.2   1 <1>   0.5690 
  3 N       -0.9990     2.5800     0.3020 N.am  1 <1>  -0.6600 
  4 C        1.1720     3.0300    -0.8600 C.3   1 <1>   0.1810 
  5 C       -1.2270     4.0570     0.4330 C.3   1 <1>   0.3640 
  6 C       -2.0260     1.7000     0.9330 C.3   1 <1>   0.0600 
  7 O        1.1330     4.3140    -0.2820 O.3   1 <1>  -0.5600 
  8 C       -2.6250     4.3960    -0.1100 C.ar  1 <1>  -0.1440 
  9 C       -0.1540     4.9150    -0.3010 C.3   1 <1>   0.2610 
 10 C       -3.6190     4.9910     0.6680 C.ar  1 <1>  -0.1440 
 11 C       -2.9100     4.0830    -1.4360 C.ar  1 <1>  -0.1500 
 12 C       -0.0500     6.3410     0.2670 C.2   1 <1>   0.5690 
 13 C       -4.8490     5.2880     0.0970 C.ar  1 <1>  -0.1500 
 14 C       -3.4300     5.3300     2.1420 C.3   1 <1>  -0.0960 
 15 C       -4.1390     4.3790    -1.9940 C.ar  1 <1>  -0.1500 
 16 O       -0.4420     6.5650     1.3900 O.2   1 <1>  -0.5700 
 17 N        0.5670     7.3470    -0.4470 N.am  1 <1>  -0.6600 
 18 C       -5.1100     4.9880    -1.2260 C.ar  1 <1>  -0.1500 
 19 C        0.7470     8.6880     0.1810 C.3   1 <1>   0.1400 
 20 C        1.5980     7.0820    -1.4910 C.3   1 <1>   0.1400 
 21 C        2.1210     8.7260     0.8780 C.3   1 <1>   0.3430 
 22 C        2.9890     7.0960    -0.8230 C.3   1 <1>   0.3430 
 23 N        3.2560     8.3800    -0.0670 N.4   1 <1>  -0.9590 
 24 C        4.5640     8.2620     0.6590 C.3   1 <1>   0.3430 
 25 C        5.0510     9.5930     1.2500 C.3   1 <1>   0.1200 
 26 O        6.2940     9.3680     1.8090 O.3   1 <1>  -0.6800 
 27 H        1.0180     3.1230    -1.9200 H     1 <1>   0.0800 
 28 H        2.1520     2.6220    -0.6880 H     1 <1>   0.0800 
 29 H       -1.1720     4.2810     1.4810 H     1 <1>   0.0800 
 30 H       -2.2070     2.0150     1.9450 H     1 <1>   0.0800 
 31 H       -1.6950     0.6750     0.9470 H     1 <1>   0.0800 
 32 H       -2.9460     1.7530     0.3770 H     1 <1>   0.0800 
 33 H       -0.4410     5.0060    -1.3310 H     1 <1>   0.0800 
 34 H       -2.1740     3.5930    -2.0500 H     1 <1>   0.1500 
 35 H       -5.6200     5.7550     0.6840 H     1 <1>   0.1500 
 36 H       -4.3700     5.5710     2.6030 H     1 <1>   0.0800 
 37 H       -2.7840     6.1810     2.2500 H     1 <1>   0.0800 
 38 H       -3.0140     4.4950     2.6750 H     1 <1>   0.0800 
 39 H       -4.3420     4.1330    -3.0220 H     1 <1>   0.1500 
 40 H       -6.0680     5.2250    -1.6540 H     1 <1>   0.1500 
 41 H        0.6840     9.4550    -0.5700 H     1 <1>   0.0800 
 42 H       -0.0310     8.8760     0.9020 H     1 <1>   0.0800 
 43 H        1.4350     6.1350    -1.9710 H     1 <1>   0.0800 
 44 H        1.5450     7.8410    -2.2520 H     1 <1>   0.0800 
 45 H        2.0980     8.0180     1.6910 H     1 <1>   0.0800 
 46 H        2.2740     9.7060     1.2980 H     1 <1>   0.0800 
 47 H        3.7450     6.9490    -1.5760 H     1 <1>   0.0800 
 48 H        3.0370     6.2600    -0.1420 H     1 <1>   0.0800 
 49 H        3.3340     9.1340    -0.7620 H     1 <1>   0.4500 
 50 H        4.4710     7.5420     1.4560 H     1 <1>   0.0800 
 51 H        5.3190     7.9090    -0.0240 H     1 <1>   0.0800 
 52 H        4.3970     9.9430     2.0300 H     1 <1>   0.0800 
 53 H        5.1630    10.3420     0.4840 H     1 <1>   0.0800 
 54 H        6.6680    10.1800     2.2130 H     1 <1>   0.4000 
@<TRIPOS>BOND
  1   1   2  2   
  2   2   3  am  
  3   2   4  1   
  4   3   5  1   
  5   3   6  1   
  6   4   7  1   
  7   4  27  1   
  8   4  28  1   
  9   5   8  1   
 10   5   9  1   
 11   5  29  1   
 12   6  30  1   
 13   6  31  1   
 14   6  32  1   
 15   7   9  1   
 16   8  10  ar  
 17   8  11  ar  
 18   9  12  1   
 19   9  33  1   
 20  10  13  ar  
 21  10  14  1   
 22  11  15  ar  
 23  11  34  1   
 24  12  16  2   
 25  12  17  am  
 26  13  18  ar  
 27  13  35  1   
 28  14  36  1   
 29  14  37  1   
 30  14  38  1   
 31  15  18  ar  
 32  15  39  1   
 33  17  19  1   
 34  17  20  1   
 35  18  40  1   
 36  19  21  1   
 37  19  41  1   
 38  19  42  1   
 39  20  22  1   
 40  20  43  1   
 41  20  44  1   
 42  21  23  1   
 43  21  45  1   
 44  21  46  1   
 45  22  23  1   
 46  22  47  1   
 47  22  48  1   
 48  23  24  1   
 49  23  49  1   
 50  24  25  1   
 51  24  50  1   
 52  24  51  1   
 53  25  26  1   
 54  25  52  1   
 55  25  53  1   
 56  26  54  1   
@<TRIPOS>SUBSTRUCTURE
  1 ****   9 GROUP 4 **** **** 0

# MOE 2024.06 (io_trps.svl 2023.06)
