@<TRIPOS>MOLECULE
NONAME
48 52 1 0 0 
SMALL
USER_CHARGES


@<TRIPOS>ATOM
  1 O       -0.6460     0.2310     0.6970 O.2   1 <1>  -0.5700 
  2 C       -1.5200     0.8920     0.1630 C.2   1 <1>   0.7150 
  3 N       -2.6640     0.2270    -0.2330 N.am  1 <1>  -0.6600 
  4 C       -1.3060     2.3090    -0.0160 C.2   1 <1>   0.0550 
  5 C       -3.9310     0.8320    -0.7230 C.3   1 <1>   0.1400 
  6 C       -2.7970    -1.2510    -0.1590 C.3   1 <1>   0.1400 
  7 O       -2.1000     3.0720    -0.7340 O.3   1 <1>  -0.0190 
  8 C       -0.3300     3.1250     0.4440 C.2   1 <1>  -0.1500 
  9 C       -4.9690    -0.2790    -0.5710 C.3   1 <1>   0.2000 
 10 C       -4.1620    -1.5650    -0.7870 C.3   1 <1>  -0.0800 
 11 N       -1.7240     4.3130    -0.7710 N.2   1 <1>  -0.4100 
 12 C       -0.6510     4.3740    -0.0630 C.2   1 <1>   0.2030 
 13 O       -5.4530    -0.2430     0.7290 O.3   1 <1>  -0.6800 
 14 C       -4.8300    -2.8430    -0.2380 C.3   1 <1>  -0.0170 
 15 C        0.1460     5.6440     0.1700 C.3   1 <1>  -0.0140 
 16 C       -4.1380    -4.1750    -0.5540 C.ar  1 <1>  -0.1440 
 17 C        0.6580     5.9860     1.5380 C.3   1 <1>  -0.2000 
 18 C       -0.4640     6.7750     0.9400 C.3   1 <1>  -0.2000 
 19 C       -4.5760    -5.3620     0.0860 C.ar  1 <1>   0.0000 
 20 C       -3.1060    -4.3000    -1.4440 C.ar  1 <1>  -0.1500 
 21 C       -3.9030    -6.5710    -0.2180 C.ar  1 <1>   0.3100 
 22 C       -5.6510    -5.4230     1.0060 C.ar  1 <1>  -0.1500 
 23 C       -2.5130    -5.5460    -1.6760 C.ar  1 <1>   0.1600 
 24 N       -2.8750    -6.6460    -1.0980 N.ar  1 <1>  -0.6200 
 25 C       -4.3130    -7.7580     0.4110 C.ar  1 <1>  -0.1500 
 26 C       -6.0270    -6.5970     1.6000 C.ar  1 <1>  -0.1500 
 27 C       -5.3500    -7.7820     1.3020 C.ar  1 <1>  -0.1500 
 28 H       -4.2080     1.7080    -0.1620 H     1 <1>   0.0800 
 29 H       -3.8180     1.0890    -1.7630 H     1 <1>   0.0800 
 30 H       -1.9890    -1.7280    -0.6870 H     1 <1>   0.0800 
 31 H       -2.7690    -1.5540     0.8740 H     1 <1>   0.0800 
 32 H        0.5120     2.8760     1.0620 H     1 <1>   0.1500 
 33 H       -5.8010    -0.1760    -1.2470 H     1 <1>   0.0800 
 34 H       -4.0280    -1.6710    -1.8490 H     1 <1>   0.0800 
 35 H       -4.6990    -0.1690     1.3480 H     1 <1>   0.4000 
 36 H       -5.8350    -2.8920    -0.6200 H     1 <1>   0.0800 
 37 H       -4.8980    -2.7490     0.8320 H     1 <1>   0.0800 
 38 H        0.7580     5.9010    -0.6770 H     1 <1>   0.1000 
 39 H        0.4350     5.3310     2.3630 H     1 <1>   0.1000 
 40 H        1.6260     6.4460     1.6260 H     1 <1>   0.1000 
 41 H       -0.2790     7.7810     0.6040 H     1 <1>   0.1000 
 42 H       -1.4610     6.6460     1.3260 H     1 <1>   0.1000 
 43 H       -2.7090    -3.4720    -1.9970 H     1 <1>   0.1500 
 44 H       -6.1940    -4.5300     1.2490 H     1 <1>   0.1500 
 45 H       -1.7010    -5.5920    -2.3810 H     1 <1>   0.1500 
 46 H       -3.7780    -8.6570     0.1630 H     1 <1>   0.1500 
 47 H       -6.8450    -6.6250     2.2990 H     1 <1>   0.1500 
 48 H       -5.6530    -8.6990     1.7760 H     1 <1>   0.1500 
@<TRIPOS>BOND
  1   1   2  2   
  2   2   3  am  
  3   2   4  1   
  4   3   5  1   
  5   3   6  1   
  6   4   7  1   
  7   4   8  2   
  8   5   9  1   
  9   5  28  1   
 10   5  29  1   
 11   6  10  1   
 12   6  30  1   
 13   6  31  1   
 14   7  11  1   
 15   8  12  1   
 16   8  32  1   
 17   9  10  1   
 18   9  13  1   
 19   9  33  1   
 20  10  14  1   
 21  10  34  1   
 22  11  12  2   
 23  12  15  1   
 24  13  35  1   
 25  14  16  1   
 26  14  36  1   
 27  14  37  1   
 28  15  17  1   
 29  15  18  1   
 30  15  38  1   
 31  16  19  ar  
 32  16  20  ar  
 33  17  18  1   
 34  17  39  1   
 35  17  40  1   
 36  18  41  1   
 37  18  42  1   
 38  19  21  ar  
 39  19  22  ar  
 40  20  23  ar  
 41  20  43  1   
 42  21  24  ar  
 43  21  25  ar  
 44  22  26  ar  
 45  22  44  1   
 46  23  24  ar  
 47  23  45  1   
 48  25  27  ar  
 49  25  46  1   
 50  26  27  ar  
 51  26  47  1   
 52  27  48  1   
@<TRIPOS>SUBSTRUCTURE
  1 ****   6 GROUP 4 **** **** 0

# MOE 2024.06 (io_trps.svl 2023.06)
