@<TRIPOS>MOLECULE
NONAME
47 49 1 0 0 
SMALL
USER_CHARGES


@<TRIPOS>ATOM
  1 S        0.0150     0.7130     0.4880 S.3   1 <1>  -0.0800 
  2 C        1.3350    -0.3290     0.9640 C.2   1 <1>   0.1980 
  3 C        1.1240     1.6280    -0.4920 C.2   1 <1>  -0.1400 
  4 N        2.4570    -0.0240     0.4540 N.2   1 <1>  -0.5650 
  5 C        1.0160    -1.4620     1.9110 C.3   1 <1>  -0.0600 
  6 C        2.3530     1.0900    -0.3770 C.2   1 <1>   0.0460 
  7 C        0.5490     2.8030    -1.2610 C.3   1 <1>  -0.0600 
  8 C        3.6440     1.5590    -1.0620 C.3   1 <1>   0.3710 
  9 N        3.8420     3.0350    -0.9750 N.3   1 <1>  -0.8100 
 10 C        3.6080     1.0830    -2.5180 C.3   1 <1>  -0.2400 
 11 C        5.0860     3.4990    -1.6690 C.3   1 <1>   0.1710 
 12 C        3.7940     3.4900     0.4290 C.3   1 <1>   0.0300 
 13 C        5.3860     5.0130    -1.6280 C.2   1 <1>   0.5690 
 14 O        5.0740     5.6540    -2.6050 O.2   1 <1>  -0.5700 
 15 N        6.0100     5.6010    -0.5370 N.am  1 <1>  -0.4770 
 16 C        5.8380     6.9550    -0.1350 C.ar  1 <1>   0.1170 
 17 C        7.0060     4.8440     0.2740 C.3   1 <1>   0.1400 
 18 C        6.7760     7.5740     0.7080 C.ar  1 <1>   0.0820 
 19 C        4.7260     7.7050    -0.5160 C.ar  1 <1>  -0.1500 
 20 C        8.2420     5.7130     0.5240 C.3   1 <1>   0.1200 
 21 O        7.8780     6.9180     1.1610 O.3   1 <1>  -0.3630 
 22 C        6.6070     8.8820     1.1280 C.ar  1 <1>  -0.1500 
 23 C        4.5600     9.0140    -0.0980 C.ar  1 <1>  -0.1500 
 24 C        5.5000     9.6060     0.7250 C.ar  1 <1>  -0.1500 
 25 H        0.2900    -2.1150     1.4640 H     1 <1>   0.0800 
 26 H        0.6240    -1.0680     2.8300 H     1 <1>   0.0800 
 27 H        1.9090    -2.0210     2.1210 H     1 <1>   0.0800 
 28 H        0.1420     3.5230    -0.5760 H     1 <1>   0.0800 
 29 H       -0.2290     2.4640    -1.9200 H     1 <1>   0.0800 
 30 H        1.3120     3.2810    -1.8480 H     1 <1>   0.0800 
 31 H        4.4670     1.0760    -0.5630 H     1 <1>   0.0800 
 32 H        2.9000     1.6640    -3.0810 H     1 <1>   0.0800 
 33 H        3.2980     0.0530    -2.5450 H     1 <1>   0.0800 
 34 H        4.5770     1.1390    -2.9730 H     1 <1>   0.0800 
 35 H        4.9960     3.2640    -2.7140 H     1 <1>   0.0800 
 36 H        5.9240     2.9430    -1.3000 H     1 <1>   0.0800 
 37 H        2.8730     3.1920     0.8980 H     1 <1>   0.0800 
 38 H        3.8330     4.5640     0.4770 H     1 <1>   0.0800 
 39 H        4.6140     3.0750     0.9890 H     1 <1>   0.0800 
 40 H        7.3260     3.9560    -0.2370 H     1 <1>   0.0800 
 41 H        6.5650     4.5640     1.2140 H     1 <1>   0.0800 
 42 H        3.9730     7.2700    -1.1470 H     1 <1>   0.1500 
 43 H        8.7210     5.9620    -0.4060 H     1 <1>   0.0800 
 44 H        8.9450     5.2050     1.1600 H     1 <1>   0.0800 
 45 H        7.3430     9.3270     1.7720 H     1 <1>   0.1500 
 46 H        3.6950     9.5710    -0.4140 H     1 <1>   0.1500 
 47 H        5.3710    10.6240     1.0500 H     1 <1>   0.1500 
@<TRIPOS>BOND
  1   1   2  1   
  2   1   3  1   
  3   2   4  2   
  4   2   5  1   
  5   3   6  2   
  6   3   7  1   
  7   4   6  1   
  8   5  25  1   
  9   5  26  1   
 10   5  27  1   
 11   6   8  1   
 12   7  28  1   
 13   7  29  1   
 14   7  30  1   
 15   8   9  1   
 16   8  10  1   
 17   8  31  1   
 18   9  11  1   
 19   9  12  1   
 20  10  32  1   
 21  10  33  1   
 22  10  34  1   
 23  11  13  1   
 24  11  35  1   
 25  11  36  1   
 26  12  37  1   
 27  12  38  1   
 28  12  39  1   
 29  13  14  2   
 30  13  15  am  
 31  15  16  1   
 32  15  17  1   
 33  16  18  ar  
 34  16  19  ar  
 35  17  20  1   
 36  17  40  1   
 37  17  41  1   
 38  18  21  1   
 39  18  22  ar  
 40  19  23  ar  
 41  19  42  1   
 42  20  21  1   
 43  20  43  1   
 44  20  44  1   
 45  22  24  ar  
 46  22  45  1   
 47  23  24  ar  
 48  23  46  1   
 49  24  47  1   
@<TRIPOS>SUBSTRUCTURE
  1 ****  12 GROUP 4 **** **** 0

# MOE 2024.06 (io_trps.svl 2023.06)
