@<TRIPOS>MOLECULE
NONAME
50 52 1 0 0 
SMALL
USER_CHARGES


@<TRIPOS>ATOM
  1 O       -0.6020     0.4210    -0.1290 O.2   1 <1>  -0.5700 
  2 C       -1.6780     0.9650    -0.0710 C.2   1 <1>   0.5690 
  3 N       -2.8300     0.2450     0.1180 N.am  1 <1>  -0.6600 
  4 C       -1.7360     2.4830    -0.2240 C.3   1 <1>  -0.0990 
  5 C       -2.7920    -1.2300     0.3870 C.3   1 <1>   0.1400 
  6 C       -4.2280     0.7680     0.0090 C.3   1 <1>   0.1400 
  7 C       -0.3650     3.1810    -0.1200 C.3   1 <1>  -0.1600 
  8 C       -3.7150    -1.9980    -0.5760 C.3   1 <1>   0.3440 
  9 C       -5.0790    -0.1080    -0.9410 C.3   1 <1>   0.2950 
 10 C       -0.4890     4.6970    -0.2660 C.3   1 <1>   0.1400 
 11 O       -5.0060    -1.4480    -0.5490 O.3   1 <1>  -0.5600 
 12 C       -3.7790    -3.4740    -0.1950 C.ar  1 <1>  -0.1440 
 13 C       -6.5730     0.2570    -0.9900 C.3   1 <1>  -0.1950 
 14 N        0.8530     5.3050    -0.1530 N.am  1 <1>  -0.7300 
 15 C       -4.7180    -3.9490     0.7110 C.ar  1 <1>  -0.1500 
 16 C       -2.8730    -4.3650    -0.7520 C.ar  1 <1>  -0.1500 
 17 C       -7.1020     1.6470    -0.7970 C.3   1 <1>  -0.2000 
 18 C       -7.3920     0.5800     0.2210 C.3   1 <1>  -0.2000 
 19 C        1.2940     6.2650     0.6900 C.2   1 <1>   0.5690 
 20 C       -4.7500    -5.2890     1.0540 C.ar  1 <1>  -0.1500 
 21 C       -2.9030    -5.7060    -0.4100 C.ar  1 <1>  -0.1500 
 22 O        2.4300     6.6540     0.6180 O.2   1 <1>  -0.5700 
 23 C        0.3790     6.8650     1.7290 C.3   1 <1>  -0.1790 
 24 C       -3.8420    -6.1700     0.4940 C.ar  1 <1>  -0.1500 
 25 H       -2.1720     2.7030    -1.1810 H     1 <1>   0.0800 
 26 H       -2.3780     2.8730     0.5440 H     1 <1>   0.0800 
 27 H       -1.7910    -1.6120     0.2870 H     1 <1>   0.0800 
 28 H       -3.1100    -1.4140     1.3970 H     1 <1>   0.0800 
 29 H       -4.6730     0.7700     0.9880 H     1 <1>   0.0800 
 30 H       -4.2300     1.7760    -0.3600 H     1 <1>   0.0800 
 31 H        0.2840     2.8000    -0.8900 H     1 <1>   0.0800 
 32 H        0.0750     2.9500     0.8360 H     1 <1>   0.0800 
 33 H       -3.3390    -1.9100    -1.5810 H     1 <1>   0.0800 
 34 H       -4.6790    -0.0310    -1.9370 H     1 <1>   0.0800 
 35 H       -1.1430     5.0860     0.4940 H     1 <1>   0.0800 
 36 H       -0.9030     4.9420    -1.2300 H     1 <1>   0.0800 
 37 H       -7.0660    -0.3280    -1.7480 H     1 <1>   0.1000 
 38 H        1.5590     4.9530    -0.8050 H     1 <1>   0.3700 
 39 H       -5.4320    -3.2730     1.1500 H     1 <1>   0.1500 
 40 H       -2.1350    -4.0210    -1.4560 H     1 <1>   0.1500 
 41 H       -6.4560     2.4550    -0.5030 H     1 <1>   0.1000 
 42 H       -7.9070     1.9820    -1.4290 H     1 <1>   0.1000 
 43 H       -8.3860     0.1710     0.2820 H     1 <1>   0.1000 
 44 H       -6.9180     0.6290     1.1860 H     1 <1>   0.1000 
 45 H       -5.4840    -5.6460     1.7560 H     1 <1>   0.1500 
 46 H       -2.1960    -6.3900    -0.8480 H     1 <1>   0.1500 
 47 H        0.0340     6.0980     2.3950 H     1 <1>   0.0800 
 48 H       -0.4570     7.3360     1.2480 H     1 <1>   0.0800 
 49 H        0.9140     7.6030     2.2970 H     1 <1>   0.0800 
 50 H       -3.8670    -7.2120     0.7600 H     1 <1>   0.1500 
@<TRIPOS>BOND
  1   1   2  2   
  2   2   3  am  
  3   2   4  1   
  4   3   5  1   
  5   3   6  1   
  6   4   7  1   
  7   4  25  1   
  8   4  26  1   
  9   5   8  1   
 10   5  27  1   
 11   5  28  1   
 12   6   9  1   
 13   6  29  1   
 14   6  30  1   
 15   7  10  1   
 16   7  31  1   
 17   7  32  1   
 18   8  11  1   
 19   8  12  1   
 20   8  33  1   
 21   9  11  1   
 22   9  13  1   
 23   9  34  1   
 24  10  14  1   
 25  10  35  1   
 26  10  36  1   
 27  12  15  ar  
 28  12  16  ar  
 29  13  17  1   
 30  13  18  1   
 31  13  37  1   
 32  14  19  am  
 33  14  38  1   
 34  15  20  ar  
 35  15  39  1   
 36  16  21  ar  
 37  16  40  1   
 38  17  18  1   
 39  17  41  1   
 40  17  42  1   
 41  18  43  1   
 42  18  44  1   
 43  19  22  2   
 44  19  23  1   
 45  20  24  ar  
 46  20  45  1   
 47  21  24  ar  
 48  21  46  1   
 49  23  47  1   
 50  23  48  1   
 51  23  49  1   
 52  24  50  1   
@<TRIPOS>SUBSTRUCTURE
  1 ****   3 GROUP 4 **** **** 0

# MOE 2024.06 (io_trps.svl 2023.06)
