@<TRIPOS>MOLECULE
NONAME
35 37 1 0 0 
SMALL
USER_CHARGES


@<TRIPOS>ATOM
  1 O        0.1420     1.9020     0.4470 O.co2 1 <1>  -0.9000 
  2 C        1.2300     1.8890     1.0380 C.2   1 <1>   0.9470 
  3 O        1.3790     2.4840     2.1150 O.co2 1 <1>  -0.9000 
  4 C        2.4690     1.3420     0.3250 C.3   1 <1>  -0.2420 
  5 C        3.1650     0.0020     0.3580 C.3   1 <1>  -0.2420 
  6 C        3.5360     2.4140     0.2510 C.3   1 <1>   0.2350 
  7 C        2.2780     0.3630    -0.8050 C.3   1 <1>  -0.2000 
  8 C        2.8610    -1.2610     1.1690 C.2   1 <1>   0.9470 
  9 C        4.6630     0.2480     0.2830 C.3   1 <1>   0.2350 
 10 N        4.8080     1.6950    -0.0420 N.am  1 <1>  -0.6600 
 11 O        3.3720    -1.3850     2.2910 O.co2 1 <1>  -0.9000 
 12 O        2.2500    -2.1970     0.6360 O.co2 1 <1>  -0.9000 
 13 C        5.9460     2.2440    -0.5390 C.2   1 <1>   0.5690 
 14 O        6.9320     1.5880    -0.7850 O.2   1 <1>  -0.5700 
 15 C        5.9960     3.7400    -0.7790 C.3   1 <1>  -0.0990 
 16 C        7.4230     4.2260    -1.0610 C.3   1 <1>   0.0960 
 17 N        7.4640     5.6970    -1.1390 N.pl3 1 <1>   0.3140 
 18 N        7.2490     6.3590    -2.2540 N.2   1 <1>  -0.4180 
 19 C        7.6840     6.5850    -0.1820 C.2   1 <1>   0.0060 
 20 N        7.3430     7.6050    -1.9580 N.2   1 <1>   0.0000 
 21 N        7.6140     7.7640    -0.6670 N.2   1 <1>  -0.3380 
 22 C        7.9720     6.2680     1.2740 C.3   1 <1>  -0.0600 
 23 H        3.6220     2.9130     1.2020 H     1 <1>   0.0800 
 24 H        3.2930     3.1250    -0.5170 H     1 <1>   0.0800 
 25 H        2.7170     0.5640    -1.7640 H     1 <1>   0.1000 
 26 H        1.3270    -0.1390    -0.8830 H     1 <1>   0.1000 
 27 H        5.1170    -0.3690    -0.4730 H     1 <1>   0.0800 
 28 H        5.1230     0.0510     1.2360 H     1 <1>   0.0800 
 29 H        5.3650     3.9720    -1.6170 H     1 <1>   0.0800 
 30 H        5.6170     4.2360     0.0960 H     1 <1>   0.0800 
 31 H        7.7720     3.8200    -1.9940 H     1 <1>   0.0800 
 32 H        8.0870     3.9000    -0.2810 H     1 <1>   0.0800 
 33 H        8.0930     7.1820     1.8280 H     1 <1>   0.0800 
 34 H        8.8780     5.6960     1.3570 H     1 <1>   0.0800 
 35 H        7.1570     5.7140     1.7030 H     1 <1>   0.0800 
@<TRIPOS>BOND
  1   1   2  ar  
  2   2   3  ar  
  3   2   4  1   
  4   4   5  1   
  5   4   6  1   
  6   4   7  1   
  7   5   7  1   
  8   5   8  1   
  9   5   9  1   
 10   6  10  1   
 11   6  23  1   
 12   6  24  1   
 13   7  25  1   
 14   7  26  1   
 15   8  11  ar  
 16   8  12  ar  
 17   9  10  1   
 18   9  27  1   
 19   9  28  1   
 20  10  13  am  
 21  13  14  2   
 22  13  15  1   
 23  15  16  1   
 24  15  29  1   
 25  15  30  1   
 26  16  17  1   
 27  16  31  1   
 28  16  32  1   
 29  17  18  1   
 30  17  19  1   
 31  18  20  2   
 32  19  21  2   
 33  19  22  1   
 34  20  21  1   
 35  22  33  1   
 36  22  34  1   
 37  22  35  1   
@<TRIPOS>SUBSTRUCTURE
  1 ****  10 GROUP 4 **** **** 0

# MOE 2024.06 (io_trps.svl 2023.06)
