@<TRIPOS>MOLECULE
NONAME
45 48 1 0 0 
SMALL
USER_CHARGES


@<TRIPOS>ATOM
  1 O       -0.6510    -0.3310    -0.6110 O.2   1 <1>  -0.5700 
  2 C       -1.1340    -1.4160    -0.7960 C.2   1 <1>   0.4230 
  3 C       -2.1940    -2.0450    -0.0730 C.ar  1 <1>   0.0860 
  4 C       -0.6570    -2.3450    -1.8900 C.3   1 <1>  -0.0990 
  5 C       -2.4670    -3.2980    -0.5850 C.ar  1 <1>  -0.1440 
  6 C       -2.9190    -1.5680     1.0110 C.ar  1 <1>  -0.1500 
  7 C       -1.5520    -3.5940    -1.7650 C.3   1 <1>  -0.0160 
  8 C       -3.4530    -4.1240    -0.0450 C.ar  1 <1>   0.0860 
  9 C       -3.9100    -2.3570     1.5650 C.ar  1 <1>  -0.1500 
 10 C       -3.7330    -5.4520    -0.5640 C.2   1 <1>   0.5440 
 11 C       -4.1710    -3.6130     1.0420 C.ar  1 <1>  -0.1500 
 12 O       -3.7090    -5.6850    -1.7560 O.2   1 <1>  -0.5700 
 13 N       -4.0340    -6.4730     0.2880 N.am  1 <1>  -0.7300 
 14 C       -4.3520    -7.8610    -0.1170 C.3   1 <1>   0.2200 
 15 C       -5.8550    -8.0670    -0.0340 C.3   1 <1>  -0.0800 
 16 C       -3.8500    -8.8250     0.9500 C.3   1 <1>   0.1200 
 17 C       -6.0610    -8.4330     1.4420 C.3   1 <1>   0.1200 
 18 C       -6.3230    -9.1830    -0.9860 C.3   1 <1>  -0.0170 
 19 O       -4.8140    -8.8010     1.9580 O.3   1 <1>  -0.5600 
 20 C       -7.8320    -9.3650    -0.9280 C.ar  1 <1>  -0.1430 
 21 C       -8.4200   -10.4410    -0.2940 C.ar  1 <1>  -0.1500 
 22 C       -8.6920    -8.4580    -1.5120 C.ar  1 <1>  -0.1500 
 23 C       -9.8010   -10.5500    -0.2690 C.ar  1 <1>   0.1600 
 24 C      -10.0600    -8.6600    -1.4310 C.ar  1 <1>   0.1600 
 25 N      -10.6350    -9.6840    -0.8210 N.ar  1 <1>  -0.6200 
 26 H       -0.7780    -1.8730    -2.8480 H     1 <1>   0.0800 
 27 H        0.3780    -2.5890    -1.7330 H     1 <1>   0.0800 
 28 H       -2.7000    -0.5890     1.4030 H     1 <1>   0.1500 
 29 H       -0.9640    -4.4760    -1.5770 H     1 <1>   0.0800 
 30 H       -2.1320    -3.7370    -2.6610 H     1 <1>   0.0800 
 31 H       -4.4800    -1.9910     2.4030 H     1 <1>   0.1500 
 32 H       -4.9530    -4.2070     1.4820 H     1 <1>   0.1500 
 33 H       -4.0390    -6.3230     1.2990 H     1 <1>   0.3700 
 34 H       -3.9410    -8.0750    -1.0900 H     1 <1>   0.0800 
 35 H       -6.3820    -7.1630    -0.2830 H     1 <1>   0.0800 
 36 H       -2.8940    -8.5410     1.3530 H     1 <1>   0.0800 
 37 H       -3.8010    -9.8290     0.5660 H     1 <1>   0.0800 
 38 H       -6.7460    -9.2510     1.5800 H     1 <1>   0.0800 
 39 H       -6.4070    -7.5820     2.0020 H     1 <1>   0.0800 
 40 H       -5.8370   -10.1120    -0.7430 H     1 <1>   0.0800 
 41 H       -6.0480    -8.9280    -1.9960 H     1 <1>   0.0800 
 42 H       -7.8210   -11.1950     0.1830 H     1 <1>   0.1500 
 43 H       -8.3120    -7.5960    -2.0300 H     1 <1>   0.1500 
 44 H      -10.2430   -11.3950     0.2310 H     1 <1>   0.1500 
 45 H      -10.7150    -7.9410    -1.8930 H     1 <1>   0.1500 
@<TRIPOS>BOND
  1   1   2  2   
  2   2   3  1   
  3   2   4  1   
  4   3   5  ar  
  5   3   6  ar  
  6   4   7  1   
  7   4  26  1   
  8   4  27  1   
  9   5   7  1   
 10   5   8  ar  
 11   6   9  ar  
 12   6  28  1   
 13   7  29  1   
 14   7  30  1   
 15   8  10  1   
 16   8  11  ar  
 17   9  11  ar  
 18   9  31  1   
 19  10  12  2   
 20  10  13  am  
 21  11  32  1   
 22  13  14  1   
 23  13  33  1   
 24  14  15  1   
 25  14  16  1   
 26  14  34  1   
 27  15  17  1   
 28  15  18  1   
 29  15  35  1   
 30  16  19  1   
 31  16  36  1   
 32  16  37  1   
 33  17  19  1   
 34  17  38  1   
 35  17  39  1   
 36  18  20  1   
 37  18  40  1   
 38  18  41  1   
 39  20  21  ar  
 40  20  22  ar  
 41  21  23  ar  
 42  21  42  1   
 43  22  24  ar  
 44  22  43  1   
 45  23  25  ar  
 46  23  44  1   
 47  24  25  ar  
 48  24  45  1   
@<TRIPOS>SUBSTRUCTURE
  1 ****  13 GROUP 4 **** **** 0

# MOE 2024.06 (io_trps.svl 2023.06)
