@<TRIPOS>MOLECULE
NONAME
48 50 1 0 0 
SMALL
USER_CHARGES


@<TRIPOS>ATOM
  1 F       -2.0140     0.6530    -2.0950 F     1 <1>  -0.1900 
  2 C       -2.4300     1.1280    -0.9530 C.ar  1 <1>   0.1900 
  3 C       -2.9280     0.2520     0.0150 C.ar  1 <1>   0.0860 
  4 C       -2.3780     2.5030    -0.7860 C.ar  1 <1>  -0.1500 
  5 C       -2.9790    -1.1800    -0.1740 C.2   1 <1>   0.5440 
  6 C       -3.3980     0.8280     1.1970 C.ar  1 <1>  -0.1500 
  7 C       -2.8520     3.0540     0.3930 C.ar  1 <1>  -0.1500 
  8 O       -1.9640    -1.7860    -0.4590 O.2   1 <1>  -0.5700 
  9 N       -4.1420    -1.8960     0.0370 N.am  1 <1>  -0.6600 
 10 C       -3.3580     2.2000     1.3570 C.ar  1 <1>   0.1900 
 11 C       -5.3390    -1.7470    -0.8460 C.3   1 <1>   0.2200 
 12 C       -4.0010    -3.2640     0.6230 C.3   1 <1>   0.0600 
 13 F       -3.8290     2.7130     2.4610 F     1 <1>  -0.1900 
 14 C       -5.6030    -0.3370    -1.3680 C.3   1 <1>  -0.1600 
 15 C       -6.6370    -2.0730    -0.1090 C.3   1 <1>  -0.1600 
 16 C       -7.0780    -0.3340    -1.7860 C.3   1 <1>  -0.0800 
 17 C       -7.7530    -1.4260    -0.9420 C.3   1 <1>  -0.0800 
 18 C       -7.8000     0.9780    -1.4580 C.3   1 <1>  -0.1600 
 19 C       -8.8270    -0.7270    -0.0970 C.3   1 <1>  -0.1600 
 20 C       -8.3990     0.7370    -0.0730 C.3   1 <1>   0.4230 
 21 N       -9.5080     1.6670     0.3040 N.4   1 <1>  -0.9590 
 22 C      -10.6610     1.7160    -0.6560 C.3   1 <1>   0.2630 
 23 C       -8.9780     3.0450     0.5430 C.3   1 <1>   0.2630 
 24 H       -1.9750     3.1240    -1.5670 H     1 <1>   0.1500 
 25 H       -3.7880     0.2040     1.9800 H     1 <1>   0.1500 
 26 H       -2.8300     4.1160     0.5640 H     1 <1>   0.1500 
 27 H       -5.2350    -2.4140    -1.6880 H     1 <1>   0.0800 
 28 H       -4.7840    -3.4490     1.3360 H     1 <1>   0.0800 
 29 H       -3.0560    -3.3600     1.1300 H     1 <1>   0.0800 
 30 H       -4.0440    -4.0040    -0.1580 H     1 <1>   0.0800 
 31 H       -5.4660     0.3700    -0.5720 H     1 <1>   0.0800 
 32 H       -4.9590    -0.0940    -2.1960 H     1 <1>   0.0800 
 33 H       -6.7870    -3.1350    -0.0280 H     1 <1>   0.0800 
 34 H       -6.5950    -1.6390     0.8750 H     1 <1>   0.0800 
 35 H       -7.1560    -0.5690    -2.8360 H     1 <1>   0.0800 
 36 H       -8.1980    -2.1690    -1.5860 H     1 <1>   0.0800 
 37 H       -8.5690     1.1240    -2.1940 H     1 <1>   0.0800 
 38 H       -7.1280     1.8180    -1.4720 H     1 <1>   0.0800 
 39 H       -8.8950    -1.1430     0.8930 H     1 <1>   0.0800 
 40 H       -9.7700    -0.8460    -0.5970 H     1 <1>   0.0800 
 41 H       -7.6020     0.8270     0.6480 H     1 <1>   0.0800 
 42 H       -9.8740     1.3170     1.2030 H     1 <1>   0.4500 
 43 H      -10.3410     2.0990    -1.6110 H     1 <1>   0.0800 
 44 H      -11.4350     2.3610    -0.2730 H     1 <1>   0.0800 
 45 H      -11.0790     0.7340    -0.7990 H     1 <1>   0.0800 
 46 H       -8.5810     3.4570    -0.3710 H     1 <1>   0.0800 
 47 H       -8.1920     3.0230     1.2800 H     1 <1>   0.0800 
 48 H       -9.7640     3.6920     0.8990 H     1 <1>   0.0800 
@<TRIPOS>BOND
  1   1   2  1   
  2   2   3  ar  
  3   2   4  ar  
  4   3   5  1   
  5   3   6  ar  
  6   4   7  ar  
  7   4  24  1   
  8   5   8  2   
  9   5   9  am  
 10   6  10  ar  
 11   6  25  1   
 12   7  10  ar  
 13   7  26  1   
 14   9  11  1   
 15   9  12  1   
 16  10  13  1   
 17  11  14  1   
 18  11  15  1   
 19  11  27  1   
 20  12  28  1   
 21  12  29  1   
 22  12  30  1   
 23  14  16  1   
 24  14  31  1   
 25  14  32  1   
 26  15  17  1   
 27  15  33  1   
 28  15  34  1   
 29  16  17  1   
 30  16  18  1   
 31  16  35  1   
 32  17  19  1   
 33  17  36  1   
 34  18  20  1   
 35  18  37  1   
 36  18  38  1   
 37  19  20  1   
 38  19  39  1   
 39  19  40  1   
 40  20  21  1   
 41  20  41  1   
 42  21  22  1   
 43  21  23  1   
 44  21  42  1   
 45  22  43  1   
 46  22  44  1   
 47  22  45  1   
 48  23  46  1   
 49  23  47  1   
 50  23  48  1   
@<TRIPOS>SUBSTRUCTURE
  1 ****  14 GROUP 4 **** **** 0

# MOE 2024.06 (io_trps.svl 2023.06)
