@<TRIPOS>MOLECULE
NONAME
44 46 1 0 0 
SMALL
USER_CHARGES


@<TRIPOS>ATOM
  1 CL       1.7340     4.1710     2.2120 Cl    1 <1>  -0.1770 
  2 C        0.6850     3.2870     1.1270 C.ar  1 <1>   0.1770 
  3 C        1.2050     2.3840     0.2070 C.ar  1 <1>  -0.1440 
  4 C       -0.6750     3.5200     1.2230 C.ar  1 <1>  -0.1500 
  5 C        0.3160     1.7110    -0.6240 C.ar  1 <1>  -0.1500 
  6 C        2.7090     2.1420     0.0970 C.3   1 <1>   0.3640 
  7 C       -1.5450     2.8420     0.3900 C.ar  1 <1>  -0.1500 
  8 C       -1.0470     1.9370    -0.5320 C.ar  1 <1>  -0.1500 
  9 N        2.9550     0.6790     0.0710 N.am  1 <1>  -0.7300 
 10 C        3.3170     2.8370    -1.1470 C.3   1 <1>   0.2610 
 11 C        3.8510     0.0870    -0.7500 C.2   1 <1>   0.5690 
 12 O        4.6150     2.3210    -1.4200 O.3   1 <1>  -0.5600 
 13 C        3.3650     4.3470    -0.9180 C.2   1 <1>   0.5690 
 14 O        4.0210    -1.1040    -0.7150 O.2   1 <1>  -0.5700 
 15 C        4.6320     0.9480    -1.7480 C.3   1 <1>   0.1810 
 16 O        2.3920     5.0120    -1.1840 O.2   1 <1>  -0.5700 
 17 N        4.5000     4.9000    -0.4150 N.am  1 <1>  -0.7300 
 18 C        4.6950     6.3180    -0.0860 C.3   1 <1>   0.2200 
 19 C        5.8420     6.8710    -0.9370 C.3   1 <1>  -0.1600 
 20 C        5.0020     6.4390     1.4100 C.3   1 <1>  -0.1600 
 21 C        6.1650     8.3230    -0.5570 C.3   1 <1>  -0.1600 
 22 C        5.3240     7.8910     1.7950 C.3   1 <1>  -0.1600 
 23 C        6.4720     8.4490     0.9420 C.3   1 <1>  -0.1600 
 24 H       -1.0430     4.2280     1.9430 H     1 <1>   0.1500 
 25 H        0.6780     1.0030    -1.3510 H     1 <1>   0.1500 
 26 H        3.2080     2.5300     0.9670 H     1 <1>   0.0800 
 27 H       -2.6050     3.0180     0.4570 H     1 <1>   0.1500 
 28 H       -1.7240     1.4090    -1.1820 H     1 <1>   0.1500 
 29 H        2.4420     0.1020     0.7400 H     1 <1>   0.3700 
 30 H        2.6990     2.6520    -2.0070 H     1 <1>   0.0800 
 31 H        4.2120     0.8280    -2.7300 H     1 <1>   0.0800 
 32 H        5.6580     0.6280    -1.7690 H     1 <1>   0.0800 
 33 H        5.3260     4.3030    -0.3290 H     1 <1>   0.3700 
 34 H        3.7950     6.8690    -0.3060 H     1 <1>   0.0800 
 35 H        6.7220     6.2680    -0.7940 H     1 <1>   0.0800 
 36 H        5.5640     6.8290    -1.9760 H     1 <1>   0.0800 
 37 H        4.1490     6.1050     1.9750 H     1 <1>   0.0800 
 38 H        5.8430     5.8170     1.6580 H     1 <1>   0.0800 
 39 H        7.0100     8.6670    -1.1290 H     1 <1>   0.0800 
 40 H        5.3240     8.9500    -0.8020 H     1 <1>   0.0800 
 41 H        4.4470     8.4990     1.6530 H     1 <1>   0.0800 
 42 H        5.5920     7.9380     2.8360 H     1 <1>   0.0800 
 43 H        6.6340     9.4840     1.1900 H     1 <1>   0.0800 
 44 H        7.3770     7.9110     1.1670 H     1 <1>   0.0800 
@<TRIPOS>BOND
  1   1   2  1   
  2   2   3  ar  
  3   2   4  ar  
  4   3   5  ar  
  5   3   6  1   
  6   4   7  ar  
  7   4  24  1   
  8   5   8  ar  
  9   5  25  1   
 10   6   9  1   
 11   6  10  1   
 12   6  26  1   
 13   7   8  ar  
 14   7  27  1   
 15   8  28  1   
 16   9  11  am  
 17   9  29  1   
 18  10  12  1   
 19  10  13  1   
 20  10  30  1   
 21  11  14  2   
 22  11  15  1   
 23  12  15  1   
 24  13  16  2   
 25  13  17  am  
 26  15  31  1   
 27  15  32  1   
 28  17  18  1   
 29  17  33  1   
 30  18  19  1   
 31  18  20  1   
 32  18  34  1   
 33  19  21  1   
 34  19  35  1   
 35  19  36  1   
 36  20  22  1   
 37  20  37  1   
 38  20  38  1   
 39  21  23  1   
 40  21  39  1   
 41  21  40  1   
 42  22  23  1   
 43  22  41  1   
 44  22  42  1   
 45  23  43  1   
 46  23  44  1   
@<TRIPOS>SUBSTRUCTURE
  1 ****  13 GROUP 4 **** **** 0

# MOE 2024.06 (io_trps.svl 2023.06)
