@<TRIPOS>MOLECULE
NONAME
40 41 1 0 0 
SMALL
USER_CHARGES


@<TRIPOS>ATOM
  1 S        0.4290     0.1430    -1.1940 S.o2  1 <1>   1.3330 
  2 O        1.6720    -0.5280    -1.5060 O.2   1 <1>  -0.6500 
  3 O       -0.4910     0.4680    -2.2600 O.2   1 <1>  -0.6500 
  4 N       -0.4240    -0.8260    -0.0880 N.am  1 <1>  -0.8490 
  5 C        0.7850     1.6370    -0.2550 C.3   1 <1>  -0.0550 
  6 C       -0.2530    -2.2580    -0.3570 C.3   1 <1>   0.1160 
  7 C       -1.8550    -0.5070    -0.0130 C.3   1 <1>   0.1160 
  8 C        1.9860     1.6030     0.7190 C.3   1 <1>  -0.0800 
  9 C        3.3420     1.4970     0.0130 C.3   1 <1>   0.2200 
 10 C        2.0150     0.4650     1.7450 C.3   1 <1>   0.1200 
 11 N        4.1310     2.7200     0.2770 N.am  1 <1>  -0.7300 
 12 C        3.9870     0.2820     0.6770 C.3   1 <1>   0.1200 
 13 O        3.3610     0.1690     1.9140 O.3   1 <1>  -0.5600 
 14 C        4.0620     3.8780    -0.4430 C.2   1 <1>   0.7160 
 15 O        3.2740     3.9320    -1.3720 O.2   1 <1>  -0.5700 
 16 C        4.8930     5.0150    -0.0890 C.2   1 <1>   0.2030 
 17 N        5.7320     5.0780     0.9040 N.2   1 <1>  -0.4100 
 18 C        4.9210     6.2290    -0.7580 C.2   1 <1>  -0.1500 
 19 O        6.3120     6.2540     0.9340 O.3   1 <1>  -0.0190 
 20 C        5.8170     6.9420    -0.0720 C.2   1 <1>  -0.0400 
 21 C        6.3070     8.3580    -0.2930 C.3   1 <1>  -0.0600 
 22 H        0.9700     2.4300    -0.9540 H     1 <1>   0.0800 
 23 H       -0.0920     1.9130     0.2960 H     1 <1>   0.0800 
 24 H       -0.7980    -2.8420     0.3650 H     1 <1>   0.0800 
 25 H        0.7880    -2.5260    -0.2860 H     1 <1>   0.0800 
 26 H       -0.6050    -2.4970    -1.3470 H     1 <1>   0.0800 
 27 H       -2.3220    -1.0820     0.7690 H     1 <1>   0.0800 
 28 H       -2.3410    -0.7290    -0.9490 H     1 <1>   0.0800 
 29 H       -1.9930     0.5380     0.2060 H     1 <1>   0.0800 
 30 H        1.9560     2.5210     1.2800 H     1 <1>   0.0800 
 31 H        3.2600     1.3460    -1.0500 H     1 <1>   0.0800 
 32 H        1.5380    -0.4310     1.3950 H     1 <1>   0.0800 
 33 H        1.5970     0.7540     2.6940 H     1 <1>   0.0800 
 34 H        4.7050     2.7150     1.1250 H     1 <1>   0.3700 
 35 H        5.0480     0.3880     0.8140 H     1 <1>   0.0800 
 36 H        3.7750    -0.6130     0.1170 H     1 <1>   0.0800 
 37 H        4.3350     6.4820    -1.6230 H     1 <1>   0.1500 
 38 H        5.8180     8.7940    -1.1450 H     1 <1>   0.0800 
 39 H        7.3690     8.3540    -0.4630 H     1 <1>   0.0800 
 40 H        6.0950     8.9560     0.5750 H     1 <1>   0.0800 
@<TRIPOS>BOND
  1   1   2  2   
  2   1   3  2   
  3   1   4  am  
  4   1   5  1   
  5   4   6  1   
  6   4   7  1   
  7   5   8  1   
  8   5  22  1   
  9   5  23  1   
 10   6  24  1   
 11   6  25  1   
 12   6  26  1   
 13   7  27  1   
 14   7  28  1   
 15   7  29  1   
 16   8   9  1   
 17   8  10  1   
 18   8  30  1   
 19   9  11  1   
 20   9  12  1   
 21   9  31  1   
 22  10  13  1   
 23  10  32  1   
 24  10  33  1   
 25  11  14  am  
 26  11  34  1   
 27  12  13  1   
 28  12  35  1   
 29  12  36  1   
 30  14  15  2   
 31  14  16  1   
 32  16  17  2   
 33  16  18  1   
 34  17  19  1   
 35  18  20  2   
 36  18  37  1   
 37  19  20  1   
 38  20  21  1   
 39  21  38  1   
 40  21  39  1   
 41  21  40  1   
@<TRIPOS>SUBSTRUCTURE
  1 ****   9 GROUP 4 **** **** 0

# MOE 2024.06 (io_trps.svl 2023.06)
