@<TRIPOS>MOLECULE
NONAME
54 56 1 0 0 
SMALL
USER_CHARGES


@<TRIPOS>ATOM
  1 O       -2.4090     2.5480    -1.5970 O.co2 1 <1>  -0.9000 
  2 C       -1.3320     3.0620    -1.2890 C.2   1 <1>   0.9060 
  3 O       -0.8440     4.0020    -1.9350 O.co2 1 <1>  -0.9000 
  4 C       -0.6760     2.6350     0.0240 C.3   1 <1>  -0.1060 
  5 C       -1.6040     2.9450     1.2420 C.3   1 <1>   0.2000 
  6 C        0.6400     3.4150     0.1510 C.3   1 <1>   0.3430 
  7 C       -0.3670     1.1180    -0.0070 C.3   1 <1>  -0.0650 
  8 O       -2.8070     3.4950     0.8440 O.3   1 <1>  -0.6800 
  9 C       -0.9980     3.9530     2.2210 C.3   1 <1>  -0.1600 
 10 N        0.3290     4.8630     0.2970 N.4   1 <1>  -0.9590 
 11 C        0.6720     0.7250    -1.0670 C.3   1 <1>  -0.1950 
 12 C       -0.5380     5.2060     1.4700 C.3   1 <1>   0.3430 
 13 C        1.5140     5.7380     0.0990 C.3   1 <1>   0.3430 
 14 C        1.3840    -0.5840    -0.9630 C.3   1 <1>  -0.2000 
 15 C        2.1380     0.6990    -0.7660 C.3   1 <1>  -0.2000 
 16 C        1.1060     7.1310    -0.3830 C.3   1 <1>   0.1200 
 17 O        2.2410     7.9610    -0.3050 O.3   1 <1>  -0.3630 
 18 C        2.1640     9.2900    -0.5830 C.ar  1 <1>   0.0830 
 19 C        3.2740    10.0770    -0.2890 C.ar  1 <1>  -0.1430 
 20 C        1.0320     9.8800    -1.1400 C.ar  1 <1>  -0.1500 
 21 C        3.2350    11.4390    -0.5450 C.ar  1 <1>  -0.1500 
 22 C        4.5300     9.4620     0.3110 C.3   1 <1>  -0.0970 
 23 C        1.0070    11.2400    -1.3900 C.ar  1 <1>  -0.1500 
 24 C        2.1060    12.0270    -1.0910 C.ar  1 <1>  -0.1430 
 25 C        2.0820    13.5200    -1.3660 C.3   1 <1>  -0.0970 
 26 H       -1.8500     2.0360     1.7660 H     1 <1>   0.0800 
 27 H        1.2200     3.2580    -0.7450 H     1 <1>   0.0800 
 28 H        1.2050     3.0640     0.9970 H     1 <1>   0.0800 
 29 H       -0.0190     0.7950     0.9590 H     1 <1>   0.0800 
 30 H       -1.2790     0.5820    -0.2150 H     1 <1>   0.0800 
 31 H       -3.0390     3.1250    -0.0610 H     1 <1>   0.4000 
 32 H       -1.7290     4.2210     2.9630 H     1 <1>   0.0800 
 33 H       -0.1670     3.5130     2.7400 H     1 <1>   0.0800 
 34 H       -0.2680     4.9770    -0.5670 H     1 <1>   0.4500 
 35 H        0.3660     1.0090    -2.0630 H     1 <1>   0.1000 
 36 H       -0.0060     5.8520     2.1490 H     1 <1>   0.0800 
 37 H       -1.4100     5.7320     1.1160 H     1 <1>   0.0800 
 38 H        2.0570     5.8240     1.0250 H     1 <1>   0.0800 
 39 H        2.1610     5.3020    -0.6450 H     1 <1>   0.0800 
 40 H        1.1980    -1.2150    -0.1110 H     1 <1>   0.1000 
 41 H        1.5440    -1.1510    -1.8650 H     1 <1>   0.1000 
 42 H        2.8300     1.0040    -1.5330 H     1 <1>   0.1000 
 43 H        2.4990     0.9120     0.2240 H     1 <1>   0.1000 
 44 H        0.3450     7.5530     0.2480 H     1 <1>   0.0800 
 45 H        0.7770     7.0920    -1.4070 H     1 <1>   0.0800 
 46 H        0.1620     9.3060    -1.3930 H     1 <1>   0.1500 
 47 H        4.0900    12.0510    -0.3180 H     1 <1>   0.1500 
 48 H        5.2940    10.2040     0.4570 H     1 <1>   0.0800 
 49 H        4.9140     8.7030    -0.3470 H     1 <1>   0.0800 
 50 H        4.3000     9.0160     1.2620 H     1 <1>   0.0800 
 51 H        0.1280    11.6860    -1.8210 H     1 <1>   0.1500 
 52 H        1.0720    13.8900    -1.3610 H     1 <1>   0.0800 
 53 H        2.5200    13.7200    -2.3270 H     1 <1>   0.0800 
 54 H        2.6390    14.0480    -0.6130 H     1 <1>   0.0800 
@<TRIPOS>BOND
  1   1   2  ar  
  2   2   3  ar  
  3   2   4  1   
  4   4   5  1   
  5   4   6  1   
  6   4   7  1   
  7   5   8  1   
  8   5   9  1   
  9   5  26  1   
 10   6  10  1   
 11   6  27  1   
 12   6  28  1   
 13   7  11  1   
 14   7  29  1   
 15   7  30  1   
 16   8  31  1   
 17   9  12  1   
 18   9  32  1   
 19   9  33  1   
 20  10  12  1   
 21  10  13  1   
 22  10  34  1   
 23  11  14  1   
 24  11  15  1   
 25  11  35  1   
 26  12  36  1   
 27  12  37  1   
 28  13  16  1   
 29  13  38  1   
 30  13  39  1   
 31  14  15  1   
 32  14  40  1   
 33  14  41  1   
 34  15  42  1   
 35  15  43  1   
 36  16  17  1   
 37  16  44  1   
 38  16  45  1   
 39  17  18  1   
 40  18  19  ar  
 41  18  20  ar  
 42  19  21  ar  
 43  19  22  1   
 44  20  23  ar  
 45  20  46  1   
 46  21  24  ar  
 47  21  47  1   
 48  22  48  1   
 49  22  49  1   
 50  22  50  1   
 51  23  24  ar  
 52  23  51  1   
 53  24  25  1   
 54  25  52  1   
 55  25  53  1   
 56  25  54  1   
@<TRIPOS>SUBSTRUCTURE
  1 ****  13 GROUP 4 **** **** 0

# MOE 2024.06 (io_trps.svl 2023.06)
