@<TRIPOS>MOLECULE
NONAME
46 48 1 0 0 
SMALL
USER_CHARGES


@<TRIPOS>ATOM
  1 S       -0.4680    -0.6260    -1.4670 S.o2  1 <1>   1.4470 
  2 O       -1.3860    -1.7420    -1.5320 O.2   1 <1>  -0.6500 
  3 O        0.2150    -0.1940    -2.6660 O.2   1 <1>  -0.6500 
  4 N       -1.3340     0.7010    -0.8620 N.am  1 <1>  -0.8490 
  5 C        0.7730    -0.9250    -0.1740 C.ar  1 <1>  -0.0090 
  6 C       -2.2130     0.3290     0.2500 C.3   1 <1>   0.1960 
  7 C       -2.0710     1.3970    -1.9200 C.3   1 <1>   0.1960 
  8 C        1.4750     0.1380     0.3910 C.ar  1 <1>  -0.1500 
  9 C        1.0560    -2.2190     0.2680 C.ar  1 <1>  -0.1500 
 10 C       -2.8710     1.5770     0.8440 C.3   1 <1>  -0.1600 
 11 C       -2.6890     2.6790    -1.3580 C.3   1 <1>  -0.1600 
 12 C        2.4180    -0.1040     1.3710 C.ar  1 <1>   0.1900 
 13 C        2.0050    -2.4650     1.2510 C.ar  1 <1>  -0.1500 
 14 C       -3.6670     2.3710    -0.2070 C.3   1 <1>   0.2800 
 15 F        3.0610     0.9100     1.8910 F     1 <1>  -0.1900 
 16 C        2.6820    -1.3930     1.7990 C.ar  1 <1>   0.1900 
 17 O       -3.9640     3.6000     0.4120 O.3   1 <1>  -0.5600 
 18 C       -4.9760     1.6100    -0.6510 C.3   1 <1>   0.2000 
 19 F        3.5750    -1.6170     2.7280 F     1 <1>  -0.1900 
 20 C       -5.0800     4.3020    -0.0290 C.3   1 <1>   0.1200 
 21 O       -5.2810     1.8600    -2.0010 O.3   1 <1>  -0.6800 
 22 C       -6.2010     1.9930     0.2270 C.3   1 <1>   0.2800 
 23 C       -6.3650     3.5250     0.2990 C.3   1 <1>  -0.1600 
 24 O       -5.9880     1.5280     1.5110 O.3   1 <1>  -0.6800 
 25 C       -7.5020     1.3120    -0.2160 C.3   1 <1>  -0.2400 
 26 H       -2.9630    -0.3680    -0.0870 H     1 <1>   0.0800 
 27 H       -1.6380    -0.1550     1.0210 H     1 <1>   0.0800 
 28 H       -1.3970     1.6660    -2.7170 H     1 <1>   0.0800 
 29 H       -2.8320     0.7520    -2.3290 H     1 <1>   0.0800 
 30 H        1.2850     1.1480     0.0690 H     1 <1>   0.1500 
 31 H        0.5220    -3.0490    -0.1680 H     1 <1>   0.1500 
 32 H       -2.0960     2.2020     1.2510 H     1 <1>   0.0800 
 33 H       -3.5060     1.2820     1.6560 H     1 <1>   0.0800 
 34 H       -3.1760     3.2120    -2.1520 H     1 <1>   0.0800 
 35 H       -1.8920     3.3030    -0.9930 H     1 <1>   0.0800 
 36 H        2.2170    -3.4660     1.5860 H     1 <1>   0.1500 
 37 H       -4.8270     0.5490    -0.5870 H     1 <1>   0.0800 
 38 H       -5.0830     5.2570     0.4670 H     1 <1>   0.0800 
 39 H       -4.9770     4.4680    -1.0870 H     1 <1>   0.0800 
 40 H       -5.4640     2.8090    -2.1260 H     1 <1>   0.4000 
 41 H       -7.1090     3.8410    -0.4090 H     1 <1>   0.0800 
 42 H       -6.7200     3.8200     1.2700 H     1 <1>   0.0800 
 43 H       -6.7180     1.8150     2.0890 H     1 <1>   0.4000 
 44 H       -7.7690     1.6210    -1.2110 H     1 <1>   0.0800 
 45 H       -8.3130     1.5680     0.4410 H     1 <1>   0.0800 
 46 H       -7.3750     0.2440    -0.2270 H     1 <1>   0.0800 
@<TRIPOS>BOND
  1   1   2  2   
  2   1   3  2   
  3   1   4  am  
  4   1   5  1   
  5   4   6  1   
  6   4   7  1   
  7   5   8  ar  
  8   5   9  ar  
  9   6  10  1   
 10   6  26  1   
 11   6  27  1   
 12   7  11  1   
 13   7  28  1   
 14   7  29  1   
 15   8  12  ar  
 16   8  30  1   
 17   9  13  ar  
 18   9  31  1   
 19  10  14  1   
 20  10  32  1   
 21  10  33  1   
 22  11  14  1   
 23  11  34  1   
 24  11  35  1   
 25  12  15  1   
 26  12  16  ar  
 27  13  16  ar  
 28  13  36  1   
 29  14  17  1   
 30  14  18  1   
 31  16  19  1   
 32  17  20  1   
 33  18  21  1   
 34  18  22  1   
 35  18  37  1   
 36  20  23  1   
 37  20  38  1   
 38  20  39  1   
 39  21  40  1   
 40  22  23  1   
 41  22  24  1   
 42  22  25  1   
 43  23  41  1   
 44  23  42  1   
 45  24  43  1   
 46  25  44  1   
 47  25  45  1   
 48  25  46  1   
@<TRIPOS>SUBSTRUCTURE
  1 ****   6 GROUP 4 **** **** 0

# MOE 2024.06 (io_trps.svl 2023.06)
