@<TRIPOS>MOLECULE
NONAME
47 50 1 0 0 
SMALL
USER_CHARGES


@<TRIPOS>ATOM
  1 O       -1.4120    -2.1230     0.9780 O.2   1 <1>  -0.5700 
  2 C       -0.3500    -2.6040     1.3070 C.2   1 <1>   0.7800 
  3 O        0.0330    -2.6690     2.5730 O.3   1 <1>  -0.4300 
  4 N        0.5490    -3.1760     0.4810 N.am  1 <1>  -0.6600 
  5 C        1.2700    -3.3480     2.6900 C.3   1 <1>   0.1200 
  6 C        1.6400    -3.7650     1.2600 C.3   1 <1>   0.1400 
  7 C        0.3160    -3.5260    -0.9510 C.3   1 <1>   0.2010 
  8 C       -0.0030    -5.0090    -1.1570 C.2   1 <1>   0.5690 
  9 O        0.9110    -5.7450    -1.4510 O.2   1 <1>  -0.5700 
 10 N       -1.2770    -5.4890    -1.0040 N.am  1 <1>  -0.6600 
 11 C       -2.4790    -4.7060    -0.6160 C.3   1 <1>   0.1400 
 12 C       -1.6100    -6.9250    -1.1490 C.3   1 <1>   0.1400 
 13 C       -3.6400    -5.6920    -0.7480 C.3   1 <1>   0.2000 
 14 C       -3.0150    -7.0720    -0.5630 C.3   1 <1>  -0.0800 
 15 O       -4.6130    -5.4770     0.2140 O.3   1 <1>  -0.6800 
 16 C       -3.8380    -8.1960    -1.2130 C.3   1 <1>  -0.0170 
 17 C       -3.1880    -9.5560    -0.9830 C.ar  1 <1>  -0.1440 
 18 C       -3.2810   -10.2400     0.2530 C.ar  1 <1>   0.0000 
 19 C       -2.4760   -10.1540    -1.9810 C.ar  1 <1>  -0.1500 
 20 C       -2.6150   -11.4840     0.3680 C.ar  1 <1>   0.3100 
 21 C       -3.9960    -9.7650     1.3780 C.ar  1 <1>  -0.1500 
 22 C       -1.8610   -11.3930    -1.7650 C.ar  1 <1>   0.1600 
 23 N       -1.9120   -12.0460    -0.6470 N.ar  1 <1>  -0.6200 
 24 C       -2.6770   -12.1780     1.5870 C.ar  1 <1>  -0.1500 
 25 C       -4.0390   -10.4680     2.5510 C.ar  1 <1>  -0.1500 
 26 C       -3.3700   -11.6890     2.6610 C.ar  1 <1>  -0.1500 
 27 H        1.9960    -2.6720     3.1060 H     1 <1>   0.0800 
 28 H        1.1410    -4.2000     3.3340 H     1 <1>   0.0800 
 29 H        1.6510    -4.8380     1.1590 H     1 <1>   0.0800 
 30 H        2.5900    -3.3570     0.9630 H     1 <1>   0.0800 
 31 H       -0.4900    -2.9300    -1.3390 H     1 <1>   0.0800 
 32 H        1.1990    -3.2850    -1.5140 H     1 <1>   0.0800 
 33 H       -2.3760    -4.3850     0.4050 H     1 <1>   0.0800 
 34 H       -2.6170    -3.8580    -1.2640 H     1 <1>   0.0800 
 35 H       -1.5960    -7.1800    -2.1950 H     1 <1>   0.0800 
 36 H       -0.8980    -7.5410    -0.6250 H     1 <1>   0.0800 
 37 H       -4.0940    -5.5950    -1.7200 H     1 <1>   0.0800 
 38 H       -2.8970    -7.2670     0.4880 H     1 <1>   0.0800 
 39 H       -4.2090    -5.4100     1.1010 H     1 <1>   0.4000 
 40 H       -3.9240    -8.0100    -2.2700 H     1 <1>   0.0800 
 41 H       -4.8390    -8.1970    -0.8180 H     1 <1>   0.0800 
 42 H       -2.3650    -9.6990    -2.9480 H     1 <1>   0.1500 
 43 H       -4.5220    -8.8310     1.3150 H     1 <1>   0.1500 
 44 H       -1.3090   -11.8300    -2.5800 H     1 <1>   0.1500 
 45 H       -2.1570   -13.1160     1.6470 H     1 <1>   0.1500 
 46 H       -4.5860   -10.0940     3.4000 H     1 <1>   0.1500 
 47 H       -3.4090   -12.2320     3.5890 H     1 <1>   0.1500 
@<TRIPOS>BOND
  1   1   2  2   
  2   2   3  1   
  3   2   4  am  
  4   3   5  1   
  5   4   6  1   
  6   4   7  1   
  7   5   6  1   
  8   5  27  1   
  9   5  28  1   
 10   6  29  1   
 11   6  30  1   
 12   7   8  1   
 13   7  31  1   
 14   7  32  1   
 15   8   9  2   
 16   8  10  am  
 17  10  11  1   
 18  10  12  1   
 19  11  13  1   
 20  11  33  1   
 21  11  34  1   
 22  12  14  1   
 23  12  35  1   
 24  12  36  1   
 25  13  14  1   
 26  13  15  1   
 27  13  37  1   
 28  14  16  1   
 29  14  38  1   
 30  15  39  1   
 31  16  17  1   
 32  16  40  1   
 33  16  41  1   
 34  17  18  ar  
 35  17  19  ar  
 36  18  20  ar  
 37  18  21  ar  
 38  19  22  ar  
 39  19  42  1   
 40  20  23  ar  
 41  20  24  ar  
 42  21  25  ar  
 43  21  43  1   
 44  22  23  ar  
 45  22  44  1   
 46  24  26  ar  
 47  24  45  1   
 48  25  26  ar  
 49  25  46  1   
 50  26  47  1   
@<TRIPOS>SUBSTRUCTURE
  1 ****  12 GROUP 4 **** **** 0

# MOE 2024.06 (io_trps.svl 2023.06)
