@<TRIPOS>MOLECULE
NONAME
52 54 1 0 0 
SMALL
USER_CHARGES


@<TRIPOS>ATOM
  1 O       -2.9940     0.4680     0.6090 O.3   1 <1>  -0.0190 
  2 N       -1.7600     0.5980     0.9810 N.2   1 <1>  -0.4100 
  3 C       -2.9870     0.8230    -0.6520 C.2   1 <1>   0.2980 
  4 C       -1.1040     1.0160    -0.0300 C.2   1 <1>   0.3350 
  5 N       -1.8540     1.1830    -1.1100 N.2   1 <1>  -0.5650 
  6 C       -4.3030     0.7780    -1.4260 C.3   1 <1>   0.3890 
  7 C        0.3840     1.3120    -0.0760 C.3   1 <1>   0.0210 
  8 N       -4.7470    -0.6290    -1.7270 N.pl3 1 <1>  -0.8380 
  9 C        1.0780     1.0080     1.2510 C.3   1 <1>   0.1200 
 10 C       -4.9270    -1.5500    -0.7440 C.ar  1 <1>   0.4100 
 11 C       -4.4990    -1.0370    -3.1450 C.3   1 <1>   0.1290 
 12 O        2.4320     1.3000     1.1130 O.3   1 <1>  -0.5600 
 13 N       -4.4730    -2.7690    -0.9530 N.ar  1 <1>  -0.6200 
 14 C       -5.5460    -1.2000     0.4710 C.ar  1 <1>  -0.1500 
 15 C        3.1780     1.0640     2.2630 C.3   1 <1>   0.0400 
 16 C       -4.5440    -3.6540     0.0310 C.ar  1 <1>   0.7710 
 17 C       -5.6170    -2.1160     1.4660 C.ar  1 <1>   0.2180 
 18 N       -5.0940    -3.3380     1.2170 N.ar  1 <1>  -0.1790 
 19 N       -4.0430    -4.9060    -0.1500 N.pl3 1 <1>  -0.8380 
 20 C       -6.2420    -1.8420     2.8230 C.3   1 <1>  -0.0970 
 21 C       -4.1500    -6.0700     0.7850 C.3   1 <1>   0.2090 
 22 C       -3.2280    -5.2590    -1.3590 C.3   1 <1>   0.2090 
 23 C       -2.7500    -6.4350     1.2890 C.3   1 <1>  -0.1600 
 24 C       -1.8080    -5.6240    -0.9130 C.3   1 <1>  -0.1600 
 25 C       -1.8050    -6.7580     0.1230 C.3   1 <1>  -0.1600 
 26 H       -4.1690     1.3190    -2.3460 H     1 <1>   0.0800 
 27 H       -5.0630     1.2890    -0.8630 H     1 <1>   0.0800 
 28 H        0.5190     2.3500    -0.3180 H     1 <1>   0.0800 
 29 H        0.8270     0.7150    -0.8520 H     1 <1>   0.0800 
 30 H        0.9710    -0.0340     1.5010 H     1 <1>   0.0800 
 31 H        0.6690     1.6190     2.0380 H     1 <1>   0.0800 
 32 H       -4.9420    -0.3260    -3.8200 H     1 <1>   0.0800 
 33 H       -4.9330    -2.0030    -3.3430 H     1 <1>   0.0800 
 34 H       -3.4390    -1.0890    -3.3290 H     1 <1>   0.0800 
 35 H       -5.9490    -0.2120     0.5840 H     1 <1>   0.1500 
 36 H        4.2020     1.3180     2.0550 H     1 <1>   0.0800 
 37 H        3.1090     0.0220     2.5250 H     1 <1>   0.0800 
 38 H        2.8060     1.6830     3.0620 H     1 <1>   0.0800 
 39 H       -5.0690    -4.0690     1.9130 H     1 <1>   0.4570 
 40 H       -6.6160    -0.8340     2.8680 H     1 <1>   0.0800 
 41 H       -5.5110    -1.9620     3.6040 H     1 <1>   0.0800 
 42 H       -7.0630    -2.5130     3.0020 H     1 <1>   0.0800 
 43 H       -4.5650    -6.9100     0.2520 H     1 <1>   0.0800 
 44 H       -4.7970    -5.8660     1.6170 H     1 <1>   0.0800 
 45 H       -3.1740    -4.4500    -2.0680 H     1 <1>   0.0800 
 46 H       -3.6790    -6.0990    -1.8610 H     1 <1>   0.0800 
 47 H       -2.8150    -7.2900     1.9390 H     1 <1>   0.0800 
 48 H       -2.3500    -5.6160     1.8620 H     1 <1>   0.0800 
 49 H       -1.3400    -4.7480    -0.4980 H     1 <1>   0.0800 
 50 H       -1.2330    -5.9210    -1.7730 H     1 <1>   0.0800 
 51 H       -2.1230    -7.6710    -0.3520 H     1 <1>   0.0800 
 52 H       -0.8050    -6.9110     0.4930 H     1 <1>   0.0800 
@<TRIPOS>BOND
  1   1   2  1   
  2   1   3  1   
  3   2   4  2   
  4   3   5  2   
  5   3   6  1   
  6   4   5  1   
  7   4   7  1   
  8   6   8  1   
  9   6  26  1   
 10   6  27  1   
 11   7   9  1   
 12   7  28  1   
 13   7  29  1   
 14   8  10  1   
 15   8  11  1   
 16   9  12  1   
 17   9  30  1   
 18   9  31  1   
 19  10  13  ar  
 20  10  14  ar  
 21  11  32  1   
 22  11  33  1   
 23  11  34  1   
 24  12  15  1   
 25  13  16  ar  
 26  14  17  ar  
 27  14  35  1   
 28  15  36  1   
 29  15  37  1   
 30  15  38  1   
 31  16  18  ar  
 32  16  19  1   
 33  17  18  ar  
 34  17  20  1   
 35  18  39  1   
 36  19  21  1   
 37  19  22  1   
 38  20  40  1   
 39  20  41  1   
 40  20  42  1   
 41  21  23  1   
 42  21  43  1   
 43  21  44  1   
 44  22  24  1   
 45  22  45  1   
 46  22  46  1   
 47  23  25  1   
 48  23  47  1   
 49  23  48  1   
 50  24  25  1   
 51  24  49  1   
 52  24  50  1   
 53  25  51  1   
 54  25  52  1   
@<TRIPOS>SUBSTRUCTURE
  1 ****  13 GROUP 4 **** **** 0

# MOE 2024.06 (io_trps.svl 2023.06)
