@<TRIPOS>MOLECULE
NONAME
50 53 1 0 0 
SMALL
USER_CHARGES


@<TRIPOS>ATOM
  1 S        0.6770    -0.8370     1.6220 S.3   1 <1>  -0.0800 
  2 C        0.3480    -0.9100    -0.0990 C.2   1 <1>  -0.0450 
  3 C        0.9010     0.8880     1.5140 C.2   1 <1>   0.1980 
  4 C        0.4400     0.3600    -0.5670 C.2   1 <1>   0.0460 
  5 C        0.0520    -2.1910    -0.6910 C.2   1 <1>   0.7150 
  6 N        0.7480     1.3520     0.3400 N.2   1 <1>  -0.5650 
  7 C        1.2440     1.6160     2.8040 C.3   1 <1>   0.0200 
  8 C        0.2450     0.8370    -1.9940 C.3   1 <1>  -0.0590 
  9 O       -0.2390    -2.3030    -1.8660 O.2   1 <1>  -0.5700 
 10 N        0.0730    -3.3210     0.0700 N.am  1 <1>  -0.7300 
 11 C        1.4160     3.1290     2.6130 C.3   1 <1>  -0.2400 
 12 C       -0.2030    -4.6960    -0.4030 C.3   1 <1>   0.2200 
 13 C       -1.5880    -5.1590     0.0300 C.3   1 <1>  -0.0800 
 14 C        0.6740    -5.6680     0.3730 C.3   1 <1>   0.1200 
 15 C       -1.3490    -5.7070     1.4430 C.3   1 <1>   0.1200 
 16 C       -2.7100    -4.1050    -0.0510 C.3   1 <1>  -0.0170 
 17 O        0.0350    -5.8220     1.6030 O.3   1 <1>  -0.5600 
 18 C       -4.0650    -4.7240     0.2740 C.ar  1 <1>  -0.1430 
 19 C       -4.7840    -5.5080    -0.6600 C.ar  1 <1>   0.0000 
 20 C       -4.6250    -4.5390     1.5050 C.ar  1 <1>  -0.1500 
 21 C       -6.0190    -6.0610    -0.2410 C.ar  1 <1>   0.3100 
 22 C       -4.3530    -5.7720    -1.9810 C.ar  1 <1>  -0.1500 
 23 C       -5.8590    -5.1240     1.8140 C.ar  1 <1>   0.1600 
 24 N       -6.5410    -5.8610     0.9950 N.ar  1 <1>  -0.6200 
 25 C       -6.7470    -6.8560    -1.1410 C.ar  1 <1>  -0.1500 
 26 C       -5.0890    -6.5490    -2.8340 C.ar  1 <1>  -0.1500 
 27 C       -6.3000    -7.1010    -2.4110 C.ar  1 <1>  -0.1500 
 28 H        0.4600     1.4370     3.5170 H     1 <1>   0.0800 
 29 H        2.1550     1.2040     3.1980 H     1 <1>   0.0800 
 30 H        0.0280     0.0260    -2.6620 H     1 <1>   0.0800 
 31 H        1.1390     1.3280    -2.3310 H     1 <1>   0.0800 
 32 H       -0.5670     1.5390    -2.0280 H     1 <1>   0.0800 
 33 H        0.2890    -3.2500     1.0670 H     1 <1>   0.3700 
 34 H        0.5070     3.5590     2.2310 H     1 <1>   0.0800 
 35 H        2.2070     3.3250     1.9110 H     1 <1>   0.0800 
 36 H        1.6570     3.5990     3.5490 H     1 <1>   0.0800 
 37 H       -0.0530    -4.7720    -1.4670 H     1 <1>   0.0800 
 38 H       -1.8590    -5.9950    -0.5900 H     1 <1>   0.0800 
 39 H        1.6740    -5.3020     0.5240 H     1 <1>   0.0800 
 40 H        0.7010    -6.6290    -0.1090 H     1 <1>   0.0800 
 41 H       -1.7980    -6.6770     1.5730 H     1 <1>   0.0800 
 42 H       -1.7100    -5.0350     2.2010 H     1 <1>   0.0800 
 43 H       -2.7350    -3.6630    -1.0320 H     1 <1>   0.0800 
 44 H       -2.5110    -3.3070     0.6420 H     1 <1>   0.0800 
 45 H       -4.1420    -3.9490     2.2620 H     1 <1>   0.1500 
 46 H       -3.4290    -5.3530    -2.3300 H     1 <1>   0.1500 
 47 H       -6.2650    -4.9530     2.7960 H     1 <1>   0.1500 
 48 H       -7.6770    -7.2670    -0.7950 H     1 <1>   0.1500 
 49 H       -4.7490    -6.7430    -3.8370 H     1 <1>   0.1500 
 50 H       -6.8690    -7.7120    -3.0900 H     1 <1>   0.1500 
@<TRIPOS>BOND
  1   1   2  1   
  2   1   3  1   
  3   2   4  2   
  4   2   5  1   
  5   3   6  2   
  6   3   7  1   
  7   4   6  1   
  8   4   8  1   
  9   5   9  2   
 10   5  10  am  
 11   7  11  1   
 12   7  28  1   
 13   7  29  1   
 14   8  30  1   
 15   8  31  1   
 16   8  32  1   
 17  10  12  1   
 18  10  33  1   
 19  11  34  1   
 20  11  35  1   
 21  11  36  1   
 22  12  13  1   
 23  12  14  1   
 24  12  37  1   
 25  13  15  1   
 26  13  16  1   
 27  13  38  1   
 28  14  17  1   
 29  14  39  1   
 30  14  40  1   
 31  15  17  1   
 32  15  41  1   
 33  15  42  1   
 34  16  18  1   
 35  16  43  1   
 36  16  44  1   
 37  18  19  ar  
 38  18  20  ar  
 39  19  21  ar  
 40  19  22  ar  
 41  20  23  ar  
 42  20  45  1   
 43  21  24  ar  
 44  21  25  ar  
 45  22  26  ar  
 46  22  46  1   
 47  23  24  ar  
 48  23  47  1   
 49  25  27  ar  
 50  25  48  1   
 51  26  27  ar  
 52  26  49  1   
 53  27  50  1   
@<TRIPOS>SUBSTRUCTURE
  1 ****  16 GROUP 4 **** **** 0

# MOE 2024.06 (io_trps.svl 2023.06)
