@<TRIPOS>MOLECULE
NONAME
57 60 1 0 0 
SMALL
USER_CHARGES


@<TRIPOS>ATOM
  1 O        1.1970     1.7380     0.1570 O.3   1 <1>  -0.0190 
  2 N        2.0820     0.8170     0.3900 N.2   1 <1>  -0.4100 
  3 C        1.5990     2.5750    -0.7610 C.2   1 <1>  -0.0400 
  4 C        3.0600     1.0460    -0.4100 C.2   1 <1>   0.1080 
  5 C        2.8090     2.1780    -1.1810 C.2   1 <1>  -0.1500 
  6 C        0.7280     3.7570    -1.1420 C.3   1 <1>   0.0200 
  7 C        4.3070     0.1930    -0.4940 C.3   1 <1>  -0.0590 
  8 C        0.0850     4.4230     0.0950 C.3   1 <1>  -0.0800 
  9 C       -0.4130     5.8300    -0.2250 C.3   1 <1>   0.2000 
 10 C        1.0900     4.6390     1.2390 C.3   1 <1>   0.3430 
 11 O       -1.3590     6.1800     0.7300 O.3   1 <1>  -0.6800 
 12 C        0.8320     6.6880     0.0090 C.3   1 <1>   0.3430 
 13 N        1.4780     6.0850     1.2160 N.4   1 <1>  -0.9590 
 14 C        2.9340     6.3490     1.4070 C.3   1 <1>   0.4230 
 15 C        3.1590     7.8540     1.5940 C.3   1 <1>  -0.1600 
 16 C        3.7780     5.7660     0.2600 C.3   1 <1>  -0.1600 
 17 C        4.6450     8.1510     1.7710 C.3   1 <1>   0.2090 
 18 C        5.2510     6.1020     0.4690 C.3   1 <1>   0.2090 
 19 N        5.3530     7.5670     0.6130 N.pl3 1 <1>  -0.8380 
 20 C        6.4980     8.2240     0.1650 C.ar  1 <1>   0.1000 
 21 C        6.3770     9.4270    -0.5160 C.ar  1 <1>  -0.1500 
 22 C        7.7720     7.7120     0.3880 C.ar  1 <1>  -0.1500 
 23 C        7.4890    10.1110    -0.9720 C.ar  1 <1>   0.0820 
 24 C        8.8930     8.3850    -0.0650 C.ar  1 <1>  -0.1500 
 25 O        7.2640    11.2790    -1.6270 O.3   1 <1>  -0.3630 
 26 C        8.7580     9.5830    -0.7450 C.ar  1 <1>  -0.1500 
 27 C        8.3290    12.0390    -2.1520 C.3   1 <1>   0.0400 
 28 H        3.4630     2.5950    -1.9260 H     1 <1>   0.1500 
 29 H        1.3340     4.4560    -1.6910 H     1 <1>   0.0800 
 30 H       -0.0500     3.4100    -1.8010 H     1 <1>   0.0800 
 31 H        5.1810     0.8010    -0.3510 H     1 <1>   0.0800 
 32 H        4.3590    -0.2820    -1.4560 H     1 <1>   0.0800 
 33 H        4.2840    -0.5680     0.2660 H     1 <1>   0.0800 
 34 H       -0.7170     3.7880     0.4320 H     1 <1>   0.0800 
 35 H       -0.8380     5.9500    -1.2080 H     1 <1>   0.0800 
 36 H        1.9470     3.9960     1.1330 H     1 <1>   0.0800 
 37 H        0.6130     4.4120     2.1790 H     1 <1>   0.0800 
 38 H       -2.2270     5.7600     0.5470 H     1 <1>   0.4000 
 39 H        0.5700     7.7210     0.1640 H     1 <1>   0.0800 
 40 H        1.4850     6.6090    -0.8430 H     1 <1>   0.0800 
 41 H        0.9740     6.5090     2.0080 H     1 <1>   0.4500 
 42 H        3.2510     5.8630     2.3170 H     1 <1>   0.0800 
 43 H        2.8200     8.4050     0.7360 H     1 <1>   0.0800 
 44 H        2.6330     8.2050     2.4630 H     1 <1>   0.0800 
 45 H        3.6830     4.6980     0.2190 H     1 <1>   0.0800 
 46 H        3.4850     6.1810    -0.6860 H     1 <1>   0.0800 
 47 H        5.0220     7.7160     2.6810 H     1 <1>   0.0800 
 48 H        4.8130     9.2150     1.8070 H     1 <1>   0.0800 
 49 H        5.8300     5.7790    -0.3820 H     1 <1>   0.0800 
 50 H        5.6360     5.6210     1.3530 H     1 <1>   0.0800 
 51 H        5.4020     9.8350    -0.6990 H     1 <1>   0.1500 
 52 H        7.8890     6.7900     0.9220 H     1 <1>   0.1500 
 53 H        9.8720     7.9770     0.1130 H     1 <1>   0.1500 
 54 H        9.6430    10.0860    -1.0860 H     1 <1>   0.1500 
 55 H        7.9150    12.9080    -2.6300 H     1 <1>   0.0800 
 56 H        8.8600    11.4430    -2.8730 H     1 <1>   0.0800 
 57 H        8.9750    12.3380    -1.3460 H     1 <1>   0.0800 
@<TRIPOS>BOND
  1   1   2  1   
  2   1   3  1   
  3   2   4  2   
  4   3   5  2   
  5   3   6  1   
  6   4   5  1   
  7   4   7  1   
  8   5  28  1   
  9   6   8  1   
 10   6  29  1   
 11   6  30  1   
 12   7  31  1   
 13   7  32  1   
 14   7  33  1   
 15   8   9  1   
 16   8  10  1   
 17   8  34  1   
 18   9  11  1   
 19   9  12  1   
 20   9  35  1   
 21  10  13  1   
 22  10  36  1   
 23  10  37  1   
 24  11  38  1   
 25  12  13  1   
 26  12  39  1   
 27  12  40  1   
 28  13  14  1   
 29  13  41  1   
 30  14  15  1   
 31  14  16  1   
 32  14  42  1   
 33  15  17  1   
 34  15  43  1   
 35  15  44  1   
 36  16  18  1   
 37  16  45  1   
 38  16  46  1   
 39  17  19  1   
 40  17  47  1   
 41  17  48  1   
 42  18  19  1   
 43  18  49  1   
 44  18  50  1   
 45  19  20  1   
 46  20  21  ar  
 47  20  22  ar  
 48  21  23  ar  
 49  21  51  1   
 50  22  24  ar  
 51  22  52  1   
 52  23  25  1   
 53  23  26  ar  
 54  24  26  ar  
 55  24  53  1   
 56  25  27  1   
 57  26  54  1   
 58  27  55  1   
 59  27  56  1   
 60  27  57  1   
@<TRIPOS>SUBSTRUCTURE
  1 ****  16 GROUP 4 **** **** 0

# MOE 2024.06 (io_trps.svl 2023.06)
