@<TRIPOS>MOLECULE
NONAME
43 44 1 0 0 
SMALL
USER_CHARGES


@<TRIPOS>ATOM
  1 F        0.8020     0.5820     1.5090 F     1 <1>  -0.3400 
  2 C        1.9090     1.3020     1.4420 C.3   1 <1>   1.0200 
  3 F        2.0430     1.9210     2.6050 F     1 <1>  -0.3400 
  4 F        2.9220     0.4550     1.3450 F     1 <1>  -0.3400 
  5 C        1.8860     2.2960     0.2700 C.3   1 <1>  -0.1600 
  6 C        3.1610     3.1650     0.1600 C.3   1 <1>  -0.1600 
  7 C        3.0810     4.1380    -1.0200 C.3   1 <1>   0.3430 
  8 N        4.2660     5.0410    -1.0300 N.4   1 <1>  -0.9590 
  9 C        4.0390     6.2190    -1.9120 C.3   1 <1>   0.5240 
 10 C        5.5410     4.3360    -1.3960 C.3   1 <1>   0.2630 
 11 C        5.1250     7.2310    -1.6230 C.2   1 <1>  -0.1810 
 12 C        6.0940     7.6590    -2.5230 C.2   1 <1>   0.1390 
 13 C        5.4030     7.9040    -0.4840 C.2   1 <1>  -0.3020 
 14 N        6.9090     8.5070    -1.9890 N.2   1 <1>  -0.7070 
 15 N        6.4850     8.6910    -0.7140 N.pl3 1 <1>   0.5930 
 16 C        7.1480     9.5130     0.2370 C.ar  1 <1>  -0.0230 
 17 C        6.5270    10.6220     0.8210 C.ar  1 <1>  -0.1440 
 18 C        8.4520     9.1970     0.6090 C.ar  1 <1>  -0.1500 
 19 C        7.2070    11.3640     1.7740 C.ar  1 <1>  -0.1500 
 20 C        5.1190    11.0530     0.4280 C.3   1 <1>  -0.0970 
 21 C        9.1220     9.9450     1.5580 C.ar  1 <1>  -0.1500 
 22 C        8.4960    11.0280     2.1450 C.ar  1 <1>  -0.1500 
 23 H        1.0240     2.9260     0.3980 H     1 <1>   0.0800 
 24 H        1.7500     1.7280    -0.6330 H     1 <1>   0.0800 
 25 H        4.0100     2.5140     0.0410 H     1 <1>   0.0800 
 26 H        3.2820     3.7220     1.0740 H     1 <1>   0.0800 
 27 H        2.1820     4.7260    -0.9220 H     1 <1>   0.0800 
 28 H        3.0250     3.5890    -1.9470 H     1 <1>   0.0800 
 29 H        4.3910     5.4340    -0.0860 H     1 <1>   0.4500 
 30 H        3.0790     6.6640    -1.7020 H     1 <1>   0.0800 
 31 H        4.0650     5.9270    -2.9490 H     1 <1>   0.0800 
 32 H        5.4690     3.9160    -2.3860 H     1 <1>   0.0800 
 33 H        5.7460     3.5410    -0.6980 H     1 <1>   0.0800 
 34 H        6.3710     5.0250    -1.3730 H     1 <1>   0.0800 
 35 H        6.1830     7.3370    -3.5490 H     1 <1>   0.1500 
 36 H        4.9250     7.8960     0.4780 H     1 <1>   0.1500 
 37 H        8.9470     8.3600     0.1480 H     1 <1>   0.1500 
 38 H        6.7380    12.2160     2.2360 H     1 <1>   0.1500 
 39 H        5.0110    11.0480    -0.6420 H     1 <1>   0.0800 
 40 H        4.9160    12.0520     0.7740 H     1 <1>   0.0800 
 41 H        4.3930    10.3910     0.8620 H     1 <1>   0.0800 
 42 H       10.1290     9.6880     1.8370 H     1 <1>   0.1500 
 43 H        9.0140    11.6130     2.8850 H     1 <1>   0.1500 
@<TRIPOS>BOND
  1   1   2  1   
  2   2   3  1   
  3   2   4  1   
  4   2   5  1   
  5   5   6  1   
  6   5  23  1   
  7   5  24  1   
  8   6   7  1   
  9   6  25  1   
 10   6  26  1   
 11   7   8  1   
 12   7  27  1   
 13   7  28  1   
 14   8   9  1   
 15   8  10  1   
 16   8  29  1   
 17   9  11  1   
 18   9  30  1   
 19   9  31  1   
 20  10  32  1   
 21  10  33  1   
 22  10  34  1   
 23  11  12  1   
 24  11  13  2   
 25  12  14  2   
 26  12  35  1   
 27  13  15  1   
 28  13  36  1   
 29  14  15  1   
 30  15  16  1   
 31  16  17  ar  
 32  16  18  ar  
 33  17  19  ar  
 34  17  20  1   
 35  18  21  ar  
 36  18  37  1   
 37  19  22  ar  
 38  19  38  1   
 39  20  39  1   
 40  20  40  1   
 41  20  41  1   
 42  21  22  ar  
 43  21  42  1   
 44  22  43  1   
@<TRIPOS>SUBSTRUCTURE
  1 ****  13 GROUP 4 **** **** 0

# MOE 2024.06 (io_trps.svl 2023.06)
