@<TRIPOS>MOLECULE
NONAME
49 52 1 0 0 
SMALL
USER_CHARGES


@<TRIPOS>ATOM
  1 O       -1.2540     0.1980     1.7930 O.2   1 <1>  -0.5700 
  2 C       -2.0440     0.7960     1.0870 C.2   1 <1>   0.5440 
  3 N       -3.2510     0.2040     0.7970 N.am  1 <1>  -0.6600 
  4 C       -1.7130     2.1030     0.5540 C.ar  1 <1>   0.0860 
  5 C       -4.1880     0.6810    -0.2550 C.3   1 <1>   0.1400 
  6 C       -3.5840    -1.1900     1.1900 C.3   1 <1>   0.1400 
  7 C       -0.6960     2.2940    -0.3930 C.ar  1 <1>  -0.1440 
  8 C       -2.4380     3.2180     0.9770 C.ar  1 <1>  -0.1500 
  9 C       -5.2590    -0.4090    -0.3520 C.3   1 <1>   0.2000 
 10 C       -4.5500    -1.6850     0.1070 C.3   1 <1>  -0.0800 
 11 C       -0.4260     3.5600    -0.8900 C.ar  1 <1>  -0.1500 
 12 C        0.1310     1.1140    -0.8880 C.3   1 <1>  -0.0960 
 13 C       -2.1770     4.4760     0.4740 C.ar  1 <1>   0.0830 
 14 O       -6.2630    -0.1180     0.5580 O.3   1 <1>  -0.6800 
 15 C       -3.7940    -2.3440    -1.0630 C.3   1 <1>   0.0210 
 16 C       -1.1560     4.6530    -0.4600 C.ar  1 <1>   0.0830 
 17 O       -2.9300     5.5220     0.8970 O.3   1 <1>  -0.3630 
 18 C       -3.0930    -3.6140    -0.6260 C.2   1 <1>   0.1080 
 19 O       -0.8610     5.8790    -0.9520 O.3   1 <1>  -0.3630 
 20 C       -2.8510     6.7180     0.1430 C.3   1 <1>   0.1200 
 21 N       -3.7240    -4.7270    -0.4180 N.2   1 <1>  -0.7070 
 22 C       -1.7260    -3.7320    -0.3970 C.2   1 <1>  -0.1500 
 23 C       -1.3990     6.9950    -0.2690 C.3   1 <1>   0.1200 
 24 N       -2.7650    -5.5960    -0.0470 N.pl3 1 <1>   0.3000 
 25 C       -1.5460    -5.0170    -0.0260 C.2   1 <1>  -0.3320 
 26 C       -0.2650    -5.7340     0.3580 C.3   1 <1>  -0.0600 
 27 H       -4.6180     1.6350    -0.0020 H     1 <1>   0.0800 
 28 H       -3.6580     0.7610    -1.1880 H     1 <1>   0.0800 
 29 H       -2.6990    -1.7970     1.2680 H     1 <1>   0.0800 
 30 H       -4.0730    -1.1730     2.1480 H     1 <1>   0.0800 
 31 H       -3.2170     3.0970     1.7070 H     1 <1>   0.1500 
 32 H       -5.7030    -0.4840    -1.3300 H     1 <1>   0.0800 
 33 H       -5.2480    -2.4020     0.5060 H     1 <1>   0.0800 
 34 H        0.3550     3.7180    -1.6120 H     1 <1>   0.1500 
 35 H        0.8080     1.4130    -1.6680 H     1 <1>   0.0800 
 36 H       -0.5120     0.3430    -1.2720 H     1 <1>   0.0800 
 37 H        0.7070     0.7080    -0.0750 H     1 <1>   0.0800 
 38 H       -5.8620     0.0270     1.4380 H     1 <1>   0.4000 
 39 H       -3.0670    -1.6670    -1.4740 H     1 <1>   0.0800 
 40 H       -4.4900    -2.5990    -1.8410 H     1 <1>   0.0800 
 41 H       -3.4710     6.6040    -0.7290 H     1 <1>   0.0800 
 42 H       -3.2370     7.5180     0.7480 H     1 <1>   0.0800 
 43 H       -0.9960    -2.9480    -0.4960 H     1 <1>   0.1500 
 44 H       -0.7920     7.1790     0.6010 H     1 <1>   0.0800 
 45 H       -1.3420     7.8450    -0.9250 H     1 <1>   0.0800 
 46 H       -2.9750    -6.5740     0.1850 H     1 <1>   0.2700 
 47 H        0.5680    -5.0560     0.3020 H     1 <1>   0.0800 
 48 H       -0.0830    -6.5560    -0.3110 H     1 <1>   0.0800 
 49 H       -0.3340    -6.1070     1.3640 H     1 <1>   0.0800 
@<TRIPOS>BOND
  1   1   2  2   
  2   2   3  am  
  3   2   4  1   
  4   3   5  1   
  5   3   6  1   
  6   4   7  ar  
  7   4   8  ar  
  8   5   9  1   
  9   5  27  1   
 10   5  28  1   
 11   6  10  1   
 12   6  29  1   
 13   6  30  1   
 14   7  11  ar  
 15   7  12  1   
 16   8  13  ar  
 17   8  31  1   
 18   9  10  1   
 19   9  14  1   
 20   9  32  1   
 21  10  15  1   
 22  10  33  1   
 23  11  16  ar  
 24  11  34  1   
 25  12  35  1   
 26  12  36  1   
 27  12  37  1   
 28  13  16  ar  
 29  13  17  1   
 30  14  38  1   
 31  15  18  1   
 32  15  39  1   
 33  15  40  1   
 34  16  19  1   
 35  17  20  1   
 36  18  21  2   
 37  18  22  1   
 38  19  23  1   
 39  20  23  1   
 40  20  41  1   
 41  20  42  1   
 42  21  24  1   
 43  22  25  2   
 44  22  43  1   
 45  23  44  1   
 46  23  45  1   
 47  24  25  1   
 48  24  46  1   
 49  25  26  1   
 50  26  47  1   
 51  26  48  1   
 52  26  49  1   
@<TRIPOS>SUBSTRUCTURE
  1 ****   2 GROUP 4 **** **** 0

# MOE 2024.06 (io_trps.svl 2023.06)
