@<TRIPOS>MOLECULE
NONAME
51 53 1 0 0 
SMALL
USER_CHARGES


@<TRIPOS>ATOM
  1 N       -0.6360    -1.1190     1.5280 N.ar  1 <1>  -0.6200 
  2 C       -1.7820    -1.3180     0.9040 C.ar  1 <1>   0.4100 
  3 C        0.1240    -2.2070     1.5430 C.ar  1 <1>   0.1600 
  4 N       -2.6480    -0.2210     0.8290 N.pl3 1 <1>  -0.8380 
  5 C       -2.1480    -2.5720     0.3220 C.ar  1 <1>   0.4100 
  6 C       -0.2330    -3.4190     0.9780 C.ar  1 <1>   0.1600 
  7 C       -3.3090     0.1290     2.1130 C.3   1 <1>   0.1290 
  8 C       -2.0900     0.9760     0.1420 C.3   1 <1>   0.1290 
  9 N       -1.3830    -3.6500     0.3490 N.ar  1 <1>  -0.6200 
 10 N       -3.3760    -2.6960    -0.3100 N.pl3 1 <1>  -0.8690 
 11 C       -3.4290    -3.2740    -1.6670 C.3   1 <1>   0.3040 
 12 C       -4.2630    -4.5580    -1.6030 C.3   1 <1>  -0.1900 
 13 C       -5.7450    -4.4410    -1.8400 C.3   1 <1>  -0.2000 
 14 C       -4.8620    -5.0970    -2.8680 C.3   1 <1>  -0.2000 
 15 C       -3.6300    -5.5190    -0.5800 C.3   1 <1>   0.4380 
 16 N       -4.5720    -6.5920    -0.2000 N.4   1 <1>  -0.9590 
 17 C       -5.4090    -6.2010     0.9780 C.3   1 <1>   0.3430 
 18 C       -3.9320    -7.9240     0.0200 C.3   1 <1>   0.3430 
 19 C       -6.4800    -7.2760     1.2820 C.3   1 <1>   0.1100 
 20 C       -4.9840    -8.9960     0.4050 C.3   1 <1>   0.1100 
 21 N       -6.3660    -8.4610     0.3980 N.3   1 <1>  -0.8100 
 22 C       -7.3460    -9.4940     0.7560 C.3   1 <1>   0.0300 
 23 H        1.0790    -2.1210     2.0320 H     1 <1>   0.1500 
 24 H        0.4590    -4.2390     1.0450 H     1 <1>   0.1500 
 25 H       -3.6910    -0.7610     2.5830 H     1 <1>   0.0800 
 26 H       -4.1250     0.8070     1.9360 H     1 <1>   0.0800 
 27 H       -2.5990     0.5930     2.7770 H     1 <1>   0.0800 
 28 H       -1.5510     0.6740    -0.7400 H     1 <1>   0.0800 
 29 H       -1.4120     1.4950     0.7980 H     1 <1>   0.0800 
 30 H       -2.8860     1.6400    -0.1470 H     1 <1>   0.0800 
 31 H       -3.8260    -1.7680    -0.2730 H     1 <1>   0.4000 
 32 H       -2.4350    -3.4900    -2.0250 H     1 <1>   0.0800 
 33 H       -3.8780    -2.5640    -2.3410 H     1 <1>   0.0800 
 34 H       -6.1570    -3.4720    -2.0690 H     1 <1>   0.1000 
 35 H       -6.4710    -5.0670    -1.3530 H     1 <1>   0.1000 
 36 H       -4.9530    -6.1590    -3.0170 H     1 <1>   0.1000 
 37 H       -4.6970    -4.5770    -3.7980 H     1 <1>   0.1000 
 38 H       -3.3510    -4.9740     0.3060 H     1 <1>   0.0800 
 39 H       -2.7310    -5.9340    -1.0040 H     1 <1>   0.0800 
 40 H       -5.2430    -6.7270    -0.9690 H     1 <1>   0.4500 
 41 H       -5.8950    -5.2580     0.7880 H     1 <1>   0.0800 
 42 H       -4.7810    -6.0720     1.8440 H     1 <1>   0.0800 
 43 H       -3.1960    -7.8550     0.8030 H     1 <1>   0.0800 
 44 H       -3.4280    -8.2380    -0.8790 H     1 <1>   0.0800 
 45 H       -7.4560    -6.8370     1.1580 H     1 <1>   0.0800 
 46 H       -6.3900    -7.5760     2.3120 H     1 <1>   0.0800 
 47 H       -4.7490    -9.3830     1.3830 H     1 <1>   0.0800 
 48 H       -4.9160    -9.8150    -0.2910 H     1 <1>   0.0800 
 49 H       -8.3430    -9.0910     0.6980 H     1 <1>   0.0800 
 50 H       -7.1720    -9.8550     1.7560 H     1 <1>   0.0800 
 51 H       -7.2770   -10.3200     0.0690 H     1 <1>   0.0800 
@<TRIPOS>BOND
  1   1   2  ar  
  2   1   3  ar  
  3   2   4  1   
  4   2   5  ar  
  5   3   6  ar  
  6   3  23  1   
  7   4   7  1   
  8   4   8  1   
  9   5   9  ar  
 10   5  10  1   
 11   6   9  ar  
 12   6  24  1   
 13   7  25  1   
 14   7  26  1   
 15   7  27  1   
 16   8  28  1   
 17   8  29  1   
 18   8  30  1   
 19  10  11  1   
 20  10  31  1   
 21  11  12  1   
 22  11  32  1   
 23  11  33  1   
 24  12  13  1   
 25  12  14  1   
 26  12  15  1   
 27  13  14  1   
 28  13  34  1   
 29  13  35  1   
 30  14  36  1   
 31  14  37  1   
 32  15  16  1   
 33  15  38  1   
 34  15  39  1   
 35  16  17  1   
 36  16  18  1   
 37  16  40  1   
 38  17  19  1   
 39  17  41  1   
 40  17  42  1   
 41  18  20  1   
 42  18  43  1   
 43  18  44  1   
 44  19  21  1   
 45  19  45  1   
 46  19  46  1   
 47  20  21  1   
 48  20  47  1   
 49  20  48  1   
 50  21  22  1   
 51  22  49  1   
 52  22  50  1   
 53  22  51  1   
@<TRIPOS>SUBSTRUCTURE
  1 ****  15 GROUP 4 **** **** 0

# MOE 2024.06 (io_trps.svl 2023.06)
