@<TRIPOS>MOLECULE
NONAME
53 56 1 0 0 
SMALL
USER_CHARGES


@<TRIPOS>ATOM
  1 O        0.6080    -0.0890    -2.0530 O.2   1 <1>  -0.5700 
  2 C        1.4570     0.4730    -1.3790 C.2   1 <1>   0.5440 
  3 N        1.1260     1.6490    -0.7360 N.am  1 <1>  -0.6600 
  4 C        2.7620    -0.1260    -1.2470 C.ar  1 <1>   0.0860 
  5 C       -0.1900     2.3130    -0.9500 C.3   1 <1>   0.1400 
  6 C        1.8620     2.1540     0.4570 C.3   1 <1>   0.1400 
  7 C        2.8910    -1.4170    -0.7060 C.ar  1 <1>   0.4100 
  8 C        3.9180     0.5360    -1.6340 C.ar  1 <1>  -0.1500 
  9 C       -1.0740     2.0960     0.2830 C.3   1 <1>  -0.1600 
 10 C        1.0050     1.9340     1.7090 C.3   1 <1>  -0.1600 
 11 N        4.0550    -2.0360    -0.5240 N.ar  1 <1>  -0.6200 
 12 N        1.7670    -2.1070    -0.3260 N.pl3 1 <1>  -0.8690 
 13 C        5.1220    -0.1060    -1.4530 C.ar  1 <1>  -0.1500 
 14 C       -0.3820     2.5770     1.5670 C.3   1 <1>  -0.1600 
 15 C        5.1320    -1.3740    -0.8980 C.ar  1 <1>   0.1600 
 16 C        1.7240    -3.5720    -0.1130 C.3   1 <1>   0.2890 
 17 C        0.3120    -4.1430    -0.2120 C.3   1 <1>  -0.0800 
 18 C        2.1690    -3.9700     1.2970 C.3   1 <1>   0.1200 
 19 C        0.4370    -5.3460     0.7200 C.3   1 <1>   0.1200 
 20 C       -0.8010    -3.1790     0.2630 C.3   1 <1>  -0.0170 
 21 O        1.2520    -4.9220     1.7640 O.3   1 <1>  -0.5600 
 22 C       -2.1760    -3.8260     0.2090 C.ar  1 <1>  -0.1430 
 23 C       -2.8100    -4.2960     1.3410 C.ar  1 <1>  -0.1500 
 24 C       -2.8610    -3.9700    -0.9790 C.ar  1 <1>  -0.1500 
 25 C       -4.0620    -4.8770     1.2320 C.ar  1 <1>   0.1600 
 26 C       -4.1120    -4.5660    -0.9790 C.ar  1 <1>   0.1600 
 27 N       -4.7280    -5.0250     0.0980 N.ar  1 <1>  -0.6200 
 28 H       -0.0310     3.3650    -1.1070 H     1 <1>   0.0800 
 29 H       -0.6790     1.9180    -1.8240 H     1 <1>   0.0800 
 30 H        2.8030     1.6480     0.5790 H     1 <1>   0.0800 
 31 H        2.0600     3.2040     0.3280 H     1 <1>   0.0800 
 32 H        3.8630     1.5220    -2.0630 H     1 <1>   0.1500 
 33 H       -2.0030     2.6220     0.1520 H     1 <1>   0.0800 
 34 H       -1.3010     1.0460     0.3620 H     1 <1>   0.0800 
 35 H        0.8990     0.8750     1.8730 H     1 <1>   0.0800 
 36 H        1.5100     2.3480     2.5630 H     1 <1>   0.0800 
 37 H        0.9090    -1.7350    -0.7530 H     1 <1>   0.4000 
 38 H        6.0450     0.3660    -1.7370 H     1 <1>   0.1500 
 39 H       -0.9880     2.3280     2.4220 H     1 <1>   0.0800 
 40 H       -0.2770     3.6480     1.5340 H     1 <1>   0.0800 
 41 H        6.0800    -1.8670    -0.7590 H     1 <1>   0.1500 
 42 H        2.3670    -4.0600    -0.8280 H     1 <1>   0.0800 
 43 H        0.1060    -4.4710    -1.2150 H     1 <1>   0.0800 
 44 H        2.1460    -3.1280     1.9660 H     1 <1>   0.0800 
 45 H        3.1500    -4.4100     1.2830 H     1 <1>   0.0800 
 46 H        0.9360    -6.1630     0.2260 H     1 <1>   0.0800 
 47 H       -0.5010    -5.6890     1.1170 H     1 <1>   0.0800 
 48 H       -0.8290    -2.3060    -0.3640 H     1 <1>   0.0800 
 49 H       -0.5930    -2.8480     1.2670 H     1 <1>   0.0800 
 50 H       -2.3390    -4.2160     2.3050 H     1 <1>   0.1500 
 51 H       -2.4360    -3.6230    -1.9030 H     1 <1>   0.1500 
 52 H       -4.5410    -5.2390     2.1260 H     1 <1>   0.1500 
 53 H       -4.6320    -4.6690    -1.9160 H     1 <1>   0.1500 
@<TRIPOS>BOND
  1   1   2  2   
  2   2   3  am  
  3   2   4  1   
  4   3   5  1   
  5   3   6  1   
  6   4   7  ar  
  7   4   8  ar  
  8   5   9  1   
  9   5  28  1   
 10   5  29  1   
 11   6  10  1   
 12   6  30  1   
 13   6  31  1   
 14   7  11  ar  
 15   7  12  1   
 16   8  13  ar  
 17   8  32  1   
 18   9  14  1   
 19   9  33  1   
 20   9  34  1   
 21  10  14  1   
 22  10  35  1   
 23  10  36  1   
 24  11  15  ar  
 25  12  16  1   
 26  12  37  1   
 27  13  15  ar  
 28  13  38  1   
 29  14  39  1   
 30  14  40  1   
 31  15  41  1   
 32  16  17  1   
 33  16  18  1   
 34  16  42  1   
 35  17  19  1   
 36  17  20  1   
 37  17  43  1   
 38  18  21  1   
 39  18  44  1   
 40  18  45  1   
 41  19  21  1   
 42  19  46  1   
 43  19  47  1   
 44  20  22  1   
 45  20  48  1   
 46  20  49  1   
 47  22  23  ar  
 48  22  24  ar  
 49  23  25  ar  
 50  23  50  1   
 51  24  26  ar  
 52  24  51  1   
 53  25  27  ar  
 54  25  52  1   
 55  26  27  ar  
 56  26  53  1   
@<TRIPOS>SUBSTRUCTURE
  1 ****  12 GROUP 4 **** **** 0

# MOE 2024.06 (io_trps.svl 2023.06)
