@<TRIPOS>MOLECULE
NONAME
54 56 1 0 0 
SMALL
USER_CHARGES


@<TRIPOS>ATOM
  1 F       -2.2230    -4.6930     2.9170 F     1 <1>  -0.1900 
  2 C       -3.0470    -4.1090     2.0900 C.ar  1 <1>   0.1900 
  3 C       -2.9340    -4.3700     0.7390 C.ar  1 <1>  -0.1500 
  4 C       -4.0010    -3.2490     2.5970 C.ar  1 <1>  -0.1500 
  5 C       -3.8100    -3.7460    -0.1340 C.ar  1 <1>  -0.1500 
  6 C       -4.8720    -2.6340     1.7130 C.ar  1 <1>  -0.1500 
  7 C       -4.7850    -2.8780     0.3480 C.ar  1 <1>  -0.0320 
  8 C       -5.7810    -2.1920    -0.5850 C.3   1 <1>   0.0320 
  9 C       -7.1930    -2.7680    -0.3840 C.2   1 <1>   0.6300 
 10 C       -5.5830    -0.7230    -0.8810 C.3   1 <1>  -0.1900 
 11 C       -5.3380    -1.7160    -1.9590 C.3   1 <1>  -0.2000 
 12 O       -7.9100    -2.2510     0.4460 O.2   1 <1>  -0.5700 
 13 N       -7.6390    -3.8750    -1.0670 N.am  1 <1>  -0.6600 
 14 C       -6.7840     0.2200    -1.0440 C.3   1 <1>  -0.1450 
 15 C       -4.3680     0.0290    -0.3160 C.3   1 <1>  -0.1450 
 16 C       -6.7780    -4.7210    -1.9380 C.3   1 <1>   0.3200 
 17 C       -9.0070    -4.4100    -0.7890 C.3   1 <1>   0.1400 
 18 C       -6.6170    -6.0700    -1.2680 C.2   1 <1>  -0.3320 
 19 C       -9.0210    -5.1500     0.5660 C.3   1 <1>   0.3430 
 20 N       -6.9100    -7.2550    -1.8420 N.pl3 1 <1>   0.0330 
 21 C       -6.1870    -6.3490    -0.0170 C.2   1 <1>   0.0770 
 22 N      -10.2180    -4.8460     1.4210 N.4   1 <1>  -0.9590 
 23 C       -6.6760    -8.1730    -0.8820 C.2   1 <1>   0.0360 
 24 N       -6.2580    -7.6670     0.2320 N.2   1 <1>  -0.5650 
 25 C      -10.1760    -3.4260     1.9060 C.3   1 <1>   0.2630 
 26 C      -10.2440    -5.7820     2.5860 C.3   1 <1>   0.2630 
 27 H       -2.1770    -5.0470     0.3840 H     1 <1>   0.1500 
 28 H       -4.0550    -3.0660     3.6550 H     1 <1>   0.1500 
 29 H       -3.7230    -3.9410    -1.1870 H     1 <1>   0.1500 
 30 H       -5.6220    -1.9560     2.0860 H     1 <1>   0.1500 
 31 H       -6.0330    -1.7590    -2.7780 H     1 <1>   0.1000 
 32 H       -4.3220    -1.8710    -2.2790 H     1 <1>   0.1000 
 33 H       -7.6080    -0.2720    -1.5300 H     1 <1>   0.0800 
 34 H       -6.5110     1.0750    -1.6350 H     1 <1>   0.0800 
 35 H       -7.1160     0.5610    -0.0790 H     1 <1>   0.0800 
 36 H       -3.4940    -0.5970    -0.2870 H     1 <1>   0.0800 
 37 H       -4.5760     0.3670     0.6840 H     1 <1>   0.0800 
 38 H       -4.1430     0.8850    -0.9270 H     1 <1>   0.0800 
 39 H       -5.8110    -4.2820    -2.0920 H     1 <1>   0.0800 
 40 H       -7.2480    -4.8280    -2.9010 H     1 <1>   0.0800 
 41 H       -9.3040    -5.0840    -1.5740 H     1 <1>   0.0800 
 42 H       -9.6990    -3.5870    -0.7790 H     1 <1>   0.0800 
 43 H       -8.1330    -4.8720     1.1090 H     1 <1>   0.0800 
 44 H       -8.9660    -6.2100     0.3770 H     1 <1>   0.0800 
 45 H       -7.2260    -7.4460    -2.7990 H     1 <1>   0.2700 
 46 H       -5.8360    -5.6590     0.7350 H     1 <1>   0.1500 
 47 H      -11.0740    -4.9840     0.8650 H     1 <1>   0.4500 
 48 H       -6.8260    -9.2280    -1.0470 H     1 <1>   0.1500 
 49 H       -9.2640    -3.2440     2.4520 H     1 <1>   0.0800 
 50 H      -11.0140    -3.2210     2.5510 H     1 <1>   0.0800 
 51 H      -10.2070    -2.7410     1.0740 H     1 <1>   0.0800 
 52 H       -9.3560    -5.6580     3.1850 H     1 <1>   0.0800 
 53 H      -10.2880    -6.8040     2.2450 H     1 <1>   0.0800 
 54 H      -11.1070    -5.5880     3.2030 H     1 <1>   0.0800 
@<TRIPOS>BOND
  1   1   2  1   
  2   2   3  ar  
  3   2   4  ar  
  4   3   5  ar  
  5   3  27  1   
  6   4   6  ar  
  7   4  28  1   
  8   5   7  ar  
  9   5  29  1   
 10   6   7  ar  
 11   6  30  1   
 12   7   8  1   
 13   8   9  1   
 14   8  10  1   
 15   8  11  1   
 16   9  12  2   
 17   9  13  am  
 18  10  11  1   
 19  10  14  1   
 20  10  15  1   
 21  11  31  1   
 22  11  32  1   
 23  13  16  1   
 24  13  17  1   
 25  14  33  1   
 26  14  34  1   
 27  14  35  1   
 28  15  36  1   
 29  15  37  1   
 30  15  38  1   
 31  16  18  1   
 32  16  39  1   
 33  16  40  1   
 34  17  19  1   
 35  17  41  1   
 36  17  42  1   
 37  18  20  1   
 38  18  21  2   
 39  19  22  1   
 40  19  43  1   
 41  19  44  1   
 42  20  23  1   
 43  20  45  1   
 44  21  24  1   
 45  21  46  1   
 46  22  25  1   
 47  22  26  1   
 48  22  47  1   
 49  23  24  2   
 50  23  48  1   
 51  25  49  1   
 52  25  50  1   
 53  25  51  1   
 54  26  52  1   
 55  26  53  1   
 56  26  54  1   
@<TRIPOS>SUBSTRUCTURE
  1 ****   9 GROUP 4 **** **** 0

# MOE 2024.06 (io_trps.svl 2023.06)
