@<TRIPOS>MOLECULE
NONAME
54 57 1 0 0 
SMALL
USER_CHARGES


@<TRIPOS>ATOM
  1 O        0.0710     0.5900    -0.5320 O.2   1 <1>  -0.5700 
  2 C       -0.5380     1.5580    -0.1410 C.2   1 <1>   0.5690 
  3 N       -1.9070     1.6000    -0.1700 N.am  1 <1>  -0.6600 
  4 C        0.2510     2.7460     0.3910 C.3   1 <1>  -0.0990 
  5 C       -2.7500     2.7480     0.2940 C.3   1 <1>   0.1400 
  6 C       -2.6730     0.4220    -0.6830 C.3   1 <1>   0.1400 
  7 C        1.7740     2.5460     0.3810 C.3   1 <1>  -0.0160 
  8 C       -3.6500     3.2780    -0.8440 C.3   1 <1>   0.1440 
  9 C       -4.1390     0.7670    -0.9990 C.3   1 <1>  -0.1600 
 10 C        2.4630     3.8000     0.8940 C.ar  1 <1>  -0.1440 
 11 C       -4.7170     4.1420    -0.1950 C.ar  1 <1>   0.1660 
 12 C       -4.2460     2.1290    -1.7030 C.3   1 <1>  -0.1600 
 13 C       -2.9000     4.3070    -1.7310 C.3   1 <1>  -0.1600 
 14 C        2.6080     4.0200     2.2570 C.ar  1 <1>   0.1600 
 15 C        2.9480     4.7460     0.0140 C.ar  1 <1>  -0.1500 
 16 N       -5.7490     3.6950     0.4760 N.ar  1 <1>  -0.6200 
 17 C       -4.4630     5.4690    -0.3670 C.ar  1 <1>  -0.1440 
 18 C       -3.2000     5.7020    -1.1560 C.3   1 <1>  -0.0170 
 19 N        3.1740     5.0870     2.7980 N.ar  1 <1>  -0.6200 
 20 C        3.5470     5.8620     0.5600 C.ar  1 <1>  -0.1500 
 21 C       -6.5590     4.6340     0.9720 C.ar  1 <1>   0.7200 
 22 C       -5.3460     6.3630     0.1820 C.ar  1 <1>   0.1600 
 23 C        3.6320     5.9810     1.9370 C.ar  1 <1>   0.1600 
 24 N       -6.3980     5.9570     0.8530 N.ar  1 <1>  -0.6200 
 25 N       -7.6630     4.1980     1.6780 N.pl3 1 <1>  -0.8380 
 26 C       -8.7840     5.1120     2.0340 C.3   1 <1>   0.1290 
 27 C       -7.8240     2.7800     2.1020 C.3   1 <1>   0.1290 
 28 H       -0.0630     2.9360     1.4000 H     1 <1>   0.0800 
 29 H        0.0160     3.6050    -0.2080 H     1 <1>   0.0800 
 30 H       -2.1550     3.5510     0.6880 H     1 <1>   0.0800 
 31 H       -3.3730     2.3970     1.0990 H     1 <1>   0.0800 
 32 H       -2.6310    -0.3720     0.0430 H     1 <1>   0.0800 
 33 H       -2.1950     0.0710    -1.5820 H     1 <1>   0.0800 
 34 H        2.1060     2.3280    -0.6200 H     1 <1>   0.0800 
 35 H        2.0360     1.7040     1.0000 H     1 <1>   0.0800 
 36 H       -4.7120     0.7840    -0.0880 H     1 <1>   0.0800 
 37 H       -4.5560    -0.0030    -1.6240 H     1 <1>   0.0800 
 38 H       -3.7090     2.0520    -2.6320 H     1 <1>   0.0800 
 39 H       -5.2740     2.3400    -1.9400 H     1 <1>   0.0800 
 40 H       -3.3010     4.2780    -2.7290 H     1 <1>   0.0800 
 41 H       -1.8450     4.1070    -1.7870 H     1 <1>   0.0800 
 42 H        2.2340     3.2790     2.9420 H     1 <1>   0.1500 
 43 H        2.8650     4.6240    -1.0520 H     1 <1>   0.1500 
 44 H       -3.3440     6.4300    -1.9350 H     1 <1>   0.0800 
 45 H       -2.4130     6.0220    -0.4950 H     1 <1>   0.0800 
 46 H        3.9460     6.6330    -0.0730 H     1 <1>   0.1500 
 47 H       -5.1890     7.4220     0.0720 H     1 <1>   0.1500 
 48 H        4.1010     6.8570     2.3510 H     1 <1>   0.1500 
 49 H       -8.8770     5.8970     1.3030 H     1 <1>   0.0800 
 50 H       -8.5960     5.5520     2.9970 H     1 <1>   0.0800 
 51 H       -9.7110     4.5690     2.0640 H     1 <1>   0.0800 
 52 H       -6.8640     2.3310     2.2870 H     1 <1>   0.0800 
 53 H       -8.3260     2.2280     1.3260 H     1 <1>   0.0800 
 54 H       -8.4020     2.7270     3.0080 H     1 <1>   0.0800 
@<TRIPOS>BOND
  1   1   2  2   
  2   2   3  am  
  3   2   4  1   
  4   3   5  1   
  5   3   6  1   
  6   4   7  1   
  7   4  28  1   
  8   4  29  1   
  9   5   8  1   
 10   5  30  1   
 11   5  31  1   
 12   6   9  1   
 13   6  32  1   
 14   6  33  1   
 15   7  10  1   
 16   7  34  1   
 17   7  35  1   
 18   8  11  1   
 19   8  12  1   
 20   8  13  1   
 21   9  12  1   
 22   9  36  1   
 23   9  37  1   
 24  10  14  ar  
 25  10  15  ar  
 26  11  16  ar  
 27  11  17  ar  
 28  12  38  1   
 29  12  39  1   
 30  13  18  1   
 31  13  40  1   
 32  13  41  1   
 33  14  19  ar  
 34  14  42  1   
 35  15  20  ar  
 36  15  43  1   
 37  16  21  ar  
 38  17  18  1   
 39  17  22  ar  
 40  18  44  1   
 41  18  45  1   
 42  19  23  ar  
 43  20  23  ar  
 44  20  46  1   
 45  21  24  ar  
 46  21  25  1   
 47  22  24  ar  
 48  22  47  1   
 49  23  48  1   
 50  25  26  1   
 51  25  27  1   
 52  26  49  1   
 53  26  50  1   
 54  26  51  1   
 55  27  52  1   
 56  27  53  1   
 57  27  54  1   
@<TRIPOS>SUBSTRUCTURE
  1 ****   5 GROUP 4 **** **** 0

# MOE 2024.06 (io_trps.svl 2023.06)
