@<TRIPOS>MOLECULE
NONAME
62 65 1 0 0 
SMALL
USER_CHARGES


@<TRIPOS>ATOM
  1 S       -0.7500    -1.1290    -1.3560 S.o2  1 <1>   1.5760 
  2 O        0.3770    -1.5750    -2.1430 O.2   1 <1>  -0.6500 
  3 O       -2.1010    -1.2190    -1.8670 O.2   1 <1>  -0.6500 
  4 N       -0.7440    -1.9230     0.1380 N.am  1 <1>  -0.8490 
  5 N       -0.4570     0.4530    -0.8510 N.am  1 <1>  -0.8490 
  6 C       -1.8540    -1.4250     0.9740 C.3   1 <1>   0.1960 
  7 C       -0.7110    -3.3780    -0.0670 C.3   1 <1>   0.1960 
  8 C       -0.7590     1.4030    -1.9240 C.3   1 <1>   0.1960 
  9 C        0.9280     0.6170    -0.3930 C.3   1 <1>   0.1960 
 10 C       -2.0380    -2.1260     2.3330 C.3   1 <1>   0.2090 
 11 C       -0.2140    -4.0970     1.1920 C.3   1 <1>  -0.1600 
 12 C       -0.6230     2.8400    -1.4120 C.3   1 <1>  -0.1600 
 13 C        1.1280     2.0210     0.1890 C.3   1 <1>  -0.1600 
 14 N       -2.4750    -3.5520     2.1550 N.pl3 1 <1>  -0.8380 
 15 C       -1.3100    -4.4970     2.1890 C.3   1 <1>   0.2090 
 16 C        0.7760     3.1020    -0.8390 C.3   1 <1>  -0.1600 
 17 C       -3.7290    -3.9730     1.8210 C.ar  1 <1>   0.7710 
 18 N       -3.9220    -5.2350     1.4680 N.ar  1 <1>  -0.6200 
 19 N       -4.7470    -3.0920     1.8400 N.ar  1 <1>  -0.1790 
 20 C       -5.1300    -5.6310     1.1130 C.ar  1 <1>   0.4100 
 21 C       -6.0000    -3.4430     1.4670 C.ar  1 <1>   0.2110 
 22 N       -5.2920    -6.9360     0.7610 N.pl3 1 <1>  -0.8380 
 23 C       -6.2080    -4.7250     1.0900 C.ar  1 <1>  -0.1500 
 24 C       -6.5700    -7.7000     0.8700 C.3   1 <1>   0.2090 
 25 C       -4.1630    -7.7780     0.2560 C.3   1 <1>   0.2090 
 26 C       -6.9730    -8.1950    -0.5180 C.3   1 <1>  -0.1600 
 27 C       -4.5150    -8.2960    -1.1400 C.3   1 <1>  -0.1600 
 28 C       -5.8500    -9.0410    -1.1170 C.3   1 <1>   0.2000 
 29 O       -6.1900    -9.3650    -2.4110 O.3   1 <1>  -0.6800 
 30 H       -2.7790    -1.4920     0.4280 H     1 <1>   0.0800 
 31 H       -1.6810    -0.3820     1.1760 H     1 <1>   0.0800 
 32 H       -0.0050    -3.6040    -0.8510 H     1 <1>   0.0800 
 33 H       -1.6720    -3.7470    -0.3860 H     1 <1>   0.0800 
 34 H       -1.7690     1.2530    -2.2710 H     1 <1>   0.0800 
 35 H       -0.0910     1.2410    -2.7560 H     1 <1>   0.0800 
 36 H        1.6100     0.4620    -1.2140 H     1 <1>   0.0800 
 37 H        1.1510    -0.1130     0.3670 H     1 <1>   0.0800 
 38 H       -2.7630    -1.5880     2.9170 H     1 <1>   0.0800 
 39 H       -1.1100    -2.0800     2.8780 H     1 <1>   0.0800 
 40 H        0.5300    -3.4930     1.6800 H     1 <1>   0.0800 
 41 H        0.2830    -5.0010     0.8890 H     1 <1>   0.0800 
 42 H       -1.3650     3.0080    -0.6510 H     1 <1>   0.0800 
 43 H       -0.8180     3.5260    -2.2170 H     1 <1>   0.0800 
 44 H        2.1510     2.1360     0.4980 H     1 <1>   0.0800 
 45 H        0.5050     2.1280     1.0600 H     1 <1>   0.0800 
 46 H       -0.8960    -4.5160     3.1830 H     1 <1>   0.0800 
 47 H       -1.6150    -5.5050     1.9650 H     1 <1>   0.0800 
 48 H        0.8110     4.0750    -0.3790 H     1 <1>   0.0800 
 49 H        1.4970     3.0830    -1.6380 H     1 <1>   0.0800 
 50 H       -4.5180    -2.1560     2.1480 H     1 <1>   0.4570 
 51 H       -6.7830    -2.7010     1.4750 H     1 <1>   0.1500 
 52 H       -7.1730    -5.0580     0.7620 H     1 <1>   0.1500 
 53 H       -7.3540    -7.1020     1.2980 H     1 <1>   0.0800 
 54 H       -6.4170    -8.5430     1.5240 H     1 <1>   0.0800 
 55 H       -4.0050    -8.6030     0.9300 H     1 <1>   0.0800 
 56 H       -3.2470    -7.2150     0.1980 H     1 <1>   0.0800 
 57 H       -7.1780    -7.3450    -1.1440 H     1 <1>   0.0800 
 58 H       -7.8650    -8.7900    -0.4370 H     1 <1>   0.0800 
 59 H       -3.7390    -8.9600    -1.4750 H     1 <1>   0.0800 
 60 H       -4.5660    -7.4570    -1.8100 H     1 <1>   0.0800 
 61 H       -5.7490    -9.9630    -0.5670 H     1 <1>   0.0800 
 62 H       -6.2410    -8.5580    -2.9560 H     1 <1>   0.4000 
@<TRIPOS>BOND
  1   1   2  2   
  2   1   3  2   
  3   1   4  am  
  4   1   5  am  
  5   4   6  1   
  6   4   7  1   
  7   5   8  1   
  8   5   9  1   
  9   6  10  1   
 10   6  30  1   
 11   6  31  1   
 12   7  11  1   
 13   7  32  1   
 14   7  33  1   
 15   8  12  1   
 16   8  34  1   
 17   8  35  1   
 18   9  13  1   
 19   9  36  1   
 20   9  37  1   
 21  10  14  1   
 22  10  38  1   
 23  10  39  1   
 24  11  15  1   
 25  11  40  1   
 26  11  41  1   
 27  12  16  1   
 28  12  42  1   
 29  12  43  1   
 30  13  16  1   
 31  13  44  1   
 32  13  45  1   
 33  14  15  1   
 34  14  17  1   
 35  15  46  1   
 36  15  47  1   
 37  16  48  1   
 38  16  49  1   
 39  17  18  ar  
 40  17  19  ar  
 41  18  20  ar  
 42  19  21  ar  
 43  19  50  1   
 44  20  22  1   
 45  20  23  ar  
 46  21  23  ar  
 47  21  51  1   
 48  22  24  1   
 49  22  25  1   
 50  23  52  1   
 51  24  26  1   
 52  24  53  1   
 53  24  54  1   
 54  25  27  1   
 55  25  55  1   
 56  25  56  1   
 57  26  28  1   
 58  26  57  1   
 59  26  58  1   
 60  27  28  1   
 61  27  59  1   
 62  27  60  1   
 63  28  29  1   
 64  28  61  1   
 65  29  62  1   
@<TRIPOS>SUBSTRUCTURE
  1 ****  17 GROUP 4 **** **** 0

# MOE 2024.06 (io_trps.svl 2023.06)
