@<TRIPOS>MOLECULE
NONAME
53 55 1 0 0 
SMALL
USER_CHARGES


@<TRIPOS>ATOM
  1 O        0.0730     1.0620    -0.4060 O.2   1 <1>  -0.5700 
  2 C       -0.1050     2.2490    -0.5490 C.2   1 <1>   0.5690 
  3 N       -0.7860     3.0070     0.3650 N.am  1 <1>  -0.6600 
  4 C        0.4360     2.9130    -1.8150 C.3   1 <1>   0.1810 
  5 C       -1.0390     4.4680     0.1360 C.3   1 <1>   0.3640 
  6 C       -1.2830     2.4450     1.6550 C.3   1 <1>   0.0600 
  7 O        0.6630     4.2900    -1.6430 O.3   1 <1>  -0.5600 
  8 C       -2.5330     4.7980     0.3010 C.ar  1 <1>  -0.1430 
  9 C       -0.4770     5.0180    -1.2040 C.3   1 <1>   0.2610 
 10 C       -3.5740     4.1390    -0.3630 C.ar  1 <1>  -0.1430 
 11 C       -2.8480     5.8290     1.1780 C.ar  1 <1>  -0.1500 
 12 C       -0.1150     6.4990    -1.0410 C.2   1 <1>   0.5690 
 13 C       -4.8860     4.5260    -0.1260 C.ar  1 <1>  -0.1500 
 14 C       -3.3630     2.9910    -1.3440 C.3   1 <1>  -0.0960 
 15 C       -4.1580     6.2060     1.4050 C.ar  1 <1>  -0.1500 
 16 O       -0.9850     7.3220    -0.8880 O.2   1 <1>  -0.5700 
 17 N        1.1950     6.8700    -1.0620 N.am  1 <1>  -0.7300 
 18 C       -5.1810     5.5510     0.7510 C.ar  1 <1>  -0.1500 
 19 C        1.6830     8.2710    -1.0410 C.3   1 <1>   0.1400 
 20 C        1.5110     8.8730     0.3550 C.3   1 <1>   0.0960 
 21 N        1.9880    10.2680     0.3550 N.pl3 1 <1>   0.0480 
 22 C        3.2270    10.7420     0.6060 C.2   1 <1>  -0.3320 
 23 C        1.2490    11.3610     0.0690 C.2   1 <1>   0.0360 
 24 C        3.1530    12.0860     0.4550 C.2   1 <1>   0.0460 
 25 C        4.4070     9.8570     0.9810 C.3   1 <1>  -0.0600 
 26 N        1.9100    12.4690     0.1180 N.2   1 <1>  -0.5650 
 27 C        4.2260    13.1400     0.6120 C.3   1 <1>  -0.0590 
 28 H       -0.2570     2.7740    -2.6240 H     1 <1>   0.0800 
 29 H        1.3730     2.4570    -2.0790 H     1 <1>   0.0800 
 30 H       -0.5060     4.9810     0.9170 H     1 <1>   0.0800 
 31 H       -0.9190     3.0360     2.4770 H     1 <1>   0.0800 
 32 H       -0.9440     1.4320     1.7850 H     1 <1>   0.0800 
 33 H       -2.3590     2.4500     1.6680 H     1 <1>   0.0800 
 34 H       -1.2250     4.9510    -1.9700 H     1 <1>   0.0800 
 35 H       -2.0700     6.3630     1.6960 H     1 <1>   0.1500 
 36 H       -5.6980     4.0270    -0.6250 H     1 <1>   0.1500 
 37 H       -4.2660     2.7770    -1.8860 H     1 <1>   0.0800 
 38 H       -3.0790     2.1000    -0.8120 H     1 <1>   0.0800 
 39 H       -2.6050     3.2280    -2.0630 H     1 <1>   0.0800 
 40 H       -4.3790     7.0100     2.0850 H     1 <1>   0.1500 
 41 H        1.8750     6.1350    -1.2900 H     1 <1>   0.3700 
 42 H       -6.2040     5.8390     0.9220 H     1 <1>   0.1500 
 43 H        2.7210     8.2910    -1.3250 H     1 <1>   0.0800 
 44 H        1.1170     8.8480    -1.7530 H     1 <1>   0.0800 
 45 H        2.0700     8.3100     1.0770 H     1 <1>   0.0800 
 46 H        0.4720     8.8690     0.6310 H     1 <1>   0.0800 
 47 H        0.2040    11.2940    -0.1770 H     1 <1>   0.1500 
 48 H        5.2950    10.4440     1.1230 H     1 <1>   0.0800 
 49 H        4.5980     9.1420     0.2010 H     1 <1>   0.0800 
 50 H        4.2000     9.3340     1.8970 H     1 <1>   0.0800 
 51 H        5.1650    12.7020     0.8850 H     1 <1>   0.0800 
 52 H        3.9300    13.8380     1.3730 H     1 <1>   0.0800 
 53 H        4.3420    13.6690    -0.3160 H     1 <1>   0.0800 
@<TRIPOS>BOND
  1   1   2  2   
  2   2   3  am  
  3   2   4  1   
  4   3   5  1   
  5   3   6  1   
  6   4   7  1   
  7   4  28  1   
  8   4  29  1   
  9   5   8  1   
 10   5   9  1   
 11   5  30  1   
 12   6  31  1   
 13   6  32  1   
 14   6  33  1   
 15   7   9  1   
 16   8  10  ar  
 17   8  11  ar  
 18   9  12  1   
 19   9  34  1   
 20  10  13  ar  
 21  10  14  1   
 22  11  15  ar  
 23  11  35  1   
 24  12  16  2   
 25  12  17  am  
 26  13  18  ar  
 27  13  36  1   
 28  14  37  1   
 29  14  38  1   
 30  14  39  1   
 31  15  18  ar  
 32  15  40  1   
 33  17  19  1   
 34  17  41  1   
 35  18  42  1   
 36  19  20  1   
 37  19  43  1   
 38  19  44  1   
 39  20  21  1   
 40  20  45  1   
 41  20  46  1   
 42  21  22  1   
 43  21  23  1   
 44  22  24  2   
 45  22  25  1   
 46  23  26  2   
 47  23  47  1   
 48  24  26  1   
 49  24  27  1   
 50  25  48  1   
 51  25  49  1   
 52  25  50  1   
 53  27  51  1   
 54  27  52  1   
 55  27  53  1   
@<TRIPOS>SUBSTRUCTURE
  1 ****  12 GROUP 4 **** **** 0

# MOE 2024.06 (io_trps.svl 2023.06)
