@<TRIPOS>MOLECULE
NONAME
42 43 1 0 0 
SMALL
USER_CHARGES


@<TRIPOS>ATOM
  1 CL       3.9220    -1.3120     2.4430 Cl    1 <1>  -0.1770 
  2 C        3.3750    -1.6860     0.8290 C.ar  1 <1>   0.1770 
  3 C        2.6380    -2.8330     0.6180 C.ar  1 <1>  -0.1500 
  4 C        3.6900    -0.8250    -0.2050 C.ar  1 <1>  -0.1500 
  5 C        2.1820    -3.1710    -0.6620 C.ar  1 <1>   0.0860 
  6 C        3.2480    -1.1290    -1.4770 C.ar  1 <1>  -0.1500 
  7 C        2.5060    -2.2780    -1.6990 C.ar  1 <1>   0.0830 
  8 C        1.4170    -4.3880    -0.8990 C.2   1 <1>   0.5440 
  9 O        2.0990    -2.5100    -2.9560 O.3   1 <1>  -0.5320 
 10 O        0.8290    -4.5710    -1.9510 O.2   1 <1>  -0.5700 
 11 N        1.3240    -5.3690     0.0470 N.am  1 <1>  -0.7300 
 12 C        0.5820    -6.6400    -0.1180 C.3   1 <1>   0.2200 
 13 C       -0.8740    -6.4280     0.3080 C.3   1 <1>  -0.0800 
 14 C        1.0870    -7.6730     0.8850 C.3   1 <1>   0.1200 
 15 C       -1.0050    -7.2530     1.5950 C.3   1 <1>   0.1200 
 16 C       -1.8960    -6.7160    -0.8170 C.3   1 <1>  -0.0550 
 17 O        0.3010    -7.4800     2.0160 O.3   1 <1>  -0.5600 
 18 S       -2.0520    -8.4090    -1.4080 S.o2  1 <1>   1.3330 
 19 O       -0.7520    -9.0410    -1.3840 O.2   1 <1>  -0.6500 
 20 O       -2.8160    -8.4030    -2.6350 O.2   1 <1>  -0.6500 
 21 N       -3.0210    -9.1570    -0.2280 N.am  1 <1>  -0.8490 
 22 C       -4.4590    -8.9430    -0.4310 C.3   1 <1>   0.1160 
 23 C       -2.7480   -10.5930    -0.1120 C.3   1 <1>   0.1160 
 24 H        2.4220    -3.4560     1.4640 H     1 <1>   0.1500 
 25 H        4.2660     0.0630    -0.0120 H     1 <1>   0.1500 
 26 H        3.4730    -0.4790    -2.3050 H     1 <1>   0.1500 
 27 H        1.5290    -3.3200    -3.0040 H     1 <1>   0.4500 
 28 H        1.7090    -5.2380     0.9840 H     1 <1>   0.3700 
 29 H        0.6910    -6.9970    -1.1290 H     1 <1>   0.0800 
 30 H       -1.0110    -5.3970     0.5840 H     1 <1>   0.0800 
 31 H        2.1250    -7.5480     1.1350 H     1 <1>   0.0800 
 32 H        0.9140    -8.6730     0.5270 H     1 <1>   0.0800 
 33 H       -1.4570    -8.2130     1.4370 H     1 <1>   0.0800 
 34 H       -1.5340    -6.7250     2.3690 H     1 <1>   0.0800 
 35 H       -1.6190    -6.1010    -1.6530 H     1 <1>   0.0800 
 36 H       -2.8600    -6.3760    -0.4950 H     1 <1>   0.0800 
 37 H       -5.0140    -9.3520     0.3960 H     1 <1>   0.0800 
 38 H       -4.7870    -9.4180    -1.3420 H     1 <1>   0.0800 
 39 H       -4.6750    -7.8900    -0.4960 H     1 <1>   0.0800 
 40 H       -3.3720   -11.0320     0.6480 H     1 <1>   0.0800 
 41 H       -1.7200   -10.7520     0.1660 H     1 <1>   0.0800 
 42 H       -2.9320   -11.0860    -1.0520 H     1 <1>   0.0800 
@<TRIPOS>BOND
  1   1   2  1   
  2   2   3  ar  
  3   2   4  ar  
  4   3   5  ar  
  5   3  24  1   
  6   4   6  ar  
  7   4  25  1   
  8   5   7  ar  
  9   5   8  1   
 10   6   7  ar  
 11   6  26  1   
 12   7   9  1   
 13   8  10  2   
 14   8  11  am  
 15   9  27  1   
 16  11  12  1   
 17  11  28  1   
 18  12  13  1   
 19  12  14  1   
 20  12  29  1   
 21  13  15  1   
 22  13  16  1   
 23  13  30  1   
 24  14  17  1   
 25  14  31  1   
 26  14  32  1   
 27  15  17  1   
 28  15  33  1   
 29  15  34  1   
 30  16  18  1   
 31  16  35  1   
 32  16  36  1   
 33  18  19  2   
 34  18  20  2   
 35  18  21  am  
 36  21  22  1   
 37  21  23  1   
 38  22  37  1   
 39  22  38  1   
 40  22  39  1   
 41  23  40  1   
 42  23  41  1   
 43  23  42  1   
@<TRIPOS>SUBSTRUCTURE
  1 ****  11 GROUP 4 **** **** 0

# MOE 2024.06 (io_trps.svl 2023.06)
