@<TRIPOS>MOLECULE
NONAME
41 42 1 0 0 
SMALL
USER_CHARGES


@<TRIPOS>ATOM
  1 S       -0.1190    -0.1420     0.7000 S.o2  1 <1>   1.3330 
  2 O        0.2410    -1.0430     1.7720 O.2   1 <1>  -0.6500 
  3 O       -0.7220     1.1340     1.0140 O.2   1 <1>  -0.6500 
  4 N       -1.1520    -0.9780    -0.3560 N.am  1 <1>  -0.8490 
  5 C        1.3170     0.1710    -0.3270 C.3   1 <1>  -0.0550 
  6 C       -2.5680    -0.7310    -0.0640 C.3   1 <1>   0.1160 
  7 C       -0.8970    -2.4220    -0.4020 C.3   1 <1>   0.1160 
  8 C        2.3840     1.0420     0.3640 C.3   1 <1>  -0.0800 
  9 C        3.4830     1.4380    -0.6100 C.3   1 <1>   0.2200 
 10 C        3.1470     0.2780     1.4590 C.3   1 <1>   0.1200 
 11 N        4.0470     2.7390    -0.1890 N.am  1 <1>  -0.7300 
 12 C        4.5140     0.3430    -0.3790 C.3   1 <1>   0.1200 
 13 O        4.4420     0.0610     0.9820 O.3   1 <1>  -0.5600 
 14 C        3.9630     3.9030    -0.8960 C.2   1 <1>   0.5440 
 15 O        3.4290     3.8760    -1.9870 O.2   1 <1>  -0.5700 
 16 C        4.5040     5.1430    -0.3660 C.ar  1 <1>   0.0860 
 17 C        4.9050     6.1670    -1.2290 C.ar  1 <1>  -0.1500 
 18 C        4.6390     5.3600     1.0140 C.ar  1 <1>  -0.1500 
 19 C        5.4220     7.3410    -0.7210 C.ar  1 <1>   0.1900 
 20 C        5.1590     6.5400     1.5260 C.ar  1 <1>  -0.1500 
 21 F        5.7930     8.2810    -1.5530 F     1 <1>  -0.1900 
 22 C        5.5520     7.5290     0.6450 C.ar  1 <1>   0.1900 
 23 F        6.0430     8.6410     1.1210 F     1 <1>  -0.1900 
 24 H        1.7510    -0.7600    -0.6320 H     1 <1>   0.0800 
 25 H        0.9830     0.6820    -1.2100 H     1 <1>   0.0800 
 26 H       -3.1920    -1.2630    -0.7620 H     1 <1>   0.0800 
 27 H       -2.7850     0.3200    -0.1550 H     1 <1>   0.0800 
 28 H       -2.8050    -1.0480     0.9380 H     1 <1>   0.0800 
 29 H       -1.5140    -2.8830    -1.1550 H     1 <1>   0.0800 
 30 H       -1.1120    -2.8730     0.5530 H     1 <1>   0.0800 
 31 H        0.1350    -2.6090    -0.6480 H     1 <1>   0.0800 
 32 H        1.9000     1.9150     0.7690 H     1 <1>   0.0800 
 33 H        3.1560     1.4770    -1.6360 H     1 <1>   0.0800 
 34 H        2.7100    -0.6780     1.6880 H     1 <1>   0.0800 
 35 H        3.2210     0.8600     2.3620 H     1 <1>   0.0800 
 36 H        4.5940     2.6880     0.6730 H     1 <1>   0.3700 
 37 H        5.5120     0.6490    -0.6370 H     1 <1>   0.0800 
 38 H        4.2530    -0.5520    -0.9170 H     1 <1>   0.0800 
 39 H        4.8100     6.0440    -2.2940 H     1 <1>   0.1500 
 40 H        4.3220     4.5970     1.7030 H     1 <1>   0.1500 
 41 H        5.2580     6.6960     2.5860 H     1 <1>   0.1500 
@<TRIPOS>BOND
  1   1   2  2   
  2   1   3  2   
  3   1   4  am  
  4   1   5  1   
  5   4   6  1   
  6   4   7  1   
  7   5   8  1   
  8   5  24  1   
  9   5  25  1   
 10   6  26  1   
 11   6  27  1   
 12   6  28  1   
 13   7  29  1   
 14   7  30  1   
 15   7  31  1   
 16   8   9  1   
 17   8  10  1   
 18   8  32  1   
 19   9  11  1   
 20   9  12  1   
 21   9  33  1   
 22  10  13  1   
 23  10  34  1   
 24  10  35  1   
 25  11  14  am  
 26  11  36  1   
 27  12  13  1   
 28  12  37  1   
 29  12  38  1   
 30  14  15  2   
 31  14  16  1   
 32  16  17  ar  
 33  16  18  ar  
 34  17  19  ar  
 35  17  39  1   
 36  18  20  ar  
 37  18  40  1   
 38  19  21  1   
 39  19  22  ar  
 40  20  22  ar  
 41  20  41  1   
 42  22  23  1   
@<TRIPOS>SUBSTRUCTURE
  1 ****  11 GROUP 4 **** **** 0

# MOE 2024.06 (io_trps.svl 2023.06)
