@<TRIPOS>MOLECULE
NONAME
63 66 1 0 0 
SMALL
USER_CHARGES


@<TRIPOS>ATOM
  1 N       -0.2450    -0.9300     0.0500 N.2   1 <1>  -0.7070 
  2 N       -1.1200     0.0850     0.2700 N.pl3 1 <1>   0.5930 
  3 C        0.7510    -0.4060    -0.5830 C.2   1 <1>   0.1080 
  4 C       -2.3880    -0.1540     0.8810 C.ar  1 <1>  -0.0230 
  5 C       -0.6350     1.2360    -0.2810 C.2   1 <1>  -0.3320 
  6 C        0.5650     0.9480    -0.8240 C.2   1 <1>  -0.1500 
  7 C        1.9620    -1.2060    -1.0020 C.3   1 <1>  -0.0590 
  8 C       -3.1160    -1.2850     0.5250 C.ar  1 <1>  -0.1500 
  9 C       -2.9220     0.6990     1.8420 C.ar  1 <1>  -0.1500 
 10 C       -1.3400     2.5850    -0.2950 C.3   1 <1>  -0.0600 
 11 C       -4.3560    -1.5540     1.0850 C.ar  1 <1>  -0.1430 
 12 C       -4.1570     0.4390     2.4070 C.ar  1 <1>  -0.1500 
 13 C       -4.8740    -0.6820     2.0310 C.ar  1 <1>  -0.1500 
 14 C       -5.1260    -2.7910     0.6720 C.3   1 <1>   0.4860 
 15 N       -5.3740    -2.6860    -0.7940 N.4   1 <1>  -0.9590 
 16 C       -6.7940    -2.5430    -1.2210 C.3   1 <1>   0.4230 
 17 C       -4.6830    -3.7900    -1.5300 C.3   1 <1>   0.2630 
 18 C       -7.4740    -1.2930    -0.6660 C.3   1 <1>  -0.1600 
 19 C       -7.7080    -3.6930    -0.7930 C.3   1 <1>  -0.1600 
 20 C       -8.9760    -1.5810    -0.8140 C.3   1 <1>  -0.0800 
 21 C       -9.1250    -3.1040    -0.8850 C.3   1 <1>  -0.0800 
 22 C       -9.8610    -1.1240     0.3580 C.3   1 <1>  -0.1600 
 23 C      -10.0850    -3.4850     0.2550 C.3   1 <1>  -0.1600 
 24 C      -10.9140    -2.2250     0.5380 C.3   1 <1>   0.4230 
 25 N      -12.0290    -2.0750    -0.4540 N.4   1 <1>  -0.9590 
 26 C      -12.7880    -0.7930    -0.2800 C.3   1 <1>   0.2630 
 27 C      -13.0140    -3.2050    -0.3920 C.3   1 <1>   0.2630 
 28 H        1.2490     1.5980    -1.3420 H     1 <1>   0.1500 
 29 H        2.6840    -0.5730    -1.4830 H     1 <1>   0.0800 
 30 H        1.6640    -1.9820    -1.6830 H     1 <1>   0.0800 
 31 H        2.4110    -1.6570    -0.1360 H     1 <1>   0.0800 
 32 H       -2.6770    -1.9560    -0.1940 H     1 <1>   0.1500 
 33 H       -2.3680     1.5640     2.1610 H     1 <1>   0.1500 
 34 H       -0.8270     3.2620    -0.9560 H     1 <1>   0.0800 
 35 H       -1.3450     3.0180     0.6880 H     1 <1>   0.0800 
 36 H       -2.3530     2.4770    -0.6410 H     1 <1>   0.0800 
 37 H       -4.5550     1.1110     3.1500 H     1 <1>   0.1500 
 38 H       -5.8290    -0.8640     2.4940 H     1 <1>   0.1500 
 39 H       -6.0530    -2.8440     1.2170 H     1 <1>   0.0800 
 40 H       -4.5430    -3.6690     0.8990 H     1 <1>   0.0800 
 41 H       -4.9050    -1.8040    -1.0510 H     1 <1>   0.4500 
 42 H       -6.8310    -2.4780    -2.2980 H     1 <1>   0.0800 
 43 H       -5.1180    -4.7420    -1.2760 H     1 <1>   0.0800 
 44 H       -3.6350    -3.8110    -1.2750 H     1 <1>   0.0800 
 45 H       -4.7700    -3.6430    -2.5950 H     1 <1>   0.0800 
 46 H       -7.2280    -1.1510     0.3690 H     1 <1>   0.0800 
 47 H       -7.1920    -0.4150    -1.2210 H     1 <1>   0.0800 
 48 H       -7.6050    -4.5410    -1.4470 H     1 <1>   0.0800 
 49 H       -7.4980    -3.9960     0.2160 H     1 <1>   0.0800 
 50 H       -9.3380    -1.1530    -1.7360 H     1 <1>   0.0800 
 51 H       -9.5650    -3.3650    -1.8350 H     1 <1>   0.0800 
 52 H      -10.2610    -0.1390     0.2080 H     1 <1>   0.0800 
 53 H       -9.2790    -1.0940     1.2630 H     1 <1>   0.0800 
 54 H       -9.5220    -3.6980     1.1470 H     1 <1>   0.0800 
 55 H      -10.6620    -4.3610     0.0280 H     1 <1>   0.0800 
 56 H      -11.3090    -2.2320     1.5430 H     1 <1>   0.0800 
 57 H      -11.6020    -2.0720    -1.3910 H     1 <1>   0.4500 
 58 H      -13.1860    -0.7260     0.7200 H     1 <1>   0.0800 
 59 H      -13.6070    -0.7470    -0.9790 H     1 <1>   0.0800 
 60 H      -12.1510     0.0580    -0.4560 H     1 <1>   0.0800 
 61 H      -13.4290    -3.2870     0.6010 H     1 <1>   0.0800 
 62 H      -12.5450    -4.1400    -0.6490 H     1 <1>   0.0800 
 63 H      -13.8210    -3.0340    -1.0860 H     1 <1>   0.0800 
@<TRIPOS>BOND
  1   1   2  1   
  2   1   3  2   
  3   2   4  1   
  4   2   5  1   
  5   3   6  1   
  6   3   7  1   
  7   4   8  ar  
  8   4   9  ar  
  9   5   6  2   
 10   5  10  1   
 11   6  28  1   
 12   7  29  1   
 13   7  30  1   
 14   7  31  1   
 15   8  11  ar  
 16   8  32  1   
 17   9  12  ar  
 18   9  33  1   
 19  10  34  1   
 20  10  35  1   
 21  10  36  1   
 22  11  13  ar  
 23  11  14  1   
 24  12  13  ar  
 25  12  37  1   
 26  13  38  1   
 27  14  15  1   
 28  14  39  1   
 29  14  40  1   
 30  15  16  1   
 31  15  17  1   
 32  15  41  1   
 33  16  18  1   
 34  16  19  1   
 35  16  42  1   
 36  17  43  1   
 37  17  44  1   
 38  17  45  1   
 39  18  20  1   
 40  18  46  1   
 41  18  47  1   
 42  19  21  1   
 43  19  48  1   
 44  19  49  1   
 45  20  21  1   
 46  20  22  1   
 47  20  50  1   
 48  21  23  1   
 49  21  51  1   
 50  22  24  1   
 51  22  52  1   
 52  22  53  1   
 53  23  24  1   
 54  23  54  1   
 55  23  55  1   
 56  24  25  1   
 57  24  56  1   
 58  25  26  1   
 59  25  27  1   
 60  25  57  1   
 61  26  58  1   
 62  26  59  1   
 63  26  60  1   
 64  27  61  1   
 65  27  62  1   
 66  27  63  1   
@<TRIPOS>SUBSTRUCTURE
  1 ****  11 GROUP 4 **** **** 0

# MOE 2024.06 (io_trps.svl 2023.06)
