@<TRIPOS>MOLECULE
NONAME
53 56 1 0 0 
SMALL
USER_CHARGES


@<TRIPOS>ATOM
  1 O       -1.2920    -0.6530     0.4810 O.3   1 <1>  -0.2800 
  2 C       -1.2900    -1.6430     1.3530 C.2   1 <1>  -0.0400 
  3 C       -1.1640     0.4770     1.1490 C.2   1 <1>  -0.0400 
  4 C       -1.1600    -1.1640     2.6090 C.2   1 <1>  -0.1500 
  5 C       -1.4240    -3.0690     0.8520 C.3   1 <1>   0.5230 
  6 C       -1.0780     0.2270     2.4740 C.2   1 <1>  -0.1500 
  7 C       -1.1320     1.7770     0.3610 C.3   1 <1>   0.0200 
  8 N       -2.7810    -3.2670     0.2610 N.4   1 <1>  -0.9590 
  9 C       -0.9820     3.0100     1.2620 C.3   1 <1>  -0.1600 
 10 C       -2.9670    -2.5000    -1.0170 C.3   1 <1>   0.3430 
 11 C       -3.0960    -4.7010    -0.0240 C.3   1 <1>   0.3430 
 12 C       -0.9540     4.3050     0.4430 C.3   1 <1>  -0.2400 
 13 C       -3.8720    -3.3690    -1.8920 C.3   1 <1>   0.2000 
 14 C       -3.4500    -4.7870    -1.5130 C.3   1 <1>  -0.0800 
 15 O       -5.2030    -3.1510    -1.5500 O.3   1 <1>  -0.6800 
 16 C       -4.4370    -5.9170    -1.8730 C.3   1 <1>  -0.0170 
 17 C       -3.9440    -7.2320    -1.2780 C.ar  1 <1>  -0.1440 
 18 C       -4.3600    -7.7180    -0.0130 C.ar  1 <1>   0.0000 
 19 C       -3.0300    -7.9720    -1.9690 C.ar  1 <1>  -0.1500 
 20 C       -3.7450    -8.9010     0.4670 C.ar  1 <1>   0.3100 
 21 C       -5.3440    -7.1110     0.8060 C.ar  1 <1>  -0.1500 
 22 C       -2.5040    -9.1440    -1.4130 C.ar  1 <1>   0.1600 
 23 N       -2.8190    -9.5920    -0.2410 N.ar  1 <1>  -0.6200 
 24 C       -4.0970    -9.3880     1.7350 C.ar  1 <1>  -0.1500 
 25 C       -5.6680    -7.6150     2.0360 C.ar  1 <1>  -0.1500 
 26 C       -5.0340    -8.7640     2.5120 C.ar  1 <1>  -0.1500 
 27 H       -1.1180    -1.6880     3.5490 H     1 <1>   0.1500 
 28 H       -1.2840    -3.7420     1.6820 H     1 <1>   0.0800 
 29 H       -0.6590    -3.2660     0.1190 H     1 <1>   0.0800 
 30 H       -0.9660     0.9240     3.2860 H     1 <1>   0.1500 
 31 H       -0.3100     1.7380    -0.3320 H     1 <1>   0.0800 
 32 H       -2.0420     1.8580    -0.2070 H     1 <1>   0.0800 
 33 H       -3.4450    -2.8880     0.9480 H     1 <1>   0.4500 
 34 H       -1.8040     3.0490     1.9560 H     1 <1>   0.0800 
 35 H       -0.0680     2.9310     1.8270 H     1 <1>   0.0800 
 36 H       -3.3950    -1.5250    -0.8470 H     1 <1>   0.0800 
 37 H       -2.0160    -2.3800    -1.5080 H     1 <1>   0.0800 
 38 H       -2.2650    -5.3500     0.2020 H     1 <1>   0.0800 
 39 H       -3.9410    -5.0080     0.5700 H     1 <1>   0.0800 
 40 H       -1.8680     4.4200    -0.1150 H     1 <1>   0.0800 
 41 H       -0.1260     4.3010    -0.2440 H     1 <1>   0.0800 
 42 H       -0.8480     5.1520     1.0980 H     1 <1>   0.0800 
 43 H       -3.7570    -3.1570    -2.9420 H     1 <1>   0.0800 
 44 H       -2.5300    -4.9960    -2.0300 H     1 <1>   0.0800 
 45 H       -5.3910    -3.3150    -0.6070 H     1 <1>   0.4000 
 46 H       -4.4860    -6.0070    -2.9450 H     1 <1>   0.0800 
 47 H       -5.4370    -5.7010    -1.5480 H     1 <1>   0.0800 
 48 H       -2.6840    -7.6820    -2.9450 H     1 <1>   0.1500 
 49 H       -5.8680    -6.2410     0.4630 H     1 <1>   0.1500 
 50 H       -1.7870    -9.7030    -1.9930 H     1 <1>   0.1500 
 51 H       -3.6050   -10.2810     2.0760 H     1 <1>   0.1500 
 52 H       -6.4190    -7.1460     2.6500 H     1 <1>   0.1500 
 53 H       -5.2960    -9.1530     3.4820 H     1 <1>   0.1500 
@<TRIPOS>BOND
  1   1   2  1   
  2   1   3  1   
  3   2   4  2   
  4   2   5  1   
  5   3   6  2   
  6   3   7  1   
  7   4   6  1   
  8   4  27  1   
  9   5   8  1   
 10   5  28  1   
 11   5  29  1   
 12   6  30  1   
 13   7   9  1   
 14   7  31  1   
 15   7  32  1   
 16   8  10  1   
 17   8  11  1   
 18   8  33  1   
 19   9  12  1   
 20   9  34  1   
 21   9  35  1   
 22  10  13  1   
 23  10  36  1   
 24  10  37  1   
 25  11  14  1   
 26  11  38  1   
 27  11  39  1   
 28  12  40  1   
 29  12  41  1   
 30  12  42  1   
 31  13  14  1   
 32  13  15  1   
 33  13  43  1   
 34  14  16  1   
 35  14  44  1   
 36  15  45  1   
 37  16  17  1   
 38  16  46  1   
 39  16  47  1   
 40  17  18  ar  
 41  17  19  ar  
 42  18  20  ar  
 43  18  21  ar  
 44  19  22  ar  
 45  19  48  1   
 46  20  23  ar  
 47  20  24  ar  
 48  21  25  ar  
 49  21  49  1   
 50  22  23  ar  
 51  22  50  1   
 52  24  26  ar  
 53  24  51  1   
 54  25  26  ar  
 55  25  52  1   
 56  26  53  1   
@<TRIPOS>SUBSTRUCTURE
  1 ****  11 GROUP 4 **** **** 0

# MOE 2024.06 (io_trps.svl 2023.06)
