@<TRIPOS>MOLECULE
NONAME
38 40 1 0 0 
SMALL
USER_CHARGES


@<TRIPOS>ATOM
  1 S        1.9980    -0.9240     1.5690 S.3   1 <1>  -0.0800 
  2 C        0.8020    -0.4010     0.4110 C.2   1 <1>   0.1980 
  3 C        1.7640    -2.5540     1.0300 C.2   1 <1>  -0.1100 
  4 N        0.2990    -1.3400    -0.2790 N.2   1 <1>  -0.5650 
  5 C        0.4910     1.0750     0.3460 C.3   1 <1>  -0.0600 
  6 C        0.8330    -2.5990     0.0490 C.2   1 <1>   0.1410 
  7 C        0.3850    -3.8130    -0.6280 C.2   1 <1>   0.7160 
  8 O       -0.1070    -3.8040    -1.7410 O.2   1 <1>  -0.5700 
  9 N        0.5040    -5.0220    -0.0010 N.am  1 <1>  -0.7300 
 10 C        0.0040    -6.3030    -0.5470 C.3   1 <1>   0.2200 
 11 C       -1.4320    -6.5070    -0.0940 C.3   1 <1>  -0.0800 
 12 C        0.7120    -7.4620     0.1420 C.3   1 <1>   0.1200 
 13 C       -1.2640    -7.1710     1.2800 C.3   1 <1>   0.1200 
 14 C       -2.2150    -7.3920    -1.0810 C.3   1 <1>  -0.0160 
 15 O        0.0590    -7.6210     1.3640 O.3   1 <1>  -0.5600 
 16 C       -3.6650    -7.5470    -0.6520 C.ar  1 <1>  -0.1440 
 17 C       -4.1570    -8.7220    -0.1190 C.ar  1 <1>  -0.1500 
 18 C       -4.5670    -6.5100    -0.7760 C.ar  1 <1>  -0.1500 
 19 C       -5.4870    -8.7970     0.2590 C.ar  1 <1>   0.1600 
 20 C       -5.8780    -6.6890    -0.3670 C.ar  1 <1>   0.1600 
 21 N       -6.3590    -7.8080     0.1500 N.ar  1 <1>  -0.6200 
 22 H        2.3520    -3.3230     1.4960 H     1 <1>   0.1500 
 23 H       -0.2580     1.2540    -0.4030 H     1 <1>   0.0800 
 24 H        1.3790     1.6240     0.0920 H     1 <1>   0.0800 
 25 H        0.1230     1.4130     1.2970 H     1 <1>   0.0800 
 26 H        0.7320    -5.0540     0.9940 H     1 <1>   0.3700 
 27 H        0.1250    -6.3260    -1.6180 H     1 <1>   0.0800 
 28 H       -1.9460    -5.5660    -0.0020 H     1 <1>   0.0800 
 29 H        1.7570    -7.2740     0.3090 H     1 <1>   0.0800 
 30 H        0.5890    -8.3730    -0.4170 H     1 <1>   0.0800 
 31 H       -1.9230    -8.0100     1.4230 H     1 <1>   0.0800 
 32 H       -1.4170    -6.4590     2.0720 H     1 <1>   0.0800 
 33 H       -1.7540    -8.3610    -1.1640 H     1 <1>   0.0800 
 34 H       -2.1950    -6.9380    -2.0580 H     1 <1>   0.0800 
 35 H       -3.5210    -9.5790     0.0080 H     1 <1>   0.1500 
 36 H       -4.2630    -5.5640    -1.1870 H     1 <1>   0.1500 
 37 H       -5.8540    -9.7210     0.6740 H     1 <1>   0.1500 
 38 H       -6.5670    -5.8680    -0.4700 H     1 <1>   0.1500 
@<TRIPOS>BOND
  1   1   2  1   
  2   1   3  1   
  3   2   4  2   
  4   2   5  1   
  5   3   6  2   
  6   3  22  1   
  7   4   6  1   
  8   5  23  1   
  9   5  24  1   
 10   5  25  1   
 11   6   7  1   
 12   7   8  2   
 13   7   9  am  
 14   9  10  1   
 15   9  26  1   
 16  10  11  1   
 17  10  12  1   
 18  10  27  1   
 19  11  13  1   
 20  11  14  1   
 21  11  28  1   
 22  12  15  1   
 23  12  29  1   
 24  12  30  1   
 25  13  15  1   
 26  13  31  1   
 27  13  32  1   
 28  14  16  1   
 29  14  33  1   
 30  14  34  1   
 31  16  17  ar  
 32  16  18  ar  
 33  17  19  ar  
 34  17  35  1   
 35  18  20  ar  
 36  18  36  1   
 37  19  21  ar  
 38  19  37  1   
 39  20  21  ar  
 40  20  38  1   
@<TRIPOS>SUBSTRUCTURE
  1 ****  11 GROUP 4 **** **** 0

# MOE 2024.06 (io_trps.svl 2023.06)
