@<TRIPOS>MOLECULE
NONAME
51 53 1 0 0 
SMALL
USER_CHARGES


@<TRIPOS>ATOM
  1 O        0.6390     0.2530     0.9360 O.2   1 <1>  -0.5700 
  2 C        1.5320    -0.4130     0.4480 C.2   1 <1>   0.5440 
  3 N        2.5490     0.2170    -0.2450 N.am  1 <1>  -0.6600 
  4 C        1.5100    -1.8530     0.6120 C.ar  1 <1>   0.0860 
  5 C        3.6390    -0.5470    -0.9280 C.3   1 <1>   0.1400 
  6 C        2.5840     1.7040    -0.3760 C.3   1 <1>   0.1400 
  7 C        0.8900    -2.7040    -0.3110 C.ar  1 <1>  -0.1440 
  8 C        2.1360    -2.4290     1.7170 C.ar  1 <1>  -0.1500 
  9 C        4.8380    -0.7620     0.0070 C.3   1 <1>   0.1400 
 10 C        3.9760     2.3170    -0.1630 C.3   1 <1>  -0.1600 
 11 C        0.9270    -4.0780    -0.1360 C.ar  1 <1>  -0.1500 
 12 C        0.1610    -2.1210    -1.5160 C.3   1 <1>  -0.0960 
 13 C        2.1720    -3.7980     1.8900 C.ar  1 <1>  -0.1500 
 14 N        5.5970     0.5010     0.2500 N.am  1 <1>  -0.6600 
 15 C        4.8330     1.6070     0.8910 C.3   1 <1>   0.1400 
 16 C        1.5730    -4.6350     0.9640 C.ar  1 <1>   0.0830 
 17 C        6.8240     0.7060    -0.3440 C.2   1 <1>   0.7150 
 18 O        1.6560    -5.9640     1.1980 O.3   1 <1>  -0.3630 
 19 O        7.1170     0.0360    -1.3190 O.2   1 <1>  -0.5700 
 20 C        7.7430     1.7020     0.1470 C.2   1 <1>  -0.2370 
 21 C        1.0510    -6.9090     0.3440 C.3   1 <1>   0.0400 
 22 N        8.5040     2.5100    -0.6610 N.pl3 1 <1>   0.0480 
 23 C        8.0450     2.0230     1.4480 C.2   1 <1>  -0.1500 
 24 C        9.2460     3.3210     0.1320 C.2   1 <1>  -0.3020 
 25 C        8.5380     2.5110    -2.1360 C.3   1 <1>   0.0160 
 26 C        8.9870     3.0460     1.4360 C.2   1 <1>  -0.1500 
 27 H        3.9610    -0.0290    -1.8140 H     1 <1>   0.0800 
 28 H        3.2690    -1.5080    -1.2380 H     1 <1>   0.0800 
 29 H        1.9200     2.1400     0.3520 H     1 <1>   0.0800 
 30 H        2.2130     1.9790    -1.3480 H     1 <1>   0.0800 
 31 H        2.5960    -1.7860     2.4470 H     1 <1>   0.1500 
 32 H        5.4890    -1.4960    -0.4350 H     1 <1>   0.0800 
 33 H        4.5020    -1.1620     0.9460 H     1 <1>   0.0800 
 34 H        3.8300     3.3350     0.1490 H     1 <1>   0.0800 
 35 H        4.5050     2.3560    -1.0980 H     1 <1>   0.0800 
 36 H        0.4470    -4.7090    -0.8590 H     1 <1>   0.1500 
 37 H       -0.6010    -1.4360    -1.1850 H     1 <1>   0.0800 
 38 H       -0.3100    -2.8920    -2.0980 H     1 <1>   0.0800 
 39 H        0.8500    -1.5900    -2.1470 H     1 <1>   0.0800 
 40 H        2.6600    -4.2310     2.7450 H     1 <1>   0.1500 
 41 H        4.2180     1.2220     1.6870 H     1 <1>   0.0800 
 42 H        5.5100     2.3220     1.3210 H     1 <1>   0.0800 
 43 H        1.2420    -7.8890     0.7420 H     1 <1>   0.0800 
 44 H        1.4850    -6.8220    -0.6360 H     1 <1>   0.0800 
 45 H       -0.0090    -6.7270     0.3160 H     1 <1>   0.0800 
 46 H        7.6380     1.5690     2.3350 H     1 <1>   0.1500 
 47 H        9.9270     4.0530    -0.2650 H     1 <1>   0.1500 
 48 H        7.5350     2.5780    -2.5150 H     1 <1>   0.0800 
 49 H        8.9880     1.5970    -2.4770 H     1 <1>   0.0800 
 50 H        9.1120     3.3480    -2.4860 H     1 <1>   0.0800 
 51 H        9.4180     3.5120     2.3060 H     1 <1>   0.1500 
@<TRIPOS>BOND
  1   1   2  2   
  2   2   3  am  
  3   2   4  1   
  4   3   5  1   
  5   3   6  1   
  6   4   7  ar  
  7   4   8  ar  
  8   5   9  1   
  9   5  27  1   
 10   5  28  1   
 11   6  10  1   
 12   6  29  1   
 13   6  30  1   
 14   7  11  ar  
 15   7  12  1   
 16   8  13  ar  
 17   8  31  1   
 18   9  14  1   
 19   9  32  1   
 20   9  33  1   
 21  10  15  1   
 22  10  34  1   
 23  10  35  1   
 24  11  16  ar  
 25  11  36  1   
 26  12  37  1   
 27  12  38  1   
 28  12  39  1   
 29  13  16  ar  
 30  13  40  1   
 31  14  15  1   
 32  14  17  am  
 33  15  41  1   
 34  15  42  1   
 35  16  18  1   
 36  17  19  2   
 37  17  20  1   
 38  18  21  1   
 39  20  22  1   
 40  20  23  2   
 41  21  43  1   
 42  21  44  1   
 43  21  45  1   
 44  22  24  1   
 45  22  25  1   
 46  23  26  1   
 47  23  46  1   
 48  24  26  2   
 49  24  47  1   
 50  25  48  1   
 51  25  49  1   
 52  25  50  1   
 53  26  51  1   
@<TRIPOS>SUBSTRUCTURE
  1 ****   9 GROUP 4 **** **** 0

# MOE 2024.06 (io_trps.svl 2023.06)
