@<TRIPOS>MOLECULE
NONAME
41 43 1 0 0 
SMALL
USER_CHARGES


@<TRIPOS>ATOM
  1 CL       0.2010     0.7380    -0.9750 Cl    1 <1>  -0.1770 
  2 C        1.7010     1.2750    -0.2550 C.ar  1 <1>   0.1770 
  3 C        2.7330     0.3800     0.0040 C.ar  1 <1>  -0.1440 
  4 C        1.8140     2.6200     0.0380 C.ar  1 <1>  -0.1500 
  5 C        3.8850     0.9020     0.5760 C.ar  1 <1>   0.1770 
  6 C        2.6420    -1.1120    -0.3090 C.3   1 <1>  -0.0960 
  7 C        2.9770     3.1360     0.6020 C.ar  1 <1>   0.0860 
  8 CL       5.2390    -0.1430     0.9350 Cl    1 <1>  -0.1770 
  9 C        4.0100     2.2440     0.8760 C.ar  1 <1>  -0.1500 
 10 C        3.1040     4.5500     0.8880 C.2   1 <1>   0.5440 
 11 O        2.4090     5.0290     1.7640 O.2   1 <1>  -0.5700 
 12 N        3.9680     5.3660     0.1840 N.am  1 <1>  -0.6600 
 13 C        4.3100     6.7300     0.7120 C.3   1 <1>   0.1400 
 14 C        4.5890     4.9520    -1.1170 C.3   1 <1>   0.1400 
 15 C        5.8150     7.0110     0.9230 C.3   1 <1>   0.2200 
 16 C        6.1280     5.0200    -1.1800 C.3   1 <1>  -0.0190 
 17 N        6.4820     7.3500    -0.3670 N.am  1 <1>  -0.6600 
 18 C        6.5970     5.9240     1.7030 C.3   1 <1>   0.1200 
 19 C        6.6010     6.4420    -1.3770 C.2   1 <1>   0.5690 
 20 C        6.9220     4.3280    -0.0570 C.3   1 <1>   0.1200 
 21 C        6.9540     8.7580    -0.5110 C.3   1 <1>   0.0600 
 22 O        6.4480     4.6150     1.2220 O.3   1 <1>  -0.5600 
 23 O        7.0820     6.7290    -2.4470 O.2   1 <1>  -0.5700 
 24 H        0.9910     3.2820    -0.1700 H     1 <1>   0.1500 
 25 H        1.6940    -1.3860    -0.7320 H     1 <1>   0.0800 
 26 H        2.7790    -1.6820     0.5930 H     1 <1>   0.0800 
 27 H        3.4110    -1.3870    -1.0080 H     1 <1>   0.0800 
 28 H        4.9140     2.6050     1.3320 H     1 <1>   0.1500 
 29 H        3.9030     7.4720     0.0480 H     1 <1>   0.0800 
 30 H        3.8320     6.8710     1.6650 H     1 <1>   0.0800 
 31 H        4.2950     3.9470    -1.3570 H     1 <1>   0.0800 
 32 H        4.1890     5.5820    -1.8930 H     1 <1>   0.0800 
 33 H        5.8630     7.8950     1.5340 H     1 <1>   0.0800 
 34 H        6.4040     4.5070    -2.0830 H     1 <1>   0.0800 
 35 H        6.2390     5.9100     2.7160 H     1 <1>   0.0800 
 36 H        7.6460     6.1620     1.7240 H     1 <1>   0.0800 
 37 H        7.9640     4.5970    -0.1050 H     1 <1>   0.0800 
 38 H        6.8470     3.2620    -0.1790 H     1 <1>   0.0800 
 39 H        7.6670     8.9850     0.2620 H     1 <1>   0.0800 
 40 H        6.1190     9.4320    -0.4370 H     1 <1>   0.0800 
 41 H        7.4290     8.9070    -1.4660 H     1 <1>   0.0800 
@<TRIPOS>BOND
  1   1   2  1   
  2   2   3  ar  
  3   2   4  ar  
  4   3   5  ar  
  5   3   6  1   
  6   4   7  ar  
  7   4  24  1   
  8   5   8  1   
  9   5   9  ar  
 10   6  25  1   
 11   6  26  1   
 12   6  27  1   
 13   7   9  ar  
 14   7  10  1   
 15   9  28  1   
 16  10  11  2   
 17  10  12  am  
 18  12  13  1   
 19  12  14  1   
 20  13  15  1   
 21  13  29  1   
 22  13  30  1   
 23  14  16  1   
 24  14  31  1   
 25  14  32  1   
 26  15  17  1   
 27  15  18  1   
 28  15  33  1   
 29  16  19  1   
 30  16  20  1   
 31  16  34  1   
 32  17  19  am  
 33  17  21  1   
 34  18  22  1   
 35  18  35  1   
 36  18  36  1   
 37  19  23  2   
 38  20  22  1   
 39  20  37  1   
 40  20  38  1   
 41  21  39  1   
 42  21  40  1   
 43  21  41  1   
@<TRIPOS>SUBSTRUCTURE
  1 ****  12 GROUP 4 **** **** 0

# MOE 2024.06 (io_trps.svl 2023.06)
