@<TRIPOS>MOLECULE
NONAME
45 46 1 0 0 
SMALL
USER_CHARGES


@<TRIPOS>ATOM
  1 S        0.6370     0.5940     1.3850 S.o2  1 <1>   1.3330 
  2 O        1.3990     1.7340     1.8450 O.2   1 <1>  -0.6500 
  3 O       -0.2860    -0.0740     2.2680 O.2   1 <1>  -0.6500 
  4 N        1.7700    -0.5750     0.8000 N.am  1 <1>  -0.6930 
  5 C       -0.2060     1.0630    -0.1100 C.3   1 <1>  -0.1350 
  6 C        1.3260    -1.7380     0.1720 C.ar  1 <1>   0.1990 
  7 C        3.2150    -0.1800     0.8230 C.3   1 <1>   0.3370 
  8 C        0.6320    -2.7040     0.8900 C.ar  1 <1>  -0.1500 
  9 C        1.5510    -1.9540    -1.1850 C.ar  1 <1>  -0.1500 
 10 C        3.5850     0.8210    -0.3000 C.2   1 <1>   0.5690 
 11 C        4.1260    -1.4180     0.8560 C.3   1 <1>  -0.2400 
 12 C        0.1730    -3.8540     0.2740 C.ar  1 <1>  -0.1500 
 13 C        1.0960    -3.1040    -1.8050 C.ar  1 <1>  -0.1500 
 14 O        4.0170     0.4240    -1.3580 O.2   1 <1>  -0.5700 
 15 N        3.4100     2.1510    -0.0860 N.am  1 <1>  -0.7300 
 16 C        0.4050    -4.0560    -1.0750 C.ar  1 <1>  -0.1500 
 17 C        3.8670     3.2290    -1.0050 C.3   1 <1>   0.3200 
 18 C        4.9630     4.0770    -0.3790 C.2   1 <1>   0.2980 
 19 O        6.1010     3.5040    -0.0740 O.3   1 <1>  -0.0190 
 20 N        4.8880     5.3210    -0.1170 N.2   1 <1>  -0.5650 
 21 N        6.8160     4.4670     0.4200 N.2   1 <1>  -0.4100 
 22 C        6.1060     5.5260     0.3790 C.2   1 <1>   0.3350 
 23 C        6.5650     6.8980     0.8670 C.3   1 <1>   0.3010 
 24 O        6.9350     7.7210    -0.2080 O.3   1 <1>  -0.5600 
 25 C        7.3580     8.9920     0.1660 C.3   1 <1>   0.0400 
 26 H       -0.9350     1.8210     0.1010 H     1 <1>   0.0800 
 27 H       -0.7080     0.2140    -0.5330 H     1 <1>   0.0800 
 28 H        0.4920     1.4440    -0.8280 H     1 <1>   0.0800 
 29 H        3.3930     0.3290     1.7540 H     1 <1>   0.0800 
 30 H        0.4500    -2.5500     1.9390 H     1 <1>   0.1500 
 31 H        2.0860    -1.2210    -1.7600 H     1 <1>   0.1500 
 32 H        4.0790    -1.9590    -0.0720 H     1 <1>   0.0800 
 33 H        3.8430    -2.0670     1.6650 H     1 <1>   0.0800 
 34 H        5.1450    -1.1090     1.0050 H     1 <1>   0.0800 
 35 H       -0.3640    -4.5920     0.8450 H     1 <1>   0.1500 
 36 H        1.2790    -3.2590    -2.8540 H     1 <1>   0.1500 
 37 H        2.9560     2.4630     0.7870 H     1 <1>   0.3700 
 38 H        0.0500    -4.9520    -1.5560 H     1 <1>   0.1500 
 39 H        3.0310     3.8610    -1.2490 H     1 <1>   0.0800 
 40 H        4.2420     2.8040    -1.9200 H     1 <1>   0.0800 
 41 H        7.4160     6.7810     1.5130 H     1 <1>   0.0800 
 42 H        5.7640     7.3730     1.4030 H     1 <1>   0.0800 
 43 H        7.6160     9.5340    -0.7270 H     1 <1>   0.0800 
 44 H        8.2240     8.9080     0.8010 H     1 <1>   0.0800 
 45 H        6.5570     9.4990     0.6770 H     1 <1>   0.0800 
@<TRIPOS>BOND
  1   1   2  2   
  2   1   3  2   
  3   1   4  am  
  4   1   5  1   
  5   4   6  1   
  6   4   7  1   
  7   5  26  1   
  8   5  27  1   
  9   5  28  1   
 10   6   8  ar  
 11   6   9  ar  
 12   7  10  1   
 13   7  11  1   
 14   7  29  1   
 15   8  12  ar  
 16   8  30  1   
 17   9  13  ar  
 18   9  31  1   
 19  10  14  2   
 20  10  15  am  
 21  11  32  1   
 22  11  33  1   
 23  11  34  1   
 24  12  16  ar  
 25  12  35  1   
 26  13  16  ar  
 27  13  36  1   
 28  15  17  1   
 29  15  37  1   
 30  16  38  1   
 31  17  18  1   
 32  17  39  1   
 33  17  40  1   
 34  18  19  1   
 35  18  20  2   
 36  19  21  1   
 37  20  22  1   
 38  21  22  2   
 39  22  23  1   
 40  23  24  1   
 41  23  41  1   
 42  23  42  1   
 43  24  25  1   
 44  25  43  1   
 45  25  44  1   
 46  25  45  1   
@<TRIPOS>SUBSTRUCTURE
  1 ****  15 GROUP 4 **** **** 0

# MOE 2024.06 (io_trps.svl 2023.06)
