@<TRIPOS>MOLECULE
NONAME
47 49 1 0 0 
SMALL
USER_CHARGES


@<TRIPOS>ATOM
  1 S        0.1000    -0.6190     0.8540 S.3   1 <1>  -0.2860 
  2 C       -0.5290     0.5340    -0.3600 C.2   1 <1>   0.5340 
  3 C       -1.1500    -0.5760     2.2300 C.3   1 <1>   0.1310 
  4 O        0.1390     0.7140    -1.4480 O.3   1 <1>  -0.2800 
  5 N       -1.6030     1.2200    -0.2840 N.2   1 <1>  -0.3380 
  6 C       -1.6980    -1.9720     2.4960 C.2   1 <1>   0.5690 
  7 C       -0.5910     1.5780    -2.0790 C.2   1 <1>   0.2980 
  8 N       -1.6440     1.9100    -1.4270 N.2   1 <1>  -0.3380 
  9 O       -1.4630    -2.4240     3.5920 O.2   1 <1>  -0.5700 
 10 N       -2.4350    -2.6480     1.5470 N.am  1 <1>  -0.6600 
 11 C       -0.1560     2.0760    -3.4370 C.3   1 <1>  -0.0600 
 12 C       -2.8560    -4.0890     1.5990 C.3   1 <1>   0.2200 
 13 C       -3.1930    -1.9570     0.4550 C.3   1 <1>   0.1400 
 14 C       -4.3440    -4.1810     1.9890 C.3   1 <1>   0.2090 
 15 C       -1.9730    -4.9930     2.4660 C.3   1 <1>  -0.2400 
 16 C       -4.7170    -2.0160     0.6970 C.3   1 <1>   0.2090 
 17 N       -5.2250    -3.3720     1.0840 N.pl3 1 <1>  -0.8380 
 18 C       -6.0230    -4.0710     0.1660 C.ar  1 <1>   0.1000 
 19 C       -5.5760    -4.5350    -1.0840 C.ar  1 <1>   0.0820 
 20 C       -7.3370    -4.3180     0.5360 C.ar  1 <1>  -0.1500 
 21 O       -4.2760    -4.3000    -1.4410 O.3   1 <1>  -0.3630 
 22 C       -6.4560    -5.2190    -1.9190 C.ar  1 <1>  -0.1500 
 23 C       -8.2040    -5.0000    -0.2970 C.ar  1 <1>  -0.1500 
 24 C       -3.7210    -4.8510    -2.6140 C.3   1 <1>   0.0400 
 25 C       -7.7640    -5.4510    -1.5270 C.ar  1 <1>  -0.1500 
 26 H       -1.9360     0.1080     1.9780 H     1 <1>   0.0800 
 27 H       -0.6330    -0.2140     3.0990 H     1 <1>   0.0800 
 28 H       -0.0820     1.2500    -4.1200 H     1 <1>   0.0800 
 29 H        0.8020     2.5570    -3.3570 H     1 <1>   0.0800 
 30 H       -0.8720     2.7820    -3.8150 H     1 <1>   0.0800 
 31 H       -2.7740    -4.4790     0.5990 H     1 <1>   0.0800 
 32 H       -2.9650    -2.4270    -0.4840 H     1 <1>   0.0800 
 33 H       -2.9100    -0.9290     0.3670 H     1 <1>   0.0800 
 34 H       -4.4640    -3.8310     3.0000 H     1 <1>   0.0800 
 35 H       -4.6550    -5.2100     1.9560 H     1 <1>   0.0800 
 36 H       -2.1370    -4.8070     3.5110 H     1 <1>   0.0800 
 37 H       -0.9360    -4.8350     2.2290 H     1 <1>   0.0800 
 38 H       -2.2120    -6.0230     2.2730 H     1 <1>   0.0800 
 39 H       -5.2250    -1.6870    -0.1920 H     1 <1>   0.0800 
 40 H       -4.9670    -1.3280     1.4850 H     1 <1>   0.0800 
 41 H       -7.6740    -3.9630     1.4920 H     1 <1>   0.1500 
 42 H       -6.1490    -5.5820    -2.8800 H     1 <1>   0.1500 
 43 H       -9.2200    -5.1780     0.0130 H     1 <1>   0.1500 
 44 H       -2.6810    -4.5790    -2.6500 H     1 <1>   0.0800 
 45 H       -4.2340    -4.4450    -3.4670 H     1 <1>   0.0800 
 46 H       -3.8180    -5.9210    -2.5760 H     1 <1>   0.0800 
 47 H       -8.4370    -5.9810    -2.1780 H     1 <1>   0.1500 
@<TRIPOS>BOND
  1   1   2  1   
  2   1   3  1   
  3   2   4  1   
  4   2   5  2   
  5   3   6  1   
  6   3  26  1   
  7   3  27  1   
  8   4   7  1   
  9   5   8  1   
 10   6   9  2   
 11   6  10  am  
 12   7   8  2   
 13   7  11  1   
 14  10  12  1   
 15  10  13  1   
 16  11  28  1   
 17  11  29  1   
 18  11  30  1   
 19  12  14  1   
 20  12  15  1   
 21  12  31  1   
 22  13  16  1   
 23  13  32  1   
 24  13  33  1   
 25  14  17  1   
 26  14  34  1   
 27  14  35  1   
 28  15  36  1   
 29  15  37  1   
 30  15  38  1   
 31  16  17  1   
 32  16  39  1   
 33  16  40  1   
 34  17  18  1   
 35  18  19  ar  
 36  18  20  ar  
 37  19  21  1   
 38  19  22  ar  
 39  20  23  ar  
 40  20  41  1   
 41  21  24  1   
 42  22  25  ar  
 43  22  42  1   
 44  23  25  ar  
 45  23  43  1   
 46  24  44  1   
 47  24  45  1   
 48  24  46  1   
 49  25  47  1   
@<TRIPOS>SUBSTRUCTURE
  1 ****  13 GROUP 4 **** **** 0

# MOE 2024.06 (io_trps.svl 2023.06)
