@<TRIPOS>MOLECULE
NONAME
44 46 1 0 0 
SMALL
USER_CHARGES


@<TRIPOS>ATOM
  1 CL      -0.1980    -0.3240     1.4540 Cl    1 <1>  -0.1770 
  2 C       -1.7170    -0.9480     0.8720 C.ar  1 <1>   0.1770 
  3 C       -2.3230    -1.9950     1.5410 C.ar  1 <1>  -0.1500 
  4 C       -2.2960    -0.3900    -0.2510 C.ar  1 <1>  -0.1500 
  5 C       -3.5320    -2.4840     1.0760 C.ar  1 <1>  -0.1500 
  6 C       -3.5050    -0.8870    -0.7060 C.ar  1 <1>  -0.1500 
  7 C       -4.1530    -1.9370    -0.0490 C.ar  1 <1>   0.0860 
  8 C       -5.4250    -2.4530    -0.5180 C.2   1 <1>   0.5440 
  9 O       -5.5370    -3.6490    -0.7150 O.2   1 <1>  -0.5700 
 10 N       -6.5120    -1.6310    -0.7330 N.am  1 <1>  -0.6600 
 11 C       -7.7280    -2.1060    -1.4490 C.3   1 <1>   0.1400 
 12 C       -6.6640    -0.2760    -0.1390 C.3   1 <1>   0.1400 
 13 C       -8.9140    -2.1200    -0.4830 C.3   1 <1>  -0.1600 
 14 C       -7.8400    -0.2870     0.8400 C.3   1 <1>  -0.1600 
 15 C       -9.1500    -0.7450     0.1700 C.3   1 <1>   0.2800 
 16 O       -9.4620     0.1360    -0.8830 O.3   1 <1>  -0.5600 
 17 C      -10.3200    -0.8150     1.1840 C.3   1 <1>  -0.1600 
 18 C      -10.0470     1.3640    -0.5520 C.3   1 <1>   0.1200 
 19 C      -11.6340    -0.2670     0.6210 C.3   1 <1>   0.2800 
 20 C      -11.4180     1.1610     0.1140 C.3   1 <1>  -0.1600 
 21 O      -11.9790    -1.0290    -0.4630 O.3   1 <1>  -0.6800 
 22 C      -12.7880    -0.3650     1.6150 C.3   1 <1>  -0.2400 
 23 H       -1.8520    -2.4200     2.4090 H     1 <1>   0.1500 
 24 H       -1.8030     0.4190    -0.7590 H     1 <1>   0.1500 
 25 H       -4.0120    -3.3050     1.5820 H     1 <1>   0.1500 
 26 H       -3.9610    -0.4650    -1.5860 H     1 <1>   0.1500 
 27 H       -7.5740    -3.0940    -1.8500 H     1 <1>   0.0800 
 28 H       -7.9330    -1.4440    -2.2730 H     1 <1>   0.0800 
 29 H       -6.8460     0.4360    -0.9270 H     1 <1>   0.0800 
 30 H       -5.7720     0.0200     0.3840 H     1 <1>   0.0800 
 31 H       -8.7140    -2.8530     0.2770 H     1 <1>   0.0800 
 32 H       -9.7950    -2.4380    -1.0080 H     1 <1>   0.0800 
 33 H       -7.9570     0.6890     1.2720 H     1 <1>   0.0800 
 34 H       -7.6020    -0.9600     1.6440 H     1 <1>   0.0800 
 35 H      -10.0680    -0.2340     2.0520 H     1 <1>   0.0800 
 36 H      -10.4620    -1.8220     1.5320 H     1 <1>   0.0800 
 37 H      -10.1570     1.9280    -1.4620 H     1 <1>   0.0800 
 38 H       -9.3800     1.8990     0.0990 H     1 <1>   0.0800 
 39 H      -12.2050     1.4300    -0.5680 H     1 <1>   0.0800 
 40 H      -11.4800     1.8460     0.9400 H     1 <1>   0.0800 
 41 H      -11.2640    -0.9080    -1.1230 H     1 <1>   0.4000 
 42 H      -12.5720     0.2100     2.4960 H     1 <1>   0.0800 
 43 H      -12.9410    -1.3890     1.9050 H     1 <1>   0.0800 
 44 H      -13.6920     0.0130     1.1720 H     1 <1>   0.0800 
@<TRIPOS>BOND
  1   1   2  1   
  2   2   3  ar  
  3   2   4  ar  
  4   3   5  ar  
  5   3  23  1   
  6   4   6  ar  
  7   4  24  1   
  8   5   7  ar  
  9   5  25  1   
 10   6   7  ar  
 11   6  26  1   
 12   7   8  1   
 13   8   9  2   
 14   8  10  am  
 15  10  11  1   
 16  10  12  1   
 17  11  13  1   
 18  11  27  1   
 19  11  28  1   
 20  12  14  1   
 21  12  29  1   
 22  12  30  1   
 23  13  15  1   
 24  13  31  1   
 25  13  32  1   
 26  14  15  1   
 27  14  33  1   
 28  14  34  1   
 29  15  16  1   
 30  15  17  1   
 31  16  18  1   
 32  17  19  1   
 33  17  35  1   
 34  17  36  1   
 35  18  20  1   
 36  18  37  1   
 37  18  38  1   
 38  19  20  1   
 39  19  21  1   
 40  19  22  1   
 41  20  39  1   
 42  20  40  1   
 43  21  41  1   
 44  22  42  1   
 45  22  43  1   
 46  22  44  1   
@<TRIPOS>SUBSTRUCTURE
  1 ****  12 GROUP 4 **** **** 0

# MOE 2024.06 (io_trps.svl 2023.06)
