@<TRIPOS>MOLECULE
NONAME
37 38 1 0 0 
SMALL
USER_CHARGES


@<TRIPOS>ATOM
  1 O        1.1740     1.5930    -0.6400 O.3   1 <1>  -0.2800 
  2 C        0.3090     2.4080    -1.2190 C.2   1 <1>  -0.0400 
  3 C        0.5790     1.0490     0.4020 C.2   1 <1>  -0.0400 
  4 C       -0.8580     2.4110    -0.5410 C.2   1 <1>  -0.1500 
  5 C        0.7310     3.1760    -2.4630 C.3   1 <1>   0.3890 
  6 C       -0.6790     1.5200     0.5240 C.2   1 <1>  -0.1500 
  7 C        1.3350     0.0330     1.2330 C.3   1 <1>  -0.0600 
  8 N        1.6180     4.3350    -2.1520 N.pl3 1 <1>  -0.8690 
  9 C        2.2840     4.7460    -1.0660 C.ar  1 <1>   0.7710 
 10 N        2.9230     5.8870    -1.1960 N.ar  1 <1>  -0.6200 
 11 N        2.2950     4.0370     0.0730 N.ar  1 <1>  -0.1790 
 12 C        3.5770     6.3550    -0.1490 C.ar  1 <1>   0.4100 
 13 C        2.9810     4.4590     1.1580 C.ar  1 <1>   0.2110 
 14 N        4.1770     7.5630    -0.3090 N.pl3 1 <1>  -0.8380 
 15 C        3.6510     5.6350     1.0730 C.ar  1 <1>  -0.1430 
 16 C        4.8810     7.9160    -1.5750 C.3   1 <1>   0.1290 
 17 C        3.8690     8.7340     0.5560 C.3   1 <1>   0.1290 
 18 C        4.4850     6.1310     2.2540 C.3   1 <1>  -0.0970 
 19 H       -1.7640     2.9590    -0.7420 H     1 <1>   0.1500 
 20 H       -0.1540     3.5440    -2.9560 H     1 <1>   0.0800 
 21 H        1.2330     2.5070    -3.1430 H     1 <1>   0.0800 
 22 H       -1.4250     1.2740     1.2620 H     1 <1>   0.1500 
 23 H        2.2220     0.4720     1.6490 H     1 <1>   0.0800 
 24 H        1.6170    -0.8020     0.6150 H     1 <1>   0.0800 
 25 H        0.7150    -0.3280     2.0340 H     1 <1>   0.0800 
 26 H        1.7320     4.9750    -2.9440 H     1 <1>   0.4000 
 27 H        1.7740     3.1550     0.0450 H     1 <1>   0.4570 
 28 H        2.9790     3.8440     2.0430 H     1 <1>   0.1500 
 29 H        5.1470     7.0250    -2.1170 H     1 <1>   0.0800 
 30 H        5.7810     8.4640    -1.3550 H     1 <1>   0.0800 
 31 H        4.2400     8.5200    -2.1940 H     1 <1>   0.0800 
 32 H        3.0910     8.4900     1.2590 H     1 <1>   0.0800 
 33 H        3.5280     9.5580    -0.0480 H     1 <1>   0.0800 
 34 H        4.7520     9.0350     1.0930 H     1 <1>   0.0800 
 35 H        5.4410     6.4830     1.9070 H     1 <1>   0.0800 
 36 H        4.6590     5.3440     2.9670 H     1 <1>   0.0800 
 37 H        3.9830     6.9370     2.7580 H     1 <1>   0.0800 
@<TRIPOS>BOND
  1   1   2  1   
  2   1   3  1   
  3   2   4  2   
  4   2   5  1   
  5   3   6  2   
  6   3   7  1   
  7   4   6  1   
  8   4  19  1   
  9   5   8  1   
 10   5  20  1   
 11   5  21  1   
 12   6  22  1   
 13   7  23  1   
 14   7  24  1   
 15   7  25  1   
 16   8   9  1   
 17   8  26  1   
 18   9  10  ar  
 19   9  11  ar  
 20  10  12  ar  
 21  11  13  ar  
 22  11  27  1   
 23  12  14  1   
 24  12  15  ar  
 25  13  15  ar  
 26  13  28  1   
 27  14  16  1   
 28  14  17  1   
 29  15  18  1   
 30  16  29  1   
 31  16  30  1   
 32  16  31  1   
 33  17  32  1   
 34  17  33  1   
 35  17  34  1   
 36  18  35  1   
 37  18  36  1   
 38  18  37  1   
@<TRIPOS>SUBSTRUCTURE
  1 ****  11 GROUP 4 **** **** 0

# MOE 2024.06 (io_trps.svl 2023.06)
