@<TRIPOS>MOLECULE
NONAME
29 31 1 0 0 
SMALL
USER_CHARGES


@<TRIPOS>ATOM
  1 CL      -0.4410     0.1050    -1.3340 Cl    1 <1>  -0.1770 
  2 C       -1.8490     0.9320    -0.7380 C.ar  1 <1>   0.7970 
  3 N       -2.9680     0.2540    -0.7460 N.ar  1 <1>  -0.5670 
  4 N       -1.6300     2.1960    -0.3270 N.ar  1 <1>  -0.6200 
  5 C       -4.0280     0.9230    -0.2730 C.ar  1 <1>   0.1050 
  6 C       -2.6780     2.8300     0.1170 C.ar  1 <1>   0.1600 
  7 N       -5.3210     0.4800    -0.1430 N.pl3 1 <1>   0.0480 
  8 C       -3.9350     2.2290     0.1620 C.ar  1 <1>   0.0000 
  9 C       -6.0790     1.5560     0.3250 C.2   1 <1>  -0.2370 
 10 C       -5.6480    -0.9650    -0.4080 C.3   1 <1>   0.1760 
 11 C       -5.2290     2.6060     0.5400 C.2   1 <1>  -0.1500 
 12 C       -7.5000     1.6220     0.5260 C.2   1 <1>   0.5950 
 13 C       -7.1030    -1.4090    -0.2500 C.3   1 <1>  -0.1600 
 14 C       -4.8980    -1.9170     0.5350 C.3   1 <1>  -0.1600 
 15 O       -8.0450     2.4830     1.1660 O.2   1 <1>  -0.5700 
 16 C       -7.0160    -2.9290    -0.1730 C.3   1 <1>  -0.1600 
 17 C       -5.7250    -3.2080     0.5990 C.3   1 <1>  -0.1600 
 18 H       -2.5740     3.8460     0.4570 H     1 <1>   0.1500 
 19 H       -5.3410    -1.1870    -1.4160 H     1 <1>   0.0800 
 20 H       -5.4940     3.5800     0.9190 H     1 <1>   0.1500 
 21 H       -8.1280     0.8890     0.0640 H     1 <1>   0.0600 
 22 H       -7.7210    -1.0930    -1.0730 H     1 <1>   0.0800 
 23 H       -7.4990    -1.0670     0.6890 H     1 <1>   0.0800 
 24 H       -4.8350    -1.4870     1.5200 H     1 <1>   0.0800 
 25 H       -3.9050    -2.1200     0.1720 H     1 <1>   0.0800 
 26 H       -6.9340    -3.3370    -1.1680 H     1 <1>   0.0800 
 27 H       -7.8760    -3.3600     0.3110 H     1 <1>   0.0800 
 28 H       -5.9480    -3.4480     1.6260 H     1 <1>   0.0800 
 29 H       -5.1930    -4.0350     0.1590 H     1 <1>   0.0800 
@<TRIPOS>BOND
  1   1   2  1   
  2   2   3  ar  
  3   2   4  ar  
  4   3   5  ar  
  5   4   6  ar  
  6   5   7  1   
  7   5   8  ar  
  8   6   8  ar  
  9   6  18  1   
 10   7   9  1   
 11   7  10  1   
 12   8  11  1   
 13   9  11  2   
 14   9  12  1   
 15  10  13  1   
 16  10  14  1   
 17  10  19  1   
 18  11  20  1   
 19  12  15  2   
 20  12  21  1   
 21  13  16  1   
 22  13  22  1   
 23  13  23  1   
 24  14  17  1   
 25  14  24  1   
 26  14  25  1   
 27  16  17  1   
 28  16  26  1   
 29  16  27  1   
 30  17  28  1   
 31  17  29  1   
@<TRIPOS>SUBSTRUCTURE
  1 ****   7 GROUP 4 **** **** 0

# MOE 2024.06 (io_trps.svl 2023.06)
