@<TRIPOS>MOLECULE
NONAME
43 44 1 0 0 
SMALL
USER_CHARGES


@<TRIPOS>ATOM
  1 S       -0.1970    -0.0680     0.2530 S.o2  1 <1>   1.3330 
  2 O       -0.1290    -0.8830     1.4450 O.2   1 <1>  -0.6500 
  3 O       -0.8140     1.2380     0.3150 O.2   1 <1>  -0.6500 
  4 N       -0.9810    -0.9720    -0.9510 N.am  1 <1>  -0.8490 
  5 C        1.4490     0.1370    -0.4290 C.3   1 <1>  -0.0550 
  6 C       -0.7750    -2.4190    -0.8210 C.3   1 <1>   0.1160 
  7 C       -2.4150    -0.6770    -1.0260 C.3   1 <1>   0.1160 
  8 C        2.3720     1.0170     0.4370 C.3   1 <1>  -0.0800 
  9 C        3.6760     1.3160    -0.2860 C.3   1 <1>   0.2200 
 10 C        2.8460     0.2910     1.7070 C.3   1 <1>   0.1200 
 11 N        4.2270     2.5900     0.2230 N.am  1 <1>  -0.7300 
 12 C        4.5580     0.1670     0.1810 C.3   1 <1>   0.1200 
 13 O        4.1830    -0.0660     1.5010 O.3   1 <1>  -0.5600 
 14 C        4.3710     3.7390    -0.4950 C.2   1 <1>   0.7150 
 15 O        4.0100     3.7400    -1.6560 O.2   1 <1>  -0.5700 
 16 C        4.9390     4.9040     0.1320 C.2   1 <1>  -0.0450 
 17 S        5.1190     6.3830    -0.8090 S.3   1 <1>  -0.0800 
 18 C        5.4060     5.1410     1.3870 C.2   1 <1>  -0.1500 
 19 C        5.8260     7.2830     0.5320 C.2   1 <1>  -0.0450 
 20 C        5.8940     6.4540     1.6060 C.2   1 <1>  -0.1500 
 21 C        6.2130     8.6540     0.3670 C.2   1 <1>   0.5940 
 22 O        6.6990     9.3010     1.2600 O.2   1 <1>  -0.5700 
 23 C        6.0200     9.3500    -0.9650 C.3   1 <1>  -0.1790 
 24 H        1.8990    -0.8250    -0.5740 H     1 <1>   0.0800 
 25 H        1.3480     0.5990    -1.3930 H     1 <1>   0.0800 
 26 H       -1.2130    -2.9320    -1.6610 H     1 <1>   0.0800 
 27 H       -1.2280    -2.7840     0.0870 H     1 <1>   0.0800 
 28 H        0.2770    -2.6450    -0.7960 H     1 <1>   0.0800 
 29 H       -2.8760    -1.2560    -1.8080 H     1 <1>   0.0800 
 30 H       -2.5660     0.3660    -1.2480 H     1 <1>   0.0800 
 31 H       -2.8940    -0.9040    -0.0870 H     1 <1>   0.0800 
 32 H        1.8490     1.9260     0.6820 H     1 <1>   0.0800 
 33 H        3.5770     1.3440    -1.3590 H     1 <1>   0.0800 
 34 H        2.2880    -0.6040     1.9190 H     1 <1>   0.0800 
 35 H        2.8090     0.9420     2.5630 H     1 <1>   0.0800 
 36 H        4.5520     2.5510     1.1900 H     1 <1>   0.3700 
 37 H        5.6070     0.4010     0.1350 H     1 <1>   0.0800 
 38 H        4.3570    -0.7270    -0.3830 H     1 <1>   0.0800 
 39 H        5.4210     4.4170     2.1820 H     1 <1>   0.1500 
 40 H        6.2890     6.7530     2.5630 H     1 <1>   0.1500 
 41 H        6.5830     8.8430    -1.7260 H     1 <1>   0.0800 
 42 H        6.3640    10.3660    -0.9000 H     1 <1>   0.0800 
 43 H        4.9790     9.3530    -1.2280 H     1 <1>   0.0800 
@<TRIPOS>BOND
  1   1   2  2   
  2   1   3  2   
  3   1   4  am  
  4   1   5  1   
  5   4   6  1   
  6   4   7  1   
  7   5   8  1   
  8   5  24  1   
  9   5  25  1   
 10   6  26  1   
 11   6  27  1   
 12   6  28  1   
 13   7  29  1   
 14   7  30  1   
 15   7  31  1   
 16   8   9  1   
 17   8  10  1   
 18   8  32  1   
 19   9  11  1   
 20   9  12  1   
 21   9  33  1   
 22  10  13  1   
 23  10  34  1   
 24  10  35  1   
 25  11  14  am  
 26  11  36  1   
 27  12  13  1   
 28  12  37  1   
 29  12  38  1   
 30  14  15  2   
 31  14  16  1   
 32  16  17  1   
 33  16  18  2   
 34  17  19  1   
 35  18  20  1   
 36  18  39  1   
 37  19  20  2   
 38  19  21  1   
 39  20  40  1   
 40  21  22  2   
 41  21  23  1   
 42  23  41  1   
 43  23  42  1   
 44  23  43  1   
@<TRIPOS>SUBSTRUCTURE
  1 ****  11 GROUP 4 **** **** 0

# MOE 2024.06 (io_trps.svl 2023.06)
