@<TRIPOS>MOLECULE
NONAME
50 53 1 0 0 
SMALL
USER_CHARGES


@<TRIPOS>ATOM
  1 S        0.0560    -0.1750     1.2760 S.3   1 <1>  -0.0800 
  2 C        1.0950    -0.9590     0.1040 C.2   1 <1>  -0.0450 
  3 C        0.6680     1.3820     0.7830 C.2   1 <1>   0.1980 
  4 C        1.7930     0.0210    -0.5170 C.2   1 <1>   0.0460 
  5 C        1.0980    -2.3960    -0.0140 C.2   1 <1>   0.7150 
  6 N        1.5420     1.3230    -0.1400 N.2   1 <1>  -0.5650 
  7 C        0.0980     2.5970     1.4970 C.3   1 <1>   0.0200 
  8 C        2.8360    -0.1630    -1.6010 C.3   1 <1>  -0.0590 
  9 O        2.1560    -2.9840    -0.1450 O.2   1 <1>  -0.5700 
 10 N       -0.0630    -3.1390    -0.0090 N.am  1 <1>  -0.6600 
 11 C        0.6800     3.9220     0.9870 C.3   1 <1>  -0.2400 
 12 C       -1.4150    -2.6050    -0.3090 C.3   1 <1>   0.1400 
 13 C       -0.0500    -4.6190    -0.1410 C.3   1 <1>   0.1400 
 14 C       -2.2130    -3.8060    -0.8130 C.3   1 <1>   0.2000 
 15 C       -1.5220    -5.0300    -0.2190 C.3   1 <1>  -0.0800 
 16 O       -3.5340    -3.7540    -0.3950 O.3   1 <1>  -0.6800 
 17 C       -1.7690    -6.3090    -1.0360 C.3   1 <1>  -0.0170 
 18 C       -1.0690    -7.5050    -0.4130 C.ar  1 <1>   0.1670 
 19 N        0.1660    -7.7150    -0.7490 N.ar  1 <1>  -0.6200 
 20 C       -1.7770    -8.3120     0.4920 C.ar  1 <1>  -0.1500 
 21 C        0.8050    -8.7720    -0.1850 C.ar  1 <1>   0.3100 
 22 C       -1.1630    -9.3800     1.0710 C.ar  1 <1>  -0.1500 
 23 C        0.1770    -9.6380     0.7370 C.ar  1 <1>   0.0000 
 24 C        2.1450    -9.0170    -0.5260 C.ar  1 <1>  -0.1500 
 25 C        0.9120   -10.7120     1.2780 C.ar  1 <1>  -0.1500 
 26 C        2.8420   -10.0660     0.0120 C.ar  1 <1>  -0.1500 
 27 C        2.2180   -10.9220     0.9240 C.ar  1 <1>  -0.1500 
 28 H       -0.9680     2.6040     1.3640 H     1 <1>   0.0800 
 29 H        0.3030     2.5030     2.5480 H     1 <1>   0.0800 
 30 H        2.9480    -1.1980    -1.8640 H     1 <1>   0.0800 
 31 H        3.7820     0.2100    -1.2540 H     1 <1>   0.0800 
 32 H        2.5470     0.3880    -2.4770 H     1 <1>   0.0800 
 33 H        0.4720     4.0370    -0.0630 H     1 <1>   0.0800 
 34 H        1.7460     3.9350     1.1270 H     1 <1>   0.0800 
 35 H        0.2480     4.7500     1.5200 H     1 <1>   0.0800 
 36 H       -1.8490    -2.2170     0.5960 H     1 <1>   0.0800 
 37 H       -1.3640    -1.8350    -1.0600 H     1 <1>   0.0800 
 38 H        0.4730    -4.8890    -1.0430 H     1 <1>   0.0800 
 39 H        0.4450    -5.0750     0.7000 H     1 <1>   0.0800 
 40 H       -2.1960    -3.8300    -1.8900 H     1 <1>   0.0800 
 41 H       -1.8630    -5.1800     0.7910 H     1 <1>   0.0800 
 42 H       -3.5830    -3.7470     0.5800 H     1 <1>   0.4000 
 43 H       -1.4080    -6.1770    -2.0410 H     1 <1>   0.0800 
 44 H       -2.8260    -6.5000    -1.0950 H     1 <1>   0.0800 
 45 H       -2.8010    -8.0750     0.7190 H     1 <1>   0.1500 
 46 H       -1.6720   -10.0220     1.7680 H     1 <1>   0.1500 
 47 H        2.6060    -8.3460    -1.2270 H     1 <1>   0.1500 
 48 H        0.4260   -11.3660     1.9790 H     1 <1>   0.1500 
 49 H        3.8700   -10.2410    -0.2580 H     1 <1>   0.1500 
 50 H        2.7780   -11.7430     1.3390 H     1 <1>   0.1500 
@<TRIPOS>BOND
  1   1   2  1   
  2   1   3  1   
  3   2   4  2   
  4   2   5  1   
  5   3   6  2   
  6   3   7  1   
  7   4   6  1   
  8   4   8  1   
  9   5   9  2   
 10   5  10  am  
 11   7  11  1   
 12   7  28  1   
 13   7  29  1   
 14   8  30  1   
 15   8  31  1   
 16   8  32  1   
 17  10  12  1   
 18  10  13  1   
 19  11  33  1   
 20  11  34  1   
 21  11  35  1   
 22  12  14  1   
 23  12  36  1   
 24  12  37  1   
 25  13  15  1   
 26  13  38  1   
 27  13  39  1   
 28  14  15  1   
 29  14  16  1   
 30  14  40  1   
 31  15  17  1   
 32  15  41  1   
 33  16  42  1   
 34  17  18  1   
 35  17  43  1   
 36  17  44  1   
 37  18  19  ar  
 38  18  20  ar  
 39  19  21  ar  
 40  20  22  ar  
 41  20  45  1   
 42  21  23  ar  
 43  21  24  ar  
 44  22  23  ar  
 45  22  46  1   
 46  23  25  ar  
 47  24  26  ar  
 48  24  47  1   
 49  25  27  ar  
 50  25  48  1   
 51  26  27  ar  
 52  26  49  1   
 53  27  50  1   
@<TRIPOS>SUBSTRUCTURE
  1 ****  13 GROUP 4 **** **** 0

# MOE 2024.06 (io_trps.svl 2023.06)
