@<TRIPOS>MOLECULE
NONAME
47 50 1 0 0 
SMALL
USER_CHARGES


@<TRIPOS>ATOM
  1 O       -1.0640    -1.4590     0.6430 O.2   1 <1>  -0.5700 
  2 C        0.0610    -1.8630     0.8380 C.2   1 <1>   0.6900 
  3 N        0.8220    -2.5340    -0.0630 N.am  1 <1>  -0.6600 
  4 N        0.7060    -1.7430     2.0170 N.am  1 <1>  -0.4900 
  5 C        2.0830    -2.9800     0.6010 C.3   1 <1>   0.2010 
  6 C        0.3520    -3.1170    -1.3550 C.3   1 <1>   0.2010 
  7 C        1.9000    -2.3730     1.9840 C.2   1 <1>   0.5690 
  8 C        0.1270    -4.6280    -1.2750 C.2   1 <1>   0.5690 
  9 O        2.6790    -2.4410     2.8980 O.2   1 <1>  -0.5700 
 10 O        1.0610    -5.3470    -1.5470 O.2   1 <1>  -0.5700 
 11 N       -1.0830    -5.1420    -0.8890 N.am  1 <1>  -0.6600 
 12 C       -2.2760    -4.3700    -0.4560 C.3   1 <1>   0.1400 
 13 C       -1.3280    -6.5990    -0.7610 C.3   1 <1>   0.1400 
 14 C       -3.3400    -5.4270    -0.1550 C.3   1 <1>   0.2000 
 15 C       -2.5680    -6.7140     0.1270 C.3   1 <1>  -0.0800 
 16 O       -4.1100    -5.0830     0.9450 O.3   1 <1>  -0.6800 
 17 C       -3.4020    -7.9800    -0.1300 C.3   1 <1>  -0.0170 
 18 C       -2.6000    -9.2360     0.1650 C.ar  1 <1>   0.1670 
 19 N       -1.8550    -9.7070    -0.7880 N.ar  1 <1>  -0.6200 
 20 C       -2.6900    -9.8160     1.4410 C.ar  1 <1>  -0.1500 
 21 C       -1.1210   -10.8190    -0.5260 C.ar  1 <1>   0.3100 
 22 C       -1.9670   -10.9330     1.7290 C.ar  1 <1>  -0.1500 
 23 C       -1.1450   -11.4710     0.7260 C.ar  1 <1>   0.0000 
 24 C       -0.2990   -11.3430    -1.5370 C.ar  1 <1>  -0.1500 
 25 C       -0.3500   -12.6200     0.9150 C.ar  1 <1>  -0.1500 
 26 C        0.4670   -12.4600    -1.3330 C.ar  1 <1>  -0.1500 
 27 C        0.4400   -13.1050    -0.0920 C.ar  1 <1>  -0.1500 
 28 H        0.3220    -1.2570     2.8190 H     1 <1>   0.3700 
 29 H        2.1390    -4.0530     0.6580 H     1 <1>   0.0800 
 30 H        2.9460    -2.5700     0.1090 H     1 <1>   0.0800 
 31 H       -0.5580    -2.6330    -1.6580 H     1 <1>   0.0800 
 32 H        1.0910    -2.9230    -2.1110 H     1 <1>   0.0800 
 33 H       -2.0370    -3.8120     0.4310 H     1 <1>   0.0800 
 34 H       -2.6070    -3.7070    -1.2360 H     1 <1>   0.0800 
 35 H       -1.5150    -7.0110    -1.7390 H     1 <1>   0.0800 
 36 H       -0.4810    -7.1020    -0.3250 H     1 <1>   0.0800 
 37 H       -3.9920    -5.5410    -1.0050 H     1 <1>   0.0800 
 38 H       -2.2280    -6.7120     1.1480 H     1 <1>   0.0800 
 39 H       -3.5410    -4.9090     1.7190 H     1 <1>   0.4000 
 40 H       -3.7250    -8.0050    -1.1560 H     1 <1>   0.0800 
 41 H       -4.2830    -7.9620     0.4850 H     1 <1>   0.0800 
 42 H       -3.3310    -9.3680     2.1780 H     1 <1>   0.1500 
 43 H       -2.0110   -11.4060     2.6940 H     1 <1>   0.1500 
 44 H       -0.2910   -10.8320    -2.4820 H     1 <1>   0.1500 
 45 H       -0.3750   -13.1100     1.8720 H     1 <1>   0.1500 
 46 H        1.0930   -12.8510    -2.1160 H     1 <1>   0.1500 
 47 H        1.0460   -13.9820     0.0560 H     1 <1>   0.1500 
@<TRIPOS>BOND
  1   1   2  2   
  2   2   3  am  
  3   2   4  am  
  4   3   5  1   
  5   3   6  1   
  6   4   7  am  
  7   4  28  1   
  8   5   7  1   
  9   5  29  1   
 10   5  30  1   
 11   6   8  1   
 12   6  31  1   
 13   6  32  1   
 14   7   9  2   
 15   8  10  2   
 16   8  11  am  
 17  11  12  1   
 18  11  13  1   
 19  12  14  1   
 20  12  33  1   
 21  12  34  1   
 22  13  15  1   
 23  13  35  1   
 24  13  36  1   
 25  14  15  1   
 26  14  16  1   
 27  14  37  1   
 28  15  17  1   
 29  15  38  1   
 30  16  39  1   
 31  17  18  1   
 32  17  40  1   
 33  17  41  1   
 34  18  19  ar  
 35  18  20  ar  
 36  19  21  ar  
 37  20  22  ar  
 38  20  42  1   
 39  21  23  ar  
 40  21  24  ar  
 41  22  23  ar  
 42  22  43  1   
 43  23  25  ar  
 44  24  26  ar  
 45  24  44  1   
 46  25  27  ar  
 47  25  45  1   
 48  26  27  ar  
 49  26  46  1   
 50  27  47  1   
@<TRIPOS>SUBSTRUCTURE
  1 ****  13 GROUP 4 **** **** 0

# MOE 2024.06 (io_trps.svl 2023.06)
