@<TRIPOS>MOLECULE
NONAME
40 41 1 0 0 
SMALL
USER_CHARGES


@<TRIPOS>ATOM
  1 CL      -0.3680     1.4380    -0.8310 Cl    1 <1>  -0.1770 
  2 C        1.2370     2.0280    -0.4460 C.ar  1 <1>   0.1770 
  3 C        2.1630     1.3270     0.3400 C.ar  1 <1>   0.0820 
  4 C        1.5500     3.2670    -0.9710 C.ar  1 <1>  -0.1500 
  5 O        2.0180     0.1060     0.9130 O.3   1 <1>  -0.3630 
  6 C        3.3890     1.9300     0.5800 C.ar  1 <1>  -0.1500 
  7 C        2.7870     3.8680    -0.7440 C.ar  1 <1>   0.0860 
  8 C        0.9310    -0.7620     0.6970 C.3   1 <1>   0.1200 
  9 C        3.6960     3.1710     0.0540 C.ar  1 <1>  -0.1500 
 10 C        3.1000     5.1630    -1.3150 C.2   1 <1>   0.5440 
 11 C        1.2280    -2.0830     1.4070 C.3   1 <1>  -0.1600 
 12 O        2.2330     6.0020    -1.4730 O.2   1 <1>  -0.5700 
 13 N        4.3800     5.4820    -1.6760 N.am  1 <1>  -0.7300 
 14 C        0.0850    -3.0870     1.2160 C.3   1 <1>  -0.2400 
 15 C        4.8110     6.7450    -2.3310 C.3   1 <1>   0.1400 
 16 C        5.6160     7.6310    -1.3700 C.3   1 <1>   0.0200 
 17 C        4.8590     8.0810    -0.1290 C.2   1 <1>   0.0070 
 18 N        5.4200     8.5810     0.9140 N.2   1 <1>  -0.3380 
 19 N        3.5300     8.0210     0.0250 N.pl3 1 <1>   0.0330 
 20 N        4.4470     8.8670     1.7930 N.2   1 <1>  -0.3380 
 21 C        3.3310     8.5220     1.2430 C.2   1 <1>   0.2700 
 22 N        2.1000     8.6460     1.8520 N.pl3 1 <1>  -0.8840 
 23 H        0.8190     3.7810    -1.5700 H     1 <1>   0.1500 
 24 H        4.1070     1.4110     1.1920 H     1 <1>   0.1500 
 25 H        0.8240    -0.9200    -0.3620 H     1 <1>   0.0800 
 26 H        0.0450    -0.3080     1.1060 H     1 <1>   0.0800 
 27 H        4.6530     3.6080     0.2780 H     1 <1>   0.1500 
 28 H        1.3640    -1.8970     2.4580 H     1 <1>   0.0800 
 29 H        2.1370    -2.5010     1.0100 H     1 <1>   0.0800 
 30 H        5.1140     4.7810    -1.5510 H     1 <1>   0.3700 
 31 H       -0.8320    -2.6950     1.6200 H     1 <1>   0.0800 
 32 H        0.3160    -4.0070     1.7240 H     1 <1>   0.0800 
 33 H       -0.0590    -3.3010     0.1720 H     1 <1>   0.0800 
 34 H        3.9520     7.2880    -2.6880 H     1 <1>   0.0800 
 35 H        5.4180     6.5030    -3.1870 H     1 <1>   0.0800 
 36 H        5.9290     8.5120    -1.8990 H     1 <1>   0.0800 
 37 H        6.5060     7.1100    -1.0650 H     1 <1>   0.0800 
 38 H        2.8330     7.6060    -0.6040 H     1 <1>   0.2700 
 39 H        2.1970     8.9400     2.8280 H     1 <1>   0.4000 
 40 H        1.4870     7.8330     1.7700 H     1 <1>   0.4000 
@<TRIPOS>BOND
  1   1   2  1   
  2   2   3  ar  
  3   2   4  ar  
  4   3   5  1   
  5   3   6  ar  
  6   4   7  ar  
  7   4  23  1   
  8   5   8  1   
  9   6   9  ar  
 10   6  24  1   
 11   7   9  ar  
 12   7  10  1   
 13   8  11  1   
 14   8  25  1   
 15   8  26  1   
 16   9  27  1   
 17  10  12  2   
 18  10  13  am  
 19  11  14  1   
 20  11  28  1   
 21  11  29  1   
 22  13  15  1   
 23  13  30  1   
 24  14  31  1   
 25  14  32  1   
 26  14  33  1   
 27  15  16  1   
 28  15  34  1   
 29  15  35  1   
 30  16  17  1   
 31  16  36  1   
 32  16  37  1   
 33  17  18  2   
 34  17  19  1   
 35  18  20  1   
 36  19  21  1   
 37  19  38  1   
 38  20  21  2   
 39  21  22  1   
 40  22  39  1   
 41  22  40  1   
@<TRIPOS>SUBSTRUCTURE
  1 ****   7 GROUP 4 **** **** 0

# MOE 2024.06 (io_trps.svl 2023.06)
