@<TRIPOS>MOLECULE
NONAME
66 68 1 0 0 
SMALL
USER_CHARGES


@<TRIPOS>ATOM
  1 O        0.8410    -1.2800    -0.4710 O.3   1 <1>  -0.5600 
  2 C        0.3850    -2.1740     0.5310 C.3   1 <1>   0.2800 
  3 C        0.1510    -0.0780    -0.6780 C.3   1 <1>   0.1200 
  4 C       -0.8780    -1.6410     1.2760 C.3   1 <1>   0.2000 
  5 C        1.5550    -2.3350     1.5270 C.3   1 <1>  -0.1600 
  6 C        0.1560    -3.5250    -0.1820 C.3   1 <1>  -0.1600 
  7 C       -1.3270    -0.3940    -0.9100 C.3   1 <1>  -0.1600 
  8 O       -1.4170    -2.6200     2.1160 O.3   1 <1>  -0.6800 
  9 C       -1.9610    -1.0140     0.3450 C.3   1 <1>   0.2800 
 10 C        2.7060    -3.2130     1.0250 C.3   1 <1>   0.3430 
 11 C        1.4050    -4.0770    -0.8830 C.3   1 <1>   0.3430 
 12 O       -2.5360     0.0150     1.0630 O.3   1 <1>  -0.6800 
 13 C       -3.1300    -1.9340    -0.0390 C.3   1 <1>  -0.2400 
 14 N        2.6170    -3.3380    -0.4500 N.4   1 <1>  -0.9590 
 15 C        3.8790    -3.7710    -1.1000 C.3   1 <1>   0.4860 
 16 C        4.9450    -2.7390    -0.7780 C.ar  1 <1>  -0.1440 
 17 C        6.0770    -3.0550    -0.0360 C.ar  1 <1>  -0.1440 
 18 C        4.7590    -1.4380    -1.2210 C.ar  1 <1>  -0.1500 
 19 C        6.9910    -2.0560     0.2590 C.ar  1 <1>  -0.1500 
 20 C        6.3470    -4.4690     0.4640 C.3   1 <1>  -0.0970 
 21 C        5.6620    -0.4300    -0.9220 C.ar  1 <1>  -0.1440 
 22 C        6.7930    -0.7470    -0.1720 C.ar  1 <1>   0.0820 
 23 C        5.3900     0.9960    -1.4200 C.3   1 <1>   0.0630 
 24 O        7.6720     0.2490     0.1150 O.3   1 <1>  -0.3630 
 25 C        4.0770     1.5370    -0.8400 C.3   1 <1>  -0.2400 
 26 C        5.3680     1.0480    -2.9510 C.3   1 <1>  -0.2400 
 27 C        8.8970     0.0150     0.7700 C.3   1 <1>   0.1200 
 28 C        9.6440     1.3430     0.8580 C.3   1 <1>  -0.2400 
 29 H        0.2910     0.5630     0.1770 H     1 <1>   0.0800 
 30 H        0.5750     0.4010    -1.5440 H     1 <1>   0.0800 
 31 H       -0.5310    -0.8580     1.9290 H     1 <1>   0.0800 
 32 H        1.9340    -1.3630     1.7890 H     1 <1>   0.0800 
 33 H        1.1950    -2.7780     2.4390 H     1 <1>   0.0800 
 34 H       -0.1690    -4.2530     0.5390 H     1 <1>   0.0800 
 35 H       -0.6320    -3.4350    -0.9040 H     1 <1>   0.0800 
 36 H       -1.3850    -1.0810    -1.7350 H     1 <1>   0.0800 
 37 H       -1.8520     0.4990    -1.2020 H     1 <1>   0.0800 
 38 H       -2.1800    -2.2320     2.5940 H     1 <1>   0.4000 
 39 H        2.6440    -4.1900     1.4750 H     1 <1>   0.0800 
 40 H        3.6440    -2.7640     1.3130 H     1 <1>   0.0800 
 41 H        1.2850    -3.9630    -1.9480 H     1 <1>   0.0800 
 42 H        1.5080    -5.1270    -0.6640 H     1 <1>   0.0800 
 43 H       -3.3050     0.3710     0.5770 H     1 <1>   0.4000 
 44 H       -2.7710    -2.8130    -0.5390 H     1 <1>   0.0800 
 45 H       -3.8080    -1.4300    -0.7040 H     1 <1>   0.0800 
 46 H       -3.6730    -2.2510     0.8340 H     1 <1>   0.0800 
 47 H        2.4430    -2.3610    -0.7540 H     1 <1>   0.4500 
 48 H        4.1680    -4.7440    -0.7410 H     1 <1>   0.0800 
 49 H        3.7480    -3.8210    -2.1680 H     1 <1>   0.0800 
 50 H        3.8930    -1.1930    -1.8100 H     1 <1>   0.1500 
 51 H        7.8620    -2.3090     0.8320 H     1 <1>   0.1500 
 52 H        7.2800    -4.5160     0.9980 H     1 <1>   0.0800 
 53 H        6.4100    -5.1510    -0.3650 H     1 <1>   0.0800 
 54 H        5.5680    -4.7890     1.1310 H     1 <1>   0.0800 
 55 H        6.1740     1.6560    -1.0930 H     1 <1>   0.0800 
 56 H        3.2330     0.9690    -1.1870 H     1 <1>   0.0800 
 57 H        3.9420     2.5640    -1.1300 H     1 <1>   0.0800 
 58 H        4.1100     1.4890     0.2340 H     1 <1>   0.0800 
 59 H        4.5560     0.4700    -3.3510 H     1 <1>   0.0800 
 60 H        6.2930     0.6580    -3.3390 H     1 <1>   0.0800 
 61 H        5.2630     2.0650    -3.2850 H     1 <1>   0.0800 
 62 H        8.6900    -0.3700     1.7540 H     1 <1>   0.0800 
 63 H        9.4600    -0.7000     0.1960 H     1 <1>   0.0800 
 64 H        9.0640     2.0550     1.4170 H     1 <1>   0.0800 
 65 H        9.8310     1.7260    -0.1290 H     1 <1>   0.0800 
 66 H       10.5860     1.1990     1.3550 H     1 <1>   0.0800 
@<TRIPOS>BOND
  1   1   2  1   
  2   1   3  1   
  3   2   4  1   
  4   2   5  1   
  5   2   6  1   
  6   3   7  1   
  7   3  29  1   
  8   3  30  1   
  9   4   8  1   
 10   4   9  1   
 11   4  31  1   
 12   5  10  1   
 13   5  32  1   
 14   5  33  1   
 15   6  11  1   
 16   6  34  1   
 17   6  35  1   
 18   7   9  1   
 19   7  36  1   
 20   7  37  1   
 21   8  38  1   
 22   9  12  1   
 23   9  13  1   
 24  10  14  1   
 25  10  39  1   
 26  10  40  1   
 27  11  14  1   
 28  11  41  1   
 29  11  42  1   
 30  12  43  1   
 31  13  44  1   
 32  13  45  1   
 33  13  46  1   
 34  14  15  1   
 35  14  47  1   
 36  15  16  1   
 37  15  48  1   
 38  15  49  1   
 39  16  17  ar  
 40  16  18  ar  
 41  17  19  ar  
 42  17  20  1   
 43  18  21  ar  
 44  18  50  1   
 45  19  22  ar  
 46  19  51  1   
 47  20  52  1   
 48  20  53  1   
 49  20  54  1   
 50  21  22  ar  
 51  21  23  1   
 52  22  24  1   
 53  23  25  1   
 54  23  26  1   
 55  23  55  1   
 56  24  27  1   
 57  25  56  1   
 58  25  57  1   
 59  25  58  1   
 60  26  59  1   
 61  26  60  1   
 62  26  61  1   
 63  27  28  1   
 64  27  62  1   
 65  27  63  1   
 66  28  64  1   
 67  28  65  1   
 68  28  66  1   
@<TRIPOS>SUBSTRUCTURE
  1 ****  14 GROUP 4 **** **** 0

# MOE 2024.06 (io_trps.svl 2023.06)
