@<TRIPOS>MOLECULE
NONAME
48 49 1 0 0 
SMALL
USER_CHARGES


@<TRIPOS>ATOM
  1 S        1.3280     1.9050    -1.3410 S.o2  1 <1>   1.3330 
  2 O        1.9240     0.6820    -1.8300 O.2   1 <1>  -0.6500 
  3 O        1.2070     3.0310    -2.2400 O.2   1 <1>  -0.6500 
  4 N        2.2250     2.3870     0.0140 N.am  1 <1>  -0.8490 
  5 C       -0.3120     1.5060    -0.7090 C.3   1 <1>  -0.0550 
  6 C        2.7110     1.2790     0.8400 C.3   1 <1>   0.1160 
  7 C        3.3410     3.2720    -0.3300 C.3   1 <1>   0.1160 
  8 C       -1.1450     2.5840     0.0320 C.3   1 <1>  -0.0800 
  9 C       -1.2950     3.9150    -0.7160 C.3   1 <1>   0.2000 
 10 C       -0.5910     2.9680     1.4110 C.3   1 <1>   0.1400 
 11 O       -2.5530     4.4160    -0.4190 O.3   1 <1>  -0.6800 
 12 C       -0.2560     4.8540    -0.0990 C.3   1 <1>   0.1400 
 13 N       -0.0210     4.3270     1.2690 N.am  1 <1>  -0.6600 
 14 C        0.8960     4.8180     2.1630 C.2   1 <1>   0.5690 
 15 O        1.1410     4.2300     3.1920 O.2   1 <1>  -0.5700 
 16 C        1.6050     6.1500     1.9220 C.3   1 <1>   0.1810 
 17 O        2.3440     6.1410     0.7090 O.3   1 <1>  -0.3630 
 18 C        2.8760     7.2820     0.2120 C.ar  1 <1>   0.0820 
 19 C        3.0990     8.4230     0.9770 C.ar  1 <1>  -0.1500 
 20 C        3.2050     7.2880    -1.1330 C.ar  1 <1>  -0.1500 
 21 C        3.6410     9.5530     0.3900 C.ar  1 <1>  -0.1500 
 22 C        3.7480     8.4200    -1.7160 C.ar  1 <1>  -0.1500 
 23 C        3.9690     9.5580    -0.9570 C.ar  1 <1>  -0.1440 
 24 C        4.5620    10.8000    -1.5980 C.3   1 <1>  -0.0970 
 25 H       -0.8980     1.1790    -1.5460 H     1 <1>   0.0800 
 26 H       -0.2210     0.6580    -0.0590 H     1 <1>   0.0800 
 27 H        3.1700     1.6640     1.7360 H     1 <1>   0.0800 
 28 H        3.4340     0.6920     0.2970 H     1 <1>   0.0800 
 29 H        1.8930     0.6420     1.1270 H     1 <1>   0.0800 
 30 H        3.8310     3.6170     0.5650 H     1 <1>   0.0800 
 31 H        2.9800     4.1340    -0.8630 H     1 <1>   0.0800 
 32 H        4.0530     2.7560    -0.9510 H     1 <1>   0.0800 
 33 H       -2.1180     2.1460     0.1750 H     1 <1>   0.0800 
 34 H       -1.2110     3.8340    -1.7870 H     1 <1>   0.0800 
 35 H        0.1590     2.2780     1.7560 H     1 <1>   0.0800 
 36 H       -1.3860     3.0040     2.1360 H     1 <1>   0.0800 
 37 H       -2.5860     4.6500     0.5300 H     1 <1>   0.4000 
 38 H       -0.6010     5.8730    -0.0800 H     1 <1>   0.0800 
 39 H        0.6610     4.8070    -0.6560 H     1 <1>   0.0800 
 40 H        2.2880     6.3380     2.7290 H     1 <1>   0.0800 
 41 H        0.8750     6.9360     1.8690 H     1 <1>   0.0800 
 42 H        2.8640     8.4480     2.0240 H     1 <1>   0.1500 
 43 H        3.0310     6.4070    -1.7240 H     1 <1>   0.1500 
 44 H        3.8090    10.4310     0.9880 H     1 <1>   0.1500 
 45 H        3.9950     8.4100    -2.7630 H     1 <1>   0.1500 
 46 H        5.1130    11.3730    -0.8740 H     1 <1>   0.0800 
 47 H        3.7760    11.4110    -2.0010 H     1 <1>   0.0800 
 48 H        5.2330    10.5270    -2.3930 H     1 <1>   0.0800 
@<TRIPOS>BOND
  1   1   2  2   
  2   1   3  2   
  3   1   4  am  
  4   1   5  1   
  5   4   6  1   
  6   4   7  1   
  7   5   8  1   
  8   5  25  1   
  9   5  26  1   
 10   6  27  1   
 11   6  28  1   
 12   6  29  1   
 13   7  30  1   
 14   7  31  1   
 15   7  32  1   
 16   8   9  1   
 17   8  10  1   
 18   8  33  1   
 19   9  11  1   
 20   9  12  1   
 21   9  34  1   
 22  10  13  1   
 23  10  35  1   
 24  10  36  1   
 25  11  37  1   
 26  12  13  1   
 27  12  38  1   
 28  12  39  1   
 29  13  14  am  
 30  14  15  2   
 31  14  16  1   
 32  16  17  1   
 33  16  40  1   
 34  16  41  1   
 35  17  18  1   
 36  18  19  ar  
 37  18  20  ar  
 38  19  21  ar  
 39  19  42  1   
 40  20  22  ar  
 41  20  43  1   
 42  21  23  ar  
 43  21  44  1   
 44  22  23  ar  
 45  22  45  1   
 46  23  24  1   
 47  24  46  1   
 48  24  47  1   
 49  24  48  1   
@<TRIPOS>SUBSTRUCTURE
  1 ****  17 GROUP 4 **** **** 0

# MOE 2024.06 (io_trps.svl 2023.06)
