@<TRIPOS>MOLECULE
NONAME
48 50 1 0 0 
SMALL
USER_CHARGES


@<TRIPOS>ATOM
  1 CL      -0.0310    -0.8560    -1.2740 Cl    1 <1>  -0.1230 
  2 C       -1.1610     0.3100    -0.6050 C.2   1 <1>   0.1230 
  3 C       -2.2880     0.0390     0.1770 C.2   1 <1>   0.2030 
  4 C       -1.0960     1.6390    -0.7770 C.2   1 <1>  -0.3020 
  5 N       -2.8970     1.1880     0.4550 N.2   1 <1>  -0.7070 
  6 C       -2.6800    -1.3010     0.6000 C.2   1 <1>   0.7160 
  7 N       -2.1540     2.1460    -0.1200 N.pl3 1 <1>   0.3140 
  8 O       -1.8140    -2.1050     0.9100 O.2   1 <1>  -0.5700 
  9 N       -4.0030    -1.7280     0.6750 N.am  1 <1>  -0.6600 
 10 C       -2.4970     3.5700    -0.0090 C.3   1 <1>   0.0160 
 11 C       -5.1160    -0.9360     0.0740 C.3   1 <1>   0.2200 
 12 C       -4.3350    -3.0180     1.3580 C.3   1 <1>   0.0600 
 13 C       -5.9520    -0.2170     1.1300 C.3   1 <1>  -0.1600 
 14 C       -6.1330    -1.7550    -0.7230 C.3   1 <1>  -0.1600 
 15 C       -7.2670     0.1100     0.4110 C.3   1 <1>  -0.0800 
 16 C       -7.3740    -0.8540    -0.7760 C.3   1 <1>  -0.0800 
 17 C       -8.5410    -0.1040     1.2400 C.3   1 <1>  -0.1600 
 18 C       -8.7220    -1.5740    -0.6110 C.3   1 <1>  -0.1600 
 19 C       -9.5800    -0.6400     0.2510 C.3   1 <1>   0.4230 
 20 N      -10.1490     0.4760    -0.5740 N.4   1 <1>  -0.9590 
 21 C      -10.8960     1.4800     0.2510 C.3   1 <1>   0.2630 
 22 C      -11.0550    -0.0090    -1.6640 C.3   1 <1>   0.2630 
 23 H       -0.3790     2.2310    -1.3130 H     1 <1>   0.1500 
 24 H       -1.6510     4.1080     0.3750 H     1 <1>   0.0800 
 25 H       -3.3280     3.6810     0.6630 H     1 <1>   0.0800 
 26 H       -2.7630     3.9460    -0.9780 H     1 <1>   0.0800 
 27 H       -4.7180    -0.1980    -0.6010 H     1 <1>   0.0800 
 28 H       -5.2820    -2.9500     1.8610 H     1 <1>   0.0800 
 29 H       -3.5850    -3.2590     2.0910 H     1 <1>   0.0800 
 30 H       -4.3710    -3.8100     0.6310 H     1 <1>   0.0800 
 31 H       -6.1210    -0.8670     1.9680 H     1 <1>   0.0800 
 32 H       -5.4560     0.6750     1.4710 H     1 <1>   0.0800 
 33 H       -5.7610    -1.9780    -1.7080 H     1 <1>   0.0800 
 34 H       -6.3650    -2.6720    -0.2160 H     1 <1>   0.0800 
 35 H       -7.2270     1.1210     0.0380 H     1 <1>   0.0800 
 36 H       -7.3630    -0.2830    -1.6910 H     1 <1>   0.0800 
 37 H       -8.8340     0.7790     1.7760 H     1 <1>   0.0800 
 38 H       -8.3670    -0.8760     1.9700 H     1 <1>   0.0800 
 39 H       -8.5770    -2.4790    -0.0480 H     1 <1>   0.0800 
 40 H       -9.1560    -1.8530    -1.5520 H     1 <1>   0.0800 
 41 H      -10.3680    -1.1790     0.7540 H     1 <1>   0.0800 
 42 H       -9.3410     0.9460    -1.0060 H     1 <1>   0.4500 
 43 H      -11.6960     1.0000     0.7920 H     1 <1>   0.0800 
 44 H      -11.3180     2.2430    -0.3830 H     1 <1>   0.0800 
 45 H      -10.2400     1.9590     0.9580 H     1 <1>   0.0800 
 46 H      -11.8630    -0.5900    -1.2500 H     1 <1>   0.0800 
 47 H      -10.5150    -0.6200    -2.3680 H     1 <1>   0.0800 
 48 H      -11.4730     0.8280    -2.2000 H     1 <1>   0.0800 
@<TRIPOS>BOND
  1   1   2  1   
  2   2   3  1   
  3   2   4  2   
  4   3   5  2   
  5   3   6  1   
  6   4   7  1   
  7   4  23  1   
  8   5   7  1   
  9   6   8  2   
 10   6   9  am  
 11   7  10  1   
 12   9  11  1   
 13   9  12  1   
 14  10  24  1   
 15  10  25  1   
 16  10  26  1   
 17  11  13  1   
 18  11  14  1   
 19  11  27  1   
 20  12  28  1   
 21  12  29  1   
 22  12  30  1   
 23  13  15  1   
 24  13  31  1   
 25  13  32  1   
 26  14  16  1   
 27  14  33  1   
 28  14  34  1   
 29  15  16  1   
 30  15  17  1   
 31  15  35  1   
 32  16  18  1   
 33  16  36  1   
 34  17  19  1   
 35  17  37  1   
 36  17  38  1   
 37  18  19  1   
 38  18  39  1   
 39  18  40  1   
 40  19  20  1   
 41  19  41  1   
 42  20  21  1   
 43  20  22  1   
 44  20  42  1   
 45  21  43  1   
 46  21  44  1   
 47  21  45  1   
 48  22  46  1   
 49  22  47  1   
 50  22  48  1   
@<TRIPOS>SUBSTRUCTURE
  1 ****  11 GROUP 4 **** **** 0

# MOE 2024.06 (io_trps.svl 2023.06)
