@<TRIPOS>MOLECULE
NONAME
30 31 1 0 0 
SMALL
USER_CHARGES


@<TRIPOS>ATOM
  1 F        0.2010    -0.1620    -0.0080 F     1 <1>  -0.3400 
  2 C        0.1120    -1.4290    -0.3990 C.3   1 <1>   1.1640 
  3 F       -0.2330    -1.3990    -1.6800 F     1 <1>  -0.3400 
  4 F       -0.9280    -1.9400     0.2520 F     1 <1>  -0.3400 
  5 C        1.4060    -2.2210    -0.1680 C.ar  1 <1>  -0.1440 
  6 C        2.6410    -1.5880    -0.2180 C.ar  1 <1>  -0.1500 
  7 C        1.3710    -3.5880     0.0820 C.ar  1 <1>  -0.1500 
  8 C        3.8360    -2.2730    -0.0080 C.ar  1 <1>   0.1000 
  9 C        2.5450    -4.2940     0.2690 C.ar  1 <1>  -0.1500 
 10 N        5.0690    -1.5960    -0.0450 N.pl3 1 <1>  -0.8380 
 11 C        3.7680    -3.6500     0.2180 C.ar  1 <1>  -0.1430 
 12 C        6.3520    -2.3550     0.0040 C.3   1 <1>   0.2090 
 13 C        5.1750    -0.2220     0.5110 C.3   1 <1>   0.2090 
 14 C        5.0440    -4.4540     0.3970 C.3   1 <1>  -0.0160 
 15 C        6.1640    -3.8100    -0.4190 C.3   1 <1>  -0.1600 
 16 C        5.4270     0.7500    -0.6350 C.3   1 <1>  -0.2400 
 17 H        2.6890    -0.5380    -0.4370 H     1 <1>   0.1500 
 18 H        0.4320    -4.1140     0.1260 H     1 <1>   0.1500 
 19 H        2.5000    -5.3530     0.4530 H     1 <1>   0.1500 
 20 H        6.7390    -2.3260     1.0080 H     1 <1>   0.0800 
 21 H        7.0650    -1.8830    -0.6500 H     1 <1>   0.0800 
 22 H        5.9840    -0.1710     1.2200 H     1 <1>   0.0800 
 23 H        4.2710     0.0430     1.0330 H     1 <1>   0.0800 
 24 H        4.8960    -5.4670     0.0670 H     1 <1>   0.0800 
 25 H        5.3070    -4.4670     1.4400 H     1 <1>   0.0800 
 26 H        7.0820    -4.3500    -0.2760 H     1 <1>   0.0800 
 27 H        5.9140    -3.8400    -1.4650 H     1 <1>   0.0800 
 28 H        6.3540     0.5130    -1.1250 H     1 <1>   0.0800 
 29 H        5.4840     1.7540    -0.2560 H     1 <1>   0.0800 
 30 H        4.6260     0.6940    -1.3490 H     1 <1>   0.0800 
@<TRIPOS>BOND
  1   1   2  1   
  2   2   3  1   
  3   2   4  1   
  4   2   5  1   
  5   5   6  ar  
  6   5   7  ar  
  7   6   8  ar  
  8   6  17  1   
  9   7   9  ar  
 10   7  18  1   
 11   8  10  1   
 12   8  11  ar  
 13   9  11  ar  
 14   9  19  1   
 15  10  12  1   
 16  10  13  1   
 17  11  14  1   
 18  12  15  1   
 19  12  20  1   
 20  12  21  1   
 21  13  16  1   
 22  13  22  1   
 23  13  23  1   
 24  14  15  1   
 25  14  24  1   
 26  14  25  1   
 27  15  26  1   
 28  15  27  1   
 29  16  28  1   
 30  16  29  1   
 31  16  30  1   
@<TRIPOS>SUBSTRUCTURE
  1 ****   6 GROUP 4 **** **** 0

# MOE 2024.06 (io_trps.svl 2023.06)
