@<TRIPOS>MOLECULE
NONAME
64 67 1 0 0 
SMALL
USER_CHARGES


@<TRIPOS>ATOM
  1 O        3.3880     3.1450    -0.4450 O.3   1 <1>  -0.0190 
  2 N        4.2680     2.2170    -0.2270 N.2   1 <1>  -0.4100 
  3 C        2.2270     2.6490    -0.7780 C.2   1 <1>  -0.0400 
  4 C        3.6710     1.1000    -0.4440 C.2   1 <1>   0.1080 
  5 C        2.3430     1.3130    -0.8060 C.2   1 <1>  -0.1500 
  6 C        1.0650     3.5820    -1.0520 C.3   1 <1>   0.0200 
  7 C        4.3310    -0.2560    -0.3210 C.3   1 <1>  -0.0590 
  8 C        0.4430     4.1230     0.2550 C.3   1 <1>  -0.0800 
  9 C       -0.5450     5.2510    -0.0220 C.3   1 <1>   0.2000 
 10 C        1.4580     4.8050     1.1810 C.3   1 <1>   0.3430 
 11 O       -1.3410     5.4100     1.1070 O.3   1 <1>  -0.6800 
 12 C        0.3570     6.4860    -0.1450 C.3   1 <1>   0.3430 
 13 N        1.5390     6.2330     0.7470 N.4   1 <1>  -0.9590 
 14 C        1.5410     7.1450     1.9220 C.3   1 <1>   0.4860 
 15 C        1.7030     8.5760     1.4420 C.ar  1 <1>  -0.1440 
 16 C        2.9320     9.0390     0.9970 C.ar  1 <1>  -0.1500 
 17 C        0.6140     9.4360     1.4480 C.ar  1 <1>  -0.1500 
 18 C        3.0790    10.3450     0.5560 C.ar  1 <1>   0.0820 
 19 C        0.7530    10.7400     1.0040 C.ar  1 <1>  -0.1500 
 20 O        4.3180    10.7150     0.1490 O.3   1 <1>  -0.3630 
 21 C        1.9780    11.1970     0.5560 C.ar  1 <1>  -0.1500 
 22 C        4.6200    12.0600    -0.1430 C.3   1 <1>   0.1200 
 23 C        6.1210    12.1430    -0.4450 C.3   1 <1>   0.3430 
 24 N        6.5740    13.5290    -0.8000 N.4   1 <1>  -0.9590 
 25 C        7.9620    13.4840    -1.3490 C.3   1 <1>   0.3430 
 26 C        6.4850    14.4730     0.3580 C.3   1 <1>   0.3430 
 27 C        8.3670    14.8740    -1.8440 C.3   1 <1>  -0.1600 
 28 C        6.8570    15.8850    -0.0970 C.3   1 <1>  -0.1600 
 29 C        8.2510    15.9280    -0.7360 C.3   1 <1>  -0.1600 
 30 H        1.6190     0.5540    -1.0410 H     1 <1>   0.1500 
 31 H        1.4190     4.3800    -1.6810 H     1 <1>   0.0800 
 32 H        0.3140     3.0420    -1.6020 H     1 <1>   0.0800 
 33 H        4.3060    -0.7620    -1.2680 H     1 <1>   0.0800 
 34 H        3.8150    -0.8500     0.4110 H     1 <1>   0.0800 
 35 H        5.3550    -0.1410    -0.0160 H     1 <1>   0.0800 
 36 H       -0.0280     3.3020     0.7670 H     1 <1>   0.0800 
 37 H       -1.1770     5.1020    -0.8810 H     1 <1>   0.0800 
 38 H        2.4220     4.3270     1.1700 H     1 <1>   0.0800 
 39 H        1.0700     4.7610     2.1860 H     1 <1>   0.0800 
 40 H       -2.0670     4.7500     1.1280 H     1 <1>   0.4000 
 41 H       -0.1810     7.3780     0.1270 H     1 <1>   0.0800 
 42 H        0.6950     6.5800    -1.1640 H     1 <1>   0.0800 
 43 H        2.4050     6.3960     0.2180 H     1 <1>   0.4500 
 44 H        0.6160     7.0430     2.4670 H     1 <1>   0.0800 
 45 H        2.3560     6.8960     2.5820 H     1 <1>   0.0800 
 46 H        3.7980     8.4000     0.9930 H     1 <1>   0.1500 
 47 H       -0.3500     9.1060     1.8000 H     1 <1>   0.1500 
 48 H       -0.0980    11.4010     1.0110 H     1 <1>   0.1500 
 49 H        2.0470    12.2130     0.2160 H     1 <1>   0.1500 
 50 H        4.0390    12.3540    -1.0000 H     1 <1>   0.0800 
 51 H        4.3630    12.6510     0.7190 H     1 <1>   0.0800 
 52 H        6.3300    11.4810    -1.2700 H     1 <1>   0.0800 
 53 H        6.6690    11.7950     0.4150 H     1 <1>   0.0800 
 54 H        5.9740    13.9000    -1.5490 H     1 <1>   0.4500 
 55 H        8.6480    13.1620    -0.5820 H     1 <1>   0.0800 
 56 H        8.0150    12.7840    -2.1680 H     1 <1>   0.0800 
 57 H        5.4850    14.4830     0.7600 H     1 <1>   0.0800 
 58 H        7.1610    14.1580     1.1380 H     1 <1>   0.0800 
 59 H        9.3840    14.8390    -2.1950 H     1 <1>   0.0800 
 60 H        7.7500    15.1510    -2.6820 H     1 <1>   0.0800 
 61 H        6.1210    16.2420    -0.7970 H     1 <1>   0.0800 
 62 H        6.8360    16.5450     0.7530 H     1 <1>   0.0800 
 63 H        8.4390    16.9090    -1.1410 H     1 <1>   0.0800 
 64 H        8.9970    15.7390     0.0180 H     1 <1>   0.0800 
@<TRIPOS>BOND
  1   1   2  1   
  2   1   3  1   
  3   2   4  2   
  4   3   5  2   
  5   3   6  1   
  6   4   5  1   
  7   4   7  1   
  8   5  30  1   
  9   6   8  1   
 10   6  31  1   
 11   6  32  1   
 12   7  33  1   
 13   7  34  1   
 14   7  35  1   
 15   8   9  1   
 16   8  10  1   
 17   8  36  1   
 18   9  11  1   
 19   9  12  1   
 20   9  37  1   
 21  10  13  1   
 22  10  38  1   
 23  10  39  1   
 24  11  40  1   
 25  12  13  1   
 26  12  41  1   
 27  12  42  1   
 28  13  14  1   
 29  13  43  1   
 30  14  15  1   
 31  14  44  1   
 32  14  45  1   
 33  15  16  ar  
 34  15  17  ar  
 35  16  18  ar  
 36  16  46  1   
 37  17  19  ar  
 38  17  47  1   
 39  18  20  1   
 40  18  21  ar  
 41  19  21  ar  
 42  19  48  1   
 43  20  22  1   
 44  21  49  1   
 45  22  23  1   
 46  22  50  1   
 47  22  51  1   
 48  23  24  1   
 49  23  52  1   
 50  23  53  1   
 51  24  25  1   
 52  24  26  1   
 53  24  54  1   
 54  25  27  1   
 55  25  55  1   
 56  25  56  1   
 57  26  28  1   
 58  26  57  1   
 59  26  58  1   
 60  27  29  1   
 61  27  59  1   
 62  27  60  1   
 63  28  29  1   
 64  28  61  1   
 65  28  62  1   
 66  29  63  1   
 67  29  64  1   
@<TRIPOS>SUBSTRUCTURE
  1 ****  16 GROUP 4 **** **** 0

# MOE 2024.06 (io_trps.svl 2023.06)
