@<TRIPOS>MOLECULE
NONAME
51 54 1 0 0 
SMALL
USER_CHARGES


@<TRIPOS>ATOM
  1 O       -2.3540     1.1190     2.8610 O.2   1 <1>  -0.5700 
  2 C       -2.3020     1.4110     1.6880 C.2   1 <1>   0.5690 
  3 N       -2.5660     0.4780     0.7200 N.am  1 <1>  -0.6600 
  4 C       -1.9600     2.8430     1.3370 C.3   1 <1>   0.1570 
  5 C       -2.4490     0.6750    -0.7510 C.3   1 <1>   0.1400 
  6 C       -2.8180    -0.9520     1.0260 C.3   1 <1>   0.1400 
  7 N       -0.6510     2.9090     0.6730 N.pl3 1 <1>   0.3140 
  8 C       -3.0730    -0.5830    -1.3500 C.3   1 <1>   0.2000 
  9 C       -2.7290    -1.6730    -0.3270 C.3   1 <1>  -0.0800 
 10 N       -0.5540     3.2410    -0.6300 N.2   1 <1>  -0.7070 
 11 C        0.5710     2.6850     1.2120 C.2   1 <1>  -0.3320 
 12 O       -4.4490    -0.4030    -1.3950 O.3   1 <1>  -0.6800 
 13 C       -3.6010    -2.9430    -0.4250 C.3   1 <1>  -0.0170 
 14 C        0.7150     3.2230    -0.8870 C.2   1 <1>   0.1080 
 15 C        1.4720     2.8800     0.2260 C.2   1 <1>  -0.1500 
 16 C        0.8330     2.2930     2.6580 C.3   1 <1>  -0.0600 
 17 C       -3.2030    -4.1220     0.4730 C.ar  1 <1>  -0.1440 
 18 C        1.2700     3.5460    -2.2540 C.3   1 <1>  -0.0590 
 19 C       -4.0700    -5.2380     0.5890 C.ar  1 <1>   0.0000 
 20 C       -2.0330    -4.1740     1.1790 C.ar  1 <1>  -0.1500 
 21 C       -3.6770    -6.3020     1.4390 C.ar  1 <1>   0.3100 
 22 C       -5.3020    -5.3670    -0.0950 C.ar  1 <1>  -0.1500 
 23 C       -1.7380    -5.2780     1.9870 C.ar  1 <1>   0.1600 
 24 N       -2.5110    -6.3060     2.1300 N.ar  1 <1>  -0.6200 
 25 C       -4.5230    -7.4140     1.5780 C.ar  1 <1>  -0.1500 
 26 C       -6.1030    -6.4660     0.0600 C.ar  1 <1>  -0.1500 
 27 C       -5.7120    -7.5040     0.9090 C.ar  1 <1>  -0.1500 
 28 H       -1.9240     3.4370     2.2290 H     1 <1>   0.0800 
 29 H       -2.7060     3.2440     0.6800 H     1 <1>   0.0800 
 30 H       -2.9430     1.5700    -1.0870 H     1 <1>   0.0800 
 31 H       -1.4060     0.7210    -1.0170 H     1 <1>   0.0800 
 32 H       -2.0920    -1.3210     1.7300 H     1 <1>   0.0800 
 33 H       -3.8030    -1.0500     1.4520 H     1 <1>   0.0800 
 34 H       -2.7210    -0.7980    -2.3440 H     1 <1>   0.0800 
 35 H       -1.7020    -1.9420    -0.4980 H     1 <1>   0.0800 
 36 H       -4.7450    -0.0420    -0.5360 H     1 <1>   0.4000 
 37 H       -3.5910    -3.2840    -1.4450 H     1 <1>   0.0800 
 38 H       -4.6130    -2.6690    -0.1870 H     1 <1>   0.0800 
 39 H        2.5430     2.7980     0.2650 H     1 <1>   0.1500 
 40 H        1.8910     2.2380     2.8400 H     1 <1>   0.0800 
 41 H        0.4010     1.3310     2.8690 H     1 <1>   0.0800 
 42 H        0.4090     3.0210     3.3270 H     1 <1>   0.0800 
 43 H        2.3420     3.4900    -2.2470 H     1 <1>   0.0800 
 44 H        0.9700     4.5390    -2.5350 H     1 <1>   0.0800 
 45 H        0.8830     2.8480    -2.9730 H     1 <1>   0.0800 
 46 H       -1.2970    -3.3950     1.1490 H     1 <1>   0.1500 
 47 H       -5.6260    -4.5880    -0.7590 H     1 <1>   0.1500 
 48 H       -0.8050    -5.2710     2.5260 H     1 <1>   0.1500 
 49 H       -4.1990    -8.2000     2.2350 H     1 <1>   0.1500 
 50 H       -7.0380    -6.5460    -0.4660 H     1 <1>   0.1500 
 51 H       -6.3500    -8.3630     1.0250 H     1 <1>   0.1500 
@<TRIPOS>BOND
  1   1   2  2   
  2   2   3  am  
  3   2   4  1   
  4   3   5  1   
  5   3   6  1   
  6   4   7  1   
  7   4  28  1   
  8   4  29  1   
  9   5   8  1   
 10   5  30  1   
 11   5  31  1   
 12   6   9  1   
 13   6  32  1   
 14   6  33  1   
 15   7  10  1   
 16   7  11  1   
 17   8   9  1   
 18   8  12  1   
 19   8  34  1   
 20   9  13  1   
 21   9  35  1   
 22  10  14  2   
 23  11  15  2   
 24  11  16  1   
 25  12  36  1   
 26  13  17  1   
 27  13  37  1   
 28  13  38  1   
 29  14  15  1   
 30  14  18  1   
 31  15  39  1   
 32  16  40  1   
 33  16  41  1   
 34  16  42  1   
 35  17  19  ar  
 36  17  20  ar  
 37  18  43  1   
 38  18  44  1   
 39  18  45  1   
 40  19  21  ar  
 41  19  22  ar  
 42  20  23  ar  
 43  20  46  1   
 44  21  24  ar  
 45  21  25  ar  
 46  22  26  ar  
 47  22  47  1   
 48  23  24  ar  
 49  23  48  1   
 50  25  27  ar  
 51  25  49  1   
 52  26  27  ar  
 53  26  50  1   
 54  27  51  1   
@<TRIPOS>SUBSTRUCTURE
  1 ****   6 GROUP 4 **** **** 0

# MOE 2024.06 (io_trps.svl 2023.06)
