@<TRIPOS>MOLECULE
NONAME
62 65 1 0 0 
SMALL
USER_CHARGES


@<TRIPOS>ATOM
  1 O        0.1180    -0.1280    -0.2050 O.3   1 <1>  -0.3630 
  2 C       -0.1110    -1.4130    -0.5630 C.ar  1 <1>   0.0830 
  3 C        1.2760     0.2510     0.5090 C.3   1 <1>   0.2640 
  4 C        0.7010    -2.4820    -0.1950 C.ar  1 <1>  -0.1500 
  5 C       -1.2270    -1.6470    -1.3480 C.ar  1 <1>  -0.1500 
  6 C        1.2780     1.7620     0.6860 C.ar  1 <1>  -0.1440 
  7 C        0.3870    -3.7650    -0.6080 C.ar  1 <1>  -0.1500 
  8 C       -1.5410    -2.9280    -1.7620 C.ar  1 <1>  -0.1500 
  9 C        1.2430     2.3250     1.9530 C.ar  1 <1>  -0.1500 
 10 C        1.3240     2.5920    -0.4240 C.ar  1 <1>  -0.1500 
 11 C       -0.7400    -3.9980    -1.3860 C.ar  1 <1>  -0.1430 
 12 C        1.2580     3.7010     2.1080 C.ar  1 <1>  -0.1500 
 13 C        1.3390     3.9670    -0.2710 C.ar  1 <1>  -0.1500 
 14 C       -1.0990    -5.4060    -1.8170 C.3   1 <1>   0.4860 
 15 C        1.3070     4.5230     0.9960 C.ar  1 <1>  -0.1500 
 16 N       -1.6960    -6.1110    -0.6440 N.4   1 <1>  -0.9590 
 17 C       -1.8030    -7.5960    -0.8910 C.3   1 <1>   0.3430 
 18 C       -3.0170    -5.5000    -0.3000 C.3   1 <1>   0.3430 
 19 C       -2.4870    -8.3820     0.2740 C.3   1 <1>   0.4230 
 20 C       -3.6180    -6.2110     0.9170 C.3   1 <1>  -0.1600 
 21 N       -2.5750    -9.8970     0.0850 N.4   1 <1>  -0.9590 
 22 C       -3.8330    -7.7370     0.7180 C.3   1 <1>   0.0000 
 23 C       -3.5300   -10.5720     1.0320 C.3   1 <1>   0.3430 
 24 C       -2.8870   -10.3480    -1.3150 C.3   1 <1>   0.2630 
 25 C       -4.2430    -8.3500     2.0870 C.3   1 <1>  -0.1600 
 26 C       -5.0020    -7.9650    -0.2850 C.3   1 <1>   0.1200 
 27 C       -3.6890    -9.7710     2.3250 C.3   1 <1>  -0.1600 
 28 O       -4.6250    -7.6720    -1.5890 O.3   1 <1>  -0.6800 
 29 H        1.2630    -0.2460     1.4620 H     1 <1>   0.0800 
 30 H        2.1390    -0.0540    -0.0560 H     1 <1>   0.0800 
 31 H        1.5780    -2.3310     0.4070 H     1 <1>   0.1500 
 32 H       -1.8430    -0.8110    -1.6340 H     1 <1>   0.1500 
 33 H        1.0390    -4.5710    -0.3170 H     1 <1>   0.1500 
 34 H       -2.4120    -3.0700    -2.3800 H     1 <1>   0.1500 
 35 H        1.2020     1.6990     2.8270 H     1 <1>   0.1500 
 36 H        1.3430     2.1660    -1.4120 H     1 <1>   0.1500 
 37 H        1.2300     4.1320     3.0930 H     1 <1>   0.1500 
 38 H        1.3730     4.6040    -1.1370 H     1 <1>   0.1500 
 39 H       -0.2040    -5.9100    -2.1450 H     1 <1>   0.0800 
 40 H       -1.7970    -5.3770    -2.6380 H     1 <1>   0.0800 
 41 H        1.3180     5.5920     1.1160 H     1 <1>   0.1500 
 42 H       -1.0610    -5.9070     0.1400 H     1 <1>   0.4500 
 43 H       -2.3710    -7.7520    -1.7920 H     1 <1>   0.0800 
 44 H       -0.8160    -7.9980    -1.0460 H     1 <1>   0.0800 
 45 H       -2.8920    -4.4530    -0.0720 H     1 <1>   0.0800 
 46 H       -3.6910    -5.5780    -1.1390 H     1 <1>   0.0800 
 47 H       -1.8310    -8.2380     1.1170 H     1 <1>   0.0800 
 48 H       -2.9690    -6.0260     1.7560 H     1 <1>   0.0800 
 49 H       -4.5590    -5.7430     1.1490 H     1 <1>   0.0800 
 50 H       -1.6480   -10.2830     0.3240 H     1 <1>   0.4500 
 51 H       -4.4990   -10.6670     0.5680 H     1 <1>   0.0800 
 52 H       -3.1800   -11.5670     1.2600 H     1 <1>   0.0800 
 53 H       -3.8480    -9.9740    -1.6280 H     1 <1>   0.0800 
 54 H       -2.9110   -11.4260    -1.3630 H     1 <1>   0.0800 
 55 H       -2.1380    -9.9990    -2.0070 H     1 <1>   0.0800 
 56 H       -3.8990    -7.7370     2.9050 H     1 <1>   0.0800 
 57 H       -5.3180    -8.3710     2.1700 H     1 <1>   0.0800 
 58 H       -5.8400    -7.3350    -0.0330 H     1 <1>   0.0800 
 59 H       -5.3430    -8.9850    -0.2680 H     1 <1>   0.0800 
 60 H       -4.3550   -10.3000     2.9860 H     1 <1>   0.0800 
 61 H       -2.7360    -9.7200     2.8230 H     1 <1>   0.0800 
 62 H       -5.4170    -7.6670    -2.1760 H     1 <1>   0.4000 
@<TRIPOS>BOND
  1   1   2  1   
  2   1   3  1   
  3   2   4  ar  
  4   2   5  ar  
  5   3   6  1   
  6   3  29  1   
  7   3  30  1   
  8   4   7  ar  
  9   4  31  1   
 10   5   8  ar  
 11   5  32  1   
 12   6   9  ar  
 13   6  10  ar  
 14   7  11  ar  
 15   7  33  1   
 16   8  11  ar  
 17   8  34  1   
 18   9  12  ar  
 19   9  35  1   
 20  10  13  ar  
 21  10  36  1   
 22  11  14  1   
 23  12  15  ar  
 24  12  37  1   
 25  13  15  ar  
 26  13  38  1   
 27  14  16  1   
 28  14  39  1   
 29  14  40  1   
 30  15  41  1   
 31  16  17  1   
 32  16  18  1   
 33  16  42  1   
 34  17  19  1   
 35  17  43  1   
 36  17  44  1   
 37  18  20  1   
 38  18  45  1   
 39  18  46  1   
 40  19  21  1   
 41  19  22  1   
 42  19  47  1   
 43  20  22  1   
 44  20  48  1   
 45  20  49  1   
 46  21  23  1   
 47  21  24  1   
 48  21  50  1   
 49  22  25  1   
 50  22  26  1   
 51  23  27  1   
 52  23  51  1   
 53  23  52  1   
 54  24  53  1   
 55  24  54  1   
 56  24  55  1   
 57  25  27  1   
 58  25  56  1   
 59  25  57  1   
 60  26  28  1   
 61  26  58  1   
 62  26  59  1   
 63  27  60  1   
 64  27  61  1   
 65  28  62  1   
@<TRIPOS>SUBSTRUCTURE
  1 ****  11 GROUP 4 **** **** 0

# MOE 2024.06 (io_trps.svl 2023.06)
