@<TRIPOS>MOLECULE
NONAME
52 54 1 0 0 
SMALL
USER_CHARGES


@<TRIPOS>ATOM
  1 O       -0.8140     0.2840     0.6300 O.2   1 <1>  -0.5700 
  2 C       -1.6600     0.9600     0.0780 C.2   1 <1>   0.7150 
  3 N       -2.7540     0.3430    -0.4810 N.am  1 <1>  -0.6600 
  4 C       -1.5140     2.3900     0.0200 C.2   1 <1>  -0.2370 
  5 C       -4.1310     0.9010    -0.3230 C.3   1 <1>   0.1400 
  6 C       -2.7580    -1.1280    -0.7460 C.3   1 <1>   0.1400 
  7 N       -1.9360     3.1340    -1.0560 N.pl3 1 <1>   0.0330 
  8 C       -0.9570     3.2490     0.9220 C.2   1 <1>  -0.1500 
  9 C       -4.9520     0.0550     0.6760 C.3   1 <1>   0.2000 
 10 C       -3.6500    -1.8680     0.2730 C.3   1 <1>   0.2000 
 11 C       -1.6660     4.4550    -0.8240 C.ar  1 <1>  -0.1520 
 12 C       -1.0480     4.5580     0.4160 C.ar  1 <1>   0.0000 
 13 O       -4.9250    -1.2920     0.2900 O.3   1 <1>  -0.5600 
 14 C       -6.4300     0.4870     0.8150 C.3   1 <1>  -0.0800 
 15 C       -3.8400    -3.3540    -0.0570 C.3   1 <1>  -0.1600 
 16 C       -1.9080     5.5900    -1.6030 C.ar  1 <1>  -0.1500 
 17 C       -0.6620     5.8150     0.8940 C.ar  1 <1>  -0.1500 
 18 C       -7.2350     0.3690    -0.4910 C.3   1 <1>  -0.2400 
 19 C       -6.5610     1.9120     1.3750 C.3   1 <1>  -0.2400 
 20 C       -2.5350    -4.1610     0.0280 C.3   1 <1>  -0.1600 
 21 C       -1.5240     6.8200    -1.1210 C.ar  1 <1>  -0.1500 
 22 C       -0.9010     6.9330     0.1290 C.ar  1 <1>  -0.1500 
 23 C       -2.7950    -5.6530    -0.2120 C.3   1 <1>  -0.1600 
 24 C       -1.4960    -6.4590    -0.1300 C.3   1 <1>  -0.2400 
 25 H       -4.0850     1.9130     0.0370 H     1 <1>   0.0800 
 26 H       -4.6180     0.9060    -1.2810 H     1 <1>   0.0800 
 27 H       -3.1310    -1.3070    -1.7390 H     1 <1>   0.0800 
 28 H       -1.7550    -1.5140    -0.6980 H     1 <1>   0.0800 
 29 H       -2.3500     2.7500    -1.9100 H     1 <1>   0.2700 
 30 H       -0.5120     2.9930     1.8680 H     1 <1>   0.1500 
 31 H       -4.4900     0.1220     1.6470 H     1 <1>   0.0800 
 32 H       -3.2250    -1.7740     1.2590 H     1 <1>   0.0800 
 33 H       -6.8750    -0.1790     1.5360 H     1 <1>   0.0800 
 34 H       -4.5460    -3.7620     0.6460 H     1 <1>   0.0800 
 35 H       -4.2580    -3.4460    -1.0440 H     1 <1>   0.0800 
 36 H       -2.3840     5.4960    -2.5630 H     1 <1>   0.1500 
 37 H       -0.1840     5.8850     1.8540 H     1 <1>   0.1500 
 38 H       -6.8860     1.0640    -1.2320 H     1 <1>   0.0800 
 39 H       -8.2750     0.5690    -0.3020 H     1 <1>   0.0800 
 40 H       -7.1560    -0.6280    -0.8880 H     1 <1>   0.0800 
 41 H       -6.2000     2.6430     0.6740 H     1 <1>   0.0800 
 42 H       -6.0060     2.0070     2.2920 H     1 <1>   0.0800 
 43 H       -7.5930     2.1310     1.5850 H     1 <1>   0.0800 
 44 H       -1.8320    -3.8070    -0.7060 H     1 <1>   0.0800 
 45 H       -2.0950    -4.0300     1.0030 H     1 <1>   0.0800 
 46 H       -1.6980     7.7100    -1.7000 H     1 <1>   0.1500 
 47 H       -0.6100     7.9060     0.4830 H     1 <1>   0.1500 
 48 H       -3.4880    -6.0230     0.5240 H     1 <1>   0.0800 
 49 H       -3.2370    -5.7910    -1.1850 H     1 <1>   0.0800 
 50 H       -1.0480    -6.3520     0.8420 H     1 <1>   0.0800 
 51 H       -0.7960    -6.1220    -0.8740 H     1 <1>   0.0800 
 52 H       -1.6990    -7.5020    -0.3000 H     1 <1>   0.0800 
@<TRIPOS>BOND
  1   1   2  2   
  2   2   3  am  
  3   2   4  1   
  4   3   5  1   
  5   3   6  1   
  6   4   7  1   
  7   4   8  2   
  8   5   9  1   
  9   5  25  1   
 10   5  26  1   
 11   6  10  1   
 12   6  27  1   
 13   6  28  1   
 14   7  11  1   
 15   7  29  1   
 16   8  12  1   
 17   8  30  1   
 18   9  13  1   
 19   9  14  1   
 20   9  31  1   
 21  10  13  1   
 22  10  15  1   
 23  10  32  1   
 24  11  12  ar  
 25  11  16  ar  
 26  12  17  ar  
 27  14  18  1   
 28  14  19  1   
 29  14  33  1   
 30  15  20  1   
 31  15  34  1   
 32  15  35  1   
 33  16  21  ar  
 34  16  36  1   
 35  17  22  ar  
 36  17  37  1   
 37  18  38  1   
 38  18  39  1   
 39  18  40  1   
 40  19  41  1   
 41  19  42  1   
 42  19  43  1   
 43  20  23  1   
 44  20  44  1   
 45  20  45  1   
 46  21  22  ar  
 47  21  46  1   
 48  22  47  1   
 49  23  24  1   
 50  23  48  1   
 51  23  49  1   
 52  24  50  1   
 53  24  51  1   
 54  24  52  1   
@<TRIPOS>SUBSTRUCTURE
  1 ****   3 GROUP 4 **** **** 0

# MOE 2024.06 (io_trps.svl 2023.06)
