@<TRIPOS>MOLECULE
NONAME
56 58 1 0 0 
SMALL
USER_CHARGES


@<TRIPOS>ATOM
  1 S        1.9360     0.0440     1.8570 S.3   1 <1>  -0.0800 
  2 C        1.8590     0.3020     0.1340 C.2   1 <1>  -0.1400 
  3 C        0.4230     0.9020     2.0230 C.2   1 <1>   0.2280 
  4 C        0.7440     0.9950    -0.1510 C.2   1 <1>   0.0460 
  5 C        2.9900    -0.2620    -0.6870 C.3   1 <1>   0.5230 
  6 N       -0.0630     1.3150     0.9220 N.2   1 <1>  -0.5650 
  7 C        0.2560     1.4730    -1.5030 C.3   1 <1>  -0.0590 
  8 N        2.8650    -1.7420    -0.6780 N.4   1 <1>  -0.9590 
  9 C        4.1510    -2.4240    -0.9860 C.3   1 <1>   0.4860 
 10 C        1.7180    -2.2230    -1.4950 C.3   1 <1>   0.5240 
 11 C        5.1520    -2.0420     0.0840 C.ar  1 <1>  -0.1440 
 12 C        1.5460    -3.7070    -1.2560 C.2   1 <1>  -0.1810 
 13 C        6.2000    -1.1790    -0.2080 C.ar  1 <1>  -0.1500 
 14 C        5.0180    -2.5470     1.3690 C.ar  1 <1>  -0.1500 
 15 C        0.8460    -4.3910    -0.3130 C.2   1 <1>  -0.0400 
 16 C        2.1690    -4.6790    -2.0460 C.2   1 <1>  -0.1500 
 17 C        7.0910    -0.8100     0.7840 C.ar  1 <1>  -0.1500 
 18 C        5.9120    -2.1770     2.3580 C.ar  1 <1>  -0.1500 
 19 O        1.0550    -5.6820    -0.4740 O.3   1 <1>  -0.2800 
 20 C       -0.0770    -3.9730     0.8460 C.3   1 <1>   0.1800 
 21 C        1.8470    -5.8880    -1.5180 C.2   1 <1>   0.0550 
 22 C        6.9460    -1.3060     2.0670 C.ar  1 <1>  -0.1500 
 23 C       -1.2440    -4.9660     0.9710 C.3   1 <1>  -0.2400 
 24 C        0.7290    -3.9810     2.1490 C.3   1 <1>  -0.2400 
 25 C       -0.6840    -2.5790     0.6360 C.3   1 <1>  -0.2400 
 26 C        2.2360    -7.2160    -1.9290 C.2   1 <1>   0.7150 
 27 O        3.0130    -7.3880    -2.8450 O.2   1 <1>  -0.5700 
 28 N        1.7590    -8.3180    -1.3110 N.am  1 <1>  -0.8000 
 29 H        0.0220     1.0150     3.0170 H     1 <1>   0.1500 
 30 H        3.9220     0.0460    -0.2400 H     1 <1>   0.0800 
 31 H        2.9500     0.1160    -1.6950 H     1 <1>   0.0800 
 32 H        0.9340     1.1980    -2.2890 H     1 <1>   0.0800 
 33 H        0.1610     2.5440    -1.4890 H     1 <1>   0.0800 
 34 H       -0.7120     1.0520    -1.7090 H     1 <1>   0.0800 
 35 H        2.6500    -1.9920     0.2950 H     1 <1>   0.4500 
 36 H        4.5130    -2.1350    -1.9590 H     1 <1>   0.0800 
 37 H        4.0270    -3.4940    -0.9690 H     1 <1>   0.0800 
 38 H        1.8990    -2.0430    -2.5420 H     1 <1>   0.0800 
 39 H        0.8170    -1.7030    -1.2160 H     1 <1>   0.0800 
 40 H        6.3400    -0.7860    -1.2000 H     1 <1>   0.1500 
 41 H        4.2280    -3.2360     1.6190 H     1 <1>   0.1500 
 42 H        2.7880    -4.5220    -2.9130 H     1 <1>   0.1500 
 43 H        7.9050    -0.1400     0.5610 H     1 <1>   0.1500 
 44 H        5.8080    -2.5670     3.3570 H     1 <1>   0.1500 
 45 H        7.6410    -1.0180     2.8380 H     1 <1>   0.1500 
 46 H       -0.8830    -5.9530     1.1970 H     1 <1>   0.0800 
 47 H       -1.7960    -5.0110     0.0490 H     1 <1>   0.0800 
 48 H       -1.9170    -4.6720     1.7580 H     1 <1>   0.0800 
 49 H        1.1370    -4.9600     2.3260 H     1 <1>   0.0800 
 50 H        0.1010    -3.7210     2.9840 H     1 <1>   0.0800 
 51 H        1.5400    -3.2790     2.1010 H     1 <1>   0.0800 
 52 H       -1.1870    -2.5260    -0.3130 H     1 <1>   0.0800 
 53 H        0.0660    -1.8180     0.6850 H     1 <1>   0.0800 
 54 H       -1.4040    -2.3650     1.4060 H     1 <1>   0.0800 
 55 H        2.0380    -9.2430    -1.6360 H     1 <1>   0.3700 
 56 H        1.0820    -8.2620    -0.5500 H     1 <1>   0.3700 
@<TRIPOS>BOND
  1   1   2  1   
  2   1   3  1   
  3   2   4  2   
  4   2   5  1   
  5   3   6  2   
  6   3  29  1   
  7   4   6  1   
  8   4   7  1   
  9   5   8  1   
 10   5  30  1   
 11   5  31  1   
 12   7  32  1   
 13   7  33  1   
 14   7  34  1   
 15   8   9  1   
 16   8  10  1   
 17   8  35  1   
 18   9  11  1   
 19   9  36  1   
 20   9  37  1   
 21  10  12  1   
 22  10  38  1   
 23  10  39  1   
 24  11  13  ar  
 25  11  14  ar  
 26  12  15  2   
 27  12  16  1   
 28  13  17  ar  
 29  13  40  1   
 30  14  18  ar  
 31  14  41  1   
 32  15  19  1   
 33  15  20  1   
 34  16  21  2   
 35  16  42  1   
 36  17  22  ar  
 37  17  43  1   
 38  18  22  ar  
 39  18  44  1   
 40  19  21  1   
 41  20  23  1   
 42  20  24  1   
 43  20  25  1   
 44  21  26  1   
 45  22  45  1   
 46  23  46  1   
 47  23  47  1   
 48  23  48  1   
 49  24  49  1   
 50  24  50  1   
 51  24  51  1   
 52  25  52  1   
 53  25  53  1   
 54  25  54  1   
 55  26  27  2   
 56  26  28  am  
 57  28  55  1   
 58  28  56  1   
@<TRIPOS>SUBSTRUCTURE
  1 ****   8 GROUP 4 **** **** 0

# MOE 2024.06 (io_trps.svl 2023.06)
