@<TRIPOS>MOLECULE
NONAME
41 42 1 0 0 
SMALL
USER_CHARGES


@<TRIPOS>ATOM
  1 O       -1.3420    -1.3850    -1.0600 O.2   1 <1>  -0.5700 
  2 C       -0.7380    -1.9900    -0.2020 C.2   1 <1>   0.5690 
  3 N        0.4320    -2.6670    -0.4310 N.am  1 <1>  -0.6600 
  4 C       -1.4470    -2.3000     1.1190 C.3   1 <1>   0.3500 
  5 C        0.7510    -3.9460     0.3240 C.3   1 <1>   0.1400 
  6 C        1.3070    -2.3490    -1.5900 C.3   1 <1>   0.1400 
  7 N       -1.6650    -3.7760     1.0880 N.pl3 1 <1>  -0.8380 
  8 C       -2.7410    -1.5320     1.4320 C.3   1 <1>  -0.2400 
  9 C       -0.3390    -4.4390     1.3330 C.3   1 <1>   0.2090 
 10 C        2.6330    -1.7840    -1.0880 C.3   1 <1>  -0.2400 
 11 C       -2.5680    -4.4070     0.2950 C.ar  1 <1>   0.7710 
 12 N       -2.8470    -5.6750     0.5530 N.ar  1 <1>  -0.6200 
 13 N       -3.1150    -3.7530    -0.7570 N.ar  1 <1>  -0.1790 
 14 C       -3.7190    -6.2830    -0.2180 C.ar  1 <1>   0.4100 
 15 C       -4.0170    -4.3510    -1.5700 C.ar  1 <1>   0.2110 
 16 N       -3.9690    -7.5580     0.1110 N.pl3 1 <1>  -0.8690 
 17 C       -4.3400    -5.6390    -1.3040 C.ar  1 <1>  -0.1500 
 18 C       -4.8210    -8.5680    -0.5450 C.3   1 <1>   0.2090 
 19 C       -4.1790    -9.9320    -0.3370 C.3   1 <1>  -0.2400 
 20 H       -0.7560    -2.0670     1.9130 H     1 <1>   0.0800 
 21 H        1.6800    -3.8220     0.8540 H     1 <1>   0.0800 
 22 H        0.9070    -4.7310    -0.3960 H     1 <1>   0.0800 
 23 H        0.8310    -1.6180    -2.2240 H     1 <1>   0.0800 
 24 H        1.4780    -3.2360    -2.1760 H     1 <1>   0.0800 
 25 H       -3.4700    -1.5890     0.6480 H     1 <1>   0.0800 
 26 H       -2.5030    -0.4920     1.5710 H     1 <1>   0.0800 
 27 H       -3.1700    -1.8980     2.3480 H     1 <1>   0.0800 
 28 H       -0.0170    -4.2170     2.3370 H     1 <1>   0.0800 
 29 H       -0.4230    -5.5110     1.2690 H     1 <1>   0.0800 
 30 H        2.4620    -0.9040    -0.4940 H     1 <1>   0.0800 
 31 H        3.2470    -1.5100    -1.9270 H     1 <1>   0.0800 
 32 H        3.1670    -2.5140    -0.5060 H     1 <1>   0.0800 
 33 H       -2.7590    -2.8080    -0.9400 H     1 <1>   0.4570 
 34 H       -4.4380    -3.7920    -2.3900 H     1 <1>   0.1500 
 35 H       -3.5000    -7.8980     0.9570 H     1 <1>   0.4000 
 36 H       -5.0530    -6.1760    -1.9000 H     1 <1>   0.1500 
 37 H       -4.9050    -8.3670    -1.5990 H     1 <1>   0.0800 
 38 H       -5.8040    -8.5520    -0.1040 H     1 <1>   0.0800 
 39 H       -3.1950    -9.9520    -0.7680 H     1 <1>   0.0800 
 40 H       -4.7750   -10.6890    -0.8150 H     1 <1>   0.0800 
 41 H       -4.1180   -10.1630     0.7120 H     1 <1>   0.0800 
@<TRIPOS>BOND
  1   1   2  2   
  2   2   3  am  
  3   2   4  1   
  4   3   5  1   
  5   3   6  1   
  6   4   7  1   
  7   4   8  1   
  8   4  20  1   
  9   5   9  1   
 10   5  21  1   
 11   5  22  1   
 12   6  10  1   
 13   6  23  1   
 14   6  24  1   
 15   7   9  1   
 16   7  11  1   
 17   8  25  1   
 18   8  26  1   
 19   8  27  1   
 20   9  28  1   
 21   9  29  1   
 22  10  30  1   
 23  10  31  1   
 24  10  32  1   
 25  11  12  ar  
 26  11  13  ar  
 27  12  14  ar  
 28  13  15  ar  
 29  13  33  1   
 30  14  16  1   
 31  14  17  ar  
 32  15  17  ar  
 33  15  34  1   
 34  16  18  1   
 35  16  35  1   
 36  17  36  1   
 37  18  19  1   
 38  18  37  1   
 39  18  38  1   
 40  19  39  1   
 41  19  40  1   
 42  19  41  1   
@<TRIPOS>SUBSTRUCTURE
  1 ****  11 GROUP 4 **** **** 0

# MOE 2024.06 (io_trps.svl 2023.06)
