@<TRIPOS>MOLECULE
NONAME
55 58 1 0 0 
SMALL
USER_CHARGES


@<TRIPOS>ATOM
  1 O       -0.1280     0.8790     0.6220 O.2   1 <1>  -0.5700 
  2 C        0.6620     1.7520     0.3270 C.2   1 <1>   0.6900 
  3 N        0.3910     2.7520    -0.5620 N.am  1 <1>  -0.4200 
  4 N        1.9210     1.8580     0.8360 N.am  1 <1>  -0.6600 
  5 C        1.4750     3.5690    -0.6790 C.2   1 <1>   0.5690 
  6 C       -0.8940     2.9000    -1.2810 C.3   1 <1>   0.0600 
  7 C        2.5950     3.0540     0.2480 C.3   1 <1>   0.3610 
  8 C        2.5320     0.9460     1.8410 C.3   1 <1>   0.0600 
  9 O        1.5370     4.5360    -1.4030 O.2   1 <1>  -0.5700 
 10 C        2.9390     4.0620     1.3600 C.3   1 <1>  -0.1600 
 11 C        3.8430     2.6160    -0.5410 C.3   1 <1>  -0.1600 
 12 C        3.7720     5.2240     0.8190 C.3   1 <1>   0.2090 
 13 C        4.6390     3.8250    -1.0300 C.3   1 <1>   0.2090 
 14 N        4.9700     4.6620     0.1440 N.pl3 1 <1>  -0.8380 
 15 C        6.1200     5.4290     0.0900 C.ar  1 <1>   0.4100 
 16 N        6.0030     6.7240     0.1200 N.ar  1 <1>  -0.6200 
 17 C        7.3640     4.7800     0.0030 C.ar  1 <1>  -0.1500 
 18 C        7.1320     7.4800     0.0470 C.ar  1 <1>   0.3100 
 19 C        8.5200     5.4900    -0.0760 C.ar  1 <1>  -0.1440 
 20 C        7.0300     8.9000     0.0750 C.ar  1 <1>   0.0820 
 21 C        8.4220     6.9010    -0.0600 C.ar  1 <1>   0.0000 
 22 C        9.8630     4.7790    -0.1710 C.3   1 <1>  -0.0970 
 23 O        5.7800     9.4400     0.1840 O.3   1 <1>  -0.3630 
 24 C        8.1540     9.6930    -0.0060 C.ar  1 <1>  -0.1500 
 25 C        9.5420     7.7490    -0.1420 C.ar  1 <1>  -0.1500 
 26 C        5.5320    10.8250     0.1090 C.3   1 <1>   0.0400 
 27 C        9.4240     9.1120    -0.1180 C.ar  1 <1>   0.0820 
 28 O       10.5710     9.8340    -0.2040 O.3   1 <1>  -0.3620 
 29 C       10.5640    11.2440    -0.1860 C.3   1 <1>   0.0400 
 30 H       -1.0670     2.0300    -1.8890 H     1 <1>   0.0800 
 31 H       -0.8700     3.7740    -1.9090 H     1 <1>   0.0800 
 32 H       -1.6940     2.9960    -0.5690 H     1 <1>   0.0800 
 33 H        1.8360     0.1650     2.0960 H     1 <1>   0.0800 
 34 H        2.7780     1.4900     2.7350 H     1 <1>   0.0800 
 35 H        3.4210     0.4940     1.4390 H     1 <1>   0.0800 
 36 H        3.5180     3.5840     2.1270 H     1 <1>   0.0800 
 37 H        2.0390     4.4470     1.8010 H     1 <1>   0.0800 
 38 H        3.5520     2.0160    -1.3840 H     1 <1>   0.0800 
 39 H        4.4910     2.0330     0.0870 H     1 <1>   0.0800 
 40 H        4.0760     5.8630     1.6330 H     1 <1>   0.0800 
 41 H        3.2090     5.8190     0.1190 H     1 <1>   0.0800 
 42 H        4.0660     4.4070    -1.7330 H     1 <1>   0.0800 
 43 H        5.5380     3.4990    -1.5240 H     1 <1>   0.0800 
 44 H        7.3580     3.7090     0.0090 H     1 <1>   0.1500 
 45 H        9.7320     3.7110    -0.1600 H     1 <1>   0.0800 
 46 H       10.4840     5.0510     0.6640 H     1 <1>   0.0800 
 47 H       10.3600     5.0500    -1.0840 H     1 <1>   0.0800 
 48 H        8.0710    10.7580     0.0170 H     1 <1>   0.1500 
 49 H       10.5250     7.3280    -0.2270 H     1 <1>   0.1500 
 50 H        4.4690    10.9740     0.1720 H     1 <1>   0.0800 
 51 H        5.8980    11.1950    -0.8320 H     1 <1>   0.0800 
 52 H        6.0180    11.3120     0.9360 H     1 <1>   0.0800 
 53 H       11.5810    11.5830    -0.2660 H     1 <1>   0.0800 
 54 H       10.1400    11.5790     0.7440 H     1 <1>   0.0800 
 55 H        9.9930    11.6020    -1.0240 H     1 <1>   0.0800 
@<TRIPOS>BOND
  1   1   2  2   
  2   2   3  am  
  3   2   4  am  
  4   3   5  am  
  5   3   6  1   
  6   4   7  1   
  7   4   8  1   
  8   5   7  1   
  9   5   9  2   
 10   6  30  1   
 11   6  31  1   
 12   6  32  1   
 13   7  10  1   
 14   7  11  1   
 15   8  33  1   
 16   8  34  1   
 17   8  35  1   
 18  10  12  1   
 19  10  36  1   
 20  10  37  1   
 21  11  13  1   
 22  11  38  1   
 23  11  39  1   
 24  12  14  1   
 25  12  40  1   
 26  12  41  1   
 27  13  14  1   
 28  13  42  1   
 29  13  43  1   
 30  14  15  1   
 31  15  16  ar  
 32  15  17  ar  
 33  16  18  ar  
 34  17  19  ar  
 35  17  44  1   
 36  18  20  ar  
 37  18  21  ar  
 38  19  21  ar  
 39  19  22  1   
 40  20  23  1   
 41  20  24  ar  
 42  21  25  ar  
 43  22  45  1   
 44  22  46  1   
 45  22  47  1   
 46  23  26  1   
 47  24  27  ar  
 48  24  48  1   
 49  25  27  ar  
 50  25  49  1   
 51  26  50  1   
 52  26  51  1   
 53  26  52  1   
 54  27  28  1   
 55  28  29  1   
 56  29  53  1   
 57  29  54  1   
 58  29  55  1   
@<TRIPOS>SUBSTRUCTURE
  1 ****  14 GROUP 4 **** **** 0

# MOE 2024.06 (io_trps.svl 2023.06)
