@<TRIPOS>MOLECULE
NONAME
48 51 1 0 0 
SMALL
USER_CHARGES


@<TRIPOS>ATOM
  1 O       -0.9540    -4.3060     0.9670 O.2   1 <1>  -0.5700 
  2 C       -0.1780    -3.5200     0.4600 C.2   1 <1>   0.6300 
  3 N        0.1950    -3.6640    -0.8480 N.am  1 <1>  -0.6600 
  4 C        0.3950    -2.4020     1.3200 C.3   1 <1>  -0.1000 
  5 C       -0.3980    -4.7260    -1.6840 C.3   1 <1>   0.1400 
  6 C        1.4620    -3.1320    -1.4260 C.3   1 <1>   0.1400 
  7 C       -0.5040    -1.5380     2.1590 C.3   1 <1>  -0.2000 
  8 C        0.1810    -0.9580     0.9630 C.3   1 <1>  -0.2000 
  9 C        0.5440    -5.9280    -1.5770 C.3   1 <1>  -0.0800 
 10 C        2.4710    -4.2870    -1.5800 C.3   1 <1>  -0.1600 
 11 C        1.8740    -5.5440    -2.2530 C.3   1 <1>  -0.1600 
 12 C       -0.1060    -7.1940    -2.1470 C.3   1 <1>   0.2090 
 13 N       -0.6610    -8.0440    -1.0540 N.pl3 1 <1>  -0.8690 
 14 C       -1.8340    -7.9100    -0.3920 C.ar  1 <1>   0.7710 
 15 N       -2.0880    -6.7860     0.3490 N.ar  1 <1>  -0.1790 
 16 N       -2.6610    -8.9140    -0.4680 N.ar  1 <1>  -0.5670 
 17 C       -3.2240    -6.6140     1.0350 C.ar  1 <1>   0.4610 
 18 C       -3.8260    -8.7700     0.2130 C.ar  1 <1>   0.1050 
 19 N       -3.4120    -5.4900     1.7390 N.pl3 1 <1>  -0.9000 
 20 C       -4.1470    -7.6620     0.9590 C.ar  1 <1>   0.0000 
 21 N       -4.8760    -9.6230     0.3130 N.pl3 1 <1>   0.3140 
 22 C       -5.4210    -7.9510     1.4690 C.2   1 <1>   0.1390 
 23 N       -5.8570    -9.1050     1.0920 N.2   1 <1>  -0.7070 
 24 C       -5.0180   -10.9510    -0.3020 C.3   1 <1>   0.0160 
 25 H        1.3410    -2.6770     1.7490 H     1 <1>   0.1000 
 26 H       -0.4680    -4.3860    -2.7050 H     1 <1>   0.0800 
 27 H       -1.3940    -4.9530    -1.3530 H     1 <1>   0.0800 
 28 H        1.8820    -2.3610    -0.8040 H     1 <1>   0.0800 
 29 H        1.2520    -2.7000    -2.3910 H     1 <1>   0.0800 
 30 H       -0.1710    -1.2440     3.1390 H     1 <1>   0.1000 
 31 H       -1.5690    -1.6910     2.1150 H     1 <1>   0.1000 
 32 H       -0.4130    -0.7150     0.0990 H     1 <1>   0.1000 
 33 H        0.9850    -0.2590     1.1190 H     1 <1>   0.1000 
 34 H        0.7660    -6.1170    -0.5400 H     1 <1>   0.0800 
 35 H        2.8310    -4.5500    -0.6000 H     1 <1>   0.0800 
 36 H        3.3190    -3.9420    -2.1460 H     1 <1>   0.0800 
 37 H        1.7110    -5.3450    -3.2990 H     1 <1>   0.0800 
 38 H        2.5790    -6.3540    -2.1750 H     1 <1>   0.0800 
 39 H        0.6430    -7.7700    -2.6670 H     1 <1>   0.0800 
 40 H       -0.8760    -6.9490    -2.8600 H     1 <1>   0.0800 
 41 H       -0.4610    -9.0340    -1.2400 H     1 <1>   0.4000 
 42 H       -1.3660    -6.0640     0.4200 H     1 <1>   0.4570 
 43 H       -4.2490    -5.2880     2.2960 H     1 <1>   0.4000 
 44 H       -2.7100    -4.7290     1.7810 H     1 <1>   0.4000 
 45 H       -5.9810    -7.2860     2.1070 H     1 <1>   0.1500 
 46 H       -4.1670   -11.1600    -0.9220 H     1 <1>   0.0800 
 47 H       -5.9130   -10.9660    -0.8960 H     1 <1>   0.0800 
 48 H       -5.0930   -11.6890     0.4750 H     1 <1>   0.0800 
@<TRIPOS>BOND
  1   1   2  2   
  2   2   3  am  
  3   2   4  1   
  4   3   5  1   
  5   3   6  1   
  6   4   7  1   
  7   4   8  1   
  8   4  25  1   
  9   5   9  1   
 10   5  26  1   
 11   5  27  1   
 12   6  10  1   
 13   6  28  1   
 14   6  29  1   
 15   7   8  1   
 16   7  30  1   
 17   7  31  1   
 18   8  32  1   
 19   8  33  1   
 20   9  11  1   
 21   9  12  1   
 22   9  34  1   
 23  10  11  1   
 24  10  35  1   
 25  10  36  1   
 26  11  37  1   
 27  11  38  1   
 28  12  13  1   
 29  12  39  1   
 30  12  40  1   
 31  13  14  1   
 32  13  41  1   
 33  14  15  ar  
 34  14  16  ar  
 35  15  17  ar  
 36  15  42  1   
 37  16  18  ar  
 38  17  19  1   
 39  17  20  ar  
 40  18  20  ar  
 41  18  21  1   
 42  19  43  1   
 43  19  44  1   
 44  20  22  1   
 45  21  23  1   
 46  21  24  1   
 47  22  23  2   
 48  22  45  1   
 49  24  46  1   
 50  24  47  1   
 51  24  48  1   
@<TRIPOS>SUBSTRUCTURE
  1 ****  15 GROUP 4 **** **** 0

# MOE 2024.06 (io_trps.svl 2023.06)
