@<TRIPOS>MOLECULE
NONAME
47 49 1 0 0 
SMALL
USER_CHARGES


@<TRIPOS>ATOM
  1 S       -0.1650    -0.2400    -0.4520 S.o2  1 <1>   1.0900 
  2 O       -1.4890     0.3220    -0.5690 O.2   1 <1>  -0.6500 
  3 O        0.7680    -0.1240    -1.5460 O.2   1 <1>  -0.6500 
  4 C       -0.3460    -1.9820    -0.0780 C.3   1 <1>  -0.0550 
  5 C        0.6090     0.4490     0.9990 C.3   1 <1>  -0.1350 
  6 C       -1.3330    -2.2680     1.0640 C.3   1 <1>  -0.0990 
  7 C       -1.5500    -3.7590     1.1980 C.2   1 <1>   0.5690 
  8 O       -0.8110    -4.3620     1.9370 O.2   1 <1>  -0.5700 
  9 N       -2.5220    -4.3940     0.4770 N.am  1 <1>  -0.6600 
 10 C       -3.4780    -3.7870    -0.4890 C.3   1 <1>   0.1400 
 11 C       -2.7050    -5.8660     0.5250 C.3   1 <1>   0.1400 
 12 C       -4.5180    -4.8800    -0.7300 C.3   1 <1>   0.2000 
 13 C       -3.7190    -6.1810    -0.5830 C.3   1 <1>  -0.0800 
 14 O       -5.4680    -4.7990     0.2780 O.3   1 <1>  -0.6800 
 15 C       -4.5780    -7.4360    -0.3150 C.3   1 <1>  -0.0170 
 16 C       -3.8460    -8.7840    -0.3090 C.ar  1 <1>  -0.1430 
 17 C       -4.5300    -9.9500     0.1190 C.ar  1 <1>   0.0000 
 18 C       -2.5490    -8.9430    -0.7100 C.ar  1 <1>  -0.1500 
 19 C       -3.8190   -11.1760     0.1250 C.ar  1 <1>   0.3100 
 20 C       -5.8830    -9.9740     0.5360 C.ar  1 <1>  -0.1500 
 21 C       -1.9400   -10.2030    -0.6690 C.ar  1 <1>   0.1600 
 22 N       -2.5270   -11.2850    -0.2700 N.ar  1 <1>  -0.6200 
 23 C       -4.4730   -12.3420     0.5540 C.ar  1 <1>  -0.1500 
 24 C       -6.4910   -11.1300     0.9460 C.ar  1 <1>  -0.1500 
 25 C       -5.7790   -12.3300     0.9580 C.ar  1 <1>  -0.1500 
 26 H       -0.6970    -2.4810    -0.9610 H     1 <1>   0.0800 
 27 H        0.6100    -2.4060     0.1670 H     1 <1>   0.0800 
 28 H       -0.0240     0.3380     1.8580 H     1 <1>   0.0800 
 29 H        0.7920     1.4960     0.8510 H     1 <1>   0.0800 
 30 H        1.5480    -0.0330     1.1920 H     1 <1>   0.0800 
 31 H       -0.9380    -1.8990     1.9930 H     1 <1>   0.0800 
 32 H       -2.2690    -1.7720     0.8890 H     1 <1>   0.0800 
 33 H       -3.9360    -2.8910    -0.1060 H     1 <1>   0.0800 
 34 H       -2.9610    -3.5680    -1.4060 H     1 <1>   0.0800 
 35 H       -1.7660    -6.3690     0.3690 H     1 <1>   0.0800 
 36 H       -3.0920    -6.1400     1.4920 H     1 <1>   0.0800 
 37 H       -5.0180    -4.7870    -1.6790 H     1 <1>   0.0800 
 38 H       -3.1810    -6.3190    -1.5040 H     1 <1>   0.0800 
 39 H       -5.0120    -4.7410     1.1410 H     1 <1>   0.4000 
 40 H       -5.3540    -7.4820    -1.0600 H     1 <1>   0.0800 
 41 H       -5.0580    -7.3130     0.6400 H     1 <1>   0.0800 
 42 H       -1.9450    -8.1340    -1.0700 H     1 <1>   0.1500 
 43 H       -6.4570    -9.0670     0.5310 H     1 <1>   0.1500 
 44 H       -0.9150   -10.2760    -0.9900 H     1 <1>   0.1500 
 45 H       -3.9040   -13.2540     0.5520 H     1 <1>   0.1500 
 46 H       -7.5210   -11.1290     1.2620 H     1 <1>   0.1500 
 47 H       -6.2670   -13.2330     1.2840 H     1 <1>   0.1500 
@<TRIPOS>BOND
  1   1   2  2   
  2   1   3  2   
  3   1   4  1   
  4   1   5  1   
  5   4   6  1   
  6   4  26  1   
  7   4  27  1   
  8   5  28  1   
  9   5  29  1   
 10   5  30  1   
 11   6   7  1   
 12   6  31  1   
 13   6  32  1   
 14   7   8  2   
 15   7   9  am  
 16   9  10  1   
 17   9  11  1   
 18  10  12  1   
 19  10  33  1   
 20  10  34  1   
 21  11  13  1   
 22  11  35  1   
 23  11  36  1   
 24  12  13  1   
 25  12  14  1   
 26  12  37  1   
 27  13  15  1   
 28  13  38  1   
 29  14  39  1   
 30  15  16  1   
 31  15  40  1   
 32  15  41  1   
 33  16  17  ar  
 34  16  18  ar  
 35  17  19  ar  
 36  17  20  ar  
 37  18  21  ar  
 38  18  42  1   
 39  19  22  ar  
 40  19  23  ar  
 41  20  24  ar  
 42  20  43  1   
 43  21  22  ar  
 44  21  44  1   
 45  23  25  ar  
 46  23  45  1   
 47  24  25  ar  
 48  24  46  1   
 49  25  47  1   
@<TRIPOS>SUBSTRUCTURE
  1 ****  11 GROUP 4 **** **** 0

# MOE 2024.06 (io_trps.svl 2023.06)
