@<TRIPOS>MOLECULE
NONAME
47 49 1 0 0 
SMALL
USER_CHARGES


@<TRIPOS>ATOM
  1 O        0.4390     1.4720    -1.7710 O.2   1 <1>  -0.5700 
  2 C        0.0990     2.6000    -1.5200 C.2   1 <1>   0.5690 
  3 N       -0.6180     2.8770    -0.4110 N.am  1 <1>  -0.7300 
  4 C        0.4400     3.7410    -2.4770 C.3   1 <1>   0.1810 
  5 C       -1.1700     4.2200    -0.0960 C.3   1 <1>   0.3640 
  6 O        0.4370     4.9910    -1.8280 O.3   1 <1>  -0.5600 
  7 C       -2.6890     4.0850     0.0120 C.ar  1 <1>  -0.1440 
  8 C       -0.7710     5.3080    -1.1350 C.3   1 <1>   0.2610 
  9 C       -3.4220     3.3740    -0.9320 C.ar  1 <1>  -0.1500 
 10 C       -3.3620     4.6830     1.0680 C.ar  1 <1>  -0.1500 
 11 C       -0.6300     6.6660    -0.4340 C.2   1 <1>   0.5690 
 12 C       -4.7960     3.2610    -0.8190 C.ar  1 <1>  -0.1500 
 13 C       -4.7370     4.5720     1.1820 C.ar  1 <1>  -0.1500 
 14 O       -1.5290     7.0710     0.2660 O.2   1 <1>  -0.5700 
 15 N        0.5250     7.3630    -0.6100 N.am  1 <1>  -0.7300 
 16 C       -5.4560     3.8600     0.2390 C.ar  1 <1>  -0.1500 
 17 C        0.9820     8.6140     0.0220 C.3   1 <1>   0.3000 
 18 C        1.1540     8.3770     1.5250 C.3   1 <1>  -0.1600 
 19 C        2.4310     8.8160    -0.4320 C.3   1 <1>  -0.1600 
 20 C        0.0180     9.7570    -0.3710 C.3   1 <1>  -0.1600 
 21 C        2.4470     7.5630     1.6720 C.3   1 <1>  -0.1600 
 22 C        3.2690     7.8420     0.4060 C.3   1 <1>  -0.1600 
 23 C        0.4110    11.1820     0.0610 C.3   1 <1>  -0.2400 
 24 H       -0.9070     2.1060     0.1910 H     1 <1>   0.3700 
 25 H       -0.2730     3.7680    -3.2800 H     1 <1>   0.0800 
 26 H        1.4220     3.5830    -2.8840 H     1 <1>   0.0800 
 27 H       -0.7800     4.5120     0.8650 H     1 <1>   0.0800 
 28 H       -1.5490     5.3990    -1.8710 H     1 <1>   0.0800 
 29 H       -2.9290     2.8980    -1.7630 H     1 <1>   0.1500 
 30 H       -2.8220     5.2510     1.8070 H     1 <1>   0.1500 
 31 H       -5.3540     2.7070    -1.5540 H     1 <1>   0.1500 
 32 H       -5.2470     5.0440     2.0040 H     1 <1>   0.1500 
 33 H        1.2420     6.8980    -1.1720 H     1 <1>   0.3700 
 34 H       -6.5240     3.7730     0.3280 H     1 <1>   0.1500 
 35 H        1.2930     9.3180     2.0230 H     1 <1>   0.0800 
 36 H        0.3050     7.8870     1.9660 H     1 <1>   0.0800 
 37 H        2.5550     8.6700    -1.4900 H     1 <1>   0.0800 
 38 H        2.7530     9.8110    -0.1890 H     1 <1>   0.0800 
 39 H       -0.0930     9.7530    -1.4410 H     1 <1>   0.0800 
 40 H       -0.9470     9.5460     0.0550 H     1 <1>   0.0800 
 41 H        2.9810     7.8450     2.5630 H     1 <1>   0.0800 
 42 H        2.2100     6.5130     1.7240 H     1 <1>   0.0800 
 43 H        3.4210     6.9240    -0.1350 H     1 <1>   0.0800 
 44 H        4.2290     8.2670     0.6460 H     1 <1>   0.0800 
 45 H        1.3150    11.5010    -0.4230 H     1 <1>   0.0800 
 46 H        0.5390    11.2440     1.1270 H     1 <1>   0.0800 
 47 H       -0.3700    11.8660    -0.2190 H     1 <1>   0.0800 
@<TRIPOS>BOND
  1   1   2  2   
  2   2   3  am  
  3   2   4  1   
  4   3   5  1   
  5   3  24  1   
  6   4   6  1   
  7   4  25  1   
  8   4  26  1   
  9   5   7  1   
 10   5   8  1   
 11   5  27  1   
 12   6   8  1   
 13   7   9  ar  
 14   7  10  ar  
 15   8  11  1   
 16   8  28  1   
 17   9  12  ar  
 18   9  29  1   
 19  10  13  ar  
 20  10  30  1   
 21  11  14  2   
 22  11  15  am  
 23  12  16  ar  
 24  12  31  1   
 25  13  16  ar  
 26  13  32  1   
 27  15  17  1   
 28  15  33  1   
 29  16  34  1   
 30  17  18  1   
 31  17  19  1   
 32  17  20  1   
 33  18  21  1   
 34  18  35  1   
 35  18  36  1   
 36  19  22  1   
 37  19  37  1   
 38  19  38  1   
 39  20  23  1   
 40  20  39  1   
 41  20  40  1   
 42  21  22  1   
 43  21  41  1   
 44  21  42  1   
 45  22  43  1   
 46  22  44  1   
 47  23  45  1   
 48  23  46  1   
 49  23  47  1   
@<TRIPOS>SUBSTRUCTURE
  1 ****  11 GROUP 4 **** **** 0

# MOE 2024.06 (io_trps.svl 2023.06)
