@<TRIPOS>MOLECULE
NONAME
56 59 1 0 0 
SMALL
USER_CHARGES


@<TRIPOS>ATOM
  1 O       -0.3890    -0.9110    -0.9370 O.3   1 <1>  -0.5600 
  2 C        0.6850    -1.0170    -0.0440 C.3   1 <1>   0.1200 
  3 C       -1.6480    -1.1350    -0.3560 C.3   1 <1>   0.1200 
  4 C        0.7700    -2.4430     0.5490 C.3   1 <1>   0.3430 
  5 C       -1.6990    -2.4910     0.3850 C.3   1 <1>   0.3430 
  6 N       -0.4290    -3.2700     0.1790 N.4   1 <1>  -0.9590 
  7 C       -0.4360    -4.6200     0.8100 C.3   1 <1>   0.4860 
  8 C       -1.6520    -5.3870     0.3400 C.ar  1 <1>  -0.1430 
  9 C       -1.6990    -5.9050    -0.9440 C.ar  1 <1>   0.1600 
 10 C       -2.7400    -5.5800     1.1740 C.ar  1 <1>  -0.1500 
 11 N       -2.7230    -6.5550    -1.4580 N.ar  1 <1>  -0.6200 
 12 C       -3.8080    -6.2670     0.6490 C.ar  1 <1>  -0.1500 
 13 C       -3.7670    -6.7300    -0.6640 C.ar  1 <1>   0.4100 
 14 N       -4.8260    -7.4150    -1.2100 N.pl3 1 <1>  -0.8380 
 15 C       -6.1590    -6.7590    -1.2540 C.3   1 <1>   0.2090 
 16 C       -5.0000    -8.8300    -0.7960 C.3   1 <1>   0.2090 
 17 C       -7.1210    -7.6960    -0.5150 C.3   1 <1>   0.2000 
 18 C       -6.5090    -9.0780    -0.7460 C.3   1 <1>  -0.0800 
 19 O       -7.1140    -7.4110     0.8600 O.3   1 <1>  -0.5600 
 20 C       -6.9210   -10.1480     0.2800 C.3   1 <1>   0.0200 
 21 C       -8.0280    -6.4410     1.2640 C.3   1 <1>   0.0400 
 22 C       -6.3080   -11.4930    -0.0540 C.2   1 <1>  -0.0400 
 23 O       -6.6270   -12.1030    -1.1650 O.3   1 <1>  -0.0190 
 24 C       -5.4270   -12.2640     0.6010 C.2   1 <1>  -0.1500 
 25 N       -6.0050   -13.2390    -1.2900 N.2   1 <1>  -0.4100 
 26 C       -5.2750   -13.3630    -0.2400 C.2   1 <1>   0.1080 
 27 C       -4.3740   -14.5460     0.0340 C.3   1 <1>  -0.0590 
 28 H        1.5870    -0.7830    -0.5820 H     1 <1>   0.0800 
 29 H        0.5590    -0.2840     0.7350 H     1 <1>   0.0800 
 30 H       -1.8680    -0.3240     0.3170 H     1 <1>   0.0800 
 31 H       -2.3780    -1.1200    -1.1480 H     1 <1>   0.0800 
 32 H        0.8550    -2.3680     1.6210 H     1 <1>   0.0800 
 33 H        1.6670    -2.9170     0.1860 H     1 <1>   0.0800 
 34 H       -2.5450    -3.0530     0.0220 H     1 <1>   0.0800 
 35 H       -1.8560    -2.3120     1.4350 H     1 <1>   0.0800 
 36 H       -0.3750    -3.3850    -0.8440 H     1 <1>   0.4500 
 37 H        0.4560    -5.1610     0.5380 H     1 <1>   0.0800 
 38 H       -0.4620    -4.5270     1.8830 H     1 <1>   0.0800 
 39 H       -0.8540    -5.7830    -1.6000 H     1 <1>   0.1500 
 40 H       -2.7670    -5.2210     2.1890 H     1 <1>   0.1500 
 41 H       -4.6860    -6.4640     1.2370 H     1 <1>   0.1500 
 42 H       -6.1380    -5.7770    -0.8170 H     1 <1>   0.0800 
 43 H       -6.4550    -6.6770    -2.2850 H     1 <1>   0.0800 
 44 H       -4.5220    -9.4880    -1.5020 H     1 <1>   0.0800 
 45 H       -4.5610    -8.9780     0.1760 H     1 <1>   0.0800 
 46 H       -8.1290    -7.6370    -0.8900 H     1 <1>   0.0800 
 47 H       -6.8070    -9.4080    -1.7260 H     1 <1>   0.0800 
 48 H       -7.9920   -10.2450     0.2920 H     1 <1>   0.0800 
 49 H       -6.6040    -9.8570     1.2660 H     1 <1>   0.0800 
 50 H       -7.9180    -6.3000     2.3250 H     1 <1>   0.0800 
 51 H       -9.0260    -6.7820     1.0480 H     1 <1>   0.0800 
 52 H       -7.8250    -5.5160     0.7530 H     1 <1>   0.0800 
 53 H       -4.9380   -12.1050     1.5440 H     1 <1>   0.1500 
 54 H       -3.3660   -14.2090     0.1930 H     1 <1>   0.0800 
 55 H       -4.3880   -15.2200    -0.8040 H     1 <1>   0.0800 
 56 H       -4.7160   -15.0690     0.9080 H     1 <1>   0.0800 
@<TRIPOS>BOND
  1   1   2  1   
  2   1   3  1   
  3   2   4  1   
  4   2  28  1   
  5   2  29  1   
  6   3   5  1   
  7   3  30  1   
  8   3  31  1   
  9   4   6  1   
 10   4  32  1   
 11   4  33  1   
 12   5   6  1   
 13   5  34  1   
 14   5  35  1   
 15   6   7  1   
 16   6  36  1   
 17   7   8  1   
 18   7  37  1   
 19   7  38  1   
 20   8   9  ar  
 21   8  10  ar  
 22   9  11  ar  
 23   9  39  1   
 24  10  12  ar  
 25  10  40  1   
 26  11  13  ar  
 27  12  13  ar  
 28  12  41  1   
 29  13  14  1   
 30  14  15  1   
 31  14  16  1   
 32  15  17  1   
 33  15  42  1   
 34  15  43  1   
 35  16  18  1   
 36  16  44  1   
 37  16  45  1   
 38  17  18  1   
 39  17  19  1   
 40  17  46  1   
 41  18  20  1   
 42  18  47  1   
 43  19  21  1   
 44  20  22  1   
 45  20  48  1   
 46  20  49  1   
 47  21  50  1   
 48  21  51  1   
 49  21  52  1   
 50  22  23  1   
 51  22  24  2   
 52  23  25  1   
 53  24  26  1   
 54  24  53  1   
 55  25  26  2   
 56  26  27  1   
 57  27  54  1   
 58  27  55  1   
 59  27  56  1   
@<TRIPOS>SUBSTRUCTURE
  1 ****  13 GROUP 4 **** **** 0

# MOE 2024.06 (io_trps.svl 2023.06)
