@<TRIPOS>MOLECULE
NONAME
57 61 1 0 0 
SMALL
USER_CHARGES


@<TRIPOS>ATOM
  1 O        0.6960    -1.2550     1.5620 O.3   1 <1>  -0.3630 
  2 C        0.2740    -2.2320     0.7540 C.ar  1 <1>   0.0830 
  3 C        1.7830    -0.6150     0.8930 C.3   1 <1>   0.4000 
  4 C        0.9990    -2.2380    -0.3980 C.ar  1 <1>   0.0830 
  5 C       -0.7390    -3.1400     0.9710 C.ar  1 <1>  -0.1500 
  6 O        1.9170    -1.2670    -0.3680 O.3   1 <1>  -0.3630 
  7 C        0.7510    -3.1570    -1.3960 C.ar  1 <1>  -0.1500 
  8 C       -1.0210    -4.0690    -0.0290 C.ar  1 <1>  -0.1440 
  9 C       -0.2680    -4.0870    -1.2100 C.ar  1 <1>  -0.1430 
 10 C       -2.1690    -5.0330     0.2120 C.3   1 <1>   0.4870 
 11 C       -0.5110    -5.1010    -2.3210 C.3   1 <1>  -0.0960 
 12 N       -3.3610    -4.5970    -0.5750 N.4   1 <1>  -0.9590 
 13 C       -3.7680    -3.1620    -0.3220 C.3   1 <1>   0.3430 
 14 C       -4.5220    -5.5170    -0.4010 C.3   1 <1>   0.3430 
 15 C       -4.7890    -2.9470     0.8230 C.3   1 <1>   0.1430 
 16 C       -5.0240    -5.5110     1.0520 C.3   1 <1>  -0.1600 
 17 C       -6.1150    -2.6180     0.1600 C.ar  1 <1>   0.1670 
 18 C       -4.8760    -4.1580     1.7810 C.3   1 <1>  -0.1600 
 19 C       -4.4800    -1.6450     1.6100 C.3   1 <1>  -0.1600 
 20 N       -6.8710    -3.4740    -0.4790 N.ar  1 <1>  -0.6200 
 21 C       -6.4160    -1.2940     0.2650 C.ar  1 <1>  -0.1430 
 22 C       -5.3630    -0.5280     1.0230 C.3   1 <1>  -0.0170 
 23 C       -7.9820    -2.9610    -1.0150 C.ar  1 <1>   0.7200 
 24 C       -7.5770    -0.8550    -0.3210 C.ar  1 <1>   0.1600 
 25 N       -8.3630    -1.6830    -0.9680 N.ar  1 <1>  -0.6200 
 26 N       -8.8000    -3.8400    -1.6890 N.pl3 1 <1>  -0.8380 
 27 C       -9.8100    -3.3500    -2.6680 C.3   1 <1>   0.1290 
 28 C       -9.0250    -5.2260    -1.1990 C.3   1 <1>   0.1290 
 29 H        2.6860    -0.7450     1.4640 H     1 <1>   0.0800 
 30 H        1.5550     0.4260     0.7410 H     1 <1>   0.0800 
 31 H       -1.2800    -3.1030     1.9000 H     1 <1>   0.1500 
 32 H        1.3500    -3.1340    -2.2890 H     1 <1>   0.1500 
 33 H       -2.4040    -5.0530     1.2630 H     1 <1>   0.0800 
 34 H       -1.8730    -6.0260    -0.0820 H     1 <1>   0.0800 
 35 H        0.3440    -5.1540    -2.9730 H     1 <1>   0.0800 
 36 H       -1.3600    -4.8140    -2.9140 H     1 <1>   0.0800 
 37 H       -0.6680    -6.0860    -1.9200 H     1 <1>   0.0800 
 38 H       -3.0680    -4.6340    -1.5580 H     1 <1>   0.4500 
 39 H       -4.2130    -2.7690    -1.2230 H     1 <1>   0.0800 
 40 H       -2.8930    -2.5660    -0.1300 H     1 <1>   0.0800 
 41 H       -4.2590    -6.5210    -0.6920 H     1 <1>   0.0800 
 42 H       -5.3240    -5.1900    -1.0440 H     1 <1>   0.0800 
 43 H       -4.5240    -6.2810     1.6140 H     1 <1>   0.0800 
 44 H       -6.0660    -5.7800     1.0290 H     1 <1>   0.0800 
 45 H       -5.7080    -4.0270     2.4540 H     1 <1>   0.0800 
 46 H       -3.9860    -4.1830     2.3840 H     1 <1>   0.0800 
 47 H       -3.4380    -1.3770     1.5850 H     1 <1>   0.0800 
 48 H       -4.7640    -1.7720     2.6410 H     1 <1>   0.0800 
 49 H       -4.8040     0.0930     0.3450 H     1 <1>   0.0800 
 50 H       -5.7990     0.0810     1.7980 H     1 <1>   0.0800 
 51 H       -7.8620     0.1820    -0.2650 H     1 <1>   0.1500 
 52 H       -9.4420    -2.4770    -3.1790 H     1 <1>   0.0800 
 53 H      -10.7190    -3.0930    -2.1520 H     1 <1>   0.0800 
 54 H      -10.0170    -4.1110    -3.3990 H     1 <1>   0.0800 
 55 H       -8.5120    -5.3930    -0.2680 H     1 <1>   0.0800 
 56 H       -8.6660    -5.9290    -1.9290 H     1 <1>   0.0800 
 57 H      -10.0760    -5.3910    -1.0380 H     1 <1>   0.0800 
@<TRIPOS>BOND
  1   1   2  1   
  2   1   3  1   
  3   2   4  ar  
  4   2   5  ar  
  5   3   6  1   
  6   3  29  1   
  7   3  30  1   
  8   4   6  1   
  9   4   7  ar  
 10   5   8  ar  
 11   5  31  1   
 12   7   9  ar  
 13   7  32  1   
 14   8   9  ar  
 15   8  10  1   
 16   9  11  1   
 17  10  12  1   
 18  10  33  1   
 19  10  34  1   
 20  11  35  1   
 21  11  36  1   
 22  11  37  1   
 23  12  13  1   
 24  12  14  1   
 25  12  38  1   
 26  13  15  1   
 27  13  39  1   
 28  13  40  1   
 29  14  16  1   
 30  14  41  1   
 31  14  42  1   
 32  15  17  1   
 33  15  18  1   
 34  15  19  1   
 35  16  18  1   
 36  16  43  1   
 37  16  44  1   
 38  17  20  ar  
 39  17  21  ar  
 40  18  45  1   
 41  18  46  1   
 42  19  22  1   
 43  19  47  1   
 44  19  48  1   
 45  20  23  ar  
 46  21  22  1   
 47  21  24  ar  
 48  22  49  1   
 49  22  50  1   
 50  23  25  ar  
 51  23  26  1   
 52  24  25  ar  
 53  24  51  1   
 54  26  27  1   
 55  26  28  1   
 56  27  52  1   
 57  27  53  1   
 58  27  54  1   
 59  28  55  1   
 60  28  56  1   
 61  28  57  1   
@<TRIPOS>SUBSTRUCTURE
  1 ****  13 GROUP 4 **** **** 0

# MOE 2024.06 (io_trps.svl 2023.06)
