@<TRIPOS>MOLECULE
Untitled Document
28 30 1 0 0 
SMALL
USER_CHARGES


@<TRIPOS>ATOM
  1 O       -1.3740    -0.1400    -1.5970 O.2   1 <1>  -0.5700 
  2 C       -2.4250     0.2930    -1.1510 C.2   1 <1>   0.7670 
  3 N       -3.2260    -0.5470    -0.4360 N.2   1 <1>  -0.6610 
  4 C       -2.7900     1.6510    -1.3890 C.2   1 <1>  -0.1360 
  5 C       -4.3130    -0.0280     0.0070 C.2   1 <1>   0.6500 
  6 C       -3.9490     2.1370    -0.8940 C.2   1 <1>  -0.0500 
  7 O       -5.1990    -0.7250     0.7060 O.3   1 <1>  -0.4300 
  8 N       -4.7100     1.2570    -0.1730 N.pl3 1 <1>  -0.5190 
  9 C       -6.3130     0.0800     1.0480 C.3   1 <1>   0.2000 
 10 C       -5.9950     1.4600     0.4710 C.3   1 <1>   0.5690 
 11 C       -7.5490    -0.3480     0.2750 C.3   1 <1>   0.2000 
 12 O       -6.9220     1.7390    -0.5280 O.3   1 <1>  -0.5600 
 13 O       -8.4930    -0.9860     1.0930 O.3   1 <1>  -0.6800 
 14 C       -8.0590     0.9780    -0.3260 C.3   1 <1>   0.5260 
 15 N       -8.8330     1.7280     0.6710 N.2   1 <1>  -0.5640 
 16 C       -8.7620     0.7330    -1.6890 C.3   1 <1>   0.1200 
 17 N       -9.7920     2.4360     0.2880 N.1   1 <1>   0.6880 
 18 O       -9.9720     0.0480    -1.5350 O.3   1 <1>  -0.6800 
 19 N      -10.7230     3.1570    -0.0730 N.1   1 <1>  -0.3700 
 20 H       -2.1060     2.2390    -1.9690 H     1 <1>   0.1500 
 21 H       -4.3010     3.1470    -1.0340 H     1 <1>   0.1500 
 22 H       -6.4450     0.0990     2.1140 H     1 <1>   0.0800 
 23 H       -5.9860     2.2480     1.2040 H     1 <1>   0.0800 
 24 H       -7.2700    -1.0330    -0.5070 H     1 <1>   0.0800 
 25 H       -8.9510    -0.3290     1.6600 H     1 <1>   0.4000 
 26 H       -8.1310     0.1450    -2.3320 H     1 <1>   0.0800 
 27 H       -8.9720     1.6690    -2.1780 H     1 <1>   0.0800 
 28 H       -9.8470    -0.8100    -1.0740 H     1 <1>   0.4000 
@<TRIPOS>BOND
  1   1   2  2   
  2   2   3  1   
  3   2   4  1   
  4   3   5  2   
  5   4   6  2   
  6   4  20  1   
  7   5   7  1   
  8   5   8  1   
  9   6   8  1   
 10   6  21  1   
 11   7   9  1   
 12   8  10  1   
 13   9  10  1   
 14   9  11  1   
 15   9  22  1   
 16  10  12  1   
 17  10  23  1   
 18  11  13  1   
 19  11  14  1   
 20  11  24  1   
 21  12  14  1   
 22  13  25  1   
 23  14  15  1   
 24  14  16  1   
 25  15  17  2   
 26  16  18  1   
 27  16  26  1   
 28  16  27  1   
 29  17  19  3   
 30  18  28  1   
@<TRIPOS>SUBSTRUCTURE
  1 ****  10 GROUP 4 **** **** 0

# MOE 2024.06 (io_trps.svl 2023.06)
