@<TRIPOS>MOLECULE
NONAME
43 45 1 0 0 
SMALL
USER_CHARGES


@<TRIPOS>ATOM
  1 O       -0.8560     0.5530     0.8410 O.2   1 <1>  -0.5700 
  2 C       -1.9800     0.8850     0.5450 C.2   1 <1>   0.5690 
  3 N       -3.0460     0.0420     0.7570 N.am  1 <1>  -0.6600 
  4 C       -2.1710     2.2810    -0.0500 C.3   1 <1>  -0.0190 
  5 C       -2.8040    -1.3220     1.3150 C.3   1 <1>   0.3200 
  6 C       -4.4800     0.4500     0.6170 C.3   1 <1>   0.1400 
  7 C       -1.0470     2.7490    -0.9980 C.3   1 <1>  -0.0170 
  8 C       -2.2860     3.3810     1.0210 C.3   1 <1>  -0.0170 
  9 C       -3.5420    -2.3650     0.5020 C.2   1 <1>  -0.3320 
 10 C       -5.0070     0.2000    -0.8020 C.3   1 <1>   0.1200 
 11 C       -1.0880     4.2490    -0.8380 C.ar  1 <1>  -0.1440 
 12 C       -1.7810     4.6030     0.2940 C.ar  1 <1>  -0.1440 
 13 N       -4.7360    -2.8950     0.8310 N.pl3 1 <1>   0.0330 
 14 C       -3.1810    -2.9450    -0.6630 C.2   1 <1>   0.0770 
 15 O       -6.3030     0.6890    -0.8770 O.3   1 <1>  -0.6800 
 16 C       -0.5360     5.2140    -1.6600 C.ar  1 <1>  -0.1500 
 17 C       -1.9440     5.9320     0.6370 C.ar  1 <1>  -0.1500 
 18 C       -5.0280    -3.7570    -0.1660 C.2   1 <1>   0.0070 
 19 N       -4.1200    -3.8130    -1.0820 N.2   1 <1>  -0.5650 
 20 C       -0.6960     6.5500    -1.3250 C.ar  1 <1>  -0.1500 
 21 C       -1.3970     6.9070    -0.1820 C.ar  1 <1>  -0.1500 
 22 C       -6.3020    -4.5740    -0.1960 C.3   1 <1>  -0.0600 
 23 H       -3.0700     2.3110    -0.6330 H     1 <1>   0.0800 
 24 H       -3.1210    -1.3500     2.3430 H     1 <1>   0.0800 
 25 H       -1.7540    -1.5600     1.2930 H     1 <1>   0.0800 
 26 H       -4.5840     1.4940     0.8520 H     1 <1>   0.0800 
 27 H       -5.0800    -0.1000     1.3190 H     1 <1>   0.0800 
 28 H       -1.2330     2.4460    -2.0130 H     1 <1>   0.0800 
 29 H       -0.0820     2.3930    -0.6810 H     1 <1>   0.0800 
 30 H       -1.6400     3.1720     1.8560 H     1 <1>   0.0800 
 31 H       -3.2990     3.5070     1.3600 H     1 <1>   0.0800 
 32 H       -5.0350    -0.8500    -1.0340 H     1 <1>   0.0800 
 33 H       -4.4120     0.7150    -1.5340 H     1 <1>   0.0800 
 34 H       -5.3130    -2.6960     1.6530 H     1 <1>   0.2700 
 35 H       -2.2820    -2.7750    -1.2340 H     1 <1>   0.1500 
 36 H       -6.6760     0.5300    -1.7670 H     1 <1>   0.4000 
 37 H        0.0080     4.9320    -2.5440 H     1 <1>   0.1500 
 38 H       -2.4870     6.2050     1.5240 H     1 <1>   0.1500 
 39 H       -0.2730     7.3120    -1.9550 H     1 <1>   0.1500 
 40 H       -1.5150     7.9460     0.0710 H     1 <1>   0.1500 
 41 H       -7.1580    -3.9250    -0.2070 H     1 <1>   0.0800 
 42 H       -6.3500    -5.2170     0.6630 H     1 <1>   0.0800 
 43 H       -6.3200    -5.1830    -1.0830 H     1 <1>   0.0800 
@<TRIPOS>BOND
  1   1   2  2   
  2   2   3  am  
  3   2   4  1   
  4   3   5  1   
  5   3   6  1   
  6   4   7  1   
  7   4   8  1   
  8   4  23  1   
  9   5   9  1   
 10   5  24  1   
 11   5  25  1   
 12   6  10  1   
 13   6  26  1   
 14   6  27  1   
 15   7  11  1   
 16   7  28  1   
 17   7  29  1   
 18   8  12  1   
 19   8  30  1   
 20   8  31  1   
 21   9  13  1   
 22   9  14  2   
 23  10  15  1   
 24  10  32  1   
 25  10  33  1   
 26  11  12  ar  
 27  11  16  ar  
 28  12  17  ar  
 29  13  18  1   
 30  13  34  1   
 31  14  19  1   
 32  14  35  1   
 33  15  36  1   
 34  16  20  ar  
 35  16  37  1   
 36  17  21  ar  
 37  17  38  1   
 38  18  19  2   
 39  18  22  1   
 40  20  21  ar  
 41  20  39  1   
 42  21  40  1   
 43  22  41  1   
 44  22  42  1   
 45  22  43  1   
@<TRIPOS>SUBSTRUCTURE
  1 ****   2 GROUP 4 **** **** 0

# MOE 2024.06 (io_trps.svl 2023.06)
