@<TRIPOS>MOLECULE
NONAME
53 57 1 0 0 
SMALL
USER_CHARGES


@<TRIPOS>ATOM
  1 O       -0.8790     1.0550     1.8780 O.2   1 <1>  -0.5700 
  2 C       -1.8490     1.3470     1.2180 C.2   1 <1>   0.5690 
  3 N       -3.0350     0.6670     1.3420 N.am  1 <1>  -0.6600 
  4 C       -1.7270     2.4960     0.2260 C.3   1 <1>  -0.0990 
  5 C       -3.2030    -0.4190     2.3500 C.3   1 <1>   0.1400 
  6 C       -4.2540     0.8840     0.5130 C.3   1 <1>   0.1400 
  7 C       -0.3700     3.2160     0.2690 C.3   1 <1>  -0.0160 
  8 C       -3.5220    -1.7290     1.6290 C.3   1 <1>  -0.1600 
  9 C       -4.5740    -0.4070    -0.2410 C.3   1 <1>  -0.1600 
 10 C       -0.3410     4.3500    -0.7430 C.ar  1 <1>  -0.1440 
 11 C       -4.7470    -1.5900     0.7210 C.3   1 <1>   0.4600 
 12 C       -0.7700     5.6220    -0.4230 C.ar  1 <1>  -0.1500 
 13 C        0.1120     4.1660    -2.0330 C.ar  1 <1>  -0.1500 
 14 O       -5.8450    -1.3340     1.5720 O.3   1 <1>  -0.5600 
 15 C       -4.9920    -2.8880    -0.0400 C.2   1 <1>  -0.3320 
 16 C       -0.7280     6.6200    -1.3830 C.ar  1 <1>   0.1600 
 17 C        0.1130     5.2320    -2.9170 C.ar  1 <1>   0.1600 
 18 C       -7.1400    -1.6030     1.0880 C.3   1 <1>   0.1200 
 19 N       -4.0990    -3.5390    -0.8460 N.pl3 1 <1>   0.0330 
 20 C       -6.1480    -3.5800    -0.0090 C.2   1 <1>  -0.1810 
 21 N       -0.2990     6.4550    -2.6240 N.ar  1 <1>  -0.6200 
 22 C       -7.3270    -3.1020     0.8000 C.3   1 <1>   0.0210 
 23 C       -4.7100    -4.6690    -1.3310 C.ar  1 <1>  -0.1520 
 24 C       -6.0040    -4.7250    -0.8190 C.ar  1 <1>   0.0000 
 25 C       -4.2350    -5.6660    -2.1870 C.ar  1 <1>  -0.1500 
 26 C       -6.8390    -5.7920    -1.1640 C.ar  1 <1>  -0.1500 
 27 C       -5.0680    -6.7100    -2.5180 C.ar  1 <1>  -0.1500 
 28 C       -6.3700    -6.7740    -2.0070 C.ar  1 <1>  -0.1500 
 29 H       -2.5000     3.2110     0.4370 H     1 <1>   0.0800 
 30 H       -1.8810     2.1070    -0.7640 H     1 <1>   0.0800 
 31 H       -4.0090    -0.1610     3.0170 H     1 <1>   0.0800 
 32 H       -2.3110    -0.5390     2.9410 H     1 <1>   0.0800 
 33 H       -4.1180     1.6860    -0.1890 H     1 <1>   0.0800 
 34 H       -5.0760     1.1430     1.1600 H     1 <1>   0.0800 
 35 H        0.4200     2.5170     0.0540 H     1 <1>   0.0800 
 36 H       -0.1980     3.6060     1.2570 H     1 <1>   0.0800 
 37 H       -3.7020    -2.5080     2.3470 H     1 <1>   0.0800 
 38 H       -2.6650    -2.0130     1.0480 H     1 <1>   0.0800 
 39 H       -3.7670    -0.6170    -0.9180 H     1 <1>   0.0800 
 40 H       -5.4600    -0.2820    -0.8340 H     1 <1>   0.0800 
 41 H       -1.1350     5.8460     0.5620 H     1 <1>   0.1500 
 42 H        0.4650     3.2040    -2.3580 H     1 <1>   0.1500 
 43 H       -1.0660     7.6060    -1.1150 H     1 <1>   0.1500 
 44 H        0.4710     5.0690    -3.9190 H     1 <1>   0.1500 
 45 H       -7.2980    -1.0290     0.1930 H     1 <1>   0.0800 
 46 H       -7.8420    -1.2790     1.8350 H     1 <1>   0.0800 
 47 H       -3.1340    -3.2580    -1.0470 H     1 <1>   0.2700 
 48 H       -8.2390    -3.2550     0.2530 H     1 <1>   0.0800 
 49 H       -7.3810    -3.6500     1.7220 H     1 <1>   0.0800 
 50 H       -3.2340    -5.6110    -2.5740 H     1 <1>   0.1500 
 51 H       -7.8340    -5.8280    -0.7630 H     1 <1>   0.1500 
 52 H       -4.7260    -7.4910    -3.1750 H     1 <1>   0.1500 
 53 H       -7.0000    -7.6010    -2.2810 H     1 <1>   0.1500 
@<TRIPOS>BOND
  1   1   2  2   
  2   2   3  am  
  3   2   4  1   
  4   3   5  1   
  5   3   6  1   
  6   4   7  1   
  7   4  29  1   
  8   4  30  1   
  9   5   8  1   
 10   5  31  1   
 11   5  32  1   
 12   6   9  1   
 13   6  33  1   
 14   6  34  1   
 15   7  10  1   
 16   7  35  1   
 17   7  36  1   
 18   8  11  1   
 19   8  37  1   
 20   8  38  1   
 21   9  11  1   
 22   9  39  1   
 23   9  40  1   
 24  10  12  ar  
 25  10  13  ar  
 26  11  14  1   
 27  11  15  1   
 28  12  16  ar  
 29  12  41  1   
 30  13  17  ar  
 31  13  42  1   
 32  14  18  1   
 33  15  19  1   
 34  15  20  2   
 35  16  21  ar  
 36  16  43  1   
 37  17  21  ar  
 38  17  44  1   
 39  18  22  1   
 40  18  45  1   
 41  18  46  1   
 42  19  23  1   
 43  19  47  1   
 44  20  22  1   
 45  20  24  1   
 46  22  48  1   
 47  22  49  1   
 48  23  24  ar  
 49  23  25  ar  
 50  24  26  ar  
 51  25  27  ar  
 52  25  50  1   
 53  26  28  ar  
 54  26  51  1   
 55  27  28  ar  
 56  27  52  1   
 57  28  53  1   
@<TRIPOS>SUBSTRUCTURE
  1 ****   9 GROUP 4 **** **** 0

# MOE 2024.06 (io_trps.svl 2023.06)
