@<TRIPOS>MOLECULE
NONAME
41 43 1 0 0 
SMALL
USER_CHARGES


@<TRIPOS>ATOM
  1 O        1.2160     3.0460    -1.4200 O.3   1 <1>  -0.0190 
  2 N        2.4090     2.7320    -1.8220 N.2   1 <1>  -0.4100 
  3 C        0.8040     2.2620    -0.4620 C.2   1 <1>  -0.0400 
  4 C        2.7460     1.6820    -1.1610 C.2   1 <1>   0.1080 
  5 C        1.7490     1.3330    -0.2550 C.2   1 <1>  -0.1500 
  6 C       -0.5280     2.5240     0.2180 C.3   1 <1>   0.0200 
  7 C        4.0500     0.9370    -1.3470 C.3   1 <1>  -0.0590 
  8 C       -0.6110     3.9150     0.8940 C.3   1 <1>  -0.0800 
  9 C       -0.8810     5.0500    -0.1030 C.3   1 <1>   0.2000 
 10 C        0.6970     4.3290     1.5790 C.3   1 <1>   0.3430 
 11 O       -1.8150     5.9180     0.4460 O.3   1 <1>  -0.6800 
 12 C        0.4500     5.7910    -0.3040 C.3   1 <1>   0.3430 
 13 N        1.4590     5.0970     0.5580 N.4   1 <1>  -0.9590 
 14 C        2.5150     5.9840     1.1050 C.3   1 <1>   0.5230 
 15 C        3.0340     6.8690    -0.0010 C.2   1 <1>  -0.3320 
 16 N        3.8630     6.4840    -1.0010 N.pl3 1 <1>   0.3140 
 17 C        2.7770     8.1840    -0.1890 C.2   1 <1>  -0.1500 
 18 N        4.1230     7.5070    -1.8240 N.2   1 <1>  -0.7070 
 19 C        4.4880     5.1780    -1.2640 C.3   1 <1>   0.0160 
 20 C        3.4800     8.5210    -1.3370 C.2   1 <1>   0.1390 
 21 H        1.7750     0.5070     0.4340 H     1 <1>   0.1500 
 22 H       -1.3250     2.4100    -0.4970 H     1 <1>   0.0800 
 23 H       -0.6700     1.7650     0.9680 H     1 <1>   0.0800 
 24 H        4.6100     0.9320    -0.4300 H     1 <1>   0.0800 
 25 H        4.6400     1.4050    -2.1150 H     1 <1>   0.0800 
 26 H        3.8500    -0.0780    -1.6410 H     1 <1>   0.0800 
 27 H       -1.4040     3.8620     1.6220 H     1 <1>   0.0800 
 28 H       -1.2770     4.7010    -1.0430 H     1 <1>   0.0800 
 29 H        1.2510     3.4730     1.9280 H     1 <1>   0.0800 
 30 H        0.4690     4.9690     2.4160 H     1 <1>   0.0800 
 31 H       -1.5980     6.2060     1.3540 H     1 <1>   0.4000 
 32 H        0.3380     6.8230    -0.0150 H     1 <1>   0.0800 
 33 H        0.7560     5.7470    -1.3370 H     1 <1>   0.0800 
 34 H        1.9150     4.4130    -0.0710 H     1 <1>   0.4500 
 35 H        2.1010     6.6050     1.8830 H     1 <1>   0.0800 
 36 H        3.3200     5.4020     1.5260 H     1 <1>   0.0800 
 37 H        2.1750     8.8660     0.3860 H     1 <1>   0.1500 
 38 H        4.2460     4.4780    -0.4890 H     1 <1>   0.0800 
 39 H        5.5530     5.3100    -1.3130 H     1 <1>   0.0800 
 40 H        4.1380     4.8130    -2.2120 H     1 <1>   0.0800 
 41 H        3.4990     9.5030    -1.7820 H     1 <1>   0.1500 
@<TRIPOS>BOND
  1   1   2  1   
  2   1   3  1   
  3   2   4  2   
  4   3   5  2   
  5   3   6  1   
  6   4   5  1   
  7   4   7  1   
  8   5  21  1   
  9   6   8  1   
 10   6  22  1   
 11   6  23  1   
 12   7  24  1   
 13   7  25  1   
 14   7  26  1   
 15   8   9  1   
 16   8  10  1   
 17   8  27  1   
 18   9  11  1   
 19   9  12  1   
 20   9  28  1   
 21  10  13  1   
 22  10  29  1   
 23  10  30  1   
 24  11  31  1   
 25  12  13  1   
 26  12  32  1   
 27  12  33  1   
 28  13  14  1   
 29  13  34  1   
 30  14  15  1   
 31  14  35  1   
 32  14  36  1   
 33  15  16  1   
 34  15  17  2   
 35  16  18  1   
 36  16  19  1   
 37  17  20  1   
 38  17  37  1   
 39  18  20  2   
 40  19  38  1   
 41  19  39  1   
 42  19  40  1   
 43  20  41  1   
@<TRIPOS>SUBSTRUCTURE
  1 ****  13 GROUP 4 **** **** 0

# MOE 2024.06 (io_trps.svl 2023.06)
