@<TRIPOS>MOLECULE
NONAME
37 39 1 0 0 
SMALL
USER_CHARGES


@<TRIPOS>ATOM
  1 S        0.6790    -1.1190    -1.1600 S.3   1 <1>  -0.0800 
  2 C        1.2470    -2.3060    -0.0130 C.2   1 <1>  -0.1400 
  3 C        1.9610    -0.0450    -0.6430 C.2   1 <1>   0.2280 
  4 C        2.3160    -1.8030     0.6240 C.2   1 <1>   0.0770 
  5 C        0.5330    -3.6350     0.0890 C.3   1 <1>   0.5230 
  6 N        2.7060    -0.5240     0.2690 N.2   1 <1>  -0.5650 
  7 N       -0.7320    -3.4570     0.8630 N.4   1 <1>  -0.9590 
  8 C       -1.8320    -2.8460     0.0410 C.3   1 <1>   0.3430 
  9 C       -1.2350    -4.7750     1.3560 C.3   1 <1>   0.3430 
 10 C       -3.0400    -3.7870     0.1520 C.3   1 <1>   0.2000 
 11 C       -2.4240    -5.1460     0.4640 C.3   1 <1>  -0.0800 
 12 O       -3.8460    -3.3980     1.2150 O.3   1 <1>  -0.6800 
 13 C       -2.0130    -5.8680    -0.8410 C.3   1 <1>  -0.0170 
 14 C       -0.9990    -6.9770    -0.6150 C.ar  1 <1>   0.1670 
 15 N        0.2730    -6.6010    -0.5590 N.ar  1 <1>  -0.6200 
 16 C       -1.4320    -8.2880    -0.4850 C.ar  1 <1>  -0.1500 
 17 C        1.1480    -7.5850    -0.3880 C.ar  1 <1>   0.1600 
 18 C       -0.5110    -9.2930    -0.2930 C.ar  1 <1>  -0.1500 
 19 C        0.8140    -8.9200    -0.2480 C.ar  1 <1>  -0.1500 
 20 H        2.0240     0.9190    -1.1210 H     1 <1>   0.1500 
 21 H        2.9000    -2.2980     1.3840 H     1 <1>   0.1500 
 22 H        1.1730    -4.3340     0.6030 H     1 <1>   0.0800 
 23 H        0.3310    -4.0330    -0.8920 H     1 <1>   0.0800 
 24 H       -0.5110    -2.8410     1.6570 H     1 <1>   0.4500 
 25 H       -2.0860    -1.8540     0.3790 H     1 <1>   0.0800 
 26 H       -1.5270    -2.7940    -0.9910 H     1 <1>   0.0800 
 27 H       -0.4670    -5.5310     1.3570 H     1 <1>   0.0800 
 28 H       -1.5880    -4.6610     2.3680 H     1 <1>   0.0800 
 29 H       -3.6480    -3.7820    -0.7380 H     1 <1>   0.0800 
 30 H       -3.1090    -5.7810     1.0000 H     1 <1>   0.0800 
 31 H       -3.3970    -3.4240     2.0810 H     1 <1>   0.4000 
 32 H       -1.5880    -5.1770    -1.5470 H     1 <1>   0.0800 
 33 H       -2.8920    -6.2800    -1.3060 H     1 <1>   0.0800 
 34 H       -2.4790    -8.5310    -0.5380 H     1 <1>   0.1500 
 35 H        2.1910    -7.3180    -0.3570 H     1 <1>   0.1500 
 36 H       -0.8100   -10.3230    -0.1900 H     1 <1>   0.1500 
 37 H        1.5840    -9.6600    -0.1090 H     1 <1>   0.1500 
@<TRIPOS>BOND
  1   1   2  1   
  2   1   3  1   
  3   2   4  2   
  4   2   5  1   
  5   3   6  2   
  6   3  20  1   
  7   4   6  1   
  8   4  21  1   
  9   5   7  1   
 10   5  22  1   
 11   5  23  1   
 12   7   8  1   
 13   7   9  1   
 14   7  24  1   
 15   8  10  1   
 16   8  25  1   
 17   8  26  1   
 18   9  11  1   
 19   9  27  1   
 20   9  28  1   
 21  10  11  1   
 22  10  12  1   
 23  10  29  1   
 24  11  13  1   
 25  11  30  1   
 26  12  31  1   
 27  13  14  1   
 28  13  32  1   
 29  13  33  1   
 30  14  15  ar  
 31  14  16  ar  
 32  15  17  ar  
 33  16  18  ar  
 34  16  34  1   
 35  17  19  ar  
 36  17  35  1   
 37  18  19  ar  
 38  18  36  1   
 39  19  37  1   
@<TRIPOS>SUBSTRUCTURE
  1 ****   5 GROUP 4 **** **** 0

# MOE 2024.06 (io_trps.svl 2023.06)
