@<TRIPOS>MOLECULE
NONAME
52 54 1 0 0 
SMALL
USER_CHARGES


@<TRIPOS>ATOM
  1 O        1.6790    -0.3750     2.2520 O.2   1 <1>  -0.5700 
  2 C        1.3540    -1.0090     1.2750 C.2   1 <1>   0.5690 
  3 N        2.2160    -1.6090     0.4290 N.am  1 <1>  -0.6600 
  4 C       -0.0650    -1.1530     0.8010 C.3   1 <1>  -0.0990 
  5 C        3.6960    -1.4270     0.5260 C.3   1 <1>   0.2810 
  6 C        1.5500    -2.0810    -0.8000 C.3   1 <1>   0.1400 
  7 C        0.0560    -2.0360    -0.4520 C.3   1 <1>  -0.1600 
  8 C        4.1290    -0.0390     0.0130 C.2   1 <1>   0.5690 
  9 C        4.4250    -2.6060    -0.1360 C.3   1 <1>  -0.2400 
 10 O        4.7940     0.0590    -0.9940 O.2   1 <1>  -0.5700 
 11 N        3.7310     1.0500     0.7410 N.am  1 <1>  -0.4940 
 12 C        3.8610     2.4160     0.4120 C.2   1 <1>  -0.0880 
 13 N        5.0010     3.1660     0.2650 N.pl3 1 <1>   0.3140 
 14 C        2.8000     3.2340     0.1560 C.2   1 <1>  -0.0540 
 15 N        4.6710     4.4330    -0.1230 N.2   1 <1>  -0.7070 
 16 C        6.4680     2.8350     0.5220 C.3   1 <1>   0.2560 
 17 C        1.3870     2.9650     0.2020 C.ar  1 <1>   0.0540 
 18 C        3.3810     4.4530    -0.1790 C.2   1 <1>   0.1390 
 19 C        7.1750     4.0480     1.1660 C.3   1 <1>  -0.2400 
 20 C        6.6670     1.6510     1.4880 C.3   1 <1>  -0.2400 
 21 C        7.1640     2.5310    -0.8140 C.3   1 <1>  -0.2400 
 22 C        0.6060     3.0440    -0.9470 C.ar  1 <1>  -0.1500 
 23 C        0.7580     2.6400     1.4000 C.ar  1 <1>  -0.1500 
 24 C       -0.7590     2.8190    -0.9000 C.ar  1 <1>  -0.1500 
 25 C       -0.6060     2.4190     1.4550 C.ar  1 <1>  -0.1500 
 26 C       -1.3680     2.5100     0.3030 C.ar  1 <1>  -0.1500 
 27 H       -0.4490    -0.1850     0.5470 H     1 <1>   0.0800 
 28 H       -0.6750    -1.6080     1.5590 H     1 <1>   0.0800 
 29 H        3.9510    -1.4520     1.5720 H     1 <1>   0.0800 
 30 H        1.8590    -3.0820    -1.0490 H     1 <1>   0.0800 
 31 H        1.7790    -1.4110    -1.6120 H     1 <1>   0.0800 
 32 H       -0.5230    -1.6510    -1.2730 H     1 <1>   0.0800 
 33 H       -0.2810    -3.0330    -0.2290 H     1 <1>   0.0800 
 34 H        4.2690    -2.6020    -1.2000 H     1 <1>   0.0800 
 35 H        4.0850    -3.5370     0.2800 H     1 <1>   0.0800 
 36 H        5.4810    -2.5180     0.0420 H     1 <1>   0.0800 
 37 H        2.9960     0.8270     1.4300 H     1 <1>   0.3700 
 38 H        2.8140     5.3260    -0.4530 H     1 <1>   0.1500 
 39 H        6.6840     4.3180     2.0840 H     1 <1>   0.0800 
 40 H        7.1580     4.8950     0.5040 H     1 <1>   0.0800 
 41 H        8.2030     3.8230     1.3810 H     1 <1>   0.0800 
 42 H        6.0660     1.7810     2.3710 H     1 <1>   0.0800 
 43 H        7.6970     1.5800     1.7880 H     1 <1>   0.0800 
 44 H        6.4200     0.7220     1.0160 H     1 <1>   0.0800 
 45 H        7.0760     3.3750    -1.4760 H     1 <1>   0.0800 
 46 H        6.7170     1.6780    -1.2890 H     1 <1>   0.0800 
 47 H        8.2070     2.3250    -0.6600 H     1 <1>   0.0800 
 48 H        1.0790     3.2850    -1.8820 H     1 <1>   0.1500 
 49 H        1.3470     2.5660     2.2980 H     1 <1>   0.1500 
 50 H       -1.3460     2.8880    -1.7990 H     1 <1>   0.1500 
 51 H       -1.0710     2.1740     2.3940 H     1 <1>   0.1500 
 52 H       -2.4300     2.3400     0.3440 H     1 <1>   0.1500 
@<TRIPOS>BOND
  1   1   2  2   
  2   2   3  am  
  3   2   4  1   
  4   3   5  1   
  5   3   6  1   
  6   4   7  1   
  7   4  27  1   
  8   4  28  1   
  9   5   8  1   
 10   5   9  1   
 11   5  29  1   
 12   6   7  1   
 13   6  30  1   
 14   6  31  1   
 15   7  32  1   
 16   7  33  1   
 17   8  10  2   
 18   8  11  am  
 19   9  34  1   
 20   9  35  1   
 21   9  36  1   
 22  11  12  1   
 23  11  37  1   
 24  12  13  1   
 25  12  14  2   
 26  13  15  1   
 27  13  16  1   
 28  14  17  1   
 29  14  18  1   
 30  15  18  2   
 31  16  19  1   
 32  16  20  1   
 33  16  21  1   
 34  17  22  ar  
 35  17  23  ar  
 36  18  38  1   
 37  19  39  1   
 38  19  40  1   
 39  19  41  1   
 40  20  42  1   
 41  20  43  1   
 42  20  44  1   
 43  21  45  1   
 44  21  46  1   
 45  21  47  1   
 46  22  24  ar  
 47  22  48  1   
 48  23  25  ar  
 49  23  49  1   
 50  24  26  ar  
 51  24  50  1   
 52  25  26  ar  
 53  25  51  1   
 54  26  52  1   
@<TRIPOS>SUBSTRUCTURE
  1 ****  11 GROUP 4 **** **** 0

# MOE 2024.06 (io_trps.svl 2023.06)
