@<TRIPOS>MOLECULE
NONAME
49 51 1 0 0 
SMALL
USER_CHARGES


@<TRIPOS>ATOM
  1 O        0.7960     0.5820    -0.3070 O.2   1 <1>  -0.5700 
  2 C        1.9830     0.4090    -0.1840 C.2   1 <1>   0.5690 
  3 N        2.9490     1.3740    -0.1110 N.am  1 <1>  -0.4770 
  4 C        2.5730    -0.9720    -0.0860 C.3   1 <1>  -0.0990 
  5 C        2.7660     2.7650    -0.0630 C.ar  1 <1>   0.1170 
  6 C        4.2850     0.7650     0.0650 C.3   1 <1>   0.1400 
  7 C        4.0830    -0.7330    -0.1890 C.3   1 <1>  -0.1600 
  8 C        3.6420     3.6330    -0.7100 C.ar  1 <1>  -0.1500 
  9 C        1.7030     3.3280     0.6360 C.ar  1 <1>  -0.1500 
 10 C        3.4710     5.0030    -0.6460 C.ar  1 <1>  -0.1500 
 11 C        1.5330     4.6980     0.7000 C.ar  1 <1>  -0.1500 
 12 C        2.4180     5.5750     0.0730 C.ar  1 <1>   0.0860 
 13 C        2.2440     7.0100     0.1720 C.2   1 <1>   0.5440 
 14 O        1.1300     7.4930     0.2360 O.2   1 <1>  -0.5700 
 15 N        3.3570     7.8200     0.2200 N.am  1 <1>  -0.4940 
 16 C        3.4640     9.2330     0.2220 C.2   1 <1>  -0.0880 
 17 N        4.6250     9.9410     0.3560 N.pl3 1 <1>   0.3140 
 18 C        2.4800    10.1530     0.0920 C.2   1 <1>  -0.1500 
 19 N        4.3940    11.2750     0.3100 N.2   1 <1>  -0.7070 
 20 C        6.0180     9.4390     0.5320 C.3   1 <1>   0.1760 
 21 C        3.1150    11.3860     0.1540 C.2   1 <1>   0.1080 
 22 C        6.4810     8.6690    -0.7240 C.3   1 <1>  -0.1600 
 23 C        6.1530     8.6230     1.8300 C.3   1 <1>  -0.2400 
 24 C        2.4240    12.7250     0.0550 C.3   1 <1>  -0.0590 
 25 C        7.9750     8.3150    -0.7040 C.3   1 <1>  -0.2400 
 26 H        2.2080    -1.5980    -0.8800 H     1 <1>   0.0800 
 27 H        2.3090    -1.3950     0.8660 H     1 <1>   0.0800 
 28 H        4.6190     0.9390     1.0740 H     1 <1>   0.0800 
 29 H        4.9960     1.1770    -0.6290 H     1 <1>   0.0800 
 30 H        4.4190    -0.9670    -1.1850 H     1 <1>   0.0800 
 31 H        4.6380    -1.3330     0.5120 H     1 <1>   0.0800 
 32 H        4.4560     3.2310    -1.2840 H     1 <1>   0.1500 
 33 H        0.9980     2.6840     1.1320 H     1 <1>   0.1500 
 34 H        4.1580     5.6370    -1.1760 H     1 <1>   0.1500 
 35 H        0.6970     5.1040     1.2440 H     1 <1>   0.1500 
 36 H        4.2350     7.3150     0.3120 H     1 <1>   0.3700 
 37 H        1.4270     9.9840    -0.0340 H     1 <1>   0.1500 
 38 H        6.6400    10.3120     0.6290 H     1 <1>   0.0800 
 39 H        6.2960     9.2910    -1.5850 H     1 <1>   0.0800 
 40 H        5.9120     7.7660    -0.8410 H     1 <1>   0.0800 
 41 H        5.6470     7.6790     1.7590 H     1 <1>   0.0800 
 42 H        5.7410     9.1830     2.6530 H     1 <1>   0.0800 
 43 H        7.1890     8.4390     2.0470 H     1 <1>   0.0800 
 44 H        1.3650    12.5930    -0.0670 H     1 <1>   0.0800 
 45 H        2.8130    13.2670    -0.7870 H     1 <1>   0.0800 
 46 H        2.6090    13.2890     0.9500 H     1 <1>   0.0800 
 47 H        8.5700     9.2010    -0.5630 H     1 <1>   0.0800 
 48 H        8.2560     7.8660    -1.6400 H     1 <1>   0.0800 
 49 H        8.1990     7.6170     0.0830 H     1 <1>   0.0800 
@<TRIPOS>BOND
  1   1   2  2   
  2   2   3  am  
  3   2   4  1   
  4   3   5  1   
  5   3   6  1   
  6   4   7  1   
  7   4  26  1   
  8   4  27  1   
  9   5   8  ar  
 10   5   9  ar  
 11   6   7  1   
 12   6  28  1   
 13   6  29  1   
 14   7  30  1   
 15   7  31  1   
 16   8  10  ar  
 17   8  32  1   
 18   9  11  ar  
 19   9  33  1   
 20  10  12  ar  
 21  10  34  1   
 22  11  12  ar  
 23  11  35  1   
 24  12  13  1   
 25  13  14  2   
 26  13  15  am  
 27  15  16  1   
 28  15  36  1   
 29  16  17  1   
 30  16  18  2   
 31  17  19  1   
 32  17  20  1   
 33  18  21  1   
 34  18  37  1   
 35  19  21  2   
 36  20  22  1   
 37  20  23  1   
 38  20  38  1   
 39  21  24  1   
 40  22  25  1   
 41  22  39  1   
 42  22  40  1   
 43  23  41  1   
 44  23  42  1   
 45  23  43  1   
 46  24  44  1   
 47  24  45  1   
 48  24  46  1   
 49  25  47  1   
 50  25  48  1   
 51  25  49  1   
@<TRIPOS>SUBSTRUCTURE
  1 ****  12 GROUP 4 **** **** 0

# MOE 2024.06 (io_trps.svl 2023.06)
