@<TRIPOS>MOLECULE
NONAME
45 47 1 0 0 
SMALL
USER_CHARGES


@<TRIPOS>ATOM
  1 F       -1.2400    -0.5830     0.4940 F     1 <1>  -0.1900 
  2 C       -1.8610     0.5630     0.4400 C.ar  1 <1>   0.1900 
  3 C       -1.2060     1.6480    -0.1000 C.ar  1 <1>  -0.1500 
  4 C       -3.1470     0.6470     0.9290 C.ar  1 <1>  -0.1500 
  5 C       -1.8390     2.8890    -0.1600 C.ar  1 <1>   0.0860 
  6 C       -3.7940     1.8670     0.8610 C.ar  1 <1>  -0.1500 
  7 C       -3.1590     2.9780     0.3200 C.ar  1 <1>  -0.1440 
  8 C       -1.0990     4.0190    -0.6970 C.2   1 <1>   0.5440 
  9 C       -3.9450     4.2820     0.2480 C.3   1 <1>  -0.0960 
 10 O       -0.4380     3.9040    -1.7120 O.2   1 <1>  -0.5700 
 11 N       -0.9930     5.2080    -0.0180 N.am  1 <1>  -0.6600 
 12 C       -0.3250     5.1490     1.3310 C.3   1 <1>   0.2200 
 13 C       -0.9110     6.4900    -0.7950 C.3   1 <1>   0.1400 
 14 C       -0.6680     6.3550     2.2200 C.3   1 <1>   0.1200 
 15 C        1.2090     4.9720     1.1760 C.3   1 <1>   0.3430 
 16 C        0.2660     7.4140    -0.4240 C.3   1 <1>  -0.0800 
 17 O        0.2150     7.4120     2.0040 O.3   1 <1>  -0.5600 
 18 N        1.6870     5.3030    -0.2120 N.4   1 <1>  -0.9590 
 19 C        0.0010     8.1910     0.8760 C.3   1 <1>   0.1200 
 20 C        1.6730     6.7760    -0.4540 C.3   1 <1>   0.3430 
 21 C        3.1060     4.7840    -0.3810 C.3   1 <1>   0.2370 
 22 C        4.1100     5.3530     0.6260 C.2   1 <1>   0.9060 
 23 O        4.2180     4.7840     1.7160 O.co2 1 <1>  -0.9000 
 24 O        4.6620     6.4220     0.3490 O.co2 1 <1>  -0.9000 
 25 H       -0.2060     1.5290    -0.4760 H     1 <1>   0.1500 
 26 H       -3.6270    -0.2210     1.3450 H     1 <1>   0.1500 
 27 H       -4.8030     1.9410     1.2320 H     1 <1>   0.1500 
 28 H       -4.9980     4.1050     0.3830 H     1 <1>   0.0800 
 29 H       -3.8110     4.7490    -0.7110 H     1 <1>   0.0800 
 30 H       -3.6140     4.9580     1.0160 H     1 <1>   0.0800 
 31 H       -0.6990     4.2830     1.8490 H     1 <1>   0.0800 
 32 H       -0.8470     6.2670    -1.8470 H     1 <1>   0.0800 
 33 H       -1.8350     7.0250    -0.6540 H     1 <1>   0.0800 
 34 H       -0.5480     6.0720     3.2510 H     1 <1>   0.0800 
 35 H       -1.6820     6.6860     2.0760 H     1 <1>   0.0800 
 36 H        1.4580     3.9480     1.3980 H     1 <1>   0.0800 
 37 H        1.7280     5.5810     1.9000 H     1 <1>   0.0800 
 38 H        0.2830     8.1740    -1.1830 H     1 <1>   0.0800 
 39 H        1.0410     4.8450    -0.8850 H     1 <1>   0.4500 
 40 H       -1.0030     8.5800     0.9090 H     1 <1>   0.0800 
 41 H        0.6830     9.0210     0.9440 H     1 <1>   0.0800 
 42 H        2.3040     7.2650     0.2730 H     1 <1>   0.0800 
 43 H        2.1080     6.9600    -1.4220 H     1 <1>   0.0800 
 44 H        3.1170     3.7160    -0.2690 H     1 <1>   0.0800 
 45 H        3.4680     5.0250    -1.3640 H     1 <1>   0.0800 
@<TRIPOS>BOND
  1   1   2  1   
  2   2   3  ar  
  3   2   4  ar  
  4   3   5  ar  
  5   3  25  1   
  6   4   6  ar  
  7   4  26  1   
  8   5   7  ar  
  9   5   8  1   
 10   6   7  ar  
 11   6  27  1   
 12   7   9  1   
 13   8  10  2   
 14   8  11  am  
 15   9  28  1   
 16   9  29  1   
 17   9  30  1   
 18  11  12  1   
 19  11  13  1   
 20  12  14  1   
 21  12  15  1   
 22  12  31  1   
 23  13  16  1   
 24  13  32  1   
 25  13  33  1   
 26  14  17  1   
 27  14  34  1   
 28  14  35  1   
 29  15  18  1   
 30  15  36  1   
 31  15  37  1   
 32  16  19  1   
 33  16  20  1   
 34  16  38  1   
 35  17  19  1   
 36  18  20  1   
 37  18  21  1   
 38  18  39  1   
 39  19  40  1   
 40  19  41  1   
 41  20  42  1   
 42  20  43  1   
 43  21  22  1   
 44  21  44  1   
 45  21  45  1   
 46  22  23  ar  
 47  22  24  ar  
@<TRIPOS>SUBSTRUCTURE
  1 ****  11 GROUP 4 **** **** 0

# MOE 2024.06 (io_trps.svl 2023.06)
