@<TRIPOS>MOLECULE
NONAME
41 42 1 0 0 
SMALL
USER_CHARGES


@<TRIPOS>ATOM
  1 S        0.1750    -0.2870     0.2790 S.3   1 <1>  -0.0800 
  2 C       -0.2750    -1.9730     0.0700 C.2   1 <1>  -0.1400 
  3 C        1.8750    -0.6650     0.0760 C.2   1 <1>  -0.1100 
  4 C        0.8240    -2.7280    -0.1320 C.2   1 <1>  -0.1500 
  5 C       -1.7580    -2.2760     0.1530 C.3   1 <1>   0.3200 
  6 C        2.0460    -1.9830    -0.1300 C.2   1 <1>  -0.1500 
  7 N       -2.0110    -3.6450    -0.3530 N.am  1 <1>  -0.7300 
  8 C       -2.8940    -4.5120     0.2090 C.2   1 <1>   0.5690 
  9 O       -3.5860    -4.1950     1.1480 O.2   1 <1>  -0.5700 
 10 C       -3.0700    -5.9410    -0.3390 C.3   1 <1>   0.4040 
 11 N       -4.4080    -6.5490     0.0330 N.4   1 <1>  -0.9590 
 12 C       -4.3830    -8.0440    -0.0570 C.3   1 <1>   0.3430 
 13 C       -5.5190    -5.9180    -0.7500 C.3   1 <1>   0.2630 
 14 C       -5.6000    -8.6920     0.6090 C.3   1 <1>   0.0210 
 15 C       -5.4390   -10.1940     0.5440 C.2   1 <1>  -0.1810 
 16 C       -4.6730   -10.9890     1.3910 C.2   1 <1>   0.1390 
 17 C       -5.9840   -11.0620    -0.3350 C.2   1 <1>  -0.3020 
 18 N       -4.7230   -12.2400     1.0610 N.2   1 <1>  -0.7070 
 19 N       -5.5410   -12.2910    -0.0020 N.pl3 1 <1>   0.3140 
 20 C       -5.8650   -13.5630    -0.6580 C.3   1 <1>   0.0160 
 21 H        2.5750     0.1510     0.1340 H     1 <1>   0.1500 
 22 H        0.8460    -3.7920    -0.2790 H     1 <1>   0.1500 
 23 H       -2.3020    -1.5710    -0.4520 H     1 <1>   0.0800 
 24 H       -2.0910    -2.1780     1.1740 H     1 <1>   0.0800 
 25 H        2.9930    -2.4720    -0.2820 H     1 <1>   0.1500 
 26 H       -1.4180    -3.8820    -1.1510 H     1 <1>   0.3700 
 27 H       -2.2780    -6.5410     0.0740 H     1 <1>   0.0800 
 28 H       -2.9580    -5.9250    -1.4090 H     1 <1>   0.0800 
 29 H       -4.5430    -6.2640     1.0210 H     1 <1>   0.4500 
 30 H       -3.4980    -8.4190     0.4300 H     1 <1>   0.0800 
 31 H       -4.3440    -8.3510    -1.0900 H     1 <1>   0.0800 
 32 H       -5.4200    -6.1440    -1.7990 H     1 <1>   0.0800 
 33 H       -5.5020    -4.8470    -0.6220 H     1 <1>   0.0800 
 34 H       -6.4750    -6.2800    -0.4070 H     1 <1>   0.0800 
 35 H       -6.5040    -8.4220     0.0960 H     1 <1>   0.0800 
 36 H       -5.6740    -8.3910     1.6390 H     1 <1>   0.0800 
 37 H       -4.0970   -10.6330     2.2290 H     1 <1>   0.1500 
 38 H       -6.6490   -10.8900    -1.1610 H     1 <1>   0.1500 
 39 H       -6.7130   -13.4320    -1.3030 H     1 <1>   0.0800 
 40 H       -6.0910   -14.2950     0.0950 H     1 <1>   0.0800 
 41 H       -5.0150   -13.8870    -1.2290 H     1 <1>   0.0800 
@<TRIPOS>BOND
  1   1   2  1   
  2   1   3  1   
  3   2   4  2   
  4   2   5  1   
  5   3   6  2   
  6   3  21  1   
  7   4   6  1   
  8   4  22  1   
  9   5   7  1   
 10   5  23  1   
 11   5  24  1   
 12   6  25  1   
 13   7   8  am  
 14   7  26  1   
 15   8   9  2   
 16   8  10  1   
 17  10  11  1   
 18  10  27  1   
 19  10  28  1   
 20  11  12  1   
 21  11  13  1   
 22  11  29  1   
 23  12  14  1   
 24  12  30  1   
 25  12  31  1   
 26  13  32  1   
 27  13  33  1   
 28  13  34  1   
 29  14  15  1   
 30  14  35  1   
 31  14  36  1   
 32  15  16  1   
 33  15  17  2   
 34  16  18  2   
 35  16  37  1   
 36  17  19  1   
 37  17  38  1   
 38  18  19  1   
 39  19  20  1   
 40  20  39  1   
 41  20  40  1   
 42  20  41  1   
@<TRIPOS>SUBSTRUCTURE
  1 ****  10 GROUP 4 **** **** 0

# MOE 2024.06 (io_trps.svl 2023.06)
