@<TRIPOS>MOLECULE
NONAME
42 44 1 0 0 
SMALL
USER_CHARGES


@<TRIPOS>ATOM
  1 O       -0.2910     0.3320     0.0100 O.2   1 <1>  -0.5700 
  2 C       -1.3390     0.9320     0.1850 C.2   1 <1>   0.5440 
  3 N       -2.4970     0.1970     0.3210 N.am  1 <1>  -0.6600 
  4 C       -1.3580     2.3770     0.2330 C.ar  1 <1>   0.0860 
  5 C       -3.8490     0.7300     0.0140 C.3   1 <1>   0.1400 
  6 C       -2.4930    -1.2860     0.2510 C.3   1 <1>   0.1400 
  7 C       -0.7960     3.1460    -0.8010 C.ar  1 <1>   0.1000 
  8 C       -1.9440     3.0420     1.3120 C.ar  1 <1>  -0.1500 
  9 C       -4.6350    -0.4740    -0.5030 C.3   1 <1>   0.2000 
 10 C       -3.9610    -1.6940     0.1190 C.3   1 <1>  -0.0800 
 11 N       -0.1710     2.5490    -1.8820 N.pl3 1 <1>  -0.9000 
 12 C       -0.8590     4.5350    -0.7460 C.ar  1 <1>  -0.1500 
 13 C       -1.9900     4.4210     1.3530 C.ar  1 <1>   0.0830 
 14 O       -5.9670    -0.4180    -0.1260 O.3   1 <1>  -0.6800 
 15 C       -4.1690    -2.9770    -0.7000 C.3   1 <1>   0.0200 
 16 C       -1.4530     5.1740     0.3230 C.ar  1 <1>  -0.1500 
 17 O       -2.5550     5.0560     2.3960 O.3   1 <1>  -0.5330 
 18 C       -3.4020    -4.1350    -0.0940 C.2   1 <1>  -0.0400 
 19 O       -3.6900    -4.5520     1.1100 O.3   1 <1>  -0.0190 
 20 C       -2.3950    -4.8880    -0.5620 C.2   1 <1>  -0.1500 
 21 N       -2.9260    -5.5410     1.4750 N.2   1 <1>  -0.4100 
 22 C       -2.1360    -5.7650     0.4880 C.2   1 <1>   0.1080 
 23 C       -1.0710    -6.8390     0.4770 C.3   1 <1>  -0.0590 
 24 H       -4.2890     1.1150     0.9170 H     1 <1>   0.0800 
 25 H       -3.7970     1.5010    -0.7360 H     1 <1>   0.0800 
 26 H       -1.9280    -1.5940    -0.6130 H     1 <1>   0.0800 
 27 H       -2.0440    -1.7070     1.1340 H     1 <1>   0.0800 
 28 H       -2.3580     2.4610     2.1150 H     1 <1>   0.1500 
 29 H       -4.5860    -0.5010    -1.5790 H     1 <1>   0.0800 
 30 H       -4.3380    -1.8430     1.1160 H     1 <1>   0.0800 
 31 H        0.1280     1.5740    -1.7070 H     1 <1>   0.4000 
 32 H        0.5630     3.0830    -2.3540 H     1 <1>   0.4000 
 33 H       -0.4400     5.1130    -1.5480 H     1 <1>   0.1500 
 34 H       -6.0530    -0.4890     0.8440 H     1 <1>   0.4000 
 35 H       -3.8370    -2.8250    -1.7120 H     1 <1>   0.0800 
 36 H       -5.2160    -3.2240    -0.7260 H     1 <1>   0.0800 
 37 H       -1.5030     6.2470     0.3690 H     1 <1>   0.1500 
 38 H       -2.8480     4.4500     3.0990 H     1 <1>   0.4500 
 39 H       -1.8830    -4.8510    -1.5050 H     1 <1>   0.1500 
 40 H       -1.2580    -7.5310    -0.3230 H     1 <1>   0.0800 
 41 H       -1.0820    -7.3750     1.4100 H     1 <1>   0.0800 
 42 H       -0.1040    -6.3920     0.3440 H     1 <1>   0.0800 
@<TRIPOS>BOND
  1   1   2  2   
  2   2   3  am  
  3   2   4  1   
  4   3   5  1   
  5   3   6  1   
  6   4   7  ar  
  7   4   8  ar  
  8   5   9  1   
  9   5  24  1   
 10   5  25  1   
 11   6  10  1   
 12   6  26  1   
 13   6  27  1   
 14   7  11  1   
 15   7  12  ar  
 16   8  13  ar  
 17   8  28  1   
 18   9  10  1   
 19   9  14  1   
 20   9  29  1   
 21  10  15  1   
 22  10  30  1   
 23  11  31  1   
 24  11  32  1   
 25  12  16  ar  
 26  12  33  1   
 27  13  16  ar  
 28  13  17  1   
 29  14  34  1   
 30  15  18  1   
 31  15  35  1   
 32  15  36  1   
 33  16  37  1   
 34  17  38  1   
 35  18  19  1   
 36  18  20  2   
 37  19  21  1   
 38  20  22  1   
 39  20  39  1   
 40  21  22  2   
 41  22  23  1   
 42  23  40  1   
 43  23  41  1   
 44  23  42  1   
@<TRIPOS>SUBSTRUCTURE
  1 ****   3 GROUP 4 **** **** 0

# MOE 2024.06 (io_trps.svl 2023.06)
