@<TRIPOS>MOLECULE
NONAME
38 38 1 0 0 
SMALL
USER_CHARGES


@<TRIPOS>ATOM
  1 O       -0.0170     0.1550     2.0140 O.2   1 <1>  -0.5700 
  2 C        0.8670    -0.2870     1.3180 C.2   1 <1>   0.5690 
  3 N        1.7890     0.4810     0.6660 N.am  1 <1>  -0.4940 
  4 C        0.9900    -1.7970     1.1410 C.3   1 <1>   0.1810 
  5 C        1.9950     1.8800     0.6590 C.2   1 <1>  -0.0880 
  6 O        2.0980    -2.1230     0.3290 O.3   1 <1>  -0.5600 
  7 N        2.9570     2.5180    -0.0600 N.pl3 1 <1>   0.3140 
  8 C        1.3270     2.8460     1.3300 C.2   1 <1>  -0.1500 
  9 C        2.2940    -3.4850     0.1570 C.3   1 <1>   0.1200 
 10 N        2.9210     3.8550     0.1360 N.2   1 <1>  -0.7070 
 11 C        3.9250     1.9020    -0.9900 C.3   1 <1>   0.0960 
 12 C        1.9450     4.0360     0.9680 C.2   1 <1>   0.1080 
 13 C        3.5260    -3.6580    -0.7210 C.3   1 <1>  -0.2400 
 14 C        5.0410     1.1680    -0.2310 C.3   1 <1>  -0.1600 
 15 C        1.5500     5.4060     1.4660 C.3   1 <1>  -0.0590 
 16 C        5.9920     0.4540    -1.1990 C.3   1 <1>  -0.1600 
 17 C        7.0880    -0.2950    -0.4370 C.3   1 <1>  -0.2400 
 18 H        2.4470    -0.1010     0.1370 H     1 <1>   0.3700 
 19 H        0.0960    -2.1730     0.6760 H     1 <1>   0.0800 
 20 H        1.1190    -2.2540     2.1050 H     1 <1>   0.0800 
 21 H        0.4970     2.7280     2.0030 H     1 <1>   0.1500 
 22 H        1.4240    -3.9080    -0.3190 H     1 <1>   0.0800 
 23 H        2.4470    -3.9420     1.1210 H     1 <1>   0.0800 
 24 H        4.3460     2.6810    -1.5990 H     1 <1>   0.0800 
 25 H        3.3920     1.2220    -1.6280 H     1 <1>   0.0800 
 26 H        3.3680    -3.1930    -1.6770 H     1 <1>   0.0800 
 27 H        3.7180    -4.7050    -0.8770 H     1 <1>   0.0800 
 28 H        4.3850    -3.2200    -0.2450 H     1 <1>   0.0800 
 29 H        4.6100     0.4430     0.4380 H     1 <1>   0.0800 
 30 H        5.5930     1.8830     0.3550 H     1 <1>   0.0800 
 31 H        0.7190     5.3340     2.1420 H     1 <1>   0.0800 
 32 H        1.2760     6.0240     0.6310 H     1 <1>   0.0800 
 33 H        2.3830     5.8540     1.9750 H     1 <1>   0.0800 
 34 H        6.4480     1.1750    -1.8570 H     1 <1>   0.0800 
 35 H        5.4410    -0.2490    -1.8020 H     1 <1>   0.0800 
 36 H        7.6680     0.3890     0.1580 H     1 <1>   0.0800 
 37 H        7.7480    -0.7870    -1.1290 H     1 <1>   0.0800 
 38 H        6.6570    -1.0380     0.2110 H     1 <1>   0.0800 
@<TRIPOS>BOND
  1   1   2  2   
  2   2   3  am  
  3   2   4  1   
  4   3   5  1   
  5   3  18  1   
  6   4   6  1   
  7   4  19  1   
  8   4  20  1   
  9   5   7  1   
 10   5   8  2   
 11   6   9  1   
 12   7  10  1   
 13   7  11  1   
 14   8  12  1   
 15   8  21  1   
 16   9  13  1   
 17   9  22  1   
 18   9  23  1   
 19  10  12  2   
 20  11  14  1   
 21  11  24  1   
 22  11  25  1   
 23  12  15  1   
 24  13  26  1   
 25  13  27  1   
 26  13  28  1   
 27  14  16  1   
 28  14  29  1   
 29  14  30  1   
 30  15  31  1   
 31  15  32  1   
 32  15  33  1   
 33  16  17  1   
 34  16  34  1   
 35  16  35  1   
 36  17  36  1   
 37  17  37  1   
 38  17  38  1   
@<TRIPOS>SUBSTRUCTURE
  1 ****   3 GROUP 4 **** **** 0

# MOE 2024.06 (io_trps.svl 2023.06)
