@<TRIPOS>MOLECULE
NONAME
40 42 1 0 0 
SMALL
USER_CHARGES


@<TRIPOS>ATOM
  1 O        0.3300    -1.1840    -0.5930 O.3   1 <1>  -0.5600 
  2 C       -0.1050    -2.1400     0.3490 C.3   1 <1>   0.4180 
  3 C       -0.0390     0.1520    -0.3680 C.3   1 <1>   0.1200 
  4 C       -1.5340    -1.8520     0.7950 C.2   1 <1>  -0.2880 
  5 C        0.8710    -2.1530     1.5290 C.3   1 <1>  -0.1600 
  6 C       -0.0430    -3.4940    -0.3690 C.3   1 <1>  -0.1600 
  7 C       -1.5640     0.3090    -0.4080 C.3   1 <1>  -0.0220 
  8 C       -2.2170    -0.7590     0.4500 C.2   1 <1>  -0.2760 
  9 C        2.3180    -2.4130     1.0910 C.3   1 <1>   0.3430 
 10 C        1.3770    -4.0510    -0.5170 C.3   1 <1>   0.3430 
 11 C       -3.6550    -0.4800     0.8520 C.3   1 <1>  -0.1020 
 12 N        2.3760    -2.9780    -0.2930 N.4   1 <1>  -0.9590 
 13 C        3.7670    -3.3510    -0.6970 C.3   1 <1>   0.5240 
 14 C        4.7070    -2.1500    -0.6380 C.2   1 <1>   0.1080 
 15 N        5.1930    -1.6740     0.4720 N.2   1 <1>  -0.7070 
 16 C        5.1490    -1.4350    -1.7470 C.2   1 <1>  -0.1500 
 17 N        5.9740    -0.6400     0.0930 N.pl3 1 <1>   0.3000 
 18 C        5.9560    -0.4780    -1.2430 C.2   1 <1>  -0.3020 
 19 H        0.4160     0.7570    -1.1340 H     1 <1>   0.0800 
 20 H        0.3430     0.4600     0.5890 H     1 <1>   0.0800 
 21 H       -1.9520    -2.6260     1.4150 H     1 <1>   0.1500 
 22 H        0.5760    -2.9270     2.2150 H     1 <1>   0.0800 
 23 H        0.8150    -1.2280     2.0730 H     1 <1>   0.0800 
 24 H       -0.5040    -3.3970    -1.3360 H     1 <1>   0.0800 
 25 H       -0.6220    -4.2170     0.1760 H     1 <1>   0.0800 
 26 H       -1.9160     0.2300    -1.4210 H     1 <1>   0.0800 
 27 H       -1.8170     1.2870    -0.0410 H     1 <1>   0.0800 
 28 H        2.7980    -3.0790     1.7900 H     1 <1>   0.0800 
 29 H        2.8560    -1.4780     1.1080 H     1 <1>   0.0800 
 30 H        1.4920    -4.4700    -1.5040 H     1 <1>   0.0800 
 31 H        1.5310    -4.8370     0.2050 H     1 <1>   0.0800 
 32 H       -4.2690    -0.3700    -0.0240 H     1 <1>   0.0800 
 33 H       -3.7110     0.4240     1.4320 H     1 <1>   0.0800 
 34 H       -4.0470    -1.2880     1.4430 H     1 <1>   0.0800 
 35 H        2.0710    -2.1850    -0.8880 H     1 <1>   0.4500 
 36 H        3.7640    -3.7390    -1.7020 H     1 <1>   0.0800 
 37 H        4.1460    -4.1150    -0.0400 H     1 <1>   0.0800 
 38 H        4.9000    -1.6150    -2.7800 H     1 <1>   0.1500 
 39 H        6.5080    -0.0700     0.7650 H     1 <1>   0.2700 
 40 H        6.5100     0.2920    -1.7510 H     1 <1>   0.1500 
@<TRIPOS>BOND
  1   1   2  1   
  2   1   3  1   
  3   2   4  1   
  4   2   5  1   
  5   2   6  1   
  6   3   7  1   
  7   3  19  1   
  8   3  20  1   
  9   4   8  2   
 10   4  21  1   
 11   5   9  1   
 12   5  22  1   
 13   5  23  1   
 14   6  10  1   
 15   6  24  1   
 16   6  25  1   
 17   7   8  1   
 18   7  26  1   
 19   7  27  1   
 20   8  11  1   
 21   9  12  1   
 22   9  28  1   
 23   9  29  1   
 24  10  12  1   
 25  10  30  1   
 26  10  31  1   
 27  11  32  1   
 28  11  33  1   
 29  11  34  1   
 30  12  13  1   
 31  12  35  1   
 32  13  14  1   
 33  13  36  1   
 34  13  37  1   
 35  14  15  2   
 36  14  16  1   
 37  15  17  1   
 38  16  18  2   
 39  16  38  1   
 40  17  18  1   
 41  17  39  1   
 42  18  40  1   
@<TRIPOS>SUBSTRUCTURE
  1 ****   1 GROUP 4 **** **** 0

# MOE 2024.06 (io_trps.svl 2023.06)
