@<TRIPOS>MOLECULE
NONAME
54 57 1 0 0 
SMALL
USER_CHARGES


@<TRIPOS>ATOM
  1 O       -2.6400     0.5380    -2.4100 O.2   1 <1>  -0.5700 
  2 C       -2.3320     0.9660    -1.3140 C.2   1 <1>   0.7150 
  3 N       -2.4660     0.1220    -0.2390 N.am  1 <1>  -0.6600 
  4 C       -1.9340     2.3370    -1.1570 C.2   1 <1>  -0.2370 
  5 C       -3.2990     0.5210     0.9340 C.3   1 <1>   0.1400 
  6 C       -2.3940    -1.3520    -0.4490 C.3   1 <1>   0.1400 
  7 N       -2.0820     3.2390    -2.1830 N.pl3 1 <1>   0.0330 
  8 C       -1.3700     3.0030    -0.1030 C.2   1 <1>  -0.1500 
  9 C       -4.7220    -0.0850     0.8440 C.3   1 <1>   0.4230 
 10 C       -3.8120    -1.9340    -0.5910 C.3   1 <1>   0.3430 
 11 C       -1.6410     4.4680    -1.7720 C.ar  1 <1>  -0.1520 
 12 C       -1.1850     4.3490    -0.4650 C.ar  1 <1>   0.0000 
 13 N       -4.6940    -1.5850     0.5900 N.4   1 <1>  -0.9590 
 14 C       -5.5630     0.6420    -0.2320 C.3   1 <1>   0.1200 
 15 C       -1.5960     5.6930    -2.4400 C.ar  1 <1>  -0.1500 
 16 C       -0.6710     5.4700     0.1980 C.ar  1 <1>  -0.1500 
 17 C       -6.1080    -2.0870     0.4460 C.3   1 <1>   0.4230 
 18 O       -6.8490     0.0970    -0.2870 O.3   1 <1>  -0.5600 
 19 C       -1.0910     6.7880    -1.7790 C.ar  1 <1>  -0.1500 
 20 C       -0.6260     6.6840    -0.4600 C.ar  1 <1>   0.0830 
 21 C       -6.8990    -1.2660    -0.6010 C.3   1 <1>   0.1200 
 22 C       -6.1200    -3.5970     0.1560 C.3   1 <1>  -0.1600 
 23 O       -0.1470     7.8340     0.0900 O.3   1 <1>  -0.3630 
 24 C       -7.5050    -4.2250     0.3790 C.3   1 <1>  -0.1600 
 25 C        0.3910     7.8330     1.3940 C.3   1 <1>   0.0400 
 26 C       -7.4590    -5.7400     0.1610 C.3   1 <1>  -0.2400 
 27 H       -2.8190     0.1860     1.8370 H     1 <1>   0.0800 
 28 H       -3.3770     1.5930     0.9920 H     1 <1>   0.0800 
 29 H       -1.8280    -1.5680    -1.3400 H     1 <1>   0.0800 
 30 H       -1.8830    -1.8110     0.3790 H     1 <1>   0.0800 
 31 H       -2.4300     3.0080    -3.1210 H     1 <1>   0.2700 
 32 H       -1.0880     2.6050     0.8550 H     1 <1>   0.1500 
 33 H       -5.2090     0.0990     1.7880 H     1 <1>   0.0800 
 34 H       -3.7380    -3.0030    -0.6950 H     1 <1>   0.0800 
 35 H       -4.2430    -1.5440    -1.4990 H     1 <1>   0.0800 
 36 H       -4.2940    -2.0320     1.4220 H     1 <1>   0.4500 
 37 H       -5.1150     0.5680    -1.2080 H     1 <1>   0.0800 
 38 H       -5.6640     1.6850     0.0160 H     1 <1>   0.0800 
 39 H       -1.9510     5.7710    -3.4530 H     1 <1>   0.1500 
 40 H       -0.3260     5.3450     1.2040 H     1 <1>   0.1500 
 41 H       -6.6090    -1.9440     1.3900 H     1 <1>   0.0800 
 42 H       -1.0410     7.7470    -2.2610 H     1 <1>   0.1500 
 43 H       -7.9350    -1.5540    -0.5990 H     1 <1>   0.0800 
 44 H       -6.5090    -1.4080    -1.5940 H     1 <1>   0.0800 
 45 H       -5.8220    -3.7850    -0.8610 H     1 <1>   0.0800 
 46 H       -5.4260    -4.0890     0.8150 H     1 <1>   0.0800 
 47 H       -7.8430    -4.0300     1.3840 H     1 <1>   0.0800 
 48 H       -8.2270    -3.8060    -0.3020 H     1 <1>   0.0800 
 49 H        0.7260     8.8300     1.6170 H     1 <1>   0.0800 
 50 H        1.2230     7.1520     1.4270 H     1 <1>   0.0800 
 51 H       -0.3760     7.5420     2.0880 H     1 <1>   0.0800 
 52 H       -6.7750    -6.2060     0.8500 H     1 <1>   0.0800 
 53 H       -7.1520    -5.9730    -0.8440 H     1 <1>   0.0800 
 54 H       -8.4350    -6.1640     0.3210 H     1 <1>   0.0800 
@<TRIPOS>BOND
  1   1   2  2   
  2   2   3  am  
  3   2   4  1   
  4   3   5  1   
  5   3   6  1   
  6   4   7  1   
  7   4   8  2   
  8   5   9  1   
  9   5  27  1   
 10   5  28  1   
 11   6  10  1   
 12   6  29  1   
 13   6  30  1   
 14   7  11  1   
 15   7  31  1   
 16   8  12  1   
 17   8  32  1   
 18   9  13  1   
 19   9  14  1   
 20   9  33  1   
 21  10  13  1   
 22  10  34  1   
 23  10  35  1   
 24  11  12  ar  
 25  11  15  ar  
 26  12  16  ar  
 27  13  17  1   
 28  13  36  1   
 29  14  18  1   
 30  14  37  1   
 31  14  38  1   
 32  15  19  ar  
 33  15  39  1   
 34  16  20  ar  
 35  16  40  1   
 36  17  21  1   
 37  17  22  1   
 38  17  41  1   
 39  18  21  1   
 40  19  20  ar  
 41  19  42  1   
 42  20  23  1   
 43  21  43  1   
 44  21  44  1   
 45  22  24  1   
 46  22  45  1   
 47  22  46  1   
 48  23  25  1   
 49  24  26  1   
 50  24  47  1   
 51  24  48  1   
 52  25  49  1   
 53  25  50  1   
 54  25  51  1   
 55  26  52  1   
 56  26  53  1   
 57  26  54  1   
@<TRIPOS>SUBSTRUCTURE
  1 ****   2 GROUP 4 **** **** 0

# MOE 2024.06 (io_trps.svl 2023.06)
