@<TRIPOS>MOLECULE
NONAME
55 58 1 0 0 
SMALL
USER_CHARGES


@<TRIPOS>ATOM
  1 O       -0.6310    -0.0050     0.6910 O.3   1 <1>  -0.2800 
  2 C        0.6060    -0.4580     0.5770 C.2   1 <1>   0.4250 
  3 C       -1.3820    -1.0240     0.9870 C.2   1 <1>  -0.0400 
  4 N        0.6850    -1.7410     0.7820 N.2   1 <1>  -0.5650 
  5 C        1.6850     0.4510     0.2510 C.ar  1 <1>   0.0530 
  6 C       -0.5870    -2.1000     1.0510 C.2   1 <1>   0.0460 
  7 C       -2.8700    -0.8030     1.1770 C.3   1 <1>  -0.0600 
  8 C        3.0120     0.0160     0.2200 C.ar  1 <1>  -0.1500 
  9 C        1.4500     1.7960    -0.0470 C.ar  1 <1>  -0.1500 
 10 C       -0.9330    -3.5510     1.3420 C.3   1 <1>   0.5240 
 11 C        4.0470     0.8760    -0.0950 C.ar  1 <1>  -0.1500 
 12 C        2.4800     2.6630    -0.3630 C.ar  1 <1>  -0.1500 
 13 N       -0.3010    -4.3970     0.2920 N.4   1 <1>  -0.9590 
 14 C        3.7930     2.2050    -0.3900 C.ar  1 <1>   0.0830 
 15 C       -0.9890    -4.2160    -1.0180 C.3   1 <1>   0.3430 
 16 C       -0.3810    -5.8490     0.6290 C.3   1 <1>   0.3430 
 17 O        4.8600     2.9820    -0.6890 O.3   1 <1>  -0.3620 
 18 C       -2.0320    -5.3340    -1.0780 C.3   1 <1>   0.2000 
 19 C       -1.3360    -6.5050    -0.3860 C.3   1 <1>  -0.0800 
 20 C        4.7110     4.3490    -1.0040 C.3   1 <1>   0.0400 
 21 O       -3.1300    -4.9610    -0.3070 O.3   1 <1>  -0.6800 
 22 C       -0.5690    -7.3830    -1.3930 C.3   1 <1>   0.0210 
 23 C        0.0490    -8.5890    -0.7120 C.2   1 <1>   0.1080 
 24 N        0.9780    -8.4910     0.1880 N.2   1 <1>  -0.7070 
 25 C       -0.2980    -9.9110    -0.9690 C.2   1 <1>  -0.1500 
 26 N        1.2590    -9.7680     0.5270 N.pl3 1 <1>   0.3000 
 27 C        0.4950   -10.6420    -0.1580 C.2   1 <1>  -0.3320 
 28 C        0.5730   -12.1500     0.0020 C.3   1 <1>  -0.0600 
 29 H       -3.3720    -1.7270     1.4010 H     1 <1>   0.0800 
 30 H       -3.2930    -0.3860     0.2810 H     1 <1>   0.0800 
 31 H       -3.0340    -0.1130     1.9860 H     1 <1>   0.0800 
 32 H        3.2370    -1.0110     0.4480 H     1 <1>   0.1500 
 33 H        0.4420     2.1710    -0.0310 H     1 <1>   0.1500 
 34 H       -2.0010    -3.6880     1.3550 H     1 <1>   0.0800 
 35 H       -0.5350    -3.8120     2.3090 H     1 <1>   0.0800 
 36 H        5.0640     0.5260    -0.1140 H     1 <1>   0.1500 
 37 H        2.2450     3.6860    -0.5840 H     1 <1>   0.1500 
 38 H        0.6710    -4.0550     0.2290 H     1 <1>   0.4500 
 39 H       -1.4430    -3.2430    -1.1150 H     1 <1>   0.0800 
 40 H       -0.2780    -4.3530    -1.8150 H     1 <1>   0.0800 
 41 H        0.6000    -6.2910     0.5720 H     1 <1>   0.0800 
 42 H       -0.7580    -5.9870     1.6290 H     1 <1>   0.0800 
 43 H       -2.3660    -5.5400    -2.0810 H     1 <1>   0.0800 
 44 H       -2.0450    -7.1330     0.1260 H     1 <1>   0.0800 
 45 H        5.6870     4.7530    -1.2040 H     1 <1>   0.0800 
 46 H        4.2710     4.8550    -0.1640 H     1 <1>   0.0800 
 47 H        4.0910     4.4400    -1.8790 H     1 <1>   0.0800 
 48 H       -3.8740    -5.5910    -0.4270 H     1 <1>   0.4000 
 49 H        0.2170    -6.8240    -1.8700 H     1 <1>   0.0800 
 50 H       -1.2400    -7.7320    -2.1580 H     1 <1>   0.0800 
 51 H       -1.0380   -10.2570    -1.6690 H     1 <1>   0.1500 
 52 H        1.9770   -10.0120     1.2210 H     1 <1>   0.2700 
 53 H       -0.1330   -12.6290    -0.6520 H     1 <1>   0.0800 
 54 H        0.3450   -12.4300     1.0150 H     1 <1>   0.0800 
 55 H        1.5600   -12.5000    -0.2440 H     1 <1>   0.0800 
@<TRIPOS>BOND
  1   1   2  1   
  2   1   3  1   
  3   2   4  2   
  4   2   5  1   
  5   3   6  2   
  6   3   7  1   
  7   4   6  1   
  8   5   8  ar  
  9   5   9  ar  
 10   6  10  1   
 11   7  29  1   
 12   7  30  1   
 13   7  31  1   
 14   8  11  ar  
 15   8  32  1   
 16   9  12  ar  
 17   9  33  1   
 18  10  13  1   
 19  10  34  1   
 20  10  35  1   
 21  11  14  ar  
 22  11  36  1   
 23  12  14  ar  
 24  12  37  1   
 25  13  15  1   
 26  13  16  1   
 27  13  38  1   
 28  14  17  1   
 29  15  18  1   
 30  15  39  1   
 31  15  40  1   
 32  16  19  1   
 33  16  41  1   
 34  16  42  1   
 35  17  20  1   
 36  18  19  1   
 37  18  21  1   
 38  18  43  1   
 39  19  22  1   
 40  19  44  1   
 41  20  45  1   
 42  20  46  1   
 43  20  47  1   
 44  21  48  1   
 45  22  23  1   
 46  22  49  1   
 47  22  50  1   
 48  23  24  2   
 49  23  25  1   
 50  24  26  1   
 51  25  27  2   
 52  25  51  1   
 53  26  27  1   
 54  26  52  1   
 55  27  28  1   
 56  28  53  1   
 57  28  54  1   
 58  28  55  1   
@<TRIPOS>SUBSTRUCTURE
  1 ****  13 GROUP 4 **** **** 0

# MOE 2024.06 (io_trps.svl 2023.06)
