@<TRIPOS>MOLECULE
NONAME
42 43 1 0 0 
SMALL
USER_CHARGES


@<TRIPOS>ATOM
  1 S       -0.3790     0.2560    -1.9780 S.o2  1 <1>   1.4470 
  2 O        0.2880    -0.4880    -3.0230 O.2   1 <1>  -0.6500 
  3 O       -1.1510     1.4130    -2.3770 O.2   1 <1>  -0.6500 
  4 N       -1.4260    -0.7900    -1.1430 N.am  1 <1>  -0.8490 
  5 C        0.8360     0.7540    -0.7300 C.ar  1 <1>  -0.0090 
  6 C       -0.8070    -2.0760    -0.7500 C.3   1 <1>   0.1960 
  7 C       -2.2480    -0.1260    -0.1360 C.3   1 <1>   0.1960 
  8 C        0.6500     1.8510     0.1010 C.ar  1 <1>   0.1900 
  9 C        2.0140     0.0530    -0.5090 C.ar  1 <1>   0.1900 
 10 C       -1.7350    -3.0740    -0.0130 C.3   1 <1>  -0.1060 
 11 C       -3.2730    -1.0910     0.4400 C.3   1 <1>  -0.1600 
 12 F       -0.4430     2.5580     0.0200 F     1 <1>  -0.1900 
 13 C        1.5680     2.2540     1.0580 C.ar  1 <1>  -0.1500 
 14 F        2.2780    -1.0220    -1.1980 F     1 <1>  -0.1900 
 15 C        2.9590     0.4190     0.4360 C.ar  1 <1>  -0.1500 
 16 C       -2.6560    -3.7850    -1.0250 C.2   1 <1>   0.9060 
 17 C       -2.5430    -2.2830     1.0440 C.3   1 <1>   0.2000 
 18 C       -0.8670    -4.1290     0.7420 C.3   1 <1>  -0.1600 
 19 C        2.7370     1.5330     1.2250 C.ar  1 <1>  -0.1500 
 20 O       -3.7970    -4.1330    -0.6710 O.co2 1 <1>  -0.9000 
 21 O       -2.2310    -4.0760    -2.1480 O.co2 1 <1>  -0.9000 
 22 O       -3.4780    -3.0870     1.6540 O.3   1 <1>  -0.6800 
 23 C        0.1210    -4.9220    -0.1330 C.3   1 <1>  -0.1600 
 24 C        0.9080    -5.9310     0.7080 C.3   1 <1>  -0.2400 
 25 H       -0.4100    -2.5500    -1.6330 H     1 <1>   0.0800 
 26 H        0.0230    -1.8660    -0.1010 H     1 <1>   0.0800 
 27 H       -1.6270     0.2500     0.6590 H     1 <1>   0.0800 
 28 H       -2.7690     0.7030    -0.5860 H     1 <1>   0.0800 
 29 H       -3.9430    -1.4100    -0.3400 H     1 <1>   0.0800 
 30 H       -3.8420    -0.5910     1.2020 H     1 <1>   0.0800 
 31 H        1.3660     3.1220     1.6620 H     1 <1>   0.1500 
 32 H        3.8560    -0.1660     0.5490 H     1 <1>   0.1500 
 33 H       -1.8850    -1.9310     1.8190 H     1 <1>   0.0800 
 34 H       -0.3140    -3.6390     1.5240 H     1 <1>   0.0800 
 35 H       -1.5320    -4.8320     1.2150 H     1 <1>   0.0800 
 36 H        3.4630     1.8340     1.9630 H     1 <1>   0.1500 
 37 H       -3.8760    -3.6270     0.9020 H     1 <1>   0.4000 
 38 H       -0.4210    -5.4540    -0.8980 H     1 <1>   0.0800 
 39 H        0.8130    -4.2600    -0.6210 H     1 <1>   0.0800 
 40 H        0.2360    -6.6270     1.1790 H     1 <1>   0.0800 
 41 H        1.4780    -5.4260     1.4680 H     1 <1>   0.0800 
 42 H        1.5840    -6.4820     0.0780 H     1 <1>   0.0800 
@<TRIPOS>BOND
  1   1   2  2   
  2   1   3  2   
  3   1   4  am  
  4   1   5  1   
  5   4   6  1   
  6   4   7  1   
  7   5   8  ar  
  8   5   9  ar  
  9   6  10  1   
 10   6  25  1   
 11   6  26  1   
 12   7  11  1   
 13   7  27  1   
 14   7  28  1   
 15   8  12  1   
 16   8  13  ar  
 17   9  14  1   
 18   9  15  ar  
 19  10  16  1   
 20  10  17  1   
 21  10  18  1   
 22  11  17  1   
 23  11  29  1   
 24  11  30  1   
 25  13  19  ar  
 26  13  31  1   
 27  15  19  ar  
 28  15  32  1   
 29  16  20  ar  
 30  16  21  ar  
 31  17  22  1   
 32  17  33  1   
 33  18  23  1   
 34  18  34  1   
 35  18  35  1   
 36  19  36  1   
 37  22  37  1   
 38  23  24  1   
 39  23  38  1   
 40  23  39  1   
 41  24  40  1   
 42  24  41  1   
 43  24  42  1   
@<TRIPOS>SUBSTRUCTURE
  1 ****   6 GROUP 4 **** **** 0

# MOE 2024.06 (io_trps.svl 2023.06)
