@<TRIPOS>MOLECULE
NONAME
46 48 1 0 0 
SMALL
USER_CHARGES


@<TRIPOS>ATOM
  1 CL      -0.8730     1.2000    -1.4930 Cl    1 <1>  -0.1770 
  2 C       -0.1430     2.6980    -0.9720 C.ar  1 <1>   0.1770 
  3 C       -0.7530     3.8970    -1.2950 C.ar  1 <1>  -0.1500 
  4 C        1.0310     2.6640    -0.2440 C.ar  1 <1>  -0.1500 
  5 C       -0.1770     5.0880    -0.8840 C.ar  1 <1>  -0.1500 
  6 C        1.6050     3.8550     0.1660 C.ar  1 <1>  -0.1500 
  7 C        1.0100     5.0690    -0.1510 C.ar  1 <1>   0.0830 
  8 O        1.6430     6.1850     0.2880 O.3   1 <1>  -0.3630 
  9 C        1.1300     7.4810     0.0180 C.3   1 <1>   0.1810 
 10 C        2.0050     8.5810     0.6220 C.2   1 <1>   0.5690 
 11 O        1.4790     9.6340     0.9010 O.2   1 <1>  -0.5700 
 12 N        3.3610     8.4560     0.7830 N.am  1 <1>  -0.6600 
 13 C        4.0750     9.2670     1.8400 C.3   1 <1>   0.1400 
 14 C        4.2280     7.7960    -0.2380 C.3   1 <1>   0.1400 
 15 C        4.7510    10.5400     1.2710 C.3   1 <1>   0.4230 
 16 C        5.1000     8.7880    -1.0520 C.3   1 <1>  -0.0800 
 17 N        4.0450    10.9010    -0.0120 N.4   1 <1>  -0.9590 
 18 C        6.2900    10.3620     1.1780 C.3   1 <1>   0.1200 
 19 C        6.5630     8.8200    -0.5820 C.3   1 <1>   0.1200 
 20 C        4.5680    10.2250    -1.2420 C.3   1 <1>   0.3430 
 21 C        4.0140    12.4110    -0.2130 C.3   1 <1>   0.2370 
 22 O        6.6500     9.0690     0.7780 O.3   1 <1>  -0.5600 
 23 C        5.3900    13.0720    -0.3150 C.2   1 <1>   0.9060 
 24 O        5.9060    13.4820     0.7280 O.co2 1 <1>  -0.9000 
 25 O        5.9850    13.0080    -1.3940 O.co2 1 <1>  -0.9000 
 26 H       -1.6680     3.8900    -1.8610 H     1 <1>   0.1500 
 27 H        1.4850     1.7190    -0.0040 H     1 <1>   0.1500 
 28 H       -0.6670     6.0070    -1.1420 H     1 <1>   0.1500 
 29 H        2.5180     3.8490     0.7350 H     1 <1>   0.1500 
 30 H        1.0760     7.6100    -1.0470 H     1 <1>   0.0800 
 31 H        0.1460     7.5450     0.4440 H     1 <1>   0.0800 
 32 H        3.3620     9.5750     2.5850 H     1 <1>   0.0800 
 33 H        4.7940     8.6470     2.3470 H     1 <1>   0.0800 
 34 H        4.8560     7.0720     0.2550 H     1 <1>   0.0800 
 35 H        3.6080     7.2510    -0.9290 H     1 <1>   0.0800 
 36 H        4.5860    11.3400     1.9730 H     1 <1>   0.0800 
 37 H        5.1600     8.3810    -2.0450 H     1 <1>   0.0800 
 38 H        3.0790    10.5590     0.1460 H     1 <1>   0.4500 
 39 H        6.7040    10.5000     2.1610 H     1 <1>   0.0800 
 40 H        6.7570    11.0840     0.5310 H     1 <1>   0.0800 
 41 H        7.1370     9.5650    -1.1110 H     1 <1>   0.0800 
 42 H        7.0210     7.8610    -0.7510 H     1 <1>   0.0800 
 43 H        3.7810    10.2080    -1.9770 H     1 <1>   0.0800 
 44 H        5.3680    10.8210    -1.6550 H     1 <1>   0.0800 
 45 H        3.4800    12.6480    -1.1140 H     1 <1>   0.0800 
 46 H        3.5050    12.8750     0.6120 H     1 <1>   0.0800 
@<TRIPOS>BOND
  1   1   2  1   
  2   2   3  ar  
  3   2   4  ar  
  4   3   5  ar  
  5   3  26  1   
  6   4   6  ar  
  7   4  27  1   
  8   5   7  ar  
  9   5  28  1   
 10   6   7  ar  
 11   6  29  1   
 12   7   8  1   
 13   8   9  1   
 14   9  10  1   
 15   9  30  1   
 16   9  31  1   
 17  10  11  2   
 18  10  12  am  
 19  12  13  1   
 20  12  14  1   
 21  13  15  1   
 22  13  32  1   
 23  13  33  1   
 24  14  16  1   
 25  14  34  1   
 26  14  35  1   
 27  15  17  1   
 28  15  18  1   
 29  15  36  1   
 30  16  19  1   
 31  16  20  1   
 32  16  37  1   
 33  17  20  1   
 34  17  21  1   
 35  17  38  1   
 36  18  22  1   
 37  18  39  1   
 38  18  40  1   
 39  19  22  1   
 40  19  41  1   
 41  19  42  1   
 42  20  43  1   
 43  20  44  1   
 44  21  23  1   
 45  21  45  1   
 46  21  46  1   
 47  23  24  ar  
 48  23  25  ar  
@<TRIPOS>SUBSTRUCTURE
  1 ****  12 GROUP 4 **** **** 0

# MOE 2024.06 (io_trps.svl 2023.06)
