@<TRIPOS>MOLECULE
NONAME
38 39 1 0 0 
SMALL
USER_CHARGES


@<TRIPOS>ATOM
  1 O        0.4990     0.2030     2.4480 O.2   1 <1>  -0.5700 
  2 C        0.8280    -0.5010     1.5210 C.2   1 <1>   0.5690 
  3 N        1.5350    -0.0740     0.4410 N.am  1 <1>  -0.4930 
  4 C        0.4450    -1.9820     1.5390 C.3   1 <1>   0.1710 
  5 C        2.0280     1.2120     0.1100 C.2   1 <1>   0.0630 
  6 N        0.4770    -2.6240     0.1870 N.3   1 <1>  -0.8100 
  7 C        2.7040     1.5770    -1.0560 C.2   1 <1>   0.1080 
  8 C        1.9590     2.3500     0.8270 C.2   1 <1>  -0.3020 
  9 C        0.4320    -4.0900     0.2410 C.3   1 <1>   0.1900 
 10 C       -0.6740    -2.2250    -0.6250 C.3   1 <1>   0.1100 
 11 N        3.0270     2.8330    -1.0660 N.2   1 <1>  -0.7070 
 12 C        3.0400     0.6450    -2.1990 C.3   1 <1>  -0.0590 
 13 N        2.5640     3.3120     0.1020 N.pl3 1 <1>   0.3140 
 14 C       -0.1020    -4.5130    -1.1320 C.3   1 <1>  -0.1600 
 15 C        1.8170    -4.6870     0.5550 C.3   1 <1>   0.1200 
 16 C       -0.7330    -3.2600    -1.7350 C.3   1 <1>  -0.1600 
 17 C        2.7320     4.7160     0.4880 C.3   1 <1>   0.0160 
 18 O        1.7640    -6.0780     0.5560 O.3   1 <1>  -0.6800 
 19 H        1.6700    -0.8150    -0.2530 H     1 <1>   0.3700 
 20 H       -0.5340    -2.0820     1.9750 H     1 <1>   0.0800 
 21 H        1.1440    -2.4750     2.1880 H     1 <1>   0.0800 
 22 H        1.5180     2.5140     1.7920 H     1 <1>   0.1500 
 23 H       -0.2730    -4.3880     0.9990 H     1 <1>   0.0800 
 24 H       -1.5780    -2.2770    -0.0400 H     1 <1>   0.0800 
 25 H       -0.5580    -1.2280    -1.0170 H     1 <1>   0.0800 
 26 H        3.6970    -0.1310    -1.8530 H     1 <1>   0.0800 
 27 H        3.5300     1.1920    -2.9830 H     1 <1>   0.0800 
 28 H        2.1400     0.2070    -2.5890 H     1 <1>   0.0800 
 29 H        0.6950    -4.8660    -1.7630 H     1 <1>   0.0800 
 30 H       -0.8210    -5.3050    -1.0180 H     1 <1>   0.0800 
 31 H        2.1670    -4.3690     1.5210 H     1 <1>   0.0800 
 32 H        2.5260    -4.3880    -0.1970 H     1 <1>   0.0800 
 33 H       -1.7450    -3.4280    -2.0600 H     1 <1>   0.0800 
 34 H       -0.1480    -2.9200    -2.5710 H     1 <1>   0.0800 
 35 H        1.8060     5.0870     0.8840 H     1 <1>   0.0800 
 36 H        3.0110     5.2870    -0.3780 H     1 <1>   0.0800 
 37 H        3.5040     4.7840     1.2310 H     1 <1>   0.0800 
 38 H        1.1870    -6.4080     1.2710 H     1 <1>   0.4000 
@<TRIPOS>BOND
  1   1   2  2   
  2   2   3  am  
  3   2   4  1   
  4   3   5  1   
  5   3  19  1   
  6   4   6  1   
  7   4  20  1   
  8   4  21  1   
  9   5   7  1   
 10   5   8  2   
 11   6   9  1   
 12   6  10  1   
 13   7  11  2   
 14   7  12  1   
 15   8  13  1   
 16   8  22  1   
 17   9  14  1   
 18   9  15  1   
 19   9  23  1   
 20  10  16  1   
 21  10  24  1   
 22  10  25  1   
 23  11  13  1   
 24  12  26  1   
 25  12  27  1   
 26  12  28  1   
 27  13  17  1   
 28  14  16  1   
 29  14  29  1   
 30  14  30  1   
 31  15  18  1   
 32  15  31  1   
 33  15  32  1   
 34  16  33  1   
 35  16  34  1   
 36  17  35  1   
 37  17  36  1   
 38  17  37  1   
 39  18  38  1   
@<TRIPOS>SUBSTRUCTURE
  1 ****   3 GROUP 4 **** **** 0

# MOE 2024.06 (io_trps.svl 2023.06)
