@<TRIPOS>MOLECULE
NONAME
46 48 1 0 0 
SMALL
USER_CHARGES


@<TRIPOS>ATOM
  1 S       -1.6540     0.8500    -0.7610 S.3   1 <1>  -0.0800 
  2 C        0.0360     1.2260    -0.9680 C.2   1 <1>   0.1980 
  3 C       -1.8260     2.2900     0.1870 C.2   1 <1>  -0.1100 
  4 N        0.4120     2.2950    -0.3910 N.2   1 <1>  -0.5650 
  5 C        0.8570     0.2620    -1.7930 C.3   1 <1>  -0.0600 
  6 C       -0.6440     2.9380     0.2930 C.2   1 <1>   0.1410 
  7 C       -0.4810     4.1980     1.0230 C.2   1 <1>   0.7160 
  8 O       -1.4680     4.8910     1.1900 O.2   1 <1>  -0.5700 
  9 N        0.7230     4.6580     1.5460 N.am  1 <1>  -0.6600 
 10 C        1.9340     3.7950     1.7010 C.3   1 <1>   0.1400 
 11 C        0.8220     6.0130     2.1640 C.3   1 <1>   0.1400 
 12 C        2.8680     3.9290     0.4850 C.3   1 <1>   0.3430 
 13 C        2.1370     6.7230     1.8260 C.3   1 <1>  -0.1600 
 14 N        3.5180     5.2660     0.3750 N.4   1 <1>  -0.9590 
 15 C        2.6330     6.4660     0.4030 C.3   1 <1>   0.3430 
 16 C        4.5410     5.2920    -0.7030 C.3   1 <1>   0.4860 
 17 C        5.3160     6.6100    -0.7390 C.ar  1 <1>  -0.1430 
 18 C        5.8750     7.1840     0.4180 C.ar  1 <1>  -0.1790 
 19 C        5.4600     7.2390    -1.9670 C.ar  1 <1>  -0.1500 
 20 C        5.7350     6.5990     1.7430 C.2   1 <1>   0.9790 
 21 C        6.5570     8.3920     0.2790 C.ar  1 <1>  -0.1500 
 22 C        6.1470     8.4330    -2.0760 C.ar  1 <1>  -0.1500 
 23 O        5.4090     7.2980     2.7070 O.co2 1 <1>  -0.9000 
 24 O        5.7060     5.3620     1.8860 O.co2 1 <1>  -0.9000 
 25 C        6.6960     9.0110    -0.9480 C.ar  1 <1>  -0.1500 
 26 H       -2.7990     2.5280     0.5780 H     1 <1>   0.1500 
 27 H        0.8340    -0.7130    -1.3430 H     1 <1>   0.0800 
 28 H        1.8750     0.5990    -1.8480 H     1 <1>   0.0800 
 29 H        0.4540     0.2010    -2.7870 H     1 <1>   0.0800 
 30 H        1.6320     2.7680     1.8030 H     1 <1>   0.0800 
 31 H        2.4680     4.0540     2.5990 H     1 <1>   0.0800 
 32 H        0.7230     5.9260     3.2330 H     1 <1>   0.0800 
 33 H        0.0110     6.6300     1.8150 H     1 <1>   0.0800 
 34 H        2.3080     3.7240    -0.4100 H     1 <1>   0.0800 
 35 H        3.6380     3.1810     0.5750 H     1 <1>   0.0800 
 36 H        2.8980     6.4650     2.5430 H     1 <1>   0.0800 
 37 H        1.9720     7.7790     1.9380 H     1 <1>   0.0800 
 38 H        4.1320     5.3370     1.2250 H     1 <1>   0.4500 
 39 H        3.1980     7.3300     0.0940 H     1 <1>   0.0800 
 40 H        1.8030     6.3430    -0.2720 H     1 <1>   0.0800 
 41 H        4.0660     5.1290    -1.6550 H     1 <1>   0.0800 
 42 H        5.2470     4.4950    -0.5340 H     1 <1>   0.0800 
 43 H        5.0410     6.8060    -2.8590 H     1 <1>   0.1500 
 44 H        6.9780     8.8500     1.1600 H     1 <1>   0.1500 
 45 H        6.2570     8.9140    -3.0320 H     1 <1>   0.1500 
 46 H        7.2310     9.9420    -1.0210 H     1 <1>   0.1500 
@<TRIPOS>BOND
  1   1   2  1   
  2   1   3  1   
  3   2   4  2   
  4   2   5  1   
  5   3   6  2   
  6   3  26  1   
  7   4   6  1   
  8   5  27  1   
  9   5  28  1   
 10   5  29  1   
 11   6   7  1   
 12   7   8  2   
 13   7   9  am  
 14   9  10  1   
 15   9  11  1   
 16  10  12  1   
 17  10  30  1   
 18  10  31  1   
 19  11  13  1   
 20  11  32  1   
 21  11  33  1   
 22  12  14  1   
 23  12  34  1   
 24  12  35  1   
 25  13  15  1   
 26  13  36  1   
 27  13  37  1   
 28  14  15  1   
 29  14  16  1   
 30  14  38  1   
 31  15  39  1   
 32  15  40  1   
 33  16  17  1   
 34  16  41  1   
 35  16  42  1   
 36  17  18  ar  
 37  17  19  ar  
 38  18  20  1   
 39  18  21  ar  
 40  19  22  ar  
 41  19  43  1   
 42  20  23  ar  
 43  20  24  ar  
 44  21  25  ar  
 45  21  44  1   
 46  22  25  ar  
 47  22  45  1   
 48  25  46  1   
@<TRIPOS>SUBSTRUCTURE
  1 ****  14 GROUP 4 **** **** 0

# MOE 2024.06 (io_trps.svl 2023.06)
