@<TRIPOS>MOLECULE
NONAME
42 45 1 0 0 
SMALL
USER_CHARGES


@<TRIPOS>ATOM
  1 S       -0.2500     0.0630     0.4250 S.3   1 <1>  -0.0800 
  2 C       -0.4500    -1.6690     0.5680 C.ar  1 <1>   0.0400 
  3 C        0.7480    -0.1920    -1.0010 C.2   1 <1>   0.2280 
  4 C        0.2480    -2.2700    -0.4610 C.ar  1 <1>   0.2270 
  5 C       -1.1600    -2.3800     1.5160 C.ar  1 <1>  -0.1500 
  6 N        0.9130    -1.4080    -1.3310 N.2   1 <1>  -0.5650 
  7 C        0.2330    -3.6520    -0.5480 C.ar  1 <1>  -0.1500 
  8 C       -1.1630    -3.7590     1.4080 C.ar  1 <1>  -0.1500 
  9 C       -0.4780    -4.4200     0.3750 C.ar  1 <1>   0.0860 
 10 C       -0.4960    -5.8660     0.2670 C.2   1 <1>   0.5440 
 11 O        0.5460    -6.4730     0.1150 O.2   1 <1>  -0.5700 
 12 N       -1.6720    -6.5800     0.3190 N.am  1 <1>  -0.6600 
 13 C       -3.0170    -6.0190     0.0330 C.3   1 <1>   0.1400 
 14 C       -1.6970    -8.0620     0.2250 C.3   1 <1>   0.1400 
 15 C       -3.8210    -7.1970    -0.5160 C.3   1 <1>   0.2000 
 16 C       -3.1740    -8.4370     0.0920 C.3   1 <1>  -0.0800 
 17 O       -5.1550    -7.1200    -0.1500 O.3   1 <1>  -0.6800 
 18 C       -3.4120    -9.7120    -0.7320 C.3   1 <1>   0.0210 
 19 C       -2.6760   -10.8910    -0.1270 C.2   1 <1>   0.1080 
 20 N       -2.9480   -11.3600     1.0500 N.2   1 <1>  -0.7070 
 21 C       -1.6390   -11.5840    -0.7430 C.2   1 <1>  -0.1500 
 22 N       -2.0840   -12.3780     1.2190 N.pl3 1 <1>   0.3000 
 23 C       -1.2780   -12.5320     0.1460 C.2   1 <1>  -0.3320 
 24 C       -0.1970   -13.5910     0.0370 C.3   1 <1>  -0.0600 
 25 H        1.1390     0.6890    -1.4800 H     1 <1>   0.1500 
 26 H       -1.6840    -1.8690     2.3060 H     1 <1>   0.1500 
 27 H        0.7810    -4.1320    -1.3390 H     1 <1>   0.1500 
 28 H       -1.6950    -4.3480     2.1340 H     1 <1>   0.1500 
 29 H       -3.4520    -5.6590     0.9480 H     1 <1>   0.0800 
 30 H       -2.9570    -5.2260    -0.6930 H     1 <1>   0.0800 
 31 H       -1.1400    -8.3680    -0.6450 H     1 <1>   0.0800 
 32 H       -1.2560    -8.5080     1.1000 H     1 <1>   0.0800 
 33 H       -3.7620    -7.2060    -1.5910 H     1 <1>   0.0800 
 34 H       -3.5490    -8.5900     1.0890 H     1 <1>   0.0800 
 35 H       -5.2560    -7.3130     0.8030 H     1 <1>   0.4000 
 36 H       -3.0830    -9.5670    -1.7450 H     1 <1>   0.0800 
 37 H       -4.4640    -9.9360    -0.7500 H     1 <1>   0.0800 
 38 H       -1.2300   -11.3840    -1.7170 H     1 <1>   0.1500 
 39 H       -2.0680   -12.9470     2.0740 H     1 <1>   0.2700 
 40 H        0.3060   -13.5090    -0.9110 H     1 <1>   0.0800 
 41 H       -0.6290   -14.5730     0.1110 H     1 <1>   0.0800 
 42 H        0.5280   -13.4650     0.8210 H     1 <1>   0.0800 
@<TRIPOS>BOND
  1   1   2  1   
  2   1   3  1   
  3   2   4  ar  
  4   2   5  ar  
  5   3   6  2   
  6   3  25  1   
  7   4   6  1   
  8   4   7  ar  
  9   5   8  ar  
 10   5  26  1   
 11   7   9  ar  
 12   7  27  1   
 13   8   9  ar  
 14   8  28  1   
 15   9  10  1   
 16  10  11  2   
 17  10  12  am  
 18  12  13  1   
 19  12  14  1   
 20  13  15  1   
 21  13  29  1   
 22  13  30  1   
 23  14  16  1   
 24  14  31  1   
 25  14  32  1   
 26  15  16  1   
 27  15  17  1   
 28  15  33  1   
 29  16  18  1   
 30  16  34  1   
 31  17  35  1   
 32  18  19  1   
 33  18  36  1   
 34  18  37  1   
 35  19  20  2   
 36  19  21  1   
 37  20  22  1   
 38  21  23  2   
 39  21  38  1   
 40  22  23  1   
 41  22  39  1   
 42  23  24  1   
 43  24  40  1   
 44  24  41  1   
 45  24  42  1   
@<TRIPOS>SUBSTRUCTURE
  1 ****  12 GROUP 4 **** **** 0

# MOE 2024.06 (io_trps.svl 2023.06)
