@<TRIPOS>MOLECULE
NONAME
43 46 1 0 0 
SMALL
USER_CHARGES


@<TRIPOS>ATOM
  1 S        0.7280    -0.6230     1.1780 S.3   1 <1>  -0.0800 
  2 C        0.4420    -2.0780     0.2180 C.ar  1 <1>   0.0400 
  3 C       -0.8780    -0.7150     1.8810 C.2   1 <1>  -0.1100 
  4 C       -0.8300    -2.5710     0.4660 C.ar  1 <1>   0.0000 
  5 C        1.3310    -2.6680    -0.6600 C.ar  1 <1>  -0.1500 
  6 C       -1.5790    -1.7740     1.4120 C.2   1 <1>  -0.0860 
  7 C       -1.2160    -3.7290    -0.2070 C.ar  1 <1>  -0.1500 
  8 C        0.9250    -3.8120    -1.3220 C.ar  1 <1>  -0.1500 
  9 C       -2.9370    -2.1170     1.7620 C.2   1 <1>   0.7160 
 10 C       -0.3440    -4.3390    -1.0930 C.ar  1 <1>  -0.1500 
 11 O       -3.1510    -3.1260     2.4060 O.2   1 <1>  -0.5700 
 12 N       -3.9950    -1.3300     1.3590 N.am  1 <1>  -0.6600 
 13 C       -5.4070    -1.6830     1.6910 C.3   1 <1>   0.1400 
 14 C       -3.8790    -0.2350     0.3590 C.3   1 <1>   0.1400 
 15 C       -6.1440    -2.1780     0.4310 C.3   1 <1>   0.0000 
 16 C       -4.5810    -0.6520    -0.9380 C.3   1 <1>  -0.1600 
 17 C       -7.5980    -2.5550     0.7760 C.3   1 <1>   0.2000 
 18 C       -6.0340    -1.1010    -0.6870 C.3   1 <1>  -0.1600 
 19 C       -5.6000    -3.5330    -0.0590 C.3   1 <1>  -0.1600 
 20 O       -8.4520    -1.4680     0.7870 O.3   1 <1>  -0.6800 
 21 C       -8.0420    -3.5690    -0.2770 C.3   1 <1>  -0.1600 
 22 C       -6.7520    -4.1940    -0.8240 C.3   1 <1>  -0.1600 
 23 H       -1.1480     0.0480     2.5890 H     1 <1>   0.1500 
 24 H        2.3060    -2.2430    -0.8170 H     1 <1>   0.1500 
 25 H       -2.1910    -4.1480    -0.0310 H     1 <1>   0.1500 
 26 H        1.5890    -4.3000    -2.0140 H     1 <1>   0.1500 
 27 H       -0.6470    -5.2330    -1.6100 H     1 <1>   0.1500 
 28 H       -5.4400    -2.4370     2.4590 H     1 <1>   0.0800 
 29 H       -5.9040    -0.8090     2.0760 H     1 <1>   0.0800 
 30 H       -4.3450     0.6510     0.7570 H     1 <1>   0.0800 
 31 H       -2.8500    -0.0010     0.1480 H     1 <1>   0.0800 
 32 H       -4.5780     0.1790    -1.6200 H     1 <1>   0.0800 
 33 H       -4.0170    -1.4420    -1.4000 H     1 <1>   0.0800 
 34 H       -7.6360    -3.0150     1.7500 H     1 <1>   0.0800 
 35 H       -6.4600    -1.4630    -1.6060 H     1 <1>   0.0800 
 36 H       -6.5870    -0.2260    -0.3940 H     1 <1>   0.0800 
 37 H       -4.7160    -3.4470    -0.6630 H     1 <1>   0.0800 
 38 H       -5.3570    -4.1460     0.7930 H     1 <1>   0.0800 
 39 H       -8.4990    -1.0830    -0.1070 H     1 <1>   0.4000 
 40 H       -8.6690    -4.3190     0.1740 H     1 <1>   0.0800 
 41 H       -8.5770    -3.0900    -1.0780 H     1 <1>   0.0800 
 42 H       -6.7400    -5.2620    -0.6850 H     1 <1>   0.0800 
 43 H       -6.6630    -3.9810    -1.8750 H     1 <1>   0.0800 
@<TRIPOS>BOND
  1   1   2  1   
  2   1   3  1   
  3   2   4  ar  
  4   2   5  ar  
  5   3   6  2   
  6   3  23  1   
  7   4   6  1   
  8   4   7  ar  
  9   5   8  ar  
 10   5  24  1   
 11   6   9  1   
 12   7  10  ar  
 13   7  25  1   
 14   8  10  ar  
 15   8  26  1   
 16   9  11  2   
 17   9  12  am  
 18  10  27  1   
 19  12  13  1   
 20  12  14  1   
 21  13  15  1   
 22  13  28  1   
 23  13  29  1   
 24  14  16  1   
 25  14  30  1   
 26  14  31  1   
 27  15  17  1   
 28  15  18  1   
 29  15  19  1   
 30  16  18  1   
 31  16  32  1   
 32  16  33  1   
 33  17  20  1   
 34  17  21  1   
 35  17  34  1   
 36  18  35  1   
 37  18  36  1   
 38  19  22  1   
 39  19  37  1   
 40  19  38  1   
 41  20  39  1   
 42  21  22  1   
 43  21  40  1   
 44  21  41  1   
 45  22  42  1   
 46  22  43  1   
@<TRIPOS>SUBSTRUCTURE
  1 ****   9 GROUP 4 **** **** 0

# MOE 2024.06 (io_trps.svl 2023.06)
