@<TRIPOS>MOLECULE
NONAME
41 43 1 0 0 
SMALL
USER_CHARGES


@<TRIPOS>ATOM
  1 O        2.2210     4.1190     3.0600 O.co2 1 <1>  -0.9000 
  2 C        3.2780     3.5890     2.6910 C.2   1 <1>   0.9470 
  3 O        4.3560     3.8950     3.2240 O.co2 1 <1>  -0.9000 
  4 C        3.3010     2.7110     1.4310 C.3   1 <1>  -0.2420 
  5 C        2.9850     1.2560     1.1730 C.3   1 <1>  -0.2420 
  6 C        4.4950     3.0660     0.5660 C.3   1 <1>   0.2350 
  7 C        1.9840     2.3210     0.8060 C.3   1 <1>  -0.2000 
  8 C        2.5720     0.1390     2.1320 C.2   1 <1>   0.9470 
  9 C        3.9630     0.7340     0.1320 C.3   1 <1>   0.2350 
 10 N        4.6380     1.9470    -0.4030 N.am  1 <1>  -0.6600 
 11 O        1.4000    -0.2610     2.1260 O.co2 1 <1>  -0.9000 
 12 O        3.4480    -0.4520     2.7780 O.co2 1 <1>  -0.9000 
 13 C        5.2950     2.0060    -1.5980 C.2   1 <1>   0.5690 
 14 O        5.3850     1.0440    -2.3300 O.2   1 <1>  -0.5700 
 15 C        5.9010     3.3210    -2.0850 C.3   1 <1>   0.1810 
 16 O        6.8950     3.8160    -1.1960 O.3   1 <1>  -0.3630 
 17 C        6.9150     5.1490    -0.9850 C.ar  1 <1>   0.0820 
 18 C        6.7430     5.6210     0.3040 C.ar  1 <1>  -0.1500 
 19 C        7.0850     6.0420    -2.0310 C.ar  1 <1>  -0.1500 
 20 C        6.7000     6.9810     0.5590 C.ar  1 <1>  -0.1430 
 21 C        7.0610     7.4020    -1.7790 C.ar  1 <1>  -0.1500 
 22 C        6.8660     7.8800    -0.4900 C.ar  1 <1>  -0.1430 
 23 C        6.4550     7.4350     1.9920 C.3   1 <1>  -0.0970 
 24 C        6.8360     9.3830    -0.2530 C.3   1 <1>  -0.0970 
 25 H        5.3830     3.1080     1.1720 H     1 <1>   0.0800 
 26 H        4.3370     4.0090     0.0760 H     1 <1>   0.0800 
 27 H        1.8000     2.5420    -0.2280 H     1 <1>   0.1000 
 28 H        1.0940     2.3930     1.4080 H     1 <1>   0.1000 
 29 H        3.4520     0.1970    -0.6460 H     1 <1>   0.0800 
 30 H        4.6950     0.0950     0.5970 H     1 <1>   0.0800 
 31 H        5.1150     4.0490    -2.1740 H     1 <1>   0.0800 
 32 H        6.3610     3.1760    -3.0440 H     1 <1>   0.0800 
 33 H        6.6280     4.9180     1.1110 H     1 <1>   0.1500 
 34 H        7.2380     5.6780    -3.0300 H     1 <1>   0.1500 
 35 H        7.1940     8.0880    -2.5960 H     1 <1>   0.1500 
 36 H        6.1660     6.6020     2.6120 H     1 <1>   0.0800 
 37 H        5.6590     8.1550     2.0250 H     1 <1>   0.0800 
 38 H        7.3480     7.8710     2.4000 H     1 <1>   0.0800 
 39 H        7.0840     9.9210    -1.1490 H     1 <1>   0.0800 
 40 H        7.5460     9.6500     0.5090 H     1 <1>   0.0800 
 41 H        5.8530     9.6810     0.0630 H     1 <1>   0.0800 
@<TRIPOS>BOND
  1   1   2  ar  
  2   2   3  ar  
  3   2   4  1   
  4   4   5  1   
  5   4   6  1   
  6   4   7  1   
  7   5   7  1   
  8   5   8  1   
  9   5   9  1   
 10   6  10  1   
 11   6  25  1   
 12   6  26  1   
 13   7  27  1   
 14   7  28  1   
 15   8  11  ar  
 16   8  12  ar  
 17   9  10  1   
 18   9  29  1   
 19   9  30  1   
 20  10  13  am  
 21  13  14  2   
 22  13  15  1   
 23  15  16  1   
 24  15  31  1   
 25  15  32  1   
 26  16  17  1   
 27  17  18  ar  
 28  17  19  ar  
 29  18  20  ar  
 30  18  33  1   
 31  19  21  ar  
 32  19  34  1   
 33  20  22  ar  
 34  20  23  1   
 35  21  22  ar  
 36  21  35  1   
 37  22  24  1   
 38  23  36  1   
 39  23  37  1   
 40  23  38  1   
 41  24  39  1   
 42  24  40  1   
 43  24  41  1   
@<TRIPOS>SUBSTRUCTURE
  1 ****   6 GROUP 4 **** **** 0

# MOE 2024.06 (io_trps.svl 2023.06)
