@<TRIPOS>MOLECULE
NONAME
48 49 1 0 0 
SMALL
USER_CHARGES


@<TRIPOS>ATOM
  1 O       -0.7370     0.0330    -1.2090 O.2   1 <1>  -0.5700 
  2 C       -1.7410     0.7180    -1.1390 C.2   1 <1>   0.5440 
  3 N       -2.9610     0.1430    -1.4410 N.am  1 <1>  -0.6600 
  4 C       -1.6010     2.1110    -0.7520 C.ar  1 <1>   0.0860 
  5 C       -3.0540    -1.3010    -1.7980 C.3   1 <1>   0.3200 
  6 C       -4.1940     0.9660    -1.6990 C.3   1 <1>   0.1400 
  7 C       -0.7630     2.9640    -1.4680 C.ar  1 <1>  -0.1500 
  8 C       -2.2810     2.6490     0.3400 C.ar  1 <1>  -0.1500 
  9 C       -3.6760    -2.0820    -0.6540 C.2   1 <1>  -0.3320 
 10 C       -5.3660     0.6880    -0.7400 C.3   1 <1>   0.1200 
 11 C       -0.6250     4.2960    -1.1230 C.ar  1 <1>  -0.1500 
 12 C       -2.1470     3.9800     0.6890 C.ar  1 <1>  -0.1500 
 13 N       -3.1050    -2.2820     0.5530 N.pl3 1 <1>   0.0480 
 14 C       -4.8680    -2.7170    -0.6240 C.2   1 <1>   0.0770 
 15 O       -4.9170     0.4650     0.5510 O.3   1 <1>  -0.6800 
 16 C       -1.3200     4.8150    -0.0440 C.ar  1 <1>  -0.1430 
 17 C       -4.0100    -3.0170     1.2380 C.2   1 <1>   0.0360 
 18 C       -1.7890    -1.8330     1.0430 C.3   1 <1>   0.0160 
 19 N       -5.0800    -3.2960     0.5690 N.2   1 <1>  -0.5650 
 20 C       -1.1700     6.2790     0.3380 C.3   1 <1>  -0.0170 
 21 C       -0.0180     6.4610     1.3340 C.3   1 <1>  -0.1600 
 22 C        0.1540     7.9310     1.7360 C.3   1 <1>  -0.1600 
 23 C        1.3060     8.0970     2.7300 C.3   1 <1>  -0.2400 
 24 H       -2.0830    -1.7100    -2.0230 H     1 <1>   0.0800 
 25 H       -3.6570    -1.4100    -2.6820 H     1 <1>   0.0800 
 26 H       -4.5260     0.7930    -2.7080 H     1 <1>   0.0800 
 27 H       -3.9610     2.0140    -1.6380 H     1 <1>   0.0800 
 28 H       -0.2130     2.5680    -2.3030 H     1 <1>   0.1500 
 29 H       -2.9230     2.0130     0.9240 H     1 <1>   0.1500 
 30 H       -5.9150    -0.1820    -1.0540 H     1 <1>   0.0800 
 31 H       -6.0390     1.5270    -0.7200 H     1 <1>   0.0800 
 32 H        0.0310     4.9280    -1.6970 H     1 <1>   0.1500 
 33 H       -2.6890     4.3640     1.5360 H     1 <1>   0.1500 
 34 H       -5.6030    -2.7900    -1.4090 H     1 <1>   0.1500 
 35 H       -4.4340    -0.3930     0.5590 H     1 <1>   0.4000 
 36 H       -3.8360    -3.3340     2.2510 H     1 <1>   0.1500 
 37 H       -1.0390    -2.0490     0.3030 H     1 <1>   0.0800 
 38 H       -1.5460    -2.3460     1.9550 H     1 <1>   0.0800 
 39 H       -1.8180    -0.7750     1.2250 H     1 <1>   0.0800 
 40 H       -2.0870     6.6330     0.7750 H     1 <1>   0.0800 
 41 H       -0.9820     6.8640    -0.5450 H     1 <1>   0.0800 
 42 H        0.8930     6.1000     0.8870 H     1 <1>   0.0800 
 43 H       -0.2140     5.8670     2.2100 H     1 <1>   0.0800 
 44 H       -0.7560     8.2920     2.1860 H     1 <1>   0.0800 
 45 H        0.3530     8.5260     0.8610 H     1 <1>   0.0800 
 46 H        1.1190     7.5290     3.6230 H     1 <1>   0.0800 
 47 H        1.4130     9.1330     3.0000 H     1 <1>   0.0800 
 48 H        2.2310     7.7620     2.2930 H     1 <1>   0.0800 
@<TRIPOS>BOND
  1   1   2  2   
  2   2   3  am  
  3   2   4  1   
  4   3   5  1   
  5   3   6  1   
  6   4   7  ar  
  7   4   8  ar  
  8   5   9  1   
  9   5  24  1   
 10   5  25  1   
 11   6  10  1   
 12   6  26  1   
 13   6  27  1   
 14   7  11  ar  
 15   7  28  1   
 16   8  12  ar  
 17   8  29  1   
 18   9  13  1   
 19   9  14  2   
 20  10  15  1   
 21  10  30  1   
 22  10  31  1   
 23  11  16  ar  
 24  11  32  1   
 25  12  16  ar  
 26  12  33  1   
 27  13  17  1   
 28  13  18  1   
 29  14  19  1   
 30  14  34  1   
 31  15  35  1   
 32  16  20  1   
 33  17  19  2   
 34  17  36  1   
 35  18  37  1   
 36  18  38  1   
 37  18  39  1   
 38  20  21  1   
 39  20  40  1   
 40  20  41  1   
 41  21  22  1   
 42  21  42  1   
 43  21  43  1   
 44  22  23  1   
 45  22  44  1   
 46  22  45  1   
 47  23  46  1   
 48  23  47  1   
 49  23  48  1   
@<TRIPOS>SUBSTRUCTURE
  1 ****   4 GROUP 4 **** **** 0

# MOE 2024.06 (io_trps.svl 2023.06)
