@<TRIPOS>MOLECULE
NONAME
45 46 1 0 0 
SMALL
USER_CHARGES


@<TRIPOS>ATOM
  1 O        0.6150     3.3000    -1.3550 O.3   1 <1>  -0.0190 
  2 N        1.6700     3.2860    -2.1090 N.2   1 <1>  -0.4100 
  3 C        0.7090     2.4500    -0.3700 C.2   1 <1>  -0.0400 
  4 C        2.4270     2.3550    -1.6490 C.2   1 <1>   0.1080 
  5 C        1.8610     1.7780    -0.5160 C.2   1 <1>  -0.1500 
  6 C       -0.3690     2.4060     0.6990 C.3   1 <1>   0.0200 
  7 C        3.7530     1.9530    -2.2590 C.3   1 <1>  -0.0590 
  8 C       -0.4950     3.7300     1.4940 C.3   1 <1>  -0.0800 
  9 C       -1.1780     4.8480     0.6940 C.3   1 <1>   0.2000 
 10 C        0.8650     4.3370     1.8560 C.3   1 <1>   0.3430 
 11 O       -2.0070     5.5680     1.5450 O.3   1 <1>  -0.6800 
 12 C       -0.0600     5.7680     0.1770 C.3   1 <1>   0.3430 
 13 N        1.2250     5.2100     0.7060 N.4   1 <1>  -0.9590 
 14 C        2.2760     6.2290     1.0090 C.3   1 <1>   0.3430 
 15 C        2.7950     6.9100    -0.2610 C.3   1 <1>   0.1200 
 16 O        3.7740     7.8140     0.1270 O.3   1 <1>  -0.5600 
 17 C        4.3530     8.5140    -0.9360 C.3   1 <1>   0.1200 
 18 C        5.4000     9.4740    -0.3810 C.3   1 <1>   0.1200 
 19 O        5.9540    10.1700    -1.4510 O.3   1 <1>  -0.5600 
 20 C        6.9320    11.0880    -1.0800 C.3   1 <1>   0.0400 
 21 H        2.2900     0.9900     0.0790 H     1 <1>   0.1500 
 22 H       -1.3130     2.1540     0.2450 H     1 <1>   0.0800 
 23 H       -0.1270     1.6110     1.3840 H     1 <1>   0.0800 
 24 H        4.5490     2.1070    -1.5540 H     1 <1>   0.0800 
 25 H        3.9490     2.5400    -3.1390 H     1 <1>   0.0800 
 26 H        3.7260     0.9150    -2.5380 H     1 <1>   0.0800 
 27 H       -1.0530     3.5120     2.3890 H     1 <1>   0.0800 
 28 H       -1.7880     4.4770    -0.1130 H     1 <1>   0.0800 
 29 H        1.6100     3.5760     2.0240 H     1 <1>   0.0800 
 30 H        0.7650     4.9370     2.7460 H     1 <1>   0.0800 
 31 H       -1.5820     5.8150     2.3900 H     1 <1>   0.4000 
 32 H       -0.2240     6.7720     0.5340 H     1 <1>   0.0800 
 33 H       -0.0460     5.7680    -0.9010 H     1 <1>   0.0800 
 34 H        1.5850     4.5810    -0.0400 H     1 <1>   0.4500 
 35 H        1.8790     6.9790     1.6720 H     1 <1>   0.0800 
 36 H        3.1100     5.7500     1.4950 H     1 <1>   0.0800 
 37 H        2.0110     7.4540    -0.7590 H     1 <1>   0.0800 
 38 H        3.2400     6.1900    -0.9270 H     1 <1>   0.0800 
 39 H        4.8200     7.8110    -1.6050 H     1 <1>   0.0800 
 40 H        3.5860     9.0680    -1.4490 H     1 <1>   0.0800 
 41 H        6.1830     8.9280     0.1170 H     1 <1>   0.0800 
 42 H        4.9430    10.1800     0.2900 H     1 <1>   0.0800 
 43 H        7.2940    11.5690    -1.9710 H     1 <1>   0.0800 
 44 H        7.7400    10.5690    -0.5940 H     1 <1>   0.0800 
 45 H        6.5000    11.8210    -0.4220 H     1 <1>   0.0800 
@<TRIPOS>BOND
  1   1   2  1   
  2   1   3  1   
  3   2   4  2   
  4   3   5  2   
  5   3   6  1   
  6   4   5  1   
  7   4   7  1   
  8   5  21  1   
  9   6   8  1   
 10   6  22  1   
 11   6  23  1   
 12   7  24  1   
 13   7  25  1   
 14   7  26  1   
 15   8   9  1   
 16   8  10  1   
 17   8  27  1   
 18   9  11  1   
 19   9  12  1   
 20   9  28  1   
 21  10  13  1   
 22  10  29  1   
 23  10  30  1   
 24  11  31  1   
 25  12  13  1   
 26  12  32  1   
 27  12  33  1   
 28  13  14  1   
 29  13  34  1   
 30  14  15  1   
 31  14  35  1   
 32  14  36  1   
 33  15  16  1   
 34  15  37  1   
 35  15  38  1   
 36  16  17  1   
 37  17  18  1   
 38  17  39  1   
 39  17  40  1   
 40  18  19  1   
 41  18  41  1   
 42  18  42  1   
 43  19  20  1   
 44  20  43  1   
 45  20  44  1   
 46  20  45  1   
@<TRIPOS>SUBSTRUCTURE
  1 ****  13 GROUP 4 **** **** 0

# MOE 2024.06 (io_trps.svl 2023.06)
