@<TRIPOS>MOLECULE
NONAME
37 38 1 0 0 
SMALL
USER_CHARGES


@<TRIPOS>ATOM
  1 S       -0.0270     0.1940     0.2000 S.o2  1 <1>   1.0900 
  2 O        0.4030     0.6820    -1.0900 O.2   1 <1>  -0.6500 
  3 O        0.3430     0.8540     1.4300 O.2   1 <1>  -0.6500 
  4 C        0.3540    -1.5310     0.2850 C.3   1 <1>  -0.0550 
  5 C       -1.7900    -0.0610     0.1360 C.3   1 <1>  -0.0550 
  6 C       -0.7380    -2.2370    -0.5190 C.3   1 <1>   0.1900 
  7 C       -2.0580    -1.5580    -0.0970 C.3   1 <1>  -0.1600 
  8 N       -0.7790    -3.6950    -0.2580 N.3   1 <1>  -0.8100 
  9 C       -1.8300    -4.3940    -1.0390 C.3   1 <1>   0.2480 
 10 C        0.5270    -4.3600    -0.4700 C.3   1 <1>   0.2480 
 11 C       -2.1080    -5.7730    -0.4470 C.2   1 <1>  -0.0290 
 12 C        1.2780    -4.4140     0.8440 C.2   1 <1>  -0.2880 
 13 N       -2.1640    -5.8570     0.9340 N.am  1 <1>  -0.5390 
 14 C       -2.2940    -6.9080    -1.1620 C.2   1 <1>  -0.1360 
 15 C        2.5220    -3.9710     1.0540 C.2   1 <1>  -0.3000 
 16 C       -2.3810    -7.0290     1.6000 C.2   1 <1>   0.6900 
 17 C       -2.5430    -8.1480    -0.5020 C.2   1 <1>   0.6160 
 18 O       -2.3880    -7.0690     2.8080 O.2   1 <1>  -0.5700 
 19 N       -2.5790    -8.1500     0.8610 N.am  1 <1>  -0.4900 
 20 O       -2.7170    -9.1910    -1.0960 O.2   1 <1>  -0.5700 
 21 H        0.3100    -1.8590     1.3060 H     1 <1>   0.0800 
 22 H        1.3290    -1.7200    -0.1170 H     1 <1>   0.0800 
 23 H       -2.2080     0.5210    -0.6640 H     1 <1>   0.0800 
 24 H       -2.2470     0.2510     1.0560 H     1 <1>   0.0800 
 25 H       -0.5630    -2.0570    -1.5690 H     1 <1>   0.0800 
 26 H       -2.8190    -1.6740    -0.8480 H     1 <1>   0.0800 
 27 H       -2.3990    -1.9940     0.8270 H     1 <1>   0.0800 
 28 H       -1.5380    -4.4750    -2.0730 H     1 <1>   0.0800 
 29 H       -2.7550    -3.8500    -0.9970 H     1 <1>   0.0800 
 30 H        1.1020    -3.8480    -1.2230 H     1 <1>   0.0800 
 31 H        0.3930    -5.3760    -0.8020 H     1 <1>   0.0800 
 32 H        0.6880    -4.8670     1.6230 H     1 <1>   0.1500 
 33 H       -1.9190    -5.0420     1.5020 H     1 <1>   0.3700 
 34 H       -2.2680    -6.9410    -2.2350 H     1 <1>   0.1500 
 35 H        3.0230    -4.0290     2.0050 H     1 <1>   0.1500 
 36 H        3.1460    -3.5190     0.3020 H     1 <1>   0.1500 
 37 H       -2.7420    -9.0240     1.3450 H     1 <1>   0.3700 
@<TRIPOS>BOND
  1   1   2  2   
  2   1   3  2   
  3   1   4  1   
  4   1   5  1   
  5   4   6  1   
  6   4  21  1   
  7   4  22  1   
  8   5   7  1   
  9   5  23  1   
 10   5  24  1   
 11   6   7  1   
 12   6   8  1   
 13   6  25  1   
 14   7  26  1   
 15   7  27  1   
 16   8   9  1   
 17   8  10  1   
 18   9  11  1   
 19   9  28  1   
 20   9  29  1   
 21  10  12  1   
 22  10  30  1   
 23  10  31  1   
 24  11  13  1   
 25  11  14  2   
 26  12  15  2   
 27  12  32  1   
 28  13  16  am  
 29  13  33  1   
 30  14  17  1   
 31  14  34  1   
 32  15  35  1   
 33  15  36  1   
 34  16  18  2   
 35  16  19  am  
 36  17  19  am  
 37  17  20  2   
 38  19  37  1   
@<TRIPOS>SUBSTRUCTURE
  1 ****   8 GROUP 4 **** **** 0

# MOE 2024.06 (io_trps.svl 2023.06)
