@<TRIPOS>MOLECULE
NONAME
54 57 1 0 0 
SMALL
USER_CHARGES


@<TRIPOS>ATOM
  1 F       -1.0130    -1.7530     3.7730 F     1 <1>  -0.1900 
  2 C       -0.6580    -2.4950     2.7610 C.ar  1 <1>   0.1900 
  3 C       -1.4300    -3.5930     2.4400 C.ar  1 <1>  -0.1500 
  4 C        0.4710    -2.1560     2.0460 C.ar  1 <1>  -0.1500 
  5 C       -1.0660    -4.3830     1.3580 C.ar  1 <1>  -0.1440 
  6 C        0.8360    -2.9520     0.9750 C.ar  1 <1>  -0.1500 
  7 C        0.0800    -4.0650     0.6260 C.ar  1 <1>  -0.1430 
  8 C       -1.9370    -5.5730     0.9970 C.3   1 <1>   0.4870 
  9 C        0.5530    -4.9110    -0.5510 C.3   1 <1>  -0.0970 
 10 N       -2.8010    -5.1680    -0.1400 N.4   1 <1>  -0.9590 
 11 C       -3.8780    -4.2190     0.3070 C.3   1 <1>   0.3430 
 12 C       -3.3740    -6.3420    -0.8560 C.3   1 <1>   0.3430 
 13 C       -4.7000    -3.6830    -0.8780 C.3   1 <1>   0.1440 
 14 C       -4.1430    -5.8630    -2.0910 C.3   1 <1>  -0.1600 
 15 C       -5.8390    -2.8670    -0.3210 C.ar  1 <1>   0.1670 
 16 C       -5.2440    -4.8490    -1.7300 C.3   1 <1>  -0.1600 
 17 C       -3.9230    -2.6420    -1.7310 C.3   1 <1>  -0.1600 
 18 N       -6.6230    -3.2650     0.6470 N.ar  1 <1>  -0.6200 
 19 C       -5.9450    -1.6570    -0.9320 C.ar  1 <1>  -0.1430 
 20 C       -4.8970    -1.4770    -2.0000 C.3   1 <1>  -0.0170 
 21 C       -7.5650    -2.3850     1.0020 C.ar  1 <1>   0.7200 
 22 C       -6.9410    -0.8180    -0.5000 C.ar  1 <1>   0.1600 
 23 N       -7.7530    -1.1740     0.4680 N.ar  1 <1>  -0.6200 
 24 N       -8.4150    -2.7620     2.0190 N.pl3 1 <1>  -0.8380 
 25 C       -8.7170    -4.1880     2.3200 C.3   1 <1>   0.1290 
 26 C       -9.2640    -1.7690     2.7350 C.3   1 <1>   0.1290 
 27 H       -2.2970    -3.8050     3.0420 H     1 <1>   0.1500 
 28 H        1.0500    -1.2930     2.3260 H     1 <1>   0.1500 
 29 H        1.7230    -2.6940     0.4190 H     1 <1>   0.1500 
 30 H       -2.5370    -5.8710     1.8410 H     1 <1>   0.0800 
 31 H       -1.3080    -6.4010     0.7150 H     1 <1>   0.0800 
 32 H        0.6370    -5.9440    -0.2660 H     1 <1>   0.0800 
 33 H        1.5260    -4.5910    -0.8820 H     1 <1>   0.0800 
 34 H       -0.1210    -4.8200    -1.3820 H     1 <1>   0.0800 
 35 H       -2.1910    -4.6500    -0.7830 H     1 <1>   0.4500 
 36 H       -3.4480    -3.3830     0.8330 H     1 <1>   0.0800 
 37 H       -4.5490    -4.7240     0.9830 H     1 <1>   0.0800 
 38 H       -4.0450    -6.8770    -0.2030 H     1 <1>   0.0800 
 39 H       -2.5870    -7.0140    -1.1610 H     1 <1>   0.0800 
 40 H       -4.5970    -6.7150    -2.5690 H     1 <1>   0.0800 
 41 H       -3.4550    -5.4350    -2.7990 H     1 <1>   0.0800 
 42 H       -5.7080    -4.4690    -2.6240 H     1 <1>   0.0800 
 43 H       -6.0100    -5.3580    -1.1690 H     1 <1>   0.0800 
 44 H       -3.5470    -3.0490    -2.6520 H     1 <1>   0.0800 
 45 H       -3.0940    -2.2540    -1.1640 H     1 <1>   0.0800 
 46 H       -5.3520    -1.5730    -2.9710 H     1 <1>   0.0800 
 47 H       -4.4070    -0.5210    -1.9210 H     1 <1>   0.0800 
 48 H       -7.0740     0.1530    -0.9470 H     1 <1>   0.1500 
 49 H       -8.4010    -4.8260     1.5130 H     1 <1>   0.0800 
 50 H       -9.7760    -4.3180     2.4560 H     1 <1>   0.0800 
 51 H       -8.2060    -4.4810     3.2210 H     1 <1>   0.0800 
 52 H       -8.7680    -0.8140     2.7790 H     1 <1>   0.0800 
 53 H       -9.4530    -2.1000     3.7400 H     1 <1>   0.0800 
 54 H      -10.1990    -1.6520     2.2150 H     1 <1>   0.0800 
@<TRIPOS>BOND
  1   1   2  1   
  2   2   3  ar  
  3   2   4  ar  
  4   3   5  ar  
  5   3  27  1   
  6   4   6  ar  
  7   4  28  1   
  8   5   7  ar  
  9   5   8  1   
 10   6   7  ar  
 11   6  29  1   
 12   7   9  1   
 13   8  10  1   
 14   8  30  1   
 15   8  31  1   
 16   9  32  1   
 17   9  33  1   
 18   9  34  1   
 19  10  11  1   
 20  10  12  1   
 21  10  35  1   
 22  11  13  1   
 23  11  36  1   
 24  11  37  1   
 25  12  14  1   
 26  12  38  1   
 27  12  39  1   
 28  13  15  1   
 29  13  16  1   
 30  13  17  1   
 31  14  16  1   
 32  14  40  1   
 33  14  41  1   
 34  15  18  ar  
 35  15  19  ar  
 36  16  42  1   
 37  16  43  1   
 38  17  20  1   
 39  17  44  1   
 40  17  45  1   
 41  18  21  ar  
 42  19  20  1   
 43  19  22  ar  
 44  20  46  1   
 45  20  47  1   
 46  21  23  ar  
 47  21  24  1   
 48  22  23  ar  
 49  22  48  1   
 50  24  25  1   
 51  24  26  1   
 52  25  49  1   
 53  25  50  1   
 54  25  51  1   
 55  26  52  1   
 56  26  53  1   
 57  26  54  1   
@<TRIPOS>SUBSTRUCTURE
  1 ****  11 GROUP 4 **** **** 0

# MOE 2024.06 (io_trps.svl 2023.06)
