@<TRIPOS>MOLECULE
NONAME
52 55 1 0 0 
SMALL
USER_CHARGES


@<TRIPOS>ATOM
  1 S        2.0850     0.9030     2.2540 S.3   1 <1>  -0.0800 
  2 C        2.5670     2.1060     1.0730 C.2   1 <1>  -0.1100 
  3 C        2.4450    -0.3970     1.1330 C.2   1 <1>  -0.1100 
  4 C        2.9810     1.5240    -0.0700 C.2   1 <1>  -0.1810 
  5 C        2.9000     0.0930    -0.0340 C.2   1 <1>  -0.1500 
  6 C        3.4940     2.2380    -1.3160 C.3   1 <1>   0.0820 
  7 C        3.9870     3.6610    -1.0640 C.2   1 <1>   0.5690 
  8 O        3.4950     4.5440    -1.7230 O.2   1 <1>  -0.5700 
  9 N        4.9860     3.9490    -0.1570 N.am  1 <1>  -0.6600 
 10 C        5.8470     2.9410     0.5410 C.3   1 <1>   0.1400 
 11 C        5.2050     5.3590     0.2680 C.3   1 <1>   0.1400 
 12 C        7.3020     2.9320     0.0200 C.3   1 <1>   0.3430 
 13 C        6.2420     6.0350    -0.6330 C.3   1 <1>  -0.1600 
 14 N        7.9360     4.2960    -0.0850 N.4   1 <1>  -0.9590 
 15 C        7.3150     5.0990    -1.1870 C.3   1 <1>   0.3430 
 16 C        9.4180     4.1970    -0.2390 C.3   1 <1>   0.4860 
 17 C       10.0220     5.5730    -0.0850 C.ar  1 <1>  -0.1430 
 18 C       10.5310     6.2650    -1.1580 C.ar  1 <1>   0.1600 
 19 C       10.0750     6.1990     1.1370 C.ar  1 <1>   0.1600 
 20 N       11.0040     7.4790    -1.0420 N.ar  1 <1>  -0.6200 
 21 N       10.5390     7.4110     1.2760 N.ar  1 <1>  -0.6200 
 22 C       10.9760     8.0410     0.1760 C.ar  1 <1>   0.6200 
 23 C       11.4610     9.4150     0.3010 C.ar  1 <1>   0.3100 
 24 N       10.7000    10.3370     0.9180 N.ar  1 <1>  -0.6200 
 25 C       12.7090     9.7480    -0.2340 C.ar  1 <1>  -0.1500 
 26 C       11.1870    11.5610     1.0040 C.ar  1 <1>   0.1600 
 27 C       13.2050    11.0290    -0.1400 C.ar  1 <1>  -0.1500 
 28 C       12.4140    11.9560     0.5010 C.ar  1 <1>  -0.1500 
 29 H        2.4870     3.1380     1.3690 H     1 <1>   0.1500 
 30 H        2.2690    -1.4030     1.4720 H     1 <1>   0.1500 
 31 H        3.1800    -0.5070    -0.8830 H     1 <1>   0.1500 
 32 H        2.7010     2.2690    -2.0410 H     1 <1>   0.0800 
 33 H        4.3010     1.6770    -1.7470 H     1 <1>   0.0800 
 34 H        5.4460     1.9510     0.4230 H     1 <1>   0.0800 
 35 H        5.8430     3.1460     1.5980 H     1 <1>   0.0800 
 36 H        5.5300     5.3810     1.2940 H     1 <1>   0.0800 
 37 H        4.2760     5.9070     0.2200 H     1 <1>   0.0800 
 38 H        7.3120     2.4600    -0.9480 H     1 <1>   0.0800 
 39 H        7.8850     2.3140     0.6840 H     1 <1>   0.0800 
 40 H        6.7000     6.8540    -0.1070 H     1 <1>   0.0800 
 41 H        5.7200     6.4640    -1.4710 H     1 <1>   0.0800 
 42 H        7.7470     4.8120     0.7830 H     1 <1>   0.4500 
 43 H        8.0560     5.6950    -1.6930 H     1 <1>   0.0800 
 44 H        6.8660     4.4400    -1.9140 H     1 <1>   0.0800 
 45 H        9.6660     3.7890    -1.2060 H     1 <1>   0.0800 
 46 H        9.8270     3.5460     0.5180 H     1 <1>   0.0800 
 47 H       10.5500     5.8250    -2.1430 H     1 <1>   0.1500 
 48 H        9.7280     5.7080     2.0310 H     1 <1>   0.1500 
 49 H       13.2870     8.9880    -0.7260 H     1 <1>   0.1500 
 50 H       10.5760    12.2930     1.5030 H     1 <1>   0.1500 
 51 H       14.1650    11.2950    -0.5480 H     1 <1>   0.1500 
 52 H       12.7400    12.9740     0.6110 H     1 <1>   0.1500 
@<TRIPOS>BOND
  1   1   2  1   
  2   1   3  1   
  3   2   4  2   
  4   2  29  1   
  5   3   5  2   
  6   3  30  1   
  7   4   5  1   
  8   4   6  1   
  9   5  31  1   
 10   6   7  1   
 11   6  32  1   
 12   6  33  1   
 13   7   8  2   
 14   7   9  am  
 15   9  10  1   
 16   9  11  1   
 17  10  12  1   
 18  10  34  1   
 19  10  35  1   
 20  11  13  1   
 21  11  36  1   
 22  11  37  1   
 23  12  14  1   
 24  12  38  1   
 25  12  39  1   
 26  13  15  1   
 27  13  40  1   
 28  13  41  1   
 29  14  15  1   
 30  14  16  1   
 31  14  42  1   
 32  15  43  1   
 33  15  44  1   
 34  16  17  1   
 35  16  45  1   
 36  16  46  1   
 37  17  18  ar  
 38  17  19  ar  
 39  18  20  ar  
 40  18  47  1   
 41  19  21  ar  
 42  19  48  1   
 43  20  22  ar  
 44  21  22  ar  
 45  22  23  1   
 46  23  24  ar  
 47  23  25  ar  
 48  24  26  ar  
 49  25  27  ar  
 50  25  49  1   
 51  26  28  ar  
 52  26  50  1   
 53  27  28  ar  
 54  27  51  1   
 55  28  52  1   
@<TRIPOS>SUBSTRUCTURE
  1 ****  14 GROUP 4 **** **** 0

# MOE 2024.06 (io_trps.svl 2023.06)
