@<TRIPOS>MOLECULE
NONAME
52 54 1 0 0 
SMALL
USER_CHARGES


@<TRIPOS>ATOM
  1 O        1.3290    -0.0720     0.8440 O.2   1 <1>  -0.5700 
  2 C        1.8860    -0.6030    -0.0900 C.2   1 <1>   0.5690 
  3 N        2.6370     0.1310    -0.9760 N.am  1 <1>  -0.6600 
  4 C        1.7530    -2.1080    -0.2640 C.3   1 <1>  -0.0990 
  5 C        2.6680     1.6180    -0.8670 C.3   1 <1>   0.1400 
  6 C        3.4380    -0.4320    -2.1010 C.3   1 <1>   0.0600 
  7 C        0.7080    -2.7530     0.6670 C.3   1 <1>  -0.0160 
  8 C        3.6440     2.0450     0.2260 C.3   1 <1>   0.0960 
  9 C        0.5430    -4.2640     0.4880 C.ar  1 <1>   0.1660 
 10 N        3.5430     3.4980     0.4130 N.pl3 1 <1>   0.3140 
 11 N        1.3040    -4.8780    -0.3680 N.ar  1 <1>  -0.6200 
 12 C       -0.4430    -4.9290     1.2770 C.ar  1 <1>   0.3920 
 13 N        4.2830     4.3470    -0.3230 N.2   1 <1>  -0.7070 
 14 C        2.7210     4.1630     1.2560 C.2   1 <1>  -0.3320 
 15 C        1.0870    -6.2160    -0.4580 C.ar  1 <1>   0.3100 
 16 O       -1.1680    -4.1770     2.1340 O.3   1 <1>  -0.3630 
 17 N       -0.6770    -6.2100     1.2150 N.ar  1 <1>  -0.6200 
 18 C        3.9260     5.5270     0.0730 C.2   1 <1>   0.1080 
 19 C        2.9500     5.4780     1.0610 C.2   1 <1>  -0.1500 
 20 C        1.7420     3.5020     2.2150 C.3   1 <1>  -0.0600 
 21 C        0.1050    -6.8710     0.3270 C.ar  1 <1>   0.3100 
 22 C        1.8540    -6.9770    -1.3530 C.ar  1 <1>  -0.1500 
 23 C       -2.1660    -4.7480     2.9580 C.3   1 <1>   0.0400 
 24 C        4.5260     6.7880    -0.5010 C.3   1 <1>  -0.0590 
 25 C       -0.0600    -8.2570     0.1760 C.ar  1 <1>  -0.1500 
 26 C        1.6710    -8.3300    -1.4800 C.ar  1 <1>  -0.1500 
 27 C        0.7040    -8.9770    -0.7070 C.ar  1 <1>  -0.1500 
 28 H        2.7120    -2.5550    -0.0750 H     1 <1>   0.0800 
 29 H        1.4750    -2.3090    -1.2820 H     1 <1>   0.0800 
 30 H        1.6800     1.9710    -0.6230 H     1 <1>   0.0800 
 31 H        2.9590     2.0550    -1.8070 H     1 <1>   0.0800 
 32 H        3.5950    -1.4890    -1.9830 H     1 <1>   0.0800 
 33 H        4.4010     0.0480    -2.1370 H     1 <1>   0.0800 
 34 H        2.9260    -0.2560    -3.0310 H     1 <1>   0.0800 
 35 H       -0.2440    -2.2820     0.4950 H     1 <1>   0.0800 
 36 H        0.9860    -2.5620     1.6890 H     1 <1>   0.0800 
 37 H        4.6510     1.8070    -0.0590 H     1 <1>   0.0800 
 38 H        3.4080     1.5600     1.1530 H     1 <1>   0.0800 
 39 H        2.4930     6.3220     1.5440 H     1 <1>   0.1500 
 40 H        1.0540     2.8750     1.6760 H     1 <1>   0.0800 
 41 H        1.1800     4.2500     2.7450 H     1 <1>   0.0800 
 42 H        2.2720     2.9000     2.9310 H     1 <1>   0.0800 
 43 H        2.5930    -6.4620    -1.9390 H     1 <1>   0.1500 
 44 H       -2.6050    -3.9660     3.5500 H     1 <1>   0.0800 
 45 H       -1.7100    -5.4850     3.5960 H     1 <1>   0.0800 
 46 H       -2.9130    -5.2040     2.3320 H     1 <1>   0.0800 
 47 H        4.3400     6.8220    -1.5580 H     1 <1>   0.0800 
 48 H        5.5870     6.7870    -0.3330 H     1 <1>   0.0800 
 49 H        4.0940     7.6550    -0.0370 H     1 <1>   0.0800 
 50 H       -0.8080    -8.7390     0.7790 H     1 <1>   0.1500 
 51 H        2.2660    -8.9050    -2.1700 H     1 <1>   0.1500 
 52 H        0.5680   -10.0400    -0.8130 H     1 <1>   0.1500 
@<TRIPOS>BOND
  1   1   2  2   
  2   2   3  am  
  3   2   4  1   
  4   3   5  1   
  5   3   6  1   
  6   4   7  1   
  7   4  28  1   
  8   4  29  1   
  9   5   8  1   
 10   5  30  1   
 11   5  31  1   
 12   6  32  1   
 13   6  33  1   
 14   6  34  1   
 15   7   9  1   
 16   7  35  1   
 17   7  36  1   
 18   8  10  1   
 19   8  37  1   
 20   8  38  1   
 21   9  11  ar  
 22   9  12  ar  
 23  10  13  1   
 24  10  14  1   
 25  11  15  ar  
 26  12  16  1   
 27  12  17  ar  
 28  13  18  2   
 29  14  19  2   
 30  14  20  1   
 31  15  21  ar  
 32  15  22  ar  
 33  16  23  1   
 34  17  21  ar  
 35  18  19  1   
 36  18  24  1   
 37  19  39  1   
 38  20  40  1   
 39  20  41  1   
 40  20  42  1   
 41  21  25  ar  
 42  22  26  ar  
 43  22  43  1   
 44  23  44  1   
 45  23  45  1   
 46  23  46  1   
 47  24  47  1   
 48  24  48  1   
 49  24  49  1   
 50  25  27  ar  
 51  25  50  1   
 52  26  27  ar  
 53  26  51  1   
 54  27  52  1   
@<TRIPOS>SUBSTRUCTURE
  1 ****   4 GROUP 4 **** **** 0

# MOE 2024.06 (io_trps.svl 2023.06)
