@<TRIPOS>MOLECULE
NONAME
51 54 1 0 0 
SMALL
USER_CHARGES


@<TRIPOS>ATOM
  1 O       -1.3510    -0.4040    -1.3710 O.2   1 <1>  -0.5700 
  2 C       -1.8560    -0.0580    -0.3310 C.2   1 <1>   0.5690 
  3 N       -2.3930    -0.8640     0.6360 N.am  1 <1>  -0.4770 
  4 C       -1.9550     1.3960     0.0460 C.3   1 <1>  -0.0990 
  5 C       -2.5280    -2.2640     0.6310 C.ar  1 <1>   0.1170 
  6 C       -2.8830    -0.0520     1.7700 C.3   1 <1>   0.1400 
  7 C       -2.8980     1.3910     1.2540 C.3   1 <1>  -0.1600 
  8 C       -2.4690    -2.9990     1.8130 C.ar  1 <1>  -0.1500 
  9 C       -2.7310    -2.9690    -0.5530 C.ar  1 <1>  -0.1500 
 10 C       -2.6290    -4.3710     1.8120 C.ar  1 <1>  -0.1500 
 11 C       -2.8850    -4.3420    -0.5520 C.ar  1 <1>  -0.1500 
 12 C       -2.8560    -5.0770     0.6320 C.ar  1 <1>   0.0860 
 13 C       -3.0610    -6.5120     0.6470 C.2   1 <1>   0.5440 
 14 O       -2.2240    -7.2220     1.1740 O.2   1 <1>  -0.5700 
 15 N       -4.1870    -7.1010     0.1010 N.am  1 <1>  -0.6600 
 16 C       -5.4340    -6.3190    -0.1550 C.3   1 <1>   0.2200 
 17 C       -4.2390    -8.5870    -0.0550 C.3   1 <1>   0.0600 
 18 C       -6.6770    -6.8690     0.5400 C.3   1 <1>  -0.1600 
 19 C       -5.8220    -6.2650    -1.6300 C.3   1 <1>  -0.1600 
 20 C       -7.8460    -6.2380    -0.2270 C.3   1 <1>  -0.0800 
 21 C       -7.3030    -5.8620    -1.6180 C.3   1 <1>  -0.0800 
 22 C       -8.3570    -4.9350     0.4060 C.3   1 <1>  -0.1600 
 23 C       -7.5200    -4.3500    -1.7760 C.3   1 <1>  -0.1600 
 24 C       -8.6090    -4.0080    -0.7720 C.3   1 <1>   0.2000 
 25 O       -8.4930    -2.6940    -0.3760 O.3   1 <1>  -0.6800 
 26 H       -0.9780     1.7520     0.3150 H     1 <1>   0.0800 
 27 H       -2.3470     1.9770    -0.7700 H     1 <1>   0.0800 
 28 H       -3.8660    -0.3720     2.0710 H     1 <1>   0.0800 
 29 H       -2.1970    -0.1480     2.5950 H     1 <1>   0.0800 
 30 H       -3.8960     1.6350     0.9340 H     1 <1>   0.0800 
 31 H       -2.5940     2.0910     2.0120 H     1 <1>   0.0800 
 32 H       -2.2880    -2.4990     2.7460 H     1 <1>   0.1500 
 33 H       -2.7660    -2.4370    -1.4870 H     1 <1>   0.1500 
 34 H       -2.5750    -4.9220     2.7360 H     1 <1>   0.1500 
 35 H       -3.0250    -4.8620    -1.4830 H     1 <1>   0.1500 
 36 H       -5.3100    -5.3070     0.1890 H     1 <1>   0.0800 
 37 H       -4.8730    -8.8670    -0.8760 H     1 <1>   0.0800 
 38 H       -4.6130    -9.0300     0.8520 H     1 <1>   0.0800 
 39 H       -3.2520    -8.9730    -0.2420 H     1 <1>   0.0800 
 40 H       -6.7390    -7.9350     0.4230 H     1 <1>   0.0800 
 41 H       -6.6890    -6.6260     1.5880 H     1 <1>   0.0800 
 42 H       -5.2140    -5.5730    -2.1830 H     1 <1>   0.0800 
 43 H       -5.7350    -7.2400    -2.0730 H     1 <1>   0.0800 
 44 H       -8.6610    -6.9370    -0.3220 H     1 <1>   0.0800 
 45 H       -7.8460    -6.3900    -2.3850 H     1 <1>   0.0800 
 46 H       -7.6030    -4.5110     1.0460 H     1 <1>   0.0800 
 47 H       -9.2570    -5.1000     0.9710 H     1 <1>   0.0800 
 48 H       -7.8230    -4.1000    -2.7780 H     1 <1>   0.0800 
 49 H       -6.6190    -3.8160    -1.5300 H     1 <1>   0.0800 
 50 H       -9.5900    -4.1670    -1.1900 H     1 <1>   0.0800 
 51 H       -7.5990    -2.5340    -0.0220 H     1 <1>   0.4000 
@<TRIPOS>BOND
  1   1   2  2   
  2   2   3  am  
  3   2   4  1   
  4   3   5  1   
  5   3   6  1   
  6   4   7  1   
  7   4  26  1   
  8   4  27  1   
  9   5   8  ar  
 10   5   9  ar  
 11   6   7  1   
 12   6  28  1   
 13   6  29  1   
 14   7  30  1   
 15   7  31  1   
 16   8  10  ar  
 17   8  32  1   
 18   9  11  ar  
 19   9  33  1   
 20  10  12  ar  
 21  10  34  1   
 22  11  12  ar  
 23  11  35  1   
 24  12  13  1   
 25  13  14  2   
 26  13  15  am  
 27  15  16  1   
 28  15  17  1   
 29  16  18  1   
 30  16  19  1   
 31  16  36  1   
 32  17  37  1   
 33  17  38  1   
 34  17  39  1   
 35  18  20  1   
 36  18  40  1   
 37  18  41  1   
 38  19  21  1   
 39  19  42  1   
 40  19  43  1   
 41  20  21  1   
 42  20  22  1   
 43  20  44  1   
 44  21  23  1   
 45  21  45  1   
 46  22  24  1   
 47  22  46  1   
 48  22  47  1   
 49  23  24  1   
 50  23  48  1   
 51  23  49  1   
 52  24  25  1   
 53  24  50  1   
 54  25  51  1   
@<TRIPOS>SUBSTRUCTURE
  1 ****  11 GROUP 4 **** **** 0

# MOE 2024.06 (io_trps.svl 2023.06)
