@<TRIPOS>MOLECULE
NONAME
42 43 1 0 0 
SMALL
USER_CHARGES


@<TRIPOS>ATOM
  1 F        3.0530     0.1160    -1.7250 F     1 <1>  -0.1900 
  2 C        2.9590    -0.9920    -1.0390 C.ar  1 <1>   0.1900 
  3 C        2.4330    -2.1100    -1.6570 C.ar  1 <1>  -0.1500 
  4 C        3.3860    -1.0030     0.2740 C.ar  1 <1>  -0.1500 
  5 C        2.3290    -3.2880    -0.9300 C.ar  1 <1>  -0.1440 
  6 C        3.2830    -2.1790     0.9960 C.ar  1 <1>  -0.1500 
  7 C        2.7540    -3.3230     0.3970 C.ar  1 <1>   0.0830 
  8 C        1.7550    -4.5370    -1.5730 C.3   1 <1>   0.4870 
  9 O        2.6160    -4.5040     1.0530 O.3   1 <1>  -0.3630 
 10 N        0.5060    -4.9180    -0.8740 N.4   1 <1>  -0.9590 
 11 C        3.0000    -4.6540     2.4040 C.3   1 <1>   0.0400 
 12 C        0.0280    -6.2720    -1.2420 C.3   1 <1>   0.5240 
 13 C       -0.5600    -3.8720    -0.8860 C.3   1 <1>   0.3430 
 14 C        0.4200    -7.1990    -0.1020 C.2   1 <1>   0.0460 
 15 C       -1.5690    -4.0730     0.2540 C.3   1 <1>   0.1200 
 16 N        0.2130    -6.8040     1.1740 N.2   1 <1>  -0.5650 
 17 C        0.9900    -8.4260    -0.1430 C.2   1 <1>  -0.3320 
 18 O       -2.5960    -3.1620     0.0790 O.3   1 <1>  -0.6800 
 19 C        0.6480    -7.7980     1.8790 C.2   1 <1>   0.0360 
 20 N        1.1350    -8.8160     1.1390 N.pl3 1 <1>   0.0330 
 21 C        1.4220    -9.3010    -1.3090 C.3   1 <1>  -0.0600 
 22 H        2.1210    -2.0390    -2.6840 H     1 <1>   0.1500 
 23 H        3.7910    -0.1090     0.7150 H     1 <1>   0.1500 
 24 H        3.6190    -2.1820     2.0170 H     1 <1>   0.1500 
 25 H        2.4770    -5.3330    -1.4860 H     1 <1>   0.0800 
 26 H        1.5590    -4.3590    -2.6180 H     1 <1>   0.0800 
 27 H        0.8000    -5.0470     0.1180 H     1 <1>   0.4500 
 28 H        2.7880    -5.6660     2.7010 H     1 <1>   0.0800 
 29 H        2.4310    -3.9710     3.0100 H     1 <1>   0.0800 
 30 H        4.0550    -4.4620     2.4930 H     1 <1>   0.0800 
 31 H        0.4670    -6.6060    -2.1670 H     1 <1>   0.0800 
 32 H       -1.0440    -6.2780    -1.3390 H     1 <1>   0.0800 
 33 H       -1.0810    -3.8920    -1.8280 H     1 <1>   0.0800 
 34 H       -0.1160    -2.8980    -0.7620 H     1 <1>   0.0800 
 35 H       -1.1080    -3.8860     1.2090 H     1 <1>   0.0800 
 36 H       -1.9980    -5.0600     0.2390 H     1 <1>   0.0800 
 37 H       -3.2470    -3.2140     0.8110 H     1 <1>   0.4000 
 38 H        0.6320    -7.8360     2.9550 H     1 <1>   0.1500 
 39 H        1.5240    -9.6980     1.4880 H     1 <1>   0.2700 
 40 H        1.2140    -8.8240    -2.2490 H     1 <1>   0.0800 
 41 H        0.8960   -10.2390    -1.2820 H     1 <1>   0.0800 
 42 H        2.4790    -9.4990    -1.2530 H     1 <1>   0.0800 
@<TRIPOS>BOND
  1   1   2  1   
  2   2   3  ar  
  3   2   4  ar  
  4   3   5  ar  
  5   3  22  1   
  6   4   6  ar  
  7   4  23  1   
  8   5   7  ar  
  9   5   8  1   
 10   6   7  ar  
 11   6  24  1   
 12   7   9  1   
 13   8  10  1   
 14   8  25  1   
 15   8  26  1   
 16   9  11  1   
 17  10  12  1   
 18  10  13  1   
 19  10  27  1   
 20  11  28  1   
 21  11  29  1   
 22  11  30  1   
 23  12  14  1   
 24  12  31  1   
 25  12  32  1   
 26  13  15  1   
 27  13  33  1   
 28  13  34  1   
 29  14  16  1   
 30  14  17  2   
 31  15  18  1   
 32  15  35  1   
 33  15  36  1   
 34  16  19  2   
 35  17  20  1   
 36  17  21  1   
 37  18  37  1   
 38  19  20  1   
 39  19  38  1   
 40  20  39  1   
 41  21  40  1   
 42  21  41  1   
 43  21  42  1   
@<TRIPOS>SUBSTRUCTURE
  1 ****  10 GROUP 4 **** **** 0

# MOE 2024.06 (io_trps.svl 2023.06)
