@<TRIPOS>MOLECULE
NONAME
54 56 1 0 0 
SMALL
USER_CHARGES


@<TRIPOS>ATOM
  1 O        0.5210    -0.0620    -0.5500 O.2   1 <1>  -0.5700 
  2 C        1.3670    -0.6370     0.1100 C.2   1 <1>   0.5440 
  3 N        2.3190     0.1110     0.7790 N.am  1 <1>  -0.6600 
  4 C        1.3560    -2.0860     0.1630 C.ar  1 <1>   0.0860 
  5 C        2.4120     1.5990     0.5900 C.3   1 <1>   0.1400 
  6 C        3.0660    -0.4370     1.9500 C.3   1 <1>   0.0600 
  7 C        2.5090    -2.8370    -0.0800 C.ar  1 <1>  -0.1500 
  8 C        0.1820    -2.7820     0.4530 C.ar  1 <1>  -0.1500 
  9 C        3.4300     2.0480    -0.5000 C.3   1 <1>   0.0000 
 10 C        2.4940    -4.2180    -0.0230 C.ar  1 <1>  -0.1500 
 11 C        0.1580    -4.1630     0.5120 C.ar  1 <1>  -0.1500 
 12 C        3.2580     3.5720    -0.7150 C.3   1 <1>  -0.1600 
 13 C        4.8940     1.8090    -0.0400 C.3   1 <1>  -0.1600 
 14 C        3.1300     1.2730    -1.8080 C.3   1 <1>   0.1200 
 15 C        1.3170    -4.8900     0.2680 C.ar  1 <1>   0.0820 
 16 C        3.6270     4.3970     0.5360 C.3   1 <1>   0.1200 
 17 C        5.4880     2.9720     0.7750 C.3   1 <1>   0.1200 
 18 O        3.9130     1.7180    -2.8690 O.3   1 <1>  -0.6800 
 19 O        1.3480    -6.2420     0.3150 O.3   1 <1>  -0.1650 
 20 O        4.4670     3.6850     1.3990 O.3   1 <1>  -0.5600 
 21 C        0.2850    -7.0010    -0.0500 C.ar  1 <1>   0.0820 
 22 C       -0.0290    -8.1090     0.7210 C.ar  1 <1>  -0.1500 
 23 C       -0.4720    -6.7010    -1.1760 C.ar  1 <1>  -0.1500 
 24 C       -1.1060    -8.9130     0.3850 C.ar  1 <1>  -0.1430 
 25 C       -1.5470    -7.5030    -1.5150 C.ar  1 <1>  -0.1500 
 26 C       -1.8630    -8.6040    -0.7350 C.ar  1 <1>  -0.1500 
 27 C       -1.4570   -10.1250     1.2280 C.3   1 <1>  -0.0970 
 28 H        2.6540     2.0550     1.5330 H     1 <1>   0.0800 
 29 H        1.4390     1.9720     0.3210 H     1 <1>   0.0800 
 30 H        2.4980    -1.2200     2.4220 H     1 <1>   0.0800 
 31 H        3.2450     0.3340     2.6790 H     1 <1>   0.0800 
 32 H        4.0090    -0.8380     1.6270 H     1 <1>   0.0800 
 33 H        3.4230    -2.3230    -0.3210 H     1 <1>   0.1500 
 34 H       -0.7190    -2.2210     0.6320 H     1 <1>   0.1500 
 35 H        3.3900    -4.7830    -0.2100 H     1 <1>   0.1500 
 36 H       -0.7600    -4.6720     0.7490 H     1 <1>   0.1500 
 37 H        2.2510     3.8050    -1.0110 H     1 <1>   0.0800 
 38 H        3.9030     3.9000    -1.5100 H     1 <1>   0.0800 
 39 H        5.5330     1.6700    -0.8930 H     1 <1>   0.0800 
 40 H        4.9660     0.9050     0.5300 H     1 <1>   0.0800 
 41 H        2.0960     1.3840    -2.0890 H     1 <1>   0.0800 
 42 H        3.3370     0.2260    -1.6770 H     1 <1>   0.0800 
 43 H        2.7410     4.6420     1.0960 H     1 <1>   0.0800 
 44 H        4.1220     5.3110     0.2580 H     1 <1>   0.0800 
 45 H        6.0310     3.6510     0.1390 H     1 <1>   0.0800 
 46 H        6.1520     2.6030     1.5370 H     1 <1>   0.0800 
 47 H        3.6490     2.6210    -3.1250 H     1 <1>   0.4000 
 48 H        0.5740    -8.3310     1.5820 H     1 <1>   0.1500 
 49 H       -0.2200    -5.8520    -1.7860 H     1 <1>   0.1500 
 50 H       -2.1370    -7.2730    -2.3840 H     1 <1>   0.1500 
 51 H       -2.7000    -9.2230    -1.0060 H     1 <1>   0.1500 
 52 H       -1.0050   -10.0570     2.2010 H     1 <1>   0.0800 
 53 H       -1.1040   -11.0180     0.7440 H     1 <1>   0.0800 
 54 H       -2.5230   -10.1950     1.3530 H     1 <1>   0.0800 
@<TRIPOS>BOND
  1   1   2  2   
  2   2   3  am  
  3   2   4  1   
  4   3   5  1   
  5   3   6  1   
  6   4   7  ar  
  7   4   8  ar  
  8   5   9  1   
  9   5  28  1   
 10   5  29  1   
 11   6  30  1   
 12   6  31  1   
 13   6  32  1   
 14   7  10  ar  
 15   7  33  1   
 16   8  11  ar  
 17   8  34  1   
 18   9  12  1   
 19   9  13  1   
 20   9  14  1   
 21  10  15  ar  
 22  10  35  1   
 23  11  15  ar  
 24  11  36  1   
 25  12  16  1   
 26  12  37  1   
 27  12  38  1   
 28  13  17  1   
 29  13  39  1   
 30  13  40  1   
 31  14  18  1   
 32  14  41  1   
 33  14  42  1   
 34  15  19  1   
 35  16  20  1   
 36  16  43  1   
 37  16  44  1   
 38  17  20  1   
 39  17  45  1   
 40  17  46  1   
 41  18  47  1   
 42  19  21  1   
 43  21  22  ar  
 44  21  23  ar  
 45  22  24  ar  
 46  22  48  1   
 47  23  25  ar  
 48  23  49  1   
 49  24  26  ar  
 50  24  27  1   
 51  25  26  ar  
 52  25  50  1   
 53  26  51  1   
 54  27  52  1   
 55  27  53  1   
 56  27  54  1   
@<TRIPOS>SUBSTRUCTURE
  1 ****   4 GROUP 4 **** **** 0

# MOE 2024.06 (io_trps.svl 2023.06)
