@<TRIPOS>MOLECULE
NONAME
50 52 1 0 0 
SMALL
USER_CHARGES


@<TRIPOS>ATOM
  1 O        0.3400    -0.7430    -0.5540 O.3   1 <1>  -0.3630 
  2 C        0.0280    -2.0430    -0.3930 C.ar  1 <1>   0.3920 
  3 C        1.6600    -0.2500    -0.4830 C.3   1 <1>   0.0400 
  4 N       -1.2390    -2.3270    -0.5610 N.ar  1 <1>  -0.6200 
  5 C        0.9590    -3.0070    -0.0720 C.ar  1 <1>  -0.1500 
  6 C       -1.5660    -3.5970    -0.4220 C.ar  1 <1>   0.7200 
  7 C        0.4920    -4.2940     0.0740 C.ar  1 <1>   0.3920 
  8 N       -0.7680    -4.6030    -0.0930 N.ar  1 <1>  -0.6200 
  9 N       -2.8970    -3.8990    -0.5830 N.pl3 1 <1>  -0.8380 
 10 O        1.2760    -5.3390     0.4020 O.3   1 <1>  -0.3630 
 11 C       -3.3210    -5.2670    -0.9380 C.3   1 <1>   0.2090 
 12 C       -3.8350    -3.1880     0.3170 C.3   1 <1>   0.2090 
 13 C        2.6770    -5.2240     0.5460 C.3   1 <1>   0.0400 
 14 C       -3.9570    -5.8520     0.3400 C.3   1 <1>   0.4230 
 15 C       -5.1840    -3.9450     0.5390 C.3   1 <1>  -0.1600 
 16 N       -3.4170    -7.2270     0.6980 N.4   1 <1>  -0.9590 
 17 C       -5.5230    -5.5250     0.3310 C.3   1 <1>   0.0000 
 18 C       -3.6900    -8.2100    -0.3670 C.3   1 <1>   0.3430 
 19 C       -1.9560    -7.1820     1.0370 C.3   1 <1>   0.2630 
 20 C       -5.9360    -7.0700     0.0640 C.3   1 <1>  -0.1600 
 21 C       -7.0800    -5.1490     0.3990 C.3   1 <1>   0.1200 
 22 C       -5.0880    -7.9390    -0.8960 C.3   1 <1>  -0.1600 
 23 O       -7.5880    -4.9610    -0.8870 O.3   1 <1>  -0.6800 
 24 H        1.6300     0.8070    -0.6750 H     1 <1>   0.0800 
 25 H        2.2580    -0.7390    -1.2320 H     1 <1>   0.0800 
 26 H        2.0490    -0.4290     0.5040 H     1 <1>   0.0800 
 27 H        1.9900    -2.7640     0.0640 H     1 <1>   0.1500 
 28 H       -4.0460    -5.2110    -1.7320 H     1 <1>   0.0800 
 29 H       -2.4910    -5.8510    -1.2900 H     1 <1>   0.0800 
 30 H       -3.3500    -3.0420     1.2700 H     1 <1>   0.0800 
 31 H       -4.0240    -2.2060    -0.0880 H     1 <1>   0.0800 
 32 H        3.0700    -6.1980     0.7770 H     1 <1>   0.0800 
 33 H        2.8930    -4.5450     1.3520 H     1 <1>   0.0800 
 34 H        3.0980    -4.8730    -0.3790 H     1 <1>   0.0800 
 35 H       -3.5550    -5.2630     1.1460 H     1 <1>   0.0800 
 36 H       -5.4560    -3.6770     1.5480 H     1 <1>   0.0800 
 37 H       -5.8070    -3.3480    -0.1090 H     1 <1>   0.0800 
 38 H       -3.9330    -7.5240     1.5340 H     1 <1>   0.4500 
 39 H       -2.9730    -8.1170    -1.1680 H     1 <1>   0.0800 
 40 H       -3.6300    -9.2100     0.0340 H     1 <1>   0.0800 
 41 H       -1.3710    -6.9510     0.1610 H     1 <1>   0.0800 
 42 H       -1.6290    -8.1320     1.4260 H     1 <1>   0.0800 
 43 H       -1.7640    -6.4200     1.7760 H     1 <1>   0.0800 
 44 H       -6.0030    -7.5710     1.0170 H     1 <1>   0.0800 
 45 H       -6.9070    -7.2290    -0.3850 H     1 <1>   0.0800 
 46 H       -7.3480    -4.2690     0.9650 H     1 <1>   0.0800 
 47 H       -7.6900    -5.8980     0.8830 H     1 <1>   0.0800 
 48 H       -5.0250    -7.4590    -1.8580 H     1 <1>   0.0800 
 49 H       -5.5750    -8.8860    -1.0580 H     1 <1>   0.0800 
 50 H       -7.2510    -4.1380    -1.2940 H     1 <1>   0.4000 
@<TRIPOS>BOND
  1   1   2  1   
  2   1   3  1   
  3   2   4  ar  
  4   2   5  ar  
  5   3  24  1   
  6   3  25  1   
  7   3  26  1   
  8   4   6  ar  
  9   5   7  ar  
 10   5  27  1   
 11   6   8  ar  
 12   6   9  1   
 13   7   8  ar  
 14   7  10  1   
 15   9  11  1   
 16   9  12  1   
 17  10  13  1   
 18  11  14  1   
 19  11  28  1   
 20  11  29  1   
 21  12  15  1   
 22  12  30  1   
 23  12  31  1   
 24  13  32  1   
 25  13  33  1   
 26  13  34  1   
 27  14  16  1   
 28  14  17  1   
 29  14  35  1   
 30  15  17  1   
 31  15  36  1   
 32  15  37  1   
 33  16  18  1   
 34  16  19  1   
 35  16  38  1   
 36  17  20  1   
 37  17  21  1   
 38  18  22  1   
 39  18  39  1   
 40  18  40  1   
 41  19  41  1   
 42  19  42  1   
 43  19  43  1   
 44  20  22  1   
 45  20  44  1   
 46  20  45  1   
 47  21  23  1   
 48  21  46  1   
 49  21  47  1   
 50  22  48  1   
 51  22  49  1   
 52  23  50  1   
@<TRIPOS>SUBSTRUCTURE
  1 ****   9 GROUP 4 **** **** 0

# MOE 2024.06 (io_trps.svl 2023.06)
