@<TRIPOS>MOLECULE
NONAME
46 48 1 0 0 
SMALL
USER_CHARGES


@<TRIPOS>ATOM
  1 O        1.0220     0.1210    -4.2820 O.2   1 <1>  -0.5700 
  2 C        0.2050    -0.5430    -3.6850 C.2   1 <1>   0.5690 
  3 N        0.2750    -0.7690    -2.3430 N.am  1 <1>  -0.4930 
  4 C       -0.9700    -1.1310    -4.4650 C.3   1 <1>   0.1810 
  5 C        1.2920    -0.3960    -1.4300 C.2   1 <1>   0.0630 
  6 O       -0.9190    -2.5420    -4.5410 O.3   1 <1>  -0.5600 
  7 C        2.4020     0.4290    -1.6130 C.2   1 <1>   0.1390 
  8 C        1.3790    -0.7960    -0.1470 C.2   1 <1>  -0.3020 
  9 C       -1.9300    -3.2190    -3.8550 C.3   1 <1>   0.3000 
 10 N        3.1220     0.5380    -0.5320 N.2   1 <1>  -0.7070 
 11 N        2.4880    -0.2340     0.3740 N.pl3 1 <1>   0.3140 
 12 C       -1.6420    -3.1820    -2.3640 C.2   1 <1>   0.0060 
 13 C        2.9820    -0.4000     1.7460 C.3   1 <1>   0.1570 
 14 N       -2.2270    -2.3940    -1.5280 N.2   1 <1>  -0.5650 
 15 N       -0.7010    -3.9820    -1.7990 N.pl3 1 <1>   0.0330 
 16 C        2.4920     0.7390     2.6090 C.2   1 <1>   0.5690 
 17 C       -1.6680    -2.7020    -0.3240 C.ar  1 <1>   0.2270 
 18 C       -0.7060    -3.6820    -0.4760 C.ar  1 <1>  -0.1520 
 19 O        2.0710     0.4820     3.7110 O.2   1 <1>  -0.5700 
 20 N        2.5530     2.0140     2.1340 N.am  1 <1>  -0.7300 
 21 C       -1.9220    -2.1690     0.9380 C.ar  1 <1>  -0.1500 
 22 C        0.0310    -4.1500     0.6150 C.ar  1 <1>  -0.1500 
 23 C        2.1080     3.2340     2.8480 C.3   1 <1>   0.0600 
 24 C       -1.1990    -2.6260     2.0180 C.ar  1 <1>  -0.1500 
 25 C       -0.2190    -3.6150     1.8610 C.ar  1 <1>  -0.1430 
 26 C        0.5530    -4.0790     3.0830 C.3   1 <1>  -0.0970 
 27 H       -0.4900    -1.3250    -1.9380 H     1 <1>   0.3700 
 28 H       -0.9340    -0.7580    -5.4730 H     1 <1>   0.0800 
 29 H       -1.8940    -0.8120    -4.0170 H     1 <1>   0.0800 
 30 H        2.6380     0.9210    -2.5420 H     1 <1>   0.1500 
 31 H        0.7300    -1.4340     0.4160 H     1 <1>   0.1500 
 32 H       -1.9410    -4.2360    -4.2060 H     1 <1>   0.0800 
 33 H       -2.8810    -2.7670    -4.0800 H     1 <1>   0.0800 
 34 H        4.0540    -0.4040     1.7310 H     1 <1>   0.0800 
 35 H        2.6260    -1.3320     2.1380 H     1 <1>   0.0800 
 36 H       -0.0780    -4.6380    -2.2770 H     1 <1>   0.2700 
 37 H        2.8520     2.1370     1.1530 H     1 <1>   0.3700 
 38 H       -2.6770    -1.4110     1.0380 H     1 <1>   0.1500 
 39 H        0.7760    -4.9130     0.4700 H     1 <1>   0.1500 
 40 H        1.7810     2.9860     3.8430 H     1 <1>   0.0800 
 41 H        1.2910     3.6880     2.3150 H     1 <1>   0.0800 
 42 H        2.9230     3.9350     2.9130 H     1 <1>   0.0800 
 43 H       -1.3860    -2.2180     2.9980 H     1 <1>   0.1500 
 44 H        1.3160    -4.7860     2.8130 H     1 <1>   0.0800 
 45 H       -0.1180    -4.5480     3.7810 H     1 <1>   0.0800 
 46 H        1.0190    -3.2380     3.5650 H     1 <1>   0.0800 
@<TRIPOS>BOND
  1   1   2  2   
  2   2   3  am  
  3   2   4  1   
  4   3   5  1   
  5   3  27  1   
  6   4   6  1   
  7   4  28  1   
  8   4  29  1   
  9   5   7  1   
 10   5   8  2   
 11   6   9  1   
 12   7  10  2   
 13   7  30  1   
 14   8  11  1   
 15   8  31  1   
 16   9  12  1   
 17   9  32  1   
 18   9  33  1   
 19  10  11  1   
 20  11  13  1   
 21  12  14  2   
 22  12  15  1   
 23  13  16  1   
 24  13  34  1   
 25  13  35  1   
 26  14  17  1   
 27  15  18  1   
 28  15  36  1   
 29  16  19  2   
 30  16  20  am  
 31  17  18  ar  
 32  17  21  ar  
 33  18  22  ar  
 34  20  23  1   
 35  20  37  1   
 36  21  24  ar  
 37  21  38  1   
 38  22  25  ar  
 39  22  39  1   
 40  23  40  1   
 41  23  41  1   
 42  23  42  1   
 43  24  25  ar  
 44  24  43  1   
 45  25  26  1   
 46  26  44  1   
 47  26  45  1   
 48  26  46  1   
@<TRIPOS>SUBSTRUCTURE
  1 ****   8 GROUP 4 **** **** 0

# MOE 2024.06 (io_trps.svl 2023.06)
