@<TRIPOS>MOLECULE
NONAME
51 54 1 0 0 
SMALL
USER_CHARGES


@<TRIPOS>ATOM
  1 O       -0.6270     0.8620     1.6240 O.2   1 <1>  -0.5700 
  2 C       -1.6800     1.1960     1.1330 C.2   1 <1>   0.5690 
  3 N       -2.8330     0.4810     1.3400 N.am  1 <1>  -0.6600 
  4 C       -1.6950     2.4300     0.2490 C.3   1 <1>  -0.0990 
  5 C       -2.8450    -0.7430     2.1900 C.3   1 <1>   0.1400 
  6 C       -4.1640     0.7890     0.7460 C.3   1 <1>   0.1400 
  7 C       -0.3350     3.1410     0.2030 C.3   1 <1>   0.0960 
  8 C       -3.2650    -1.9410     1.3360 C.3   1 <1>  -0.1600 
  9 C       -4.5950    -0.3850    -0.1360 C.3   1 <1>  -0.1600 
 10 N       -0.3650     4.2610    -0.7560 N.pl3 1 <1>   0.3140 
 11 C       -4.6190    -1.7110     0.6470 C.3   1 <1>   0.4240 
 12 N       -1.2330     5.2860    -0.6400 N.2   1 <1>  -0.7070 
 13 C        0.4210     4.4100    -1.8410 C.2   1 <1>  -0.3020 
 14 O       -5.5500    -1.5780     1.6970 O.3   1 <1>  -0.5600 
 15 C       -4.9610    -2.8990    -0.2790 C.ar  1 <1>  -0.1430 
 16 C       -0.9730     6.0590    -1.6500 C.2   1 <1>   0.1390 
 17 C        0.0550     5.5630    -2.4410 C.2   1 <1>  -0.1500 
 18 C       -6.8910    -1.8220     1.4060 C.3   1 <1>   0.1200 
 19 C       -6.1150    -3.6510    -0.0890 C.ar  1 <1>  -0.1430 
 20 C       -4.1160    -3.2370    -1.3310 C.ar  1 <1>  -0.1500 
 21 C       -7.0570    -3.2940     1.0430 C.3   1 <1>  -0.0170 
 22 C       -6.4110    -4.7180    -0.9230 C.ar  1 <1>  -0.1500 
 23 C       -4.4110    -4.2990    -2.1650 C.ar  1 <1>  -0.1500 
 24 C       -5.5570    -5.0480    -1.9690 C.ar  1 <1>   0.0820 
 25 O       -5.7720    -6.0750    -2.8300 O.3   1 <1>  -0.3620 
 26 C       -6.8990    -6.9130    -2.7040 C.3   1 <1>   0.0400 
 27 H       -2.4280     3.1160     0.6300 H     1 <1>   0.0800 
 28 H       -1.9700     2.1310    -0.7450 H     1 <1>   0.0800 
 29 H       -3.5410    -0.6040     3.0000 H     1 <1>   0.0800 
 30 H       -1.8730    -0.9260     2.6160 H     1 <1>   0.0800 
 31 H       -4.1390     1.6880     0.1590 H     1 <1>   0.0800 
 32 H       -4.8780     0.9310     1.5410 H     1 <1>   0.0800 
 33 H        0.4340     2.4530    -0.0960 H     1 <1>   0.0800 
 34 H       -0.0900     3.5310     1.1740 H     1 <1>   0.0800 
 35 H       -3.3280    -2.8210     1.9480 H     1 <1>   0.0800 
 36 H       -2.4980    -2.1110     0.6050 H     1 <1>   0.0800 
 37 H       -3.9020    -0.4630    -0.9520 H     1 <1>   0.0800 
 38 H       -5.5610    -0.1920    -0.5610 H     1 <1>   0.0800 
 39 H        1.1820     3.7050    -2.1200 H     1 <1>   0.1500 
 40 H       -1.5000     6.9780    -1.8420 H     1 <1>   0.1500 
 41 H        0.4500     6.0200    -3.3300 H     1 <1>   0.1500 
 42 H       -7.2010    -1.1860     0.5970 H     1 <1>   0.0800 
 43 H       -7.4670    -1.5840     2.2830 H     1 <1>   0.0800 
 44 H       -3.2160    -2.6770    -1.5130 H     1 <1>   0.1500 
 45 H       -8.0760    -3.4740     0.7520 H     1 <1>   0.0800 
 46 H       -6.8370    -3.9020     1.9030 H     1 <1>   0.0800 
 47 H       -7.3070    -5.2820    -0.7480 H     1 <1>   0.1500 
 48 H       -3.7530    -4.5560    -2.9750 H     1 <1>   0.1500 
 49 H       -6.8530    -7.6520    -3.4830 H     1 <1>   0.0800 
 50 H       -7.7890    -6.3200    -2.8150 H     1 <1>   0.0800 
 51 H       -6.8710    -7.3930    -1.7420 H     1 <1>   0.0800 
@<TRIPOS>BOND
  1   1   2  2   
  2   2   3  am  
  3   2   4  1   
  4   3   5  1   
  5   3   6  1   
  6   4   7  1   
  7   4  27  1   
  8   4  28  1   
  9   5   8  1   
 10   5  29  1   
 11   5  30  1   
 12   6   9  1   
 13   6  31  1   
 14   6  32  1   
 15   7  10  1   
 16   7  33  1   
 17   7  34  1   
 18   8  11  1   
 19   8  35  1   
 20   8  36  1   
 21   9  11  1   
 22   9  37  1   
 23   9  38  1   
 24  10  12  1   
 25  10  13  1   
 26  11  14  1   
 27  11  15  1   
 28  12  16  2   
 29  13  17  2   
 30  13  39  1   
 31  14  18  1   
 32  15  19  ar  
 33  15  20  ar  
 34  16  17  1   
 35  16  40  1   
 36  17  41  1   
 37  18  21  1   
 38  18  42  1   
 39  18  43  1   
 40  19  21  1   
 41  19  22  ar  
 42  20  23  ar  
 43  20  44  1   
 44  21  45  1   
 45  21  46  1   
 46  22  24  ar  
 47  22  47  1   
 48  23  24  ar  
 49  23  48  1   
 50  24  25  1   
 51  25  26  1   
 52  26  49  1   
 53  26  50  1   
 54  26  51  1   
@<TRIPOS>SUBSTRUCTURE
  1 ****   9 GROUP 4 **** **** 0

# MOE 2024.06 (io_trps.svl 2023.06)
