@<TRIPOS>MOLECULE
NONAME
48 51 1 0 0 
SMALL
USER_CHARGES


@<TRIPOS>ATOM
  1 F       -0.1190    -1.0030    -1.7670 F     1 <1>  -0.1900 
  2 C       -0.2830    -2.2430    -1.3890 C.ar  1 <1>   0.1900 
  3 C       -1.2920    -2.5470    -0.5070 C.ar  1 <1>  -0.1500 
  4 C        0.5750    -3.2060    -1.8980 C.ar  1 <1>  -0.1500 
  5 C       -1.4750    -3.8710    -0.0970 C.ar  1 <1>   0.0860 
  6 C        0.4040    -4.5150    -1.5030 C.ar  1 <1>  -0.1500 
  7 C       -2.5070    -4.2670     0.8240 C.2   1 <1>   0.4690 
  8 C       -0.6130    -4.8620    -0.6080 C.ar  1 <1>   0.1000 
  9 O       -3.3060    -3.4670     1.2870 O.2   1 <1>  -0.5700 
 10 C       -2.6000    -5.6350     1.1830 C.2   1 <1>  -0.1360 
 11 N       -0.7750    -6.1880    -0.2140 N.pl3 1 <1>  -0.6000 
 12 C       -1.7630    -6.5720     0.6720 C.2   1 <1>  -0.0380 
 13 C       -1.9020    -8.0440     1.0460 C.3   1 <1>   0.4810 
 14 N       -2.4470    -8.8000    -0.1220 N.4   1 <1>  -0.9590 
 15 C       -3.8630    -8.3890    -0.4020 C.3   1 <1>   0.3430 
 16 C       -2.4840   -10.2680     0.1740 C.3   1 <1>   0.3430 
 17 C       -4.7400    -9.3960     0.3470 C.3   1 <1>   0.2000 
 18 C       -3.9570   -10.6970     0.1650 C.3   1 <1>  -0.0800 
 19 O       -4.7650    -9.0380     1.6930 O.3   1 <1>  -0.6800 
 20 C       -4.2440   -11.8200     1.1770 C.3   1 <1>   0.0200 
 21 C       -3.3010   -12.9900     0.9490 C.2   1 <1>  -0.3320 
 22 N       -2.7400   -13.7050     1.9520 N.pl3 1 <1>   0.3000 
 23 C       -2.8560   -13.5410    -0.2030 C.2   1 <1>  -0.1500 
 24 N       -1.9280   -14.6640     1.4810 N.2   1 <1>  -0.7070 
 25 C       -2.0100   -14.5700     0.1940 C.2   1 <1>   0.1080 
 26 C       -1.2580   -15.4990    -0.7310 C.3   1 <1>  -0.0590 
 27 H       -1.9370    -1.7710    -0.1320 H     1 <1>   0.1500 
 28 H        1.3510    -2.9180    -2.5860 H     1 <1>   0.1500 
 29 H        1.0620    -5.2740    -1.8880 H     1 <1>   0.1500 
 30 H       -3.3820    -5.8750     1.8810 H     1 <1>   0.1500 
 31 H       -0.0530    -6.8430    -0.5400 H     1 <1>   0.4000 
 32 H       -2.5660    -8.1430     1.8900 H     1 <1>   0.0800 
 33 H       -0.9370    -8.4330     1.3280 H     1 <1>   0.0800 
 34 H       -1.8620    -8.5870    -0.9380 H     1 <1>   0.4500 
 35 H       -4.0730    -7.3800    -0.0910 H     1 <1>   0.0800 
 36 H       -4.0580    -8.4770    -1.4580 H     1 <1>   0.0800 
 37 H       -1.9280   -10.8310    -0.5590 H     1 <1>   0.0800 
 38 H       -2.0610   -10.4620     1.1470 H     1 <1>   0.0800 
 39 H       -5.7480    -9.4300    -0.0300 H     1 <1>   0.0800 
 40 H       -4.1730   -11.0740    -0.8190 H     1 <1>   0.0800 
 41 H       -5.5560    -9.4070     2.1420 H     1 <1>   0.4000 
 42 H       -5.2620   -12.1590     1.0790 H     1 <1>   0.0800 
 43 H       -4.1090   -11.4590     2.1820 H     1 <1>   0.0800 
 44 H       -2.8860   -13.5760     2.9610 H     1 <1>   0.2700 
 45 H       -3.0790   -13.2870    -1.2240 H     1 <1>   0.1500 
 46 H       -1.4650   -15.2630    -1.7580 H     1 <1>   0.0800 
 47 H       -1.5560   -16.5130    -0.5370 H     1 <1>   0.0800 
 48 H       -0.2030   -15.4090    -0.5510 H     1 <1>   0.0800 
@<TRIPOS>BOND
  1   1   2  1   
  2   2   3  ar  
  3   2   4  ar  
  4   3   5  ar  
  5   3  27  1   
  6   4   6  ar  
  7   4  28  1   
  8   5   7  1   
  9   5   8  ar  
 10   6   8  ar  
 11   6  29  1   
 12   7   9  2   
 13   7  10  1   
 14   8  11  1   
 15  10  12  2   
 16  10  30  1   
 17  11  12  1   
 18  11  31  1   
 19  12  13  1   
 20  13  14  1   
 21  13  32  1   
 22  13  33  1   
 23  14  15  1   
 24  14  16  1   
 25  14  34  1   
 26  15  17  1   
 27  15  35  1   
 28  15  36  1   
 29  16  18  1   
 30  16  37  1   
 31  16  38  1   
 32  17  18  1   
 33  17  19  1   
 34  17  39  1   
 35  18  20  1   
 36  18  40  1   
 37  19  41  1   
 38  20  21  1   
 39  20  42  1   
 40  20  43  1   
 41  21  22  1   
 42  21  23  2   
 43  22  24  1   
 44  22  44  1   
 45  23  25  1   
 46  23  45  1   
 47  24  25  2   
 48  25  26  1   
 49  26  46  1   
 50  26  47  1   
 51  26  48  1   
@<TRIPOS>SUBSTRUCTURE
  1 ****  14 GROUP 4 **** **** 0

# MOE 2024.06 (io_trps.svl 2023.06)
