@<TRIPOS>MOLECULE
NONAME
40 41 1 0 0 
SMALL
USER_CHARGES


@<TRIPOS>ATOM
  1 F        0.5540     1.6110    -0.1270 F     1 <1>  -0.1900 
  2 C       -0.7340     1.8330    -0.0910 C.ar  1 <1>   0.1900 
  3 C       -1.2510     2.6150     0.9290 C.ar  1 <1>  -0.1440 
  4 C       -1.5160     1.2910    -1.0930 C.ar  1 <1>  -0.1500 
  5 C       -2.6140     2.8670     0.9100 C.ar  1 <1>  -0.1500 
  6 C       -0.3780     3.1690     2.0440 C.3   1 <1>   0.3530 
  7 C       -2.8850     1.5380    -1.1010 C.ar  1 <1>  -0.1440 
  8 C       -3.4160     2.3370    -0.0900 C.ar  1 <1>  -0.1500 
  9 N       -0.0240     4.5770     1.7570 N.pl3 1 <1>  -0.8690 
 10 C       -3.7760     0.9460    -2.2090 C.3   1 <1>   1.1640 
 11 C        0.7840     5.1320     0.8480 C.ar  1 <1>   0.7710 
 12 F       -3.4150    -0.2870    -2.5400 F     1 <1>  -0.3400 
 13 F       -3.7110     1.6670    -3.3200 F     1 <1>  -0.3400 
 14 F       -5.0580     0.8840    -1.8720 F     1 <1>  -0.3400 
 15 N        0.9490     6.4310     0.9450 N.ar  1 <1>  -0.6200 
 16 N        1.3810     4.3870    -0.0950 N.ar  1 <1>  -0.1790 
 17 C        1.7610     7.0180     0.0850 C.ar  1 <1>   0.4100 
 18 C        2.1860     4.9540    -1.0220 C.ar  1 <1>   0.2110 
 19 N        1.9510     8.3520     0.2550 N.pl3 1 <1>  -0.8380 
 20 C        2.3940     6.2940    -0.9600 C.ar  1 <1>  -0.1430 
 21 C        0.8230     9.2550     0.6230 C.3   1 <1>   0.1290 
 22 C        3.2970     8.9530     0.4660 C.3   1 <1>   0.1290 
 23 C        3.2530     6.9870    -2.0170 C.3   1 <1>  -0.0970 
 24 H       -1.0570     0.6840    -1.8560 H     1 <1>   0.1500 
 25 H       -3.0660     3.4760     1.6770 H     1 <1>   0.1500 
 26 H        0.5160     2.5800     2.1680 H     1 <1>   0.0800 
 27 H       -0.9200     3.1250     2.9750 H     1 <1>   0.0800 
 28 H       -4.4730     2.5560    -0.0710 H     1 <1>   0.1500 
 29 H       -0.4410     5.2570     2.4020 H     1 <1>   0.4000 
 30 H        1.1640     3.3930    -0.0920 H     1 <1>   0.4570 
 31 H        2.6250     4.3280    -1.7820 H     1 <1>   0.1500 
 32 H       -0.1190     8.8000     0.3680 H     1 <1>   0.0800 
 33 H        0.9090    10.1860     0.0910 H     1 <1>   0.0800 
 34 H        0.8390     9.4470     1.6820 H     1 <1>   0.0800 
 35 H        4.0490     8.1860     0.5180 H     1 <1>   0.0800 
 36 H        3.3120     9.5020     1.3920 H     1 <1>   0.0800 
 37 H        3.5280     9.6250    -0.3430 H     1 <1>   0.0800 
 38 H        2.7660     7.8860    -2.3540 H     1 <1>   0.0800 
 39 H        3.4070     6.3540    -2.8720 H     1 <1>   0.0800 
 40 H        4.2140     7.2460    -1.6110 H     1 <1>   0.0800 
@<TRIPOS>BOND
  1   1   2  1   
  2   2   3  ar  
  3   2   4  ar  
  4   3   5  ar  
  5   3   6  1   
  6   4   7  ar  
  7   4  24  1   
  8   5   8  ar  
  9   5  25  1   
 10   6   9  1   
 11   6  26  1   
 12   6  27  1   
 13   7   8  ar  
 14   7  10  1   
 15   8  28  1   
 16   9  11  1   
 17   9  29  1   
 18  10  12  1   
 19  10  13  1   
 20  10  14  1   
 21  11  15  ar  
 22  11  16  ar  
 23  15  17  ar  
 24  16  18  ar  
 25  16  30  1   
 26  17  19  1   
 27  17  20  ar  
 28  18  20  ar  
 29  18  31  1   
 30  19  21  1   
 31  19  22  1   
 32  20  23  1   
 33  21  32  1   
 34  21  33  1   
 35  21  34  1   
 36  22  35  1   
 37  22  36  1   
 38  22  37  1   
 39  23  38  1   
 40  23  39  1   
 41  23  40  1   
@<TRIPOS>SUBSTRUCTURE
  1 ****  16 GROUP 4 **** **** 0

# MOE 2024.06 (io_trps.svl 2023.06)
