@<TRIPOS>MOLECULE
NONAME
54 56 1 0 0 
SMALL
USER_CHARGES


@<TRIPOS>ATOM
  1 O        5.0950    -1.4320     0.2160 O.2   1 <1>  -0.5700 
  2 C        3.9080    -1.4560    -0.0550 C.2   1 <1>   0.5440 
  3 N        3.5460    -0.9100    -1.2640 N.am  1 <1>  -0.6600 
  4 C        2.9280    -1.9710     0.8860 C.ar  1 <1>   0.0860 
  5 C        4.3350    -1.2010    -2.5070 C.3   1 <1>   0.1400 
  6 C        2.6930     0.3040    -1.3150 C.3   1 <1>   0.1400 
  7 C        1.6460    -2.3440     0.5140 C.ar  1 <1>  -0.1500 
  8 C        3.2090    -2.1320     2.2370 C.ar  1 <1>  -0.1500 
  9 C        5.6640    -0.4170    -2.5950 C.3   1 <1>   0.3430 
 10 C        3.5170     1.5470    -0.9500 C.3   1 <1>  -0.1600 
 11 C        0.7460    -2.8140     1.4520 C.ar  1 <1>   0.3920 
 12 C        2.2450    -2.6140     3.1000 C.ar  1 <1>   0.1600 
 13 N        5.7560     0.6630    -1.5630 N.4   1 <1>  -0.9590 
 14 C        4.7770     1.7650    -1.7940 C.3   1 <1>   0.3430 
 15 O       -0.4830    -3.1430     1.0030 O.3   1 <1>  -0.3630 
 16 N        1.0190    -2.9530     2.7430 N.ar  1 <1>  -0.6200 
 17 C        7.1540     1.1030    -1.3330 C.3   1 <1>   0.3430 
 18 C       -1.4670    -3.6480     1.8840 C.3   1 <1>   0.0400 
 19 C        7.2650     1.7780     0.0340 C.3   1 <1>  -0.1600 
 20 C        8.7260     2.0950     0.3810 C.3   1 <1>   0.0960 
 21 N        8.7900     2.7710     1.6910 N.pl3 1 <1>   0.0480 
 22 C        8.8760     4.0960     1.9690 C.2   1 <1>   0.0060 
 23 C        8.7350     2.1720     2.8930 C.2   1 <1>  -0.3020 
 24 N        8.8740     4.3600     3.2340 N.2   1 <1>  -0.5650 
 25 C        8.9660     5.1830     0.9170 C.3   1 <1>  -0.0600 
 26 C        8.7890     3.1530     3.8190 C.2   1 <1>   0.0770 
 27 H        3.7340    -0.9840    -3.3730 H     1 <1>   0.0800 
 28 H        4.5570    -2.2550    -2.5400 H     1 <1>   0.0800 
 29 H        1.8750     0.2030    -0.6210 H     1 <1>   0.0800 
 30 H        2.2700     0.4100    -2.3010 H     1 <1>   0.0800 
 31 H        1.3290    -2.2800    -0.5100 H     1 <1>   0.1500 
 32 H        4.1840    -1.8820     2.6150 H     1 <1>   0.1500 
 33 H        5.7850    -0.0080    -3.5840 H     1 <1>   0.0800 
 34 H        6.4650    -1.1210    -2.4350 H     1 <1>   0.0800 
 35 H        3.7830     1.5110     0.0920 H     1 <1>   0.0800 
 36 H        2.8820     2.4070    -1.0740 H     1 <1>   0.0800 
 37 H        2.4930    -2.7280     4.1430 H     1 <1>   0.1500 
 38 H        5.4460     0.1580    -0.7020 H     1 <1>   0.4500 
 39 H        5.2180     2.7070    -1.5130 H     1 <1>   0.0800 
 40 H        4.5180     1.8190    -2.8390 H     1 <1>   0.0800 
 41 H        7.4680     1.7760    -2.1140 H     1 <1>   0.0800 
 42 H        7.8030     0.2410    -1.3450 H     1 <1>   0.0800 
 43 H       -2.3600    -3.8460     1.3190 H     1 <1>   0.0800 
 44 H       -1.6650    -2.9120     2.6440 H     1 <1>   0.0800 
 45 H       -1.1020    -4.5570     2.3300 H     1 <1>   0.0800 
 46 H        6.8710     1.1170     0.7870 H     1 <1>   0.0800 
 47 H        6.7040     2.6950     0.0400 H     1 <1>   0.0800 
 48 H        9.1660     2.7350    -0.3630 H     1 <1>   0.0800 
 49 H        9.3060     1.1910     0.4400 H     1 <1>   0.0800 
 50 H        8.6640     1.1090     3.0320 H     1 <1>   0.1500 
 51 H        8.1050     5.1550     0.2760 H     1 <1>   0.0800 
 52 H        9.8590     5.0590     0.3330 H     1 <1>   0.0800 
 53 H        9.0040     6.1460     1.3960 H     1 <1>   0.0800 
 54 H        8.7710     3.0540     4.8920 H     1 <1>   0.1500 
@<TRIPOS>BOND
  1   1   2  2   
  2   2   3  am  
  3   2   4  1   
  4   3   5  1   
  5   3   6  1   
  6   4   7  ar  
  7   4   8  ar  
  8   5   9  1   
  9   5  27  1   
 10   5  28  1   
 11   6  10  1   
 12   6  29  1   
 13   6  30  1   
 14   7  11  ar  
 15   7  31  1   
 16   8  12  ar  
 17   8  32  1   
 18   9  13  1   
 19   9  33  1   
 20   9  34  1   
 21  10  14  1   
 22  10  35  1   
 23  10  36  1   
 24  11  15  1   
 25  11  16  ar  
 26  12  16  ar  
 27  12  37  1   
 28  13  14  1   
 29  13  17  1   
 30  13  38  1   
 31  14  39  1   
 32  14  40  1   
 33  15  18  1   
 34  17  19  1   
 35  17  41  1   
 36  17  42  1   
 37  18  43  1   
 38  18  44  1   
 39  18  45  1   
 40  19  20  1   
 41  19  46  1   
 42  19  47  1   
 43  20  21  1   
 44  20  48  1   
 45  20  49  1   
 46  21  22  1   
 47  21  23  1   
 48  22  24  2   
 49  22  25  1   
 50  23  26  2   
 51  23  50  1   
 52  24  26  1   
 53  25  51  1   
 54  25  52  1   
 55  25  53  1   
 56  26  54  1   
@<TRIPOS>SUBSTRUCTURE
  1 ****   1 GROUP 4 **** **** 0

# MOE 2024.06 (io_trps.svl 2023.06)
