@<TRIPOS>MOLECULE
NONAME
55 57 1 0 0 
SMALL
USER_CHARGES


@<TRIPOS>ATOM
  1 O       -0.1610     0.1590    -3.0200 O.2   1 <1>  -0.5700 
  2 C       -0.8750     1.0130    -2.5460 C.2   1 <1>   0.5690 
  3 N       -2.0560     0.6890    -1.9080 N.am  1 <1>  -0.6600 
  4 C       -0.4030     2.4570    -2.7240 C.3   1 <1>   0.0440 
  5 C       -2.8820     1.6890    -1.1640 C.3   1 <1>   0.2200 
  6 C       -2.5300    -0.7310    -1.8960 C.3   1 <1>   0.0600 
  7 C       -0.1030     3.1820    -1.4150 C.ar  1 <1>  -0.1440 
  8 C       -2.7670     1.5490     0.3520 C.3   1 <1>  -0.1600 
  9 C       -4.3810     1.6340    -1.4360 C.3   1 <1>  -0.1600 
 10 C       -0.6780     4.4140    -1.1500 C.ar  1 <1>  -0.1500 
 11 C        0.7250     2.6040    -0.4690 C.ar  1 <1>  -0.1500 
 12 C       -4.0080     2.2650     0.9100 C.3   1 <1>  -0.0800 
 13 C       -4.9770     2.4350    -0.2730 C.3   1 <1>  -0.0800 
 14 C       -0.4650     5.0690     0.0510 C.ar  1 <1>   0.0820 
 15 C        0.9710     3.2420     0.7440 C.ar  1 <1>   0.0820 
 16 C       -3.7110     3.6740     1.4530 C.3   1 <1>  -0.1600 
 17 C       -5.0450     3.9440    -0.5490 C.3   1 <1>  -0.1600 
 18 O       -1.1600     6.2390     0.1750 O.3   1 <1>  -0.3630 
 19 C        0.3910     4.4900     1.0020 C.ar  1 <1>   0.0820 
 20 O        1.7580     2.6770     1.7060 O.3   1 <1>  -0.3630 
 21 C       -4.7300     4.5910     0.7900 C.3   1 <1>   0.2000 
 22 C       -1.3160     6.9130     1.4060 C.3   1 <1>   0.0400 
 23 O        0.6630     5.1130     2.1820 O.3   1 <1>  -0.3630 
 24 C        2.1530     1.3240     1.6340 C.3   1 <1>   0.0400 
 25 O       -4.1870     5.8430     0.5980 O.3   1 <1>  -0.6800 
 26 C        1.9420     5.6980     2.2870 C.3   1 <1>   0.0400 
 27 H        0.4910     2.4520    -3.3200 H     1 <1>   0.0800 
 28 H       -1.1520     2.9840    -3.2840 H     1 <1>   0.0800 
 29 H       -2.5770     2.6820    -1.4240 H     1 <1>   0.0800 
 30 H       -2.9040    -1.0000    -0.9250 H     1 <1>   0.0800 
 31 H       -1.7300    -1.4060    -2.1430 H     1 <1>   0.0800 
 32 H       -3.3140    -0.8530    -2.6220 H     1 <1>   0.0800 
 33 H       -2.8130     0.5150     0.6370 H     1 <1>   0.0800 
 34 H       -1.8460     1.9650     0.7180 H     1 <1>   0.0800 
 35 H       -4.6330     2.0530    -2.3940 H     1 <1>   0.0800 
 36 H       -4.7460     0.6250    -1.3740 H     1 <1>   0.0800 
 37 H       -1.3190     4.8820    -1.8760 H     1 <1>   0.1500 
 38 H        1.1660     1.6500    -0.6920 H     1 <1>   0.1500 
 39 H       -4.4660     1.6670     1.6800 H     1 <1>   0.0800 
 40 H       -5.9570     2.0710    -0.0120 H     1 <1>   0.0800 
 41 H       -2.7160     3.9760     1.1870 H     1 <1>   0.0800 
 42 H       -3.8120     3.7040     2.5230 H     1 <1>   0.0800 
 43 H       -6.0180     4.2360    -0.9020 H     1 <1>   0.0800 
 44 H       -4.3000     4.2310    -1.2700 H     1 <1>   0.0800 
 45 H       -5.6200     4.6820     1.3900 H     1 <1>   0.0800 
 46 H       -2.0500     7.6870     1.2750 H     1 <1>   0.0800 
 47 H       -0.3750     7.3490     1.6870 H     1 <1>   0.0800 
 48 H       -1.6530     6.2130     2.1510 H     1 <1>   0.0800 
 49 H        2.6610     1.0760     2.5480 H     1 <1>   0.0800 
 50 H        2.8200     1.1980     0.8000 H     1 <1>   0.0800 
 51 H        1.2770     0.7090     1.5250 H     1 <1>   0.0800 
 52 H       -3.2800     5.7650     0.2310 H     1 <1>   0.4000 
 53 H        1.9950     6.2250     3.2220 H     1 <1>   0.0800 
 54 H        2.0800     6.3800     1.4670 H     1 <1>   0.0800 
 55 H        2.6890     4.9250     2.2610 H     1 <1>   0.0800 
@<TRIPOS>BOND
  1   1   2  2   
  2   2   3  am  
  3   2   4  1   
  4   3   5  1   
  5   3   6  1   
  6   4   7  1   
  7   4  27  1   
  8   4  28  1   
  9   5   8  1   
 10   5   9  1   
 11   5  29  1   
 12   6  30  1   
 13   6  31  1   
 14   6  32  1   
 15   7  10  ar  
 16   7  11  ar  
 17   8  12  1   
 18   8  33  1   
 19   8  34  1   
 20   9  13  1   
 21   9  35  1   
 22   9  36  1   
 23  10  14  ar  
 24  10  37  1   
 25  11  15  ar  
 26  11  38  1   
 27  12  13  1   
 28  12  16  1   
 29  12  39  1   
 30  13  17  1   
 31  13  40  1   
 32  14  18  1   
 33  14  19  ar  
 34  15  19  ar  
 35  15  20  1   
 36  16  21  1   
 37  16  41  1   
 38  16  42  1   
 39  17  21  1   
 40  17  43  1   
 41  17  44  1   
 42  18  22  1   
 43  19  23  1   
 44  20  24  1   
 45  21  25  1   
 46  21  45  1   
 47  22  46  1   
 48  22  47  1   
 49  22  48  1   
 50  23  26  1   
 51  24  49  1   
 52  24  50  1   
 53  24  51  1   
 54  25  52  1   
 55  26  53  1   
 56  26  54  1   
 57  26  55  1   
@<TRIPOS>SUBSTRUCTURE
  1 ****  10 GROUP 4 **** **** 0

# MOE 2024.06 (io_trps.svl 2023.06)
