@<TRIPOS>MOLECULE
NONAME
42 44 1 0 0 
SMALL
USER_CHARGES


@<TRIPOS>ATOM
  1 CL       0.0590     0.9550    -0.8960 Cl    1 <1>  -0.1770 
  2 C        1.6270     1.3390    -0.2120 C.ar  1 <1>   0.1770 
  3 C        2.6470     0.3960    -0.0200 C.ar  1 <1>   0.0830 
  4 C        1.8200     2.6660     0.1180 C.ar  1 <1>  -0.1500 
  5 O        2.6060    -0.9340    -0.2890 O.3   1 <1>  -0.3630 
  6 C        3.8500     0.8420     0.5070 C.ar  1 <1>  -0.1500 
  7 C        3.0310     3.1150     0.6370 C.ar  1 <1>   0.0860 
  8 C        1.4200    -1.6690    -0.4690 C.3   1 <1>   0.1200 
  9 C        4.0370     2.1720     0.8330 C.ar  1 <1>  -0.1500 
 10 C        3.2340     4.5130     0.9500 C.2   1 <1>   0.5440 
 11 C        1.7700    -3.1520    -0.3930 C.3   1 <1>  -0.2400 
 12 O        2.5990     5.0060     1.8640 O.2   1 <1>  -0.5700 
 13 N        4.1060     5.3070     0.2280 N.am  1 <1>  -0.6600 
 14 C        4.5420     6.6350     0.7850 C.3   1 <1>   0.1400 
 15 C        4.6160     4.9040    -1.1270 C.3   1 <1>   0.1400 
 16 C        6.0700     6.8530     0.8880 C.3   1 <1>   0.2200 
 17 C        6.1480     4.9050    -1.3030 C.3   1 <1>  -0.0190 
 18 N        6.6440     7.1620    -0.4400 N.am  1 <1>  -0.7300 
 19 C        6.8530     5.7070     1.5800 C.3   1 <1>   0.1200 
 20 C        6.6630     6.3120    -1.4790 C.2   1 <1>   0.5690 
 21 C        6.9840     4.1500    -0.2510 C.3   1 <1>   0.1200 
 22 O        6.6150     4.4220     1.0680 O.3   1 <1>  -0.5600 
 23 O        7.0870     6.6670    -2.5480 O.2   1 <1>  -0.5700 
 24 H        1.0220     3.3720    -0.0300 H     1 <1>   0.1500 
 25 H        4.6420     0.1310     0.6660 H     1 <1>   0.1500 
 26 H        0.7280    -1.4030     0.3110 H     1 <1>   0.0800 
 27 H        1.0130    -1.4290    -1.4360 H     1 <1>   0.0800 
 28 H        4.9750     2.4940     1.2520 H     1 <1>   0.1500 
 29 H        2.1940    -3.3820     0.5690 H     1 <1>   0.0800 
 30 H        2.4730    -3.4060    -1.1660 H     1 <1>   0.0800 
 31 H        0.8830    -3.7420    -0.5280 H     1 <1>   0.0800 
 32 H        4.1120     7.4200     0.1890 H     1 <1>   0.0800 
 33 H        4.1460     6.7490     1.7790 H     1 <1>   0.0800 
 34 H        4.2610     3.9200    -1.3710 H     1 <1>   0.0800 
 35 H        4.1890     5.5720    -1.8550 H     1 <1>   0.0800 
 36 H        6.2150     7.7320     1.4910 H     1 <1>   0.0800 
 37 H        6.3410     4.4150    -2.2400 H     1 <1>   0.0800 
 38 H        6.9870     8.1090    -0.6110 H     1 <1>   0.3700 
 39 H        6.5620     5.6730     2.6150 H     1 <1>   0.0800 
 40 H        7.9110     5.8990     1.5390 H     1 <1>   0.0800 
 41 H        8.0320     4.3700    -0.3650 H     1 <1>   0.0800 
 42 H        6.8490     3.0920    -0.3920 H     1 <1>   0.0800 
@<TRIPOS>BOND
  1   1   2  1   
  2   2   3  ar  
  3   2   4  ar  
  4   3   5  1   
  5   3   6  ar  
  6   4   7  ar  
  7   4  24  1   
  8   5   8  1   
  9   6   9  ar  
 10   6  25  1   
 11   7   9  ar  
 12   7  10  1   
 13   8  11  1   
 14   8  26  1   
 15   8  27  1   
 16   9  28  1   
 17  10  12  2   
 18  10  13  am  
 19  11  29  1   
 20  11  30  1   
 21  11  31  1   
 22  13  14  1   
 23  13  15  1   
 24  14  16  1   
 25  14  32  1   
 26  14  33  1   
 27  15  17  1   
 28  15  34  1   
 29  15  35  1   
 30  16  18  1   
 31  16  19  1   
 32  16  36  1   
 33  17  20  1   
 34  17  21  1   
 35  17  37  1   
 36  18  20  am  
 37  18  38  1   
 38  19  22  1   
 39  19  39  1   
 40  19  40  1   
 41  20  23  2   
 42  21  22  1   
 43  21  41  1   
 44  21  42  1   
@<TRIPOS>SUBSTRUCTURE
  1 ****   7 GROUP 4 **** **** 0

# MOE 2024.06 (io_trps.svl 2023.06)
