@<TRIPOS>MOLECULE
NONAME
55 57 1 0 0 
SMALL
USER_CHARGES


@<TRIPOS>ATOM
  1 F       -1.1830    -0.3600    -1.0020 F     1 <1>  -0.1900 
  2 C       -2.3270    -0.9560    -0.8030 C.ar  1 <1>   0.1900 
  3 C       -2.5790    -1.5180     0.4330 C.ar  1 <1>  -0.1500 
  4 C       -3.2430    -1.0020    -1.8340 C.ar  1 <1>  -0.1500 
  5 C       -3.7950    -2.1480     0.6410 C.ar  1 <1>  -0.1500 
  6 C       -4.4570    -1.6330    -1.6170 C.ar  1 <1>  -0.1500 
  7 C       -4.7410    -2.2070    -0.3810 C.ar  1 <1>  -0.1430 
  8 C       -6.0930    -2.8870    -0.1650 C.3   1 <1>   0.6280 
  9 N       -6.9370    -2.0420     0.7630 N.4   1 <1>  -0.9590 
 10 C       -5.8910    -4.3410     0.3500 C.2   1 <1>   0.5690 
 11 C       -8.3200    -2.5920     0.8330 C.3   1 <1>   0.3430 
 12 C       -6.9190    -0.5860     0.4380 C.3   1 <1>   0.3430 
 13 O       -5.9330    -4.5130     1.5530 O.2   1 <1>  -0.5700 
 14 N       -5.7030    -5.3960    -0.5090 N.am  1 <1>  -0.6600 
 15 C       -9.1170    -1.8510     1.9080 C.3   1 <1>  -0.1600 
 16 C       -7.6960     0.1900     1.5030 C.3   1 <1>  -0.1600 
 17 C       -5.3830    -6.7510     0.0170 C.3   1 <1>   0.3200 
 18 C       -5.9670    -5.3300    -1.9810 C.3   1 <1>   0.1400 
 19 C       -9.1280    -0.3370     1.6640 C.3   1 <1>  -0.1600 
 20 C       -6.6820    -7.4740     0.2780 C.2   1 <1>  -0.3320 
 21 C       -7.4680    -5.4290    -2.3100 C.3   1 <1>   0.1200 
 22 N       -7.5000    -7.1430     1.2930 N.pl3 1 <1>   0.0330 
 23 C       -7.2720    -8.5030    -0.3660 C.2   1 <1>   0.0770 
 24 O       -8.1810    -4.3620    -1.7600 O.3   1 <1>  -0.6800 
 25 C       -8.5490    -7.9870     1.1920 C.2   1 <1>   0.0060 
 26 N       -8.4510    -8.8130     0.2030 N.2   1 <1>  -0.5650 
 27 C       -9.7160    -7.9650     2.1540 C.3   1 <1>  -0.0600 
 28 H       -1.8350    -1.4630     1.2090 H     1 <1>   0.1500 
 29 H       -3.0030    -0.5530    -2.7820 H     1 <1>   0.1500 
 30 H       -3.9860    -2.5910     1.6050 H     1 <1>   0.1500 
 31 H       -5.1710    -1.6690    -2.4240 H     1 <1>   0.1500 
 32 H       -6.5850    -2.9370    -1.1170 H     1 <1>   0.0800 
 33 H       -6.5150    -2.1790     1.6900 H     1 <1>   0.4500 
 34 H       -8.2920    -3.6440     1.0690 H     1 <1>   0.0800 
 35 H       -8.8070    -2.4740    -0.1230 H     1 <1>   0.0800 
 36 H       -7.3710    -0.4220    -0.5280 H     1 <1>   0.0800 
 37 H       -5.9050    -0.2190     0.4050 H     1 <1>   0.0800 
 38 H       -8.6940    -2.0660     2.8740 H     1 <1>   0.0800 
 39 H      -10.1280    -2.2190     1.9110 H     1 <1>   0.0800 
 40 H       -7.7280     1.2300     1.2270 H     1 <1>   0.0800 
 41 H       -7.1730     0.1250     2.4420 H     1 <1>   0.0800 
 42 H       -4.8140    -6.6750     0.9290 H     1 <1>   0.0800 
 43 H       -4.7890    -7.2960    -0.6970 H     1 <1>   0.0800 
 44 H       -5.4580    -6.1440    -2.4690 H     1 <1>   0.0800 
 45 H       -5.5660    -4.4220    -2.3940 H     1 <1>   0.0800 
 46 H       -9.6110     0.1630     2.4880 H     1 <1>   0.0800 
 47 H       -9.6930    -0.1200     0.7730 H     1 <1>   0.0800 
 48 H       -7.8800    -6.3470    -1.9260 H     1 <1>   0.0800 
 49 H       -7.6110    -5.4100    -3.3770 H     1 <1>   0.0800 
 50 H       -7.3400    -6.4080     1.9900 H     1 <1>   0.2700 
 51 H       -6.9150    -9.0470    -1.2250 H     1 <1>   0.1500 
 52 H       -9.1330    -4.4900    -1.9660 H     1 <1>   0.4000 
 53 H      -10.2080    -7.0110     2.1210 H     1 <1>   0.0800 
 54 H       -9.3740    -8.1580     3.1540 H     1 <1>   0.0800 
 55 H      -10.4240    -8.7280     1.8820 H     1 <1>   0.0800 
@<TRIPOS>BOND
  1   1   2  1   
  2   2   3  ar  
  3   2   4  ar  
  4   3   5  ar  
  5   3  28  1   
  6   4   6  ar  
  7   4  29  1   
  8   5   7  ar  
  9   5  30  1   
 10   6   7  ar  
 11   6  31  1   
 12   7   8  1   
 13   8   9  1   
 14   8  10  1   
 15   8  32  1   
 16   9  11  1   
 17   9  12  1   
 18   9  33  1   
 19  10  13  2   
 20  10  14  am  
 21  11  15  1   
 22  11  34  1   
 23  11  35  1   
 24  12  16  1   
 25  12  36  1   
 26  12  37  1   
 27  14  17  1   
 28  14  18  1   
 29  15  19  1   
 30  15  38  1   
 31  15  39  1   
 32  16  19  1   
 33  16  40  1   
 34  16  41  1   
 35  17  20  1   
 36  17  42  1   
 37  17  43  1   
 38  18  21  1   
 39  18  44  1   
 40  18  45  1   
 41  19  46  1   
 42  19  47  1   
 43  20  22  1   
 44  20  23  2   
 45  21  24  1   
 46  21  48  1   
 47  21  49  1   
 48  22  25  1   
 49  22  50  1   
 50  23  26  1   
 51  23  51  1   
 52  24  52  1   
 53  25  26  2   
 54  25  27  1   
 55  27  53  1   
 56  27  54  1   
 57  27  55  1   
@<TRIPOS>SUBSTRUCTURE
  1 ****  10 GROUP 4 **** **** 0

# MOE 2024.06 (io_trps.svl 2023.06)
