@<TRIPOS>MOLECULE
NONAME
61 65 1 0 0 
SMALL
USER_CHARGES


@<TRIPOS>ATOM
  1 S        0.0370     0.4240    -1.2390 S.3   1 <1>  -0.0800 
  2 C        0.9570    -0.7000    -0.2490 C.2   1 <1>  -0.1400 
  3 C        0.5120     1.7870    -0.2380 C.2   1 <1>  -0.1400 
  4 C        1.5640    -0.0420     0.7570 C.2   1 <1>  -0.1500 
  5 C        0.9620    -2.1630    -0.6530 C.3   1 <1>   0.5230 
  6 C        1.3070     1.3660     0.7680 C.2   1 <1>  -0.1500 
  7 C       -0.0360     3.1390    -0.6660 C.3   1 <1>   0.5230 
  8 N       -0.1480    -2.8710     0.0390 N.4   1 <1>  -0.9590 
  9 N        0.7070     4.2380     0.0050 N.4   1 <1>  -0.9590 
 10 C       -1.5030    -2.4350    -0.4560 C.3   1 <1>   0.3430 
 11 C       -0.0030    -4.3630    -0.0850 C.3   1 <1>   0.3430 
 12 C       -0.0110     5.5380    -0.1340 C.3   1 <1>   0.3430 
 13 C        2.1120     4.3330    -0.4970 C.3   1 <1>   0.3430 
 14 C       -2.6520    -3.2080     0.2210 C.3   1 <1>   0.1900 
 15 C       -1.1720    -5.1170     0.5810 C.3   1 <1>   0.1100 
 16 C        0.7080     6.6110     0.6860 C.3   1 <1>  -0.1600 
 17 C        2.8770     5.3780     0.3160 C.3   1 <1>  -0.1600 
 18 N       -2.4760    -4.6720     0.0430 N.3   1 <1>  -0.8100 
 19 C       -4.0020    -2.7470    -0.3540 C.3   1 <1>   0.1200 
 20 C        2.1810     6.7450     0.2800 C.3   1 <1>  -0.1600 
 21 C       -3.6400    -5.4080     0.6180 C.3   1 <1>   0.2850 
 22 O       -5.0330    -3.4330     0.2790 O.3   1 <1>  -0.5600 
 23 C       -3.5070    -6.9190     0.3210 C.3   1 <1>  -0.1950 
 24 C       -4.9720    -4.8190     0.0880 C.3   1 <1>   0.1200 
 25 C       -3.5850    -7.4720    -1.0700 C.3   1 <1>  -0.2000 
 26 C       -4.6510    -7.8110    -0.0690 C.3   1 <1>  -0.2000 
 27 H        2.2000    -0.4800     1.5100 H     1 <1>   0.1500 
 28 H        1.9030    -2.5980    -0.3600 H     1 <1>   0.0800 
 29 H        0.8650    -2.2540    -1.7230 H     1 <1>   0.0800 
 30 H        1.7460     1.9770     1.5400 H     1 <1>   0.1500 
 31 H       -1.0820     3.1880    -0.4090 H     1 <1>   0.0800 
 32 H        0.0530     3.2410    -1.7350 H     1 <1>   0.0800 
 33 H       -0.0930    -2.6280     1.0350 H     1 <1>   0.4500 
 34 H        0.7510     4.0170     1.0060 H     1 <1>   0.4500 
 35 H       -1.6400    -1.3840    -0.2670 H     1 <1>   0.0800 
 36 H       -1.5710    -2.5950    -1.5200 H     1 <1>   0.0800 
 37 H        0.0200    -4.6410    -1.1260 H     1 <1>   0.0800 
 38 H        0.9230    -4.6830     0.3650 H     1 <1>   0.0800 
 39 H       -0.0350     5.8360    -1.1700 H     1 <1>   0.0800 
 40 H       -1.0270     5.4430     0.2170 H     1 <1>   0.0800 
 41 H        2.6080     3.3790    -0.4090 H     1 <1>   0.0800 
 42 H        2.1110     4.6180    -1.5370 H     1 <1>   0.0800 
 43 H       -2.6510    -2.9710     1.2720 H     1 <1>   0.0800 
 44 H       -1.1430    -4.9770     1.6490 H     1 <1>   0.0800 
 45 H       -1.0350    -6.1650     0.3800 H     1 <1>   0.0800 
 46 H        0.2130     7.5560     0.5400 H     1 <1>   0.0800 
 47 H        0.6350     6.3710     1.7330 H     1 <1>   0.0800 
 48 H        2.9740     5.0410     1.3330 H     1 <1>   0.0800 
 49 H        3.8720     5.4760    -0.0850 H     1 <1>   0.0800 
 50 H       -4.0620    -2.9340    -1.4130 H     1 <1>   0.0800 
 51 H       -4.1570    -1.6980    -0.1740 H     1 <1>   0.0800 
 52 H        2.6840     7.4290     0.9450 H     1 <1>   0.0800 
 53 H        2.2440     7.1540    -0.7150 H     1 <1>   0.0800 
 54 H       -3.6490    -5.2810     1.6880 H     1 <1>   0.0800 
 55 H       -2.8130    -7.3810     1.0010 H     1 <1>   0.1000 
 56 H       -5.8010    -5.2530     0.6160 H     1 <1>   0.0800 
 57 H       -5.0880    -5.0230    -0.9620 H     1 <1>   0.0800 
 58 H       -3.8280    -6.8110    -1.8830 H     1 <1>   0.1000 
 59 H       -2.8880    -8.2380    -1.3620 H     1 <1>   0.1000 
 60 H       -4.6780    -8.8140     0.3240 H     1 <1>   0.1000 
 61 H       -5.6390    -7.4270    -0.2490 H     1 <1>   0.1000 
@<TRIPOS>BOND
  1   1   2  1   
  2   1   3  1   
  3   2   4  2   
  4   2   5  1   
  5   3   6  2   
  6   3   7  1   
  7   4   6  1   
  8   4  27  1   
  9   5   8  1   
 10   5  28  1   
 11   5  29  1   
 12   6  30  1   
 13   7   9  1   
 14   7  31  1   
 15   7  32  1   
 16   8  10  1   
 17   8  11  1   
 18   8  33  1   
 19   9  12  1   
 20   9  13  1   
 21   9  34  1   
 22  10  14  1   
 23  10  35  1   
 24  10  36  1   
 25  11  15  1   
 26  11  37  1   
 27  11  38  1   
 28  12  16  1   
 29  12  39  1   
 30  12  40  1   
 31  13  17  1   
 32  13  41  1   
 33  13  42  1   
 34  14  18  1   
 35  14  19  1   
 36  14  43  1   
 37  15  18  1   
 38  15  44  1   
 39  15  45  1   
 40  16  20  1   
 41  16  46  1   
 42  16  47  1   
 43  17  20  1   
 44  17  48  1   
 45  17  49  1   
 46  18  21  1   
 47  19  22  1   
 48  19  50  1   
 49  19  51  1   
 50  20  52  1   
 51  20  53  1   
 52  21  23  1   
 53  21  24  1   
 54  21  54  1   
 55  22  24  1   
 56  23  25  1   
 57  23  26  1   
 58  23  55  1   
 59  24  56  1   
 60  24  57  1   
 61  25  26  1   
 62  25  58  1   
 63  25  59  1   
 64  26  60  1   
 65  26  61  1   
@<TRIPOS>SUBSTRUCTURE
  1 ****  10 GROUP 4 **** **** 0

# MOE 2024.06 (io_trps.svl 2023.06)
