@<TRIPOS>MOLECULE
NONAME
55 59 1 0 0 
SMALL
USER_CHARGES


@<TRIPOS>ATOM
  1 N       -1.7290     1.6090     0.3310 N.ar  1 <1>  -0.6200 
  2 C       -2.0940     1.0830     1.4980 C.ar  1 <1>   0.1660 
  3 C       -0.4300     1.6120     0.0790 C.ar  1 <1>   0.1660 
  4 C       -1.2090     0.5490     2.4220 C.ar  1 <1>  -0.1500 
  5 C       -3.5930     1.0780     1.7900 C.3   1 <1>   0.4870 
  6 C        0.5270     1.1020     0.9410 C.ar  1 <1>  -0.1500 
  7 C       -0.0080     2.2210    -1.2430 C.3   1 <1>  -0.0970 
  8 C        0.1400     0.5530     2.1440 C.ar  1 <1>  -0.1500 
  9 N       -4.3230     0.8470     0.5090 N.4   1 <1>  -0.9590 
 10 C       -5.6930     1.4500     0.4970 C.3   1 <1>   0.3430 
 11 C       -4.3120    -0.5850     0.1070 C.3   1 <1>   0.3430 
 12 C       -6.3440     1.3510    -0.8940 C.3   1 <1>   0.1430 
 13 C       -4.9130    -0.7310    -1.2940 C.3   1 <1>  -0.1600 
 14 C       -7.7680     1.8450    -0.7930 C.ar  1 <1>   0.1670 
 15 C       -6.3190    -0.1100    -1.3950 C.3   1 <1>  -0.1600 
 16 C       -5.7220     2.3320    -1.9250 C.3   1 <1>  -0.1600 
 17 N       -8.6130     1.4830     0.1380 N.ar  1 <1>  -0.6200 
 18 C       -8.0700     2.7290    -1.7800 C.ar  1 <1>  -0.1430 
 19 C       -6.8960     2.9630    -2.6990 C.3   1 <1>  -0.0170 
 20 C       -9.8330     2.0390     0.0570 C.ar  1 <1>   0.6200 
 21 C       -9.3350     3.2560    -1.7930 C.ar  1 <1>   0.1600 
 22 N      -10.2170     2.9180    -0.8790 N.ar  1 <1>  -0.6200 
 23 C      -10.8090     1.6620     1.0690 C.ar  1 <1>   0.0000 
 24 C      -10.8270     0.3810     1.6270 C.ar  1 <1>  -0.1500 
 25 C      -11.7710     2.5650     1.5280 C.ar  1 <1>  -0.1500 
 26 C      -11.7500     0.0220     2.5930 C.ar  1 <1>  -0.1500 
 27 C      -12.6970     2.2130     2.4930 C.ar  1 <1>  -0.1500 
 28 C      -12.6880     0.9390     3.0290 C.ar  1 <1>  -0.1500 
 29 H       -1.5550     0.1330     3.3520 H     1 <1>   0.1500 
 30 H       -3.8580     2.0410     2.1910 H     1 <1>   0.0800 
 31 H       -3.8390     0.3190     2.5140 H     1 <1>   0.0800 
 32 H        1.5700     1.1320     0.6790 H     1 <1>   0.1500 
 33 H       -0.3320     3.2450    -1.2880 H     1 <1>   0.0800 
 34 H       -0.4580     1.6770    -2.0530 H     1 <1>   0.0800 
 35 H        1.0590     2.1930    -1.3600 H     1 <1>   0.0800 
 36 H        0.8630     0.1500     2.8340 H     1 <1>   0.1500 
 37 H       -3.7150     1.3450    -0.1700 H     1 <1>   0.4500 
 38 H       -5.6500     2.4860     0.7890 H     1 <1>   0.0800 
 39 H       -6.3220     0.9320     1.2040 H     1 <1>   0.0800 
 40 H       -4.8900    -1.1660     0.8070 H     1 <1>   0.0800 
 41 H       -3.3000    -0.9600     0.1040 H     1 <1>   0.0800 
 42 H       -4.9720    -1.7780    -1.5380 H     1 <1>   0.0800 
 43 H       -4.2490    -0.2790    -2.0100 H     1 <1>   0.0800 
 44 H       -6.6730    -0.1590    -2.4110 H     1 <1>   0.0800 
 45 H       -6.9980    -0.6940    -0.7950 H     1 <1>   0.0800 
 46 H       -5.0290     1.8570    -2.5970 H     1 <1>   0.0800 
 47 H       -5.2030     3.1210    -1.4080 H     1 <1>   0.0800 
 48 H       -7.0610     2.4510    -3.6320 H     1 <1>   0.0800 
 49 H       -6.7360     4.0120    -2.8820 H     1 <1>   0.0800 
 50 H       -9.6300     3.9590    -2.5530 H     1 <1>   0.1500 
 51 H      -10.1090    -0.3480     1.2960 H     1 <1>   0.1500 
 52 H      -11.7950     3.5610     1.1200 H     1 <1>   0.1500 
 53 H      -11.7420    -0.9720     3.0050 H     1 <1>   0.1500 
 54 H      -13.4260     2.9310     2.8260 H     1 <1>   0.1500 
 55 H      -13.4080     0.6630     3.7800 H     1 <1>   0.1500 
@<TRIPOS>BOND
  1   1   2  ar  
  2   1   3  ar  
  3   2   4  ar  
  4   2   5  1   
  5   3   6  ar  
  6   3   7  1   
  7   4   8  ar  
  8   4  29  1   
  9   5   9  1   
 10   5  30  1   
 11   5  31  1   
 12   6   8  ar  
 13   6  32  1   
 14   7  33  1   
 15   7  34  1   
 16   7  35  1   
 17   8  36  1   
 18   9  10  1   
 19   9  11  1   
 20   9  37  1   
 21  10  12  1   
 22  10  38  1   
 23  10  39  1   
 24  11  13  1   
 25  11  40  1   
 26  11  41  1   
 27  12  14  1   
 28  12  15  1   
 29  12  16  1   
 30  13  15  1   
 31  13  42  1   
 32  13  43  1   
 33  14  17  ar  
 34  14  18  ar  
 35  15  44  1   
 36  15  45  1   
 37  16  19  1   
 38  16  46  1   
 39  16  47  1   
 40  17  20  ar  
 41  18  19  1   
 42  18  21  ar  
 43  19  48  1   
 44  19  49  1   
 45  20  22  ar  
 46  20  23  1   
 47  21  22  ar  
 48  21  50  1   
 49  23  24  ar  
 50  23  25  ar  
 51  24  26  ar  
 52  24  51  1   
 53  25  27  ar  
 54  25  52  1   
 55  26  28  ar  
 56  26  53  1   
 57  27  28  ar  
 58  27  54  1   
 59  28  55  1   
@<TRIPOS>SUBSTRUCTURE
  1 ****  10 GROUP 4 **** **** 0

# MOE 2024.06 (io_trps.svl 2023.06)
