@<TRIPOS>MOLECULE
NONAME
46 48 1 0 0 
SMALL
USER_CHARGES


@<TRIPOS>ATOM
  1 O       -0.9780    -1.8040     0.8860 O.2   1 <1>  -0.5700 
  2 C       -0.0270    -2.4570     0.5290 C.2   1 <1>   0.5690 
  3 N       -0.0190    -3.2190    -0.6070 N.am  1 <1>  -0.6600 
  4 C        1.2280    -2.4470     1.3760 C.3   1 <1>  -0.0990 
  5 C        1.1850    -4.0050    -0.9750 C.3   1 <1>   0.1400 
  6 C       -1.2030    -3.3430    -1.4990 C.3   1 <1>   0.0600 
  7 C        2.4710    -2.2720     0.4880 C.3   1 <1>  -0.0800 
  8 C        2.4590    -3.1590    -0.7790 C.3   1 <1>  -0.0800 
  9 C        3.7830    -2.5710     1.2250 C.3   1 <1>  -0.1600 
 10 C        3.7340    -4.0090    -0.7090 C.3   1 <1>  -0.1600 
 11 C        4.6840    -3.1930     0.1640 C.3   1 <1>   0.2200 
 12 N        5.8080    -3.9820     0.7530 N.am  1 <1>  -0.6600 
 13 C        7.1240    -3.6120     0.5470 C.2   1 <1>   0.5440 
 14 C        5.5050    -5.3050     1.3800 C.3   1 <1>   0.0600 
 15 O        7.9910    -4.4670     0.6300 O.2   1 <1>  -0.5700 
 16 C        7.4930    -2.2490     0.2380 C.ar  1 <1>   0.0860 
 17 C        8.1860    -1.9320    -0.9430 C.ar  1 <1>   0.1000 
 18 C        7.1580    -1.2130     1.1110 C.ar  1 <1>  -0.1500 
 19 N        8.5800    -2.9190    -1.8310 N.pl3 1 <1>  -0.9000 
 20 C        8.4900    -0.6060    -1.2330 C.ar  1 <1>  -0.1500 
 21 C        7.4740     0.0960     0.8100 C.ar  1 <1>   0.0820 
 22 C        8.1360     0.4070    -0.3650 C.ar  1 <1>  -0.1500 
 23 O        7.1430     1.0900     1.6540 O.3   1 <1>  -0.5330 
 24 H        1.1710    -1.6500     2.0950 H     1 <1>   0.0800 
 25 H        1.2700    -3.3800     1.9070 H     1 <1>   0.0800 
 26 H        1.2180    -4.8790    -0.3470 H     1 <1>   0.0800 
 27 H        1.1200    -4.3290    -2.0000 H     1 <1>   0.0800 
 28 H       -0.9550    -2.9910    -2.4840 H     1 <1>   0.0800 
 29 H       -2.0230    -2.7560    -1.1210 H     1 <1>   0.0800 
 30 H       -1.5120    -4.3710    -1.5530 H     1 <1>   0.0800 
 31 H        2.4930    -1.2460     0.1570 H     1 <1>   0.0800 
 32 H        2.5460    -2.5050    -1.6320 H     1 <1>   0.0800 
 33 H        3.6100    -3.2730     2.0190 H     1 <1>   0.0800 
 34 H        4.2140    -1.6730     1.6300 H     1 <1>   0.0800 
 35 H        4.1530    -4.1810    -1.6850 H     1 <1>   0.0800 
 36 H        3.5060    -4.9500    -0.2450 H     1 <1>   0.0800 
 37 H        5.0750    -2.3990    -0.4510 H     1 <1>   0.0800 
 38 H        4.5740    -5.2720     1.9150 H     1 <1>   0.0800 
 39 H        6.2850    -5.5730     2.0720 H     1 <1>   0.0800 
 40 H        5.4530    -6.0620     0.6160 H     1 <1>   0.0800 
 41 H        6.6500    -1.4550     2.0260 H     1 <1>   0.1500 
 42 H        8.6140    -3.8660    -1.4190 H     1 <1>   0.4000 
 43 H        9.4110    -2.7330    -2.3990 H     1 <1>   0.4000 
 44 H        9.0060    -0.3720    -2.1460 H     1 <1>   0.1500 
 45 H        8.3700     1.4330    -0.5860 H     1 <1>   0.1500 
 46 H        6.7230     0.7700     2.4720 H     1 <1>   0.4500 
@<TRIPOS>BOND
  1   1   2  2   
  2   2   3  am  
  3   2   4  1   
  4   3   5  1   
  5   3   6  1   
  6   4   7  1   
  7   4  24  1   
  8   4  25  1   
  9   5   8  1   
 10   5  26  1   
 11   5  27  1   
 12   6  28  1   
 13   6  29  1   
 14   6  30  1   
 15   7   8  1   
 16   7   9  1   
 17   7  31  1   
 18   8  10  1   
 19   8  32  1   
 20   9  11  1   
 21   9  33  1   
 22   9  34  1   
 23  10  11  1   
 24  10  35  1   
 25  10  36  1   
 26  11  12  1   
 27  11  37  1   
 28  12  13  am  
 29  12  14  1   
 30  13  15  2   
 31  13  16  1   
 32  14  38  1   
 33  14  39  1   
 34  14  40  1   
 35  16  17  ar  
 36  16  18  ar  
 37  17  19  1   
 38  17  20  ar  
 39  18  21  ar  
 40  18  41  1   
 41  19  42  1   
 42  19  43  1   
 43  20  22  ar  
 44  20  44  1   
 45  21  22  ar  
 46  21  23  1   
 47  22  45  1   
 48  23  46  1   
@<TRIPOS>SUBSTRUCTURE
  1 ****  11 GROUP 4 **** **** 0

# MOE 2024.06 (io_trps.svl 2023.06)
