@<TRIPOS>MOLECULE
NONAME
50 52 1 0 0 
SMALL
USER_CHARGES


@<TRIPOS>ATOM
  1 O        1.7760    -0.8500    -2.5870 O.2   1 <1>  -0.5700 
  2 C        2.1900    -0.8720    -1.4430 C.2   1 <1>   0.5440 
  3 N        2.8040     0.2580    -0.9480 N.am  1 <1>  -0.6600 
  4 C        2.1050    -2.0780    -0.6580 C.ar  1 <1>   0.0860 
  5 C        2.9090     0.5070     0.5290 C.3   1 <1>   0.2200 
  6 C        3.4790     1.1820    -1.9040 C.3   1 <1>   0.1400 
  7 C        3.2080    -2.9360    -0.5920 C.ar  1 <1>   0.0830 
  8 C        0.9470    -2.4160     0.0490 C.ar  1 <1>   0.0830 
  9 C        2.6150     1.9700     0.8950 C.3   1 <1>   0.1200 
 10 C        4.2770     0.0600     1.0940 C.3   1 <1>   0.3430 
 11 C        4.6420     1.9890    -1.3050 C.3   1 <1>  -0.0800 
 12 O        4.3380    -2.5570    -1.2380 O.3   1 <1>  -0.3630 
 13 C        3.1350    -4.1240     0.1270 C.ar  1 <1>  -0.1500 
 14 O       -0.0830    -1.5370     0.0280 O.3   1 <1>  -0.3620 
 15 C        0.8840    -3.6090     0.7630 C.ar  1 <1>  -0.1500 
 16 O        3.7780     2.7410     0.8400 O.3   1 <1>  -0.5600 
 17 N        5.3390    -0.0990     0.0530 N.4   1 <1>  -0.9590 
 18 C        4.1650     3.1580    -0.4280 C.3   1 <1>   0.1200 
 19 C        5.7630     1.1580    -0.6500 C.3   1 <1>   0.3430 
 20 C        5.3440    -3.4850    -1.5980 C.3   1 <1>   0.0400 
 21 C        1.9740    -4.4600     0.7970 C.ar  1 <1>  -0.1500 
 22 C       -1.4030    -1.9240     0.3440 C.3   1 <1>   0.0400 
 23 C        6.5650    -0.8040     0.6280 C.3   1 <1>   0.2370 
 24 C        7.6990    -1.1630    -0.3450 C.2   1 <1>   0.9060 
 25 O        8.2790    -0.2470    -0.9390 O.co2 1 <1>  -0.9000 
 26 O        7.9570    -2.3550    -0.5250 O.co2 1 <1>  -0.9000 
 27 H        2.1460    -0.0710     1.0200 H     1 <1>   0.0800 
 28 H        3.8580     0.5980    -2.7280 H     1 <1>   0.0800 
 29 H        2.7390     1.8520    -2.3090 H     1 <1>   0.0800 
 30 H        2.2700     2.0150     1.9130 H     1 <1>   0.0800 
 31 H        1.8540     2.3940     0.2620 H     1 <1>   0.0800 
 32 H        4.1340    -0.8870     1.5840 H     1 <1>   0.0800 
 33 H        4.6020     0.7650     1.8420 H     1 <1>   0.0800 
 34 H        5.1090     2.4690    -2.1460 H     1 <1>   0.0800 
 35 H        3.9730    -4.7960     0.1780 H     1 <1>   0.1500 
 36 H       -0.0010    -3.8890     1.3030 H     1 <1>   0.1500 
 37 H        4.9470    -0.7260    -0.6770 H     1 <1>   0.4500 
 38 H        3.3440     3.6850    -0.8870 H     1 <1>   0.0800 
 39 H        4.9720     3.8570    -0.2890 H     1 <1>   0.0800 
 40 H        6.3080     1.7840     0.0360 H     1 <1>   0.0800 
 41 H        6.4520     0.8830    -1.4330 H     1 <1>   0.0800 
 42 H        6.0600    -2.9830    -2.2250 H     1 <1>   0.0800 
 43 H        4.8960    -4.3000    -2.1390 H     1 <1>   0.0800 
 44 H        5.8400    -3.8380    -0.7110 H     1 <1>   0.0800 
 45 H        1.9200    -5.3830     1.3490 H     1 <1>   0.1500 
 46 H       -2.0580    -1.1090     0.0960 H     1 <1>   0.0800 
 47 H       -1.4660    -2.1350     1.3970 H     1 <1>   0.0800 
 48 H       -1.6630    -2.7900    -0.2400 H     1 <1>   0.0800 
 49 H        7.0010    -0.1880     1.3920 H     1 <1>   0.0800 
 50 H        6.2590    -1.7290     1.0820 H     1 <1>   0.0800 
@<TRIPOS>BOND
  1   1   2  2   
  2   2   3  am  
  3   2   4  1   
  4   3   5  1   
  5   3   6  1   
  6   4   7  ar  
  7   4   8  ar  
  8   5   9  1   
  9   5  10  1   
 10   5  27  1   
 11   6  11  1   
 12   6  28  1   
 13   6  29  1   
 14   7  12  1   
 15   7  13  ar  
 16   8  14  1   
 17   8  15  ar  
 18   9  16  1   
 19   9  30  1   
 20   9  31  1   
 21  10  17  1   
 22  10  32  1   
 23  10  33  1   
 24  11  18  1   
 25  11  19  1   
 26  11  34  1   
 27  12  20  1   
 28  13  21  ar  
 29  13  35  1   
 30  14  22  1   
 31  15  21  ar  
 32  15  36  1   
 33  16  18  1   
 34  17  19  1   
 35  17  23  1   
 36  17  37  1   
 37  18  38  1   
 38  18  39  1   
 39  19  40  1   
 40  19  41  1   
 41  20  42  1   
 42  20  43  1   
 43  20  44  1   
 44  21  45  1   
 45  22  46  1   
 46  22  47  1   
 47  22  48  1   
 48  23  24  1   
 49  23  49  1   
 50  23  50  1   
 51  24  25  ar  
 52  24  26  ar  
@<TRIPOS>SUBSTRUCTURE
  1 ****   3 GROUP 4 **** **** 0

# MOE 2024.06 (io_trps.svl 2023.06)
