@<TRIPOS>MOLECULE
NONAME
45 47 1 0 0 
SMALL
USER_CHARGES


@<TRIPOS>ATOM
  1 O       -2.1830     0.5680    -1.6460 O.2   1 <1>  -0.5700 
  2 C       -1.8100     0.6250    -0.4860 C.2   1 <1>   0.7160 
  3 N       -1.7850    -0.5470     0.2220 N.am  1 <1>  -0.7300 
  4 C       -1.4130     1.8710     0.1590 C.2   1 <1>   0.2030 
  5 C       -2.2770    -1.8450    -0.2890 C.3   1 <1>   0.2200 
  6 N       -1.8740     3.0810    -0.1020 N.2   1 <1>  -0.7070 
  7 C       -0.4650     1.9410     1.1900 C.2   1 <1>  -0.1500 
  8 C       -3.7630    -1.9630     0.0050 C.3   1 <1>  -0.0800 
  9 C       -1.7050    -2.9770     0.5540 C.3   1 <1>   0.1200 
 10 N       -1.2370     3.9120     0.7340 N.pl3 1 <1>   0.3140 
 11 C       -0.3800     3.2410     1.5280 C.2   1 <1>  -0.3020 
 12 C       -3.7790    -2.5140     1.4370 C.3   1 <1>   0.1200 
 13 C       -4.4630    -2.9040    -0.9930 C.3   1 <1>  -0.0160 
 14 O       -2.5080    -3.0410     1.6930 O.3   1 <1>  -0.5600 
 15 C       -1.4950     5.3790     0.7250 C.3   1 <1>   0.1760 
 16 C       -5.9590    -2.9760    -0.7270 C.ar  1 <1>  -0.1430 
 17 C       -0.2180     6.1550     0.3720 C.3   1 <1>  -0.2400 
 18 C       -2.0660     5.8400     2.0730 C.3   1 <1>  -0.2400 
 19 C       -6.5570    -4.0890    -0.1700 C.ar  1 <1>  -0.1500 
 20 C       -6.7970    -1.9220    -1.0310 C.ar  1 <1>  -0.1500 
 21 C       -7.9240    -4.0910     0.0540 C.ar  1 <1>   0.1600 
 22 C       -8.1520    -2.0250    -0.7670 C.ar  1 <1>   0.1600 
 23 N       -8.7360    -3.0840    -0.2290 N.ar  1 <1>  -0.6200 
 24 H       -1.6770    -0.5080     1.2370 H     1 <1>   0.3700 
 25 H       -2.0360    -1.9490    -1.3340 H     1 <1>   0.0800 
 26 H        0.0770     1.1100     1.6040 H     1 <1>   0.1500 
 27 H       -4.2440    -1.0020    -0.0400 H     1 <1>   0.0800 
 28 H       -0.6810    -2.8100     0.8390 H     1 <1>   0.0800 
 29 H       -1.7920    -3.9180     0.0390 H     1 <1>   0.0800 
 30 H        0.2300     3.7220     2.2700 H     1 <1>   0.1500 
 31 H       -4.5110    -3.2890     1.5800 H     1 <1>   0.0800 
 32 H       -3.9530    -1.7250     2.1470 H     1 <1>   0.0800 
 33 H       -4.0360    -3.8900    -0.9430 H     1 <1>   0.0800 
 34 H       -4.3130    -2.5350    -1.9940 H     1 <1>   0.0800 
 35 H       -2.2300     5.5650    -0.0400 H     1 <1>   0.0800 
 36 H        0.5380     6.0110     1.1230 H     1 <1>   0.0800 
 37 H       -0.4350     7.2060     0.3020 H     1 <1>   0.0800 
 38 H        0.1590     5.8240    -0.5800 H     1 <1>   0.0800 
 39 H       -1.3530     5.6860     2.8640 H     1 <1>   0.0800 
 40 H       -2.9660     5.2940     2.2950 H     1 <1>   0.0800 
 41 H       -2.3090     6.8870     2.0300 H     1 <1>   0.0800 
 42 H       -5.9760    -4.9540     0.0930 H     1 <1>   0.1500 
 43 H       -6.4080    -1.0210    -1.4710 H     1 <1>   0.1500 
 44 H       -8.3740    -4.9670     0.4890 H     1 <1>   0.1500 
 45 H       -8.7880    -1.1920    -1.0100 H     1 <1>   0.1500 
@<TRIPOS>BOND
  1   1   2  2   
  2   2   3  am  
  3   2   4  1   
  4   3   5  1   
  5   3  24  1   
  6   4   6  2   
  7   4   7  1   
  8   5   8  1   
  9   5   9  1   
 10   5  25  1   
 11   6  10  1   
 12   7  11  2   
 13   7  26  1   
 14   8  12  1   
 15   8  13  1   
 16   8  27  1   
 17   9  14  1   
 18   9  28  1   
 19   9  29  1   
 20  10  11  1   
 21  10  15  1   
 22  11  30  1   
 23  12  14  1   
 24  12  31  1   
 25  12  32  1   
 26  13  16  1   
 27  13  33  1   
 28  13  34  1   
 29  15  17  1   
 30  15  18  1   
 31  15  35  1   
 32  16  19  ar  
 33  16  20  ar  
 34  17  36  1   
 35  17  37  1   
 36  17  38  1   
 37  18  39  1   
 38  18  40  1   
 39  18  41  1   
 40  19  21  ar  
 41  19  42  1   
 42  20  22  ar  
 43  20  43  1   
 44  21  23  ar  
 45  21  44  1   
 46  22  23  ar  
 47  22  45  1   
@<TRIPOS>SUBSTRUCTURE
  1 ****   3 GROUP 4 **** **** 0

# MOE 2024.06 (io_trps.svl 2023.06)
