@<TRIPOS>MOLECULE
NONAME
44 46 1 0 0 
SMALL
USER_CHARGES


@<TRIPOS>ATOM
  1 S        0.6990     0.0260    -0.3120 S.o2  1 <1>   1.3330 
  2 O        0.8820     0.0980    -1.7440 O.2   1 <1>  -0.6500 
  3 O        1.8530    -0.0330     0.5560 O.2   1 <1>  -0.6500 
  4 N       -0.2870    -1.3110     0.0360 N.am  1 <1>  -0.8490 
  5 C       -0.3200     1.4180     0.1700 C.3   1 <1>  -0.0550 
  6 C        0.0270    -2.4650    -0.8130 C.3   1 <1>   0.1160 
  7 C       -0.2540    -1.7080     1.4480 C.3   1 <1>   0.1160 
  8 C        0.3140     2.7800    -0.1760 C.3   1 <1>  -0.0800 
  9 C       -0.5850     3.9850     0.1120 C.3   1 <1>   0.2000 
 10 C        1.6130     3.0860     0.5840 C.3   1 <1>   0.1400 
 11 O       -1.1580     3.8340     1.3660 O.3   1 <1>  -0.6800 
 12 C        0.3920     5.1570     0.1740 C.3   1 <1>   0.1400 
 13 N        1.6390     4.5660     0.7260 N.am  1 <1>  -0.6600 
 14 C        2.7970     5.2660     0.9720 C.2   1 <1>   0.7160 
 15 O        3.8200     4.6470     1.1850 O.2   1 <1>  -0.5700 
 16 C        2.8050     6.7120     0.9700 C.2   1 <1>  -0.0860 
 17 C        3.6850     7.4590     0.0970 C.ar  1 <1>   0.0000 
 18 C        2.0290     7.5120     1.7400 C.2   1 <1>  -0.1100 
 19 C        3.5390     8.8340     0.2150 C.ar  1 <1>   0.0400 
 20 C        4.6240     6.9910    -0.8210 C.ar  1 <1>  -0.1500 
 21 S        2.3140     9.2150     1.4270 S.3   1 <1>  -0.0800 
 22 C        4.2650     9.7480    -0.5260 C.ar  1 <1>  -0.1500 
 23 C        5.3650     7.8850    -1.5760 C.ar  1 <1>  -0.1500 
 24 C        5.1880     9.2580    -1.4330 C.ar  1 <1>  -0.1500 
 25 H       -1.2620     1.3430    -0.3380 H     1 <1>   0.0800 
 26 H       -0.5150     1.3650     1.2220 H     1 <1>   0.0800 
 27 H       -0.6270    -3.2880    -0.5810 H     1 <1>   0.0800 
 28 H        1.0500    -2.7700    -0.6670 H     1 <1>   0.0800 
 29 H       -0.1130    -2.2080    -1.8500 H     1 <1>   0.0800 
 30 H       -0.9580    -2.5030     1.6240 H     1 <1>   0.0800 
 31 H       -0.5200    -0.8750     2.0750 H     1 <1>   0.0800 
 32 H        0.7330    -2.0460     1.7220 H     1 <1>   0.0800 
 33 H        0.5470     2.7890    -1.2270 H     1 <1>   0.0800 
 34 H       -1.3690     4.1210    -0.6130 H     1 <1>   0.0800 
 35 H        2.4770     2.7340     0.0440 H     1 <1>   0.0800 
 36 H        1.6070     2.6400     1.5650 H     1 <1>   0.0800 
 37 H       -0.4540     3.8990     2.0430 H     1 <1>   0.4000 
 38 H        0.0110     5.9540     0.7890 H     1 <1>   0.0800 
 39 H        0.5880     5.5270    -0.8170 H     1 <1>   0.0800 
 40 H        1.2950     7.2710     2.4880 H     1 <1>   0.1500 
 41 H        4.7770     5.9320    -0.9360 H     1 <1>   0.1500 
 42 H        4.1110    10.8040    -0.3940 H     1 <1>   0.1500 
 43 H        6.0890     7.5150    -2.2810 H     1 <1>   0.1500 
 44 H        5.7730     9.9380    -2.0280 H     1 <1>   0.1500 
@<TRIPOS>BOND
  1   1   2  2   
  2   1   3  2   
  3   1   4  am  
  4   1   5  1   
  5   4   6  1   
  6   4   7  1   
  7   5   8  1   
  8   5  25  1   
  9   5  26  1   
 10   6  27  1   
 11   6  28  1   
 12   6  29  1   
 13   7  30  1   
 14   7  31  1   
 15   7  32  1   
 16   8   9  1   
 17   8  10  1   
 18   8  33  1   
 19   9  11  1   
 20   9  12  1   
 21   9  34  1   
 22  10  13  1   
 23  10  35  1   
 24  10  36  1   
 25  11  37  1   
 26  12  13  1   
 27  12  38  1   
 28  12  39  1   
 29  13  14  am  
 30  14  15  2   
 31  14  16  1   
 32  16  17  1   
 33  16  18  2   
 34  17  19  ar  
 35  17  20  ar  
 36  18  21  1   
 37  18  40  1   
 38  19  21  1   
 39  19  22  ar  
 40  20  23  ar  
 41  20  41  1   
 42  22  24  ar  
 43  22  42  1   
 44  23  24  ar  
 45  23  43  1   
 46  24  44  1   
@<TRIPOS>SUBSTRUCTURE
  1 ****  13 GROUP 4 **** **** 0

# MOE 2024.06 (io_trps.svl 2023.06)
