@<TRIPOS>MOLECULE
NONAME
62 65 1 0 0 
SMALL
USER_CHARGES


@<TRIPOS>ATOM
  1 O       -1.5680     0.0660     2.0520 O.2   1 <1>  -0.5700 
  2 C       -1.8930     0.8260     1.1680 C.2   1 <1>   0.5690 
  3 N       -2.7270     0.4000     0.1690 N.am  1 <1>  -0.6600 
  4 C       -1.3990     2.2560     1.2240 C.3   1 <1>  -0.0990 
  5 C       -2.8840    -1.0470    -0.0560 C.3   1 <1>   0.1400 
  6 C       -3.9480     1.1390    -0.2350 C.3   1 <1>   0.1400 
  7 C       -0.6890     2.6690    -0.0760 C.3   1 <1>   0.2070 
  8 C       -4.1060    -1.4350     0.7920 C.3   1 <1>   0.4230 
  9 C       -5.1980     0.4950     0.4250 C.3   1 <1>  -0.1600 
 10 C        0.4610     1.7100    -0.3830 C.ar  1 <1>  -0.1440 
 11 C       -0.2040     4.1240    -0.0950 C.ar  1 <1>  -0.1440 
 12 N       -3.9800    -2.7630     1.5020 N.4   1 <1>  -0.9590 
 13 C       -5.4550    -1.0580     0.0100 C.3   1 <1>   0.0000 
 14 C        0.3390     0.7700    -1.3980 C.ar  1 <1>  -0.1500 
 15 C        1.6390     1.7590     0.3500 C.ar  1 <1>  -0.1500 
 16 C       -0.1650     4.9440     1.0290 C.ar  1 <1>  -0.1500 
 17 C        0.2190     4.6470    -1.3090 C.ar  1 <1>  -0.1500 
 18 C       -3.7550    -3.8800     0.5680 C.3   1 <1>   0.3430 
 19 C       -2.9140    -2.7000     2.5560 C.3   1 <1>   0.2630 
 20 C       -5.7090    -2.5780    -0.4860 C.3   1 <1>  -0.1600 
 21 C       -6.8280    -0.6360    -0.6960 C.3   1 <1>   0.1200 
 22 C        1.3730    -0.1070    -1.6720 C.ar  1 <1>  -0.1500 
 23 C        2.6730     0.8810     0.0790 C.ar  1 <1>  -0.1500 
 24 C        0.2780     6.2520     0.9330 C.ar  1 <1>  -0.1500 
 25 C        0.6630     5.9540    -1.4070 C.ar  1 <1>  -0.1500 
 26 C       -4.5740    -3.6150    -0.6830 C.3   1 <1>  -0.1600 
 27 O       -6.5500    -0.0880    -1.9460 O.3   1 <1>  -0.6800 
 28 C        2.5410    -0.0540    -0.9330 C.ar  1 <1>  -0.1500 
 29 C        0.6910     6.7600    -0.2840 C.ar  1 <1>  -0.1500 
 30 H       -2.2240     2.9130     1.4210 H     1 <1>   0.0800 
 31 H       -0.7070     2.3320     2.0420 H     1 <1>   0.0800 
 32 H       -3.0540    -1.2280    -1.1030 H     1 <1>   0.0800 
 33 H       -1.9910    -1.5630     0.2520 H     1 <1>   0.0800 
 34 H       -3.8750     2.1730     0.0550 H     1 <1>   0.0800 
 35 H       -4.0460     1.1050    -1.3090 H     1 <1>   0.0800 
 36 H       -1.4100     2.5880    -0.8710 H     1 <1>   0.0800 
 37 H       -4.0250    -0.7700     1.6320 H     1 <1>   0.0800 
 38 H       -5.1540     0.6270     1.4940 H     1 <1>   0.0800 
 39 H       -5.9430     1.2310     0.1700 H     1 <1>   0.0800 
 40 H       -4.8840    -2.9220     1.9640 H     1 <1>   0.4500 
 41 H       -0.5630     0.7160    -1.9810 H     1 <1>   0.1500 
 42 H        1.7570     2.4860     1.1350 H     1 <1>   0.1500 
 43 H       -0.4720     4.5900     1.9950 H     1 <1>   0.1500 
 44 H        0.2120     4.0300    -2.1920 H     1 <1>   0.1500 
 45 H       -2.7110    -3.9550     0.3080 H     1 <1>   0.0800 
 46 H       -4.0630    -4.8060     1.0270 H     1 <1>   0.0800 
 47 H       -1.9470    -2.5290     2.1090 H     1 <1>   0.0800 
 48 H       -2.8790    -3.6210     3.1150 H     1 <1>   0.0800 
 49 H       -3.1090    -1.8890     3.2390 H     1 <1>   0.0800 
 50 H       -6.4390    -3.0280     0.1680 H     1 <1>   0.0800 
 51 H       -6.1230    -2.6140    -1.4860 H     1 <1>   0.0800 
 52 H       -7.4230     0.0650    -0.1330 H     1 <1>   0.0800 
 53 H       -7.5590    -1.4160    -0.8540 H     1 <1>   0.0800 
 54 H        1.2730    -0.8300    -2.4630 H     1 <1>   0.1500 
 55 H        3.5810     0.9280     0.6540 H     1 <1>   0.1500 
 56 H        0.3030     6.8770     1.8090 H     1 <1>   0.1500 
 57 H        0.9880     6.3420    -2.3570 H     1 <1>   0.1500 
 58 H       -3.9170    -3.2880    -1.4700 H     1 <1>   0.0800 
 59 H       -4.9930    -4.5490    -1.0150 H     1 <1>   0.0800 
 60 H       -7.3750     0.1520    -2.4190 H     1 <1>   0.4000 
 61 H        3.3470    -0.7340    -1.1440 H     1 <1>   0.1500 
 62 H        1.0360     7.7760    -0.3580 H     1 <1>   0.1500 
@<TRIPOS>BOND
  1   1   2  2   
  2   2   3  am  
  3   2   4  1   
  4   3   5  1   
  5   3   6  1   
  6   4   7  1   
  7   4  30  1   
  8   4  31  1   
  9   5   8  1   
 10   5  32  1   
 11   5  33  1   
 12   6   9  1   
 13   6  34  1   
 14   6  35  1   
 15   7  10  1   
 16   7  11  1   
 17   7  36  1   
 18   8  12  1   
 19   8  13  1   
 20   8  37  1   
 21   9  13  1   
 22   9  38  1   
 23   9  39  1   
 24  10  14  ar  
 25  10  15  ar  
 26  11  16  ar  
 27  11  17  ar  
 28  12  18  1   
 29  12  19  1   
 30  12  40  1   
 31  13  20  1   
 32  13  21  1   
 33  14  22  ar  
 34  14  41  1   
 35  15  23  ar  
 36  15  42  1   
 37  16  24  ar  
 38  16  43  1   
 39  17  25  ar  
 40  17  44  1   
 41  18  26  1   
 42  18  45  1   
 43  18  46  1   
 44  19  47  1   
 45  19  48  1   
 46  19  49  1   
 47  20  26  1   
 48  20  50  1   
 49  20  51  1   
 50  21  27  1   
 51  21  52  1   
 52  21  53  1   
 53  22  28  ar  
 54  22  54  1   
 55  23  28  ar  
 56  23  55  1   
 57  24  29  ar  
 58  24  56  1   
 59  25  29  ar  
 60  25  57  1   
 61  26  58  1   
 62  26  59  1   
 63  27  60  1   
 64  28  61  1   
 65  29  62  1   
@<TRIPOS>SUBSTRUCTURE
  1 ****   3 GROUP 4 **** **** 0

# MOE 2024.06 (io_trps.svl 2023.06)
