@<TRIPOS>MOLECULE
NONAME
53 56 1 0 0 
SMALL
USER_CHARGES


@<TRIPOS>ATOM
  1 F       -1.7580    -1.9480    -3.1470 F     1 <1>  -0.1900 
  2 C       -2.5840    -2.1980    -2.1660 C.ar  1 <1>   0.1900 
  3 C       -2.4150    -3.3460    -1.4250 C.ar  1 <1>  -0.1500 
  4 C       -3.5990    -1.3000    -1.9120 C.ar  1 <1>  -0.1500 
  5 C       -3.2820    -3.6490    -0.3710 C.ar  1 <1>   0.0860 
  6 C       -4.4650    -1.5710    -0.8710 C.ar  1 <1>  -0.1500 
  7 C       -3.0690    -4.8900     0.3610 C.2   1 <1>   0.5440 
  8 C       -4.3160    -2.7280    -0.1000 C.ar  1 <1>   0.0830 
  9 O       -1.9760    -5.4240     0.3450 O.2   1 <1>  -0.5700 
 10 N       -4.0720    -5.5340     1.0320 N.am  1 <1>  -0.7300 
 11 O       -5.1520    -2.9910     0.9360 O.3   1 <1>  -0.3630 
 12 C       -3.9800    -6.8960     1.6060 C.3   1 <1>   0.1400 
 13 C       -6.3380    -2.2760     1.2290 C.3   1 <1>   0.1200 
 14 C       -4.1990    -7.9260     0.4910 C.3   1 <1>  -0.0800 
 15 C       -7.4650    -2.6860     0.2690 C.3   1 <1>   0.0960 
 16 C       -5.5670    -7.7920    -0.1650 C.3   1 <1>   0.1400 
 17 C       -4.1510    -9.3820     0.9540 C.3   1 <1>  -0.1600 
 18 N       -7.8830    -4.0970     0.4330 N.pl3 1 <1>   0.3140 
 19 N       -5.9220    -9.1590    -0.6100 N.am  1 <1>  -0.6600 
 20 C       -4.9300   -10.1370    -0.1210 C.3   1 <1>   0.1400 
 21 N       -7.5690    -4.8620     1.4860 N.2   1 <1>  -0.4180 
 22 C       -8.7480    -4.7550    -0.3430 C.2   1 <1>  -0.3020 
 23 C       -7.0920    -9.5210    -1.2160 C.2   1 <1>   0.5690 
 24 N       -8.2170    -5.9690     1.3950 N.2   1 <1>  -0.2270 
 25 C       -8.9520    -5.9270     0.2780 C.2   1 <1>   0.0460 
 26 O       -7.3100   -10.6590    -1.5600 O.2   1 <1>  -0.5700 
 27 C       -8.1790    -8.4830    -1.4420 C.3   1 <1>  -0.0990 
 28 C       -9.8700    -7.0720    -0.1220 C.3   1 <1>   0.0210 
 29 C       -9.1260    -8.4110    -0.2290 C.3   1 <1>  -0.1600 
 30 H       -1.6050    -4.0120    -1.6680 H     1 <1>   0.1500 
 31 H       -3.6960    -0.4140    -2.5140 H     1 <1>   0.1500 
 32 H       -5.2430    -0.8580    -0.6790 H     1 <1>   0.1500 
 33 H       -4.9680    -5.0450     1.1650 H     1 <1>   0.3700 
 34 H       -4.7240    -7.0090     2.3770 H     1 <1>   0.0800 
 35 H       -3.0060    -7.0350     2.0450 H     1 <1>   0.0800 
 36 H       -6.1350    -1.2220     1.1860 H     1 <1>   0.0800 
 37 H       -6.6150    -2.5110     2.2430 H     1 <1>   0.0800 
 38 H       -3.4430    -7.7860    -0.2630 H     1 <1>   0.0800 
 39 H       -7.1590    -2.5320    -0.7480 H     1 <1>   0.0800 
 40 H       -8.3240    -2.0720     0.4600 H     1 <1>   0.0800 
 41 H       -5.5310    -7.1060    -0.9940 H     1 <1>   0.0800 
 42 H       -6.2930    -7.4580     0.5550 H     1 <1>   0.0800 
 43 H       -4.6600    -9.4950     1.8950 H     1 <1>   0.0800 
 44 H       -3.1450    -9.7490     1.0480 H     1 <1>   0.0800 
 45 H       -5.4150   -11.0140     0.2750 H     1 <1>   0.0800 
 46 H       -4.2850   -10.4160    -0.9360 H     1 <1>   0.0800 
 47 H       -9.1660    -4.3620    -1.2490 H     1 <1>   0.1500 
 48 H       -8.7380    -8.7530    -2.3190 H     1 <1>   0.0800 
 49 H       -7.7300    -7.5280    -1.6330 H     1 <1>   0.0800 
 50 H      -10.3530    -6.8430    -1.0560 H     1 <1>   0.0800 
 51 H      -10.6340    -7.1600     0.6300 H     1 <1>   0.0800 
 52 H       -8.5660    -8.5670     0.6780 H     1 <1>   0.0800 
 53 H       -9.8370    -9.2160    -0.3020 H     1 <1>   0.0800 
@<TRIPOS>BOND
  1   1   2  1   
  2   2   3  ar  
  3   2   4  ar  
  4   3   5  ar  
  5   3  30  1   
  6   4   6  ar  
  7   4  31  1   
  8   5   7  1   
  9   5   8  ar  
 10   6   8  ar  
 11   6  32  1   
 12   7   9  2   
 13   7  10  am  
 14   8  11  1   
 15  10  12  1   
 16  10  33  1   
 17  11  13  1   
 18  12  14  1   
 19  12  34  1   
 20  12  35  1   
 21  13  15  1   
 22  13  36  1   
 23  13  37  1   
 24  14  16  1   
 25  14  17  1   
 26  14  38  1   
 27  15  18  1   
 28  15  39  1   
 29  15  40  1   
 30  16  19  1   
 31  16  41  1   
 32  16  42  1   
 33  17  20  1   
 34  17  43  1   
 35  17  44  1   
 36  18  21  1   
 37  18  22  1   
 38  19  20  1   
 39  19  23  am  
 40  20  45  1   
 41  20  46  1   
 42  21  24  2   
 43  22  25  2   
 44  22  47  1   
 45  23  26  2   
 46  23  27  1   
 47  24  25  1   
 48  25  28  1   
 49  27  29  1   
 50  27  48  1   
 51  27  49  1   
 52  28  29  1   
 53  28  50  1   
 54  28  51  1   
 55  29  52  1   
 56  29  53  1   
@<TRIPOS>SUBSTRUCTURE
  1 ****  10 GROUP 4 **** **** 0

# MOE 2024.06 (io_trps.svl 2023.06)
