@<TRIPOS>MOLECULE
NONAME
51 53 1 0 0 
SMALL
USER_CHARGES


@<TRIPOS>ATOM
  1 O       -2.0140     1.7700     3.0950 O.co2 1 <1>  -0.9000 
  2 C       -1.9240     1.9270     1.8730 C.2   1 <1>   0.9060 
  3 O       -1.3670     1.0880     1.1460 O.co2 1 <1>  -0.9000 
  4 C       -2.6910     3.1280     1.2440 C.3   1 <1>   0.4600 
  5 N       -3.8950     2.7610     0.3940 N.4   1 <1>  -0.9590 
  6 C       -1.8740     4.1520     0.4450 C.ar  1 <1>  -0.1430 
  7 C       -4.8960     2.0210     1.2280 C.3   1 <1>   0.3430 
  8 C       -3.4360     2.0410    -0.8330 C.3   1 <1>   0.3430 
  9 C       -2.4510     5.3880     0.1620 C.ar  1 <1>   0.0830 
 10 C       -0.5880     3.8880    -0.0080 C.ar  1 <1>  -0.1500 
 11 C       -4.9050     0.5250     0.9130 C.3   1 <1>  -0.1600 
 12 C       -4.6300     1.3490    -1.4810 C.3   1 <1>  -0.1600 
 13 O       -3.7180     5.6160     0.6070 O.3   1 <1>  -0.3630 
 14 C       -1.7370     6.3370    -0.5640 C.ar  1 <1>  -0.1500 
 15 C        0.1210     4.8310    -0.7330 C.ar  1 <1>  -0.1430 
 16 C       -5.1750     0.2100    -0.5850 C.3   1 <1>   0.0000 
 17 C       -4.2440     6.9260     0.6650 C.3   1 <1>   0.0400 
 18 C       -0.4580     6.0570    -1.0070 C.ar  1 <1>  -0.1500 
 19 C        1.5270     4.5170    -1.2110 C.3   1 <1>  -0.0970 
 20 C       -6.6920     0.0290    -0.8490 C.3   1 <1>  -0.1600 
 21 C       -4.4780    -1.1220    -0.9350 C.3   1 <1>  -0.1600 
 22 C       -7.1830    -1.4220    -0.6810 C.3   1 <1>   0.1200 
 23 C       -5.0630    -2.3120    -0.1470 C.3   1 <1>   0.1200 
 24 O       -6.3870    -2.0800     0.2490 O.3   1 <1>  -0.5600 
 25 H       -3.0610     3.6630     2.1010 H     1 <1>   0.0800 
 26 H       -4.2730     3.6780     0.1250 H     1 <1>   0.4500 
 27 H       -5.8780     2.4150     1.0320 H     1 <1>   0.0800 
 28 H       -4.6810     2.1630     2.2760 H     1 <1>   0.0800 
 29 H       -2.7020     1.2940    -0.5770 H     1 <1>   0.0800 
 30 H       -2.9800     2.7380    -1.5170 H     1 <1>   0.0800 
 31 H       -0.1140     2.9410     0.1980 H     1 <1>   0.1500 
 32 H       -5.6390     0.0450     1.5360 H     1 <1>   0.0800 
 33 H       -3.9520     0.1250     1.2150 H     1 <1>   0.0800 
 34 H       -4.3330     0.9600    -2.4390 H     1 <1>   0.0800 
 35 H       -5.3870     2.0920    -1.6620 H     1 <1>   0.0800 
 36 H       -2.1550     7.2960    -0.8000 H     1 <1>   0.1500 
 37 H       -5.1890     6.8880     1.1760 H     1 <1>   0.0800 
 38 H       -4.3860     7.2930    -0.3360 H     1 <1>   0.0800 
 39 H       -3.5610     7.5530     1.2110 H     1 <1>   0.0800 
 40 H        0.0870     6.7970    -1.5660 H     1 <1>   0.1500 
 41 H        1.6170     3.4720    -1.4500 H     1 <1>   0.0800 
 42 H        2.2350     4.7560    -0.4380 H     1 <1>   0.0800 
 43 H        1.7660     5.0880    -2.0900 H     1 <1>   0.0800 
 44 H       -6.9330     0.3200    -1.8560 H     1 <1>   0.0800 
 45 H       -7.2600     0.6690    -0.1990 H     1 <1>   0.0800 
 46 H       -3.4190    -1.0640    -0.7480 H     1 <1>   0.0800 
 47 H       -4.5990    -1.3290    -1.9840 H     1 <1>   0.0800 
 48 H       -7.1270    -1.9620    -1.6110 H     1 <1>   0.0800 
 49 H       -8.1990    -1.4430    -0.3270 H     1 <1>   0.0800 
 50 H       -4.4930    -2.4750     0.7530 H     1 <1>   0.0800 
 51 H       -5.0360    -3.2110    -0.7370 H     1 <1>   0.0800 
@<TRIPOS>BOND
  1   1   2  ar  
  2   2   3  ar  
  3   2   4  1   
  4   4   5  1   
  5   4   6  1   
  6   4  25  1   
  7   5   7  1   
  8   5   8  1   
  9   5  26  1   
 10   6   9  ar  
 11   6  10  ar  
 12   7  11  1   
 13   7  27  1   
 14   7  28  1   
 15   8  12  1   
 16   8  29  1   
 17   8  30  1   
 18   9  13  1   
 19   9  14  ar  
 20  10  15  ar  
 21  10  31  1   
 22  11  16  1   
 23  11  32  1   
 24  11  33  1   
 25  12  16  1   
 26  12  34  1   
 27  12  35  1   
 28  13  17  1   
 29  14  18  ar  
 30  14  36  1   
 31  15  18  ar  
 32  15  19  1   
 33  16  20  1   
 34  16  21  1   
 35  17  37  1   
 36  17  38  1   
 37  17  39  1   
 38  18  40  1   
 39  19  41  1   
 40  19  42  1   
 41  19  43  1   
 42  20  22  1   
 43  20  44  1   
 44  20  45  1   
 45  21  23  1   
 46  21  46  1   
 47  21  47  1   
 48  22  24  1   
 49  22  48  1   
 50  22  49  1   
 51  23  24  1   
 52  23  50  1   
 53  23  51  1   
@<TRIPOS>SUBSTRUCTURE
  1 ****   5 GROUP 4 **** **** 0

# MOE 2024.06 (io_trps.svl 2023.06)
