@<TRIPOS>MOLECULE
NONAME
44 46 1 0 0 
SMALL
USER_CHARGES


@<TRIPOS>ATOM
  1 O       -2.5250     1.0540     2.1220 O.2   1 <1>  -0.5700 
  2 C       -3.0500     1.3970     1.0830 C.2   1 <1>   0.5690 
  3 N       -4.2030     0.7800     0.6590 N.am  1 <1>  -0.6600 
  4 C       -2.3770     2.5080     0.2690 C.3   1 <1>   0.2370 
  5 C       -4.8170    -0.3050     1.4870 C.3   1 <1>   0.3200 
  6 C       -4.8390     0.9670    -0.6850 C.3   1 <1>   0.1400 
  7 N       -1.5800     1.8880    -0.8190 N.pl3 1 <1>   0.0480 
  8 C       -1.5000     3.4270     1.1440 C.3   1 <1>   0.0200 
  9 C       -4.1040    -1.6250     1.2470 C.2   1 <1>   0.0060 
 10 C       -4.4060    -0.1250    -1.6680 C.3   1 <1>   0.1200 
 11 C       -0.5530     1.0040    -0.6740 C.2   1 <1>  -0.3020 
 12 C       -1.7820     2.0380    -2.1580 C.2   1 <1>  -0.3020 
 13 C       -1.0200     4.6960     0.4470 C.2   1 <1>  -0.3320 
 14 N       -4.6530    -2.6880     0.7480 N.2   1 <1>  -0.5650 
 15 N       -2.7970    -1.7820     1.5440 N.pl3 1 <1>   0.0330 
 16 O       -4.8590     0.2240    -2.9310 O.3   1 <1>  -0.6800 
 17 C       -0.1100     0.6120    -1.8960 C.2   1 <1>  -0.1500 
 18 C       -0.8950     1.2730    -2.8440 C.2   1 <1>  -0.1500 
 19 N       -0.2230     5.5940     1.0580 N.pl3 1 <1>   0.0330 
 20 C       -1.2430     5.1840    -0.7970 C.2   1 <1>   0.0770 
 21 C       -3.6470    -3.5840     0.7190 C.2   1 <1>   0.0770 
 22 C       -2.5050    -3.0480     1.2010 C.2   1 <1>  -0.3020 
 23 C       -0.0230     6.5710     0.1500 C.2   1 <1>   0.0360 
 24 N       -0.6220     6.3640    -0.9760 N.2   1 <1>  -0.5650 
 25 H       -3.1410     3.1170    -0.1720 H     1 <1>   0.0800 
 26 H       -5.8590    -0.4130     1.2430 H     1 <1>   0.0800 
 27 H       -4.7490    -0.0500     2.5310 H     1 <1>   0.0800 
 28 H       -4.5770     1.9230    -1.0970 H     1 <1>   0.0800 
 29 H       -5.9100     0.9390    -0.5810 H     1 <1>   0.0800 
 30 H       -0.6530     2.8710     1.5080 H     1 <1>   0.0800 
 31 H       -2.0790     3.7240     2.0020 H     1 <1>   0.0800 
 32 H       -4.8380    -1.0760    -1.4060 H     1 <1>   0.0800 
 33 H       -3.3330    -0.2070    -1.7050 H     1 <1>   0.0800 
 34 H       -0.1870     0.6980     0.2900 H     1 <1>   0.1500 
 35 H       -2.5470     2.6760    -2.5650 H     1 <1>   0.1500 
 36 H       -2.1900    -1.0480     1.9340 H     1 <1>   0.2700 
 37 H       -4.5530    -0.4310    -3.5900 H     1 <1>   0.4000 
 38 H        0.6890    -0.0730    -2.1230 H     1 <1>   0.1500 
 39 H       -0.7930     1.1750    -3.9120 H     1 <1>   0.1500 
 40 H        0.1600     5.5550     2.0060 H     1 <1>   0.2700 
 41 H       -1.8250     4.7530    -1.5930 H     1 <1>   0.1500 
 42 H       -3.8010    -4.5840     0.3480 H     1 <1>   0.1500 
 43 H       -1.5290    -3.4840     1.3150 H     1 <1>   0.1500 
 44 H        0.5830     7.4340     0.3610 H     1 <1>   0.1500 
@<TRIPOS>BOND
  1   1   2  2   
  2   2   3  am  
  3   2   4  1   
  4   3   5  1   
  5   3   6  1   
  6   4   7  1   
  7   4   8  1   
  8   4  25  1   
  9   5   9  1   
 10   5  26  1   
 11   5  27  1   
 12   6  10  1   
 13   6  28  1   
 14   6  29  1   
 15   7  11  1   
 16   7  12  1   
 17   8  13  1   
 18   8  30  1   
 19   8  31  1   
 20   9  14  2   
 21   9  15  1   
 22  10  16  1   
 23  10  32  1   
 24  10  33  1   
 25  11  17  2   
 26  11  34  1   
 27  12  18  2   
 28  12  35  1   
 29  13  19  1   
 30  13  20  2   
 31  14  21  1   
 32  15  22  1   
 33  15  36  1   
 34  16  37  1   
 35  17  18  1   
 36  17  38  1   
 37  18  39  1   
 38  19  23  1   
 39  19  40  1   
 40  20  24  1   
 41  20  41  1   
 42  21  22  2   
 43  21  42  1   
 44  22  43  1   
 45  23  24  2   
 46  23  44  1   
@<TRIPOS>SUBSTRUCTURE
  1 ****   4 GROUP 4 **** **** 0

# MOE 2024.06 (io_trps.svl 2023.06)
