@<TRIPOS>MOLECULE
NONAME
52 55 1 0 0 
SMALL
USER_CHARGES


@<TRIPOS>ATOM
  1 S        0.4550     0.0220    -1.3330 S.o2  1 <1>   1.3330 
  2 O        1.5500     0.4340    -2.1820 O.2   1 <1>  -0.6500 
  3 O       -0.8990     0.0740    -1.8370 O.2   1 <1>  -0.6500 
  4 N        0.7590    -1.5590    -0.7980 N.am  1 <1>  -0.8490 
  5 C        0.5460     0.9860     0.1740 C.3   1 <1>  -0.0550 
  6 C        1.3790    -2.3870    -1.8370 C.3   1 <1>   0.1160 
  7 C       -0.4300    -2.2330    -0.2660 C.3   1 <1>   0.1160 
  8 C        0.2970     2.4900    -0.0550 C.3   1 <1>  -0.0800 
  9 C        0.1520     3.3090     1.2310 C.3   1 <1>   0.2000 
 10 C        1.4150     3.2000    -0.8340 C.3   1 <1>   0.1400 
 11 O        1.1460     2.9330     2.1210 O.3   1 <1>  -0.6800 
 12 C        0.4320     4.7410     0.7800 C.3   1 <1>   0.1400 
 13 N        1.4410     4.5850    -0.2980 N.am  1 <1>  -0.6600 
 14 C        2.4480     5.4790    -0.5700 C.2   1 <1>   0.5440 
 15 O        3.4160     5.0990    -1.1980 O.2   1 <1>  -0.5700 
 16 C        2.3730     6.8420    -0.1070 C.ar  1 <1>   0.0860 
 17 C        3.2170     7.3430     0.8920 C.ar  1 <1>   0.0000 
 18 C        1.4650     7.7690    -0.5890 C.ar  1 <1>  -0.1430 
 19 C        3.0600     8.6420     1.3160 C.ar  1 <1>   0.3970 
 20 C        4.2810     6.8890     1.6920 C.2   1 <1>   0.1080 
 21 C        1.4120     9.0550    -0.0780 C.ar  1 <1>   0.1670 
 22 C        0.4460     7.5830    -1.6920 C.3   1 <1>  -0.0170 
 23 O        3.9500     8.8640     2.2680 O.3   1 <1>  -0.0190 
 24 N        2.1750     9.5390     0.8720 N.ar  1 <1>  -0.5670 
 25 N        4.6870     7.8010     2.4930 N.2   1 <1>  -0.4100 
 26 C        4.8910     5.5040     1.6270 C.3   1 <1>  -0.0590 
 27 C        0.3440     9.8680    -0.7630 C.3   1 <1>  -0.0170 
 28 C       -0.4480     8.8290    -1.5780 C.3   1 <1>  -0.1600 
 29 H       -0.1900     0.6200     0.8630 H     1 <1>   0.0800 
 30 H        1.5090     0.8430     0.6240 H     1 <1>   0.0800 
 31 H        1.5740    -3.3760    -1.4600 H     1 <1>   0.0800 
 32 H        2.3170    -1.9540    -2.1430 H     1 <1>   0.0800 
 33 H        0.7330    -2.4550    -2.6970 H     1 <1>   0.0800 
 34 H       -0.1600    -3.1950     0.1370 H     1 <1>   0.0800 
 35 H       -1.1640    -2.3720    -1.0430 H     1 <1>   0.0800 
 36 H       -0.8690    -1.6470     0.5230 H     1 <1>   0.0800 
 37 H       -0.6130     2.6040    -0.6180 H     1 <1>   0.0800 
 38 H       -0.8050     3.1940     1.7130 H     1 <1>   0.0800 
 39 H        1.2180     3.2070    -1.8930 H     1 <1>   0.0800 
 40 H        2.3710     2.7330    -0.6600 H     1 <1>   0.0800 
 41 H        2.0150     3.1560     1.7310 H     1 <1>   0.4000 
 42 H        0.7890     5.3510     1.5920 H     1 <1>   0.0800 
 43 H       -0.4610     5.1760     0.3660 H     1 <1>   0.0800 
 44 H        0.9510     7.5670    -2.6430 H     1 <1>   0.0800 
 45 H       -0.1230     6.6780    -1.5740 H     1 <1>   0.0800 
 46 H        4.1340     4.7580     1.7840 H     1 <1>   0.0800 
 47 H        5.6470     5.3970     2.3850 H     1 <1>   0.0800 
 48 H        5.3440     5.3490     0.6650 H     1 <1>   0.0800 
 49 H       -0.2800    10.3700    -0.0450 H     1 <1>   0.0800 
 50 H        0.8100    10.5910    -1.4080 H     1 <1>   0.0800 
 51 H       -1.3410     8.5690    -1.0350 H     1 <1>   0.0800 
 52 H       -0.7280     9.2100    -2.5450 H     1 <1>   0.0800 
@<TRIPOS>BOND
  1   1   2  2   
  2   1   3  2   
  3   1   4  am  
  4   1   5  1   
  5   4   6  1   
  6   4   7  1   
  7   5   8  1   
  8   5  29  1   
  9   5  30  1   
 10   6  31  1   
 11   6  32  1   
 12   6  33  1   
 13   7  34  1   
 14   7  35  1   
 15   7  36  1   
 16   8   9  1   
 17   8  10  1   
 18   8  37  1   
 19   9  11  1   
 20   9  12  1   
 21   9  38  1   
 22  10  13  1   
 23  10  39  1   
 24  10  40  1   
 25  11  41  1   
 26  12  13  1   
 27  12  42  1   
 28  12  43  1   
 29  13  14  am  
 30  14  15  2   
 31  14  16  1   
 32  16  17  ar  
 33  16  18  ar  
 34  17  19  ar  
 35  17  20  1   
 36  18  21  ar  
 37  18  22  1   
 38  19  23  1   
 39  19  24  ar  
 40  20  25  2   
 41  20  26  1   
 42  21  24  ar  
 43  21  27  1   
 44  22  28  1   
 45  22  44  1   
 46  22  45  1   
 47  23  25  1   
 48  26  46  1   
 49  26  47  1   
 50  26  48  1   
 51  27  28  1   
 52  27  49  1   
 53  27  50  1   
 54  28  51  1   
 55  28  52  1   
@<TRIPOS>SUBSTRUCTURE
  1 ****  13 GROUP 4 **** **** 0

# MOE 2024.06 (io_trps.svl 2023.06)
