@<TRIPOS>MOLECULE
NONAME
52 54 1 0 0 
SMALL
USER_CHARGES


@<TRIPOS>ATOM
  1 O       -2.2020     0.3260    -1.4620 O.co2 1 <1>  -0.9000 
  2 C       -2.9890     0.2210    -0.5170 C.2   1 <1>   0.9060 
  3 O       -2.8160     0.7550     0.5810 O.co2 1 <1>  -0.9000 
  4 C       -4.1250    -0.7970    -0.6380 C.3   1 <1>   0.2370 
  5 N       -3.7210    -2.2380    -0.3550 N.4   1 <1>  -0.9590 
  6 C       -3.1970    -2.3870     1.0520 C.3   1 <1>   0.4230 
  7 C       -2.8190    -2.7430    -1.4350 C.3   1 <1>   0.3430 
  8 C       -1.6800    -2.1300     1.2490 C.3   1 <1>   0.1200 
  9 C       -3.5920    -3.7970     1.5630 C.3   1 <1>   0.1400 
 10 C       -1.9560    -3.9700    -1.0750 C.3   1 <1>  -0.0800 
 11 O       -0.9130    -3.2720     0.9850 O.3   1 <1>  -0.5600 
 12 N       -3.8410    -4.7890     0.4510 N.am  1 <1>  -0.6600 
 13 C       -0.6730    -3.5280    -0.3550 C.3   1 <1>   0.1200 
 14 C       -2.6560    -5.1670    -0.3790 C.3   1 <1>   0.1400 
 15 C       -5.1190    -5.0040     0.0200 C.2   1 <1>   0.5690 
 16 O       -5.9160    -4.0960     0.0420 O.2   1 <1>  -0.5700 
 17 C       -5.5460    -6.3510    -0.5430 C.3   1 <1>  -0.0990 
 18 C       -6.7630    -6.9250     0.2030 C.3   1 <1>  -0.1600 
 19 C       -7.1830    -8.2830    -0.3620 C.3   1 <1>   0.1200 
 20 O       -8.2700    -8.7520     0.3990 O.3   1 <1>  -0.3630 
 21 C       -8.8560    -9.9470     0.1340 C.ar  1 <1>   0.0820 
 22 C       -8.4580   -10.7960    -0.8960 C.ar  1 <1>  -0.1500 
 23 C       -9.9090   -10.3180     0.9540 C.ar  1 <1>  -0.1500 
 24 C       -9.1130   -12.0000    -1.0930 C.ar  1 <1>  -0.1500 
 25 C      -10.5630   -11.5220     0.7560 C.ar  1 <1>  -0.1500 
 26 C      -10.1640   -12.3630    -0.2690 C.ar  1 <1>  -0.1500 
 27 H       -4.5200    -0.7190    -1.6340 H     1 <1>   0.0800 
 28 H       -4.8900    -0.4950     0.0520 H     1 <1>   0.0800 
 29 H       -4.5730    -2.8320    -0.3590 H     1 <1>   0.4500 
 30 H       -3.7030    -1.6630     1.6680 H     1 <1>   0.0800 
 31 H       -3.4250    -2.9850    -2.2920 H     1 <1>   0.0800 
 32 H       -2.1540    -1.9480    -1.7360 H     1 <1>   0.0800 
 33 H       -1.5120    -1.8840     2.2820 H     1 <1>   0.0800 
 34 H       -1.3150    -1.3050     0.6620 H     1 <1>   0.0800 
 35 H       -4.4930    -3.6950     2.1430 H     1 <1>   0.0800 
 36 H       -2.8420    -4.1830     2.2320 H     1 <1>   0.0800 
 37 H       -1.6020    -4.3450    -2.0180 H     1 <1>   0.0800 
 38 H       -0.2420    -2.6480    -0.8070 H     1 <1>   0.0800 
 39 H        0.0590    -4.3170    -0.3930 H     1 <1>   0.0800 
 40 H       -1.9500    -5.6920     0.2440 H     1 <1>   0.0800 
 41 H       -2.9700    -5.8540    -1.1450 H     1 <1>   0.0800 
 42 H       -5.7870    -6.2220    -1.5830 H     1 <1>   0.0800 
 43 H       -4.7350    -7.0510    -0.4640 H     1 <1>   0.0800 
 44 H       -7.5900    -6.2410     0.1190 H     1 <1>   0.0800 
 45 H       -6.5190    -7.0390     1.2450 H     1 <1>   0.0800 
 46 H       -6.3820    -8.9980    -0.2800 H     1 <1>   0.0800 
 47 H       -7.5010    -8.1900    -1.3860 H     1 <1>   0.0800 
 48 H       -7.6470   -10.5400    -1.5500 H     1 <1>   0.1500 
 49 H      -10.2120    -9.6590     1.7460 H     1 <1>   0.1500 
 50 H       -8.8060   -12.6560    -1.8880 H     1 <1>   0.1500 
 51 H      -11.3800   -11.8020     1.3970 H     1 <1>   0.1500 
 52 H      -10.6720   -13.2990    -0.4240 H     1 <1>   0.1500 
@<TRIPOS>BOND
  1   1   2  ar  
  2   2   3  ar  
  3   2   4  1   
  4   4   5  1   
  5   4  27  1   
  6   4  28  1   
  7   5   6  1   
  8   5   7  1   
  9   5  29  1   
 10   6   8  1   
 11   6   9  1   
 12   6  30  1   
 13   7  10  1   
 14   7  31  1   
 15   7  32  1   
 16   8  11  1   
 17   8  33  1   
 18   8  34  1   
 19   9  12  1   
 20   9  35  1   
 21   9  36  1   
 22  10  13  1   
 23  10  14  1   
 24  10  37  1   
 25  11  13  1   
 26  12  14  1   
 27  12  15  am  
 28  13  38  1   
 29  13  39  1   
 30  14  40  1   
 31  14  41  1   
 32  15  16  2   
 33  15  17  1   
 34  17  18  1   
 35  17  42  1   
 36  17  43  1   
 37  18  19  1   
 38  18  44  1   
 39  18  45  1   
 40  19  20  1   
 41  19  46  1   
 42  19  47  1   
 43  20  21  1   
 44  21  22  ar  
 45  21  23  ar  
 46  22  24  ar  
 47  22  48  1   
 48  23  25  ar  
 49  23  49  1   
 50  24  26  ar  
 51  24  50  1   
 52  25  26  ar  
 53  25  51  1   
 54  26  52  1   
@<TRIPOS>SUBSTRUCTURE
  1 ****  15 GROUP 4 **** **** 0

# MOE 2024.06 (io_trps.svl 2023.06)
