@<TRIPOS>MOLECULE
NONAME
53 55 1 0 0 
SMALL
USER_CHARGES


@<TRIPOS>ATOM
  1 S       -1.3610    -1.0160    -1.7380 S.3   1 <1>  -0.0800 
  2 C       -2.0540    -0.9020    -0.1230 C.2   1 <1>  -0.1400 
  3 C       -1.6460     0.6890    -2.0320 C.2   1 <1>  -0.1100 
  4 C       -2.4540     0.3610     0.1240 C.2   1 <1>  -0.1500 
  5 C       -2.1120    -2.1570     0.7310 C.3   1 <1>   0.3800 
  6 C       -2.2230     1.2650    -0.9620 C.2   1 <1>  -0.1500 
  7 O       -0.8170    -2.5710     0.9450 O.3   1 <1>  -0.6800 
  8 C       -2.9010    -3.3150     0.0790 C.3   1 <1>  -0.0800 
  9 C       -4.3400    -2.9000    -0.2880 C.3   1 <1>  -0.1600 
 10 C       -2.9480    -4.5680     0.9760 C.3   1 <1>  -0.1600 
 11 C       -5.1140    -4.0530    -0.9260 C.3   1 <1>   0.3430 
 12 C       -3.7410    -5.7020     0.3300 C.3   1 <1>   0.3430 
 13 N       -5.1140    -5.2260    -0.0100 N.4   1 <1>  -0.9590 
 14 C       -5.9780    -6.3580    -0.5180 C.3   1 <1>   0.4040 
 15 C       -6.3860    -7.3490     0.5870 C.2   1 <1>   0.5690 
 16 O       -6.2760    -6.9820     1.7340 O.2   1 <1>  -0.5700 
 17 N       -6.8510    -8.5810     0.2640 N.am  1 <1>  -0.7300 
 18 C       -7.4500    -9.5390     1.2130 C.3   1 <1>   0.2840 
 19 C       -8.8750    -9.7990     0.7580 C.ar  1 <1>  -0.1430 
 20 C       -9.1330   -10.4360    -0.4540 C.ar  1 <1>   0.0830 
 21 C       -9.9320    -9.3930     1.5580 C.ar  1 <1>  -0.1500 
 22 O       -8.0690   -10.8070    -1.2180 O.3   1 <1>  -0.3620 
 23 C      -10.4510   -10.6630    -0.8450 C.ar  1 <1>  -0.1500 
 24 C      -11.2390    -9.6210     1.1630 C.ar  1 <1>  -0.1500 
 25 C       -8.2200   -11.7310    -2.2760 C.3   1 <1>   0.0400 
 26 C      -11.4970   -10.2560    -0.0370 C.ar  1 <1>  -0.1500 
 27 H       -1.3460     1.0850    -2.9860 H     1 <1>   0.1500 
 28 H       -2.9090     0.7110     1.0340 H     1 <1>   0.1500 
 29 H       -2.5340    -1.9130     1.6920 H     1 <1>   0.0800 
 30 H       -2.4990     2.3020    -0.8860 H     1 <1>   0.1500 
 31 H       -0.2320    -1.7890     0.8970 H     1 <1>   0.4000 
 32 H       -2.3910    -3.5740    -0.8340 H     1 <1>   0.0800 
 33 H       -4.3170    -2.0850    -0.9910 H     1 <1>   0.0800 
 34 H       -4.8650    -2.5560     0.5860 H     1 <1>   0.0800 
 35 H       -3.3790    -4.3290     1.9330 H     1 <1>   0.0800 
 36 H       -1.9460    -4.9190     1.1570 H     1 <1>   0.0800 
 37 H       -4.6500    -4.3200    -1.8620 H     1 <1>   0.0800 
 38 H       -6.1260    -3.7380    -1.1250 H     1 <1>   0.0800 
 39 H       -3.7980    -6.5320     1.0180 H     1 <1>   0.0800 
 40 H       -3.2340    -6.0310    -0.5620 H     1 <1>   0.0800 
 41 H       -5.5420    -4.9530     0.8910 H     1 <1>   0.4500 
 42 H       -5.4620    -6.8940    -1.2950 H     1 <1>   0.0800 
 43 H       -6.8850    -5.9550    -0.9340 H     1 <1>   0.0800 
 44 H       -7.0180    -8.8900    -0.7000 H     1 <1>   0.3700 
 45 H       -7.4340    -9.1440     2.2140 H     1 <1>   0.0800 
 46 H       -6.8900   -10.4590     1.1990 H     1 <1>   0.0800 
 47 H       -9.7470    -8.8960     2.4950 H     1 <1>   0.1500 
 48 H      -10.6830   -11.1480    -1.7730 H     1 <1>   0.1500 
 49 H      -12.0540    -9.3030     1.7910 H     1 <1>   0.1500 
 50 H       -7.2430   -11.9810    -2.6470 H     1 <1>   0.0800 
 51 H       -8.8020   -11.2770    -3.0590 H     1 <1>   0.0800 
 52 H       -8.7050   -12.6150    -1.9010 H     1 <1>   0.0800 
 53 H      -12.5140   -10.4330    -0.3420 H     1 <1>   0.1500 
@<TRIPOS>BOND
  1   1   2  1   
  2   1   3  1   
  3   2   4  2   
  4   2   5  1   
  5   3   6  2   
  6   3  27  1   
  7   4   6  1   
  8   4  28  1   
  9   5   7  1   
 10   5   8  1   
 11   5  29  1   
 12   6  30  1   
 13   7  31  1   
 14   8   9  1   
 15   8  10  1   
 16   8  32  1   
 17   9  11  1   
 18   9  33  1   
 19   9  34  1   
 20  10  12  1   
 21  10  35  1   
 22  10  36  1   
 23  11  13  1   
 24  11  37  1   
 25  11  38  1   
 26  12  13  1   
 27  12  39  1   
 28  12  40  1   
 29  13  14  1   
 30  13  41  1   
 31  14  15  1   
 32  14  42  1   
 33  14  43  1   
 34  15  16  2   
 35  15  17  am  
 36  17  18  1   
 37  17  44  1   
 38  18  19  1   
 39  18  45  1   
 40  18  46  1   
 41  19  20  ar  
 42  19  21  ar  
 43  20  22  1   
 44  20  23  ar  
 45  21  24  ar  
 46  21  47  1   
 47  22  25  1   
 48  23  26  ar  
 49  23  48  1   
 50  24  26  ar  
 51  24  49  1   
 52  25  50  1   
 53  25  51  1   
 54  25  52  1   
 55  26  53  1   
@<TRIPOS>SUBSTRUCTURE
  1 ****  14 GROUP 4 **** **** 0

# MOE 2024.06 (io_trps.svl 2023.06)
