@<TRIPOS>MOLECULE
NONAME
38 39 1 0 0 
SMALL
USER_CHARGES


@<TRIPOS>ATOM
  1 CL       0.1850     0.7740    -0.9890 Cl    1 <1>  -0.1770 
  2 C        1.3470    -0.5120    -0.7450 C.ar  1 <1>   0.1770 
  3 C        2.4580    -0.3150     0.0700 C.ar  1 <1>   0.0820 
  4 C        1.1180    -1.7170    -1.3820 C.ar  1 <1>  -0.1500 
  5 O        2.6120     0.8980     0.6650 O.3   1 <1>  -0.3630 
  6 C        3.3560    -1.3660     0.2360 C.ar  1 <1>  -0.1500 
  7 C        2.0110    -2.7630    -1.2050 C.ar  1 <1>  -0.1430 
  8 C        3.7090     1.1800     1.5060 C.3   1 <1>   0.0400 
  9 C        3.1280    -2.5800    -0.3990 C.ar  1 <1>   0.0820 
 10 C        1.7860    -4.1160    -1.8510 C.3   1 <1>   0.4870 
 11 O        3.9770    -3.6240    -0.2610 O.3   1 <1>  -0.3630 
 12 N        1.3080    -5.0470    -0.8110 N.4   1 <1>  -0.9590 
 13 C        4.4640    -3.9470     1.0280 C.3   1 <1>   0.0400 
 14 C        1.3280    -6.4880    -1.1210 C.3   1 <1>   0.3430 
 15 C        0.0270    -4.7430    -0.1370 C.3   1 <1>   0.3430 
 16 C        0.7040    -7.0720     0.1210 C.3   1 <1>  -0.1860 
 17 C       -0.4130    -6.0730     0.4720 C.3   1 <1>  -0.1600 
 18 C        1.8300    -7.1010     1.1290 C.2   1 <1>   0.9060 
 19 O        2.2770    -6.0180     1.5310 O.co2 1 <1>  -0.9000 
 20 O        2.3340    -8.1820     1.4090 O.co2 1 <1>  -0.9000 
 21 H        0.2450    -1.8190    -2.0020 H     1 <1>   0.1500 
 22 H        4.2320    -1.2540     0.8440 H     1 <1>   0.1500 
 23 H        3.6050     2.1890     1.8610 H     1 <1>   0.0800 
 24 H        4.6180     1.0850     0.9400 H     1 <1>   0.0800 
 25 H        3.6960     0.4980     2.3380 H     1 <1>   0.0800 
 26 H        2.7190    -4.4720    -2.2550 H     1 <1>   0.0800 
 27 H        1.0650    -4.0410    -2.6470 H     1 <1>   0.0800 
 28 H        1.9990    -4.9960    -0.0170 H     1 <1>   0.4500 
 29 H        4.8140    -4.9640     1.0110 H     1 <1>   0.0800 
 30 H        3.6630    -3.8640     1.7430 H     1 <1>   0.0800 
 31 H        5.2710    -3.2830     1.2790 H     1 <1>   0.0800 
 32 H        2.3340    -6.8540    -1.2610 H     1 <1>   0.0800 
 33 H        0.7230    -6.7010    -1.9860 H     1 <1>   0.0800 
 34 H       -0.7050    -4.3960    -0.8470 H     1 <1>   0.0800 
 35 H        0.1780    -3.9990     0.6290 H     1 <1>   0.0800 
 36 H        0.3430    -8.0710    -0.0340 H     1 <1>   0.0800 
 37 H       -1.3470    -6.3770     0.0350 H     1 <1>   0.0800 
 38 H       -0.5400    -5.9860     1.5380 H     1 <1>   0.0800 
@<TRIPOS>BOND
  1   1   2  1   
  2   2   3  ar  
  3   2   4  ar  
  4   3   5  1   
  5   3   6  ar  
  6   4   7  ar  
  7   4  21  1   
  8   5   8  1   
  9   6   9  ar  
 10   6  22  1   
 11   7   9  ar  
 12   7  10  1   
 13   8  23  1   
 14   8  24  1   
 15   8  25  1   
 16   9  11  1   
 17  10  12  1   
 18  10  26  1   
 19  10  27  1   
 20  11  13  1   
 21  12  14  1   
 22  12  15  1   
 23  12  28  1   
 24  13  29  1   
 25  13  30  1   
 26  13  31  1   
 27  14  16  1   
 28  14  32  1   
 29  14  33  1   
 30  15  17  1   
 31  15  34  1   
 32  15  35  1   
 33  16  17  1   
 34  16  18  1   
 35  16  36  1   
 36  17  37  1   
 37  17  38  1   
 38  18  19  ar  
 39  18  20  ar  
@<TRIPOS>SUBSTRUCTURE
  1 ****   7 GROUP 4 **** **** 0

# MOE 2024.06 (io_trps.svl 2023.06)
