@<TRIPOS>MOLECULE
NONAME
56 58 1 0 0 
SMALL
USER_CHARGES


@<TRIPOS>ATOM
  1 S        1.0090     0.0180    -1.3000 S.o2  1 <1>   1.3330 
  2 O        0.4700     0.7730    -2.4050 O.2   1 <1>  -0.6500 
  3 O        1.4860    -1.3330    -1.4870 O.2   1 <1>  -0.6500 
  4 N       -0.1200     0.0290    -0.0320 N.am  1 <1>  -0.8490 
  5 C        2.3840     0.9500    -0.6150 C.3   1 <1>  -0.0550 
  6 C       -1.0640     1.1530    -0.1040 C.3   1 <1>   0.1160 
  7 C       -0.8740    -1.2290     0.0550 C.3   1 <1>   0.1160 
  8 C        3.0780     0.2510     0.5790 C.3   1 <1>  -0.0800 
  9 C        4.4460     0.7930     0.9900 C.3   1 <1>   0.4230 
 10 C        2.2810     0.2860     1.8950 C.3   1 <1>   0.1200 
 11 N        4.4250     2.2840     1.0000 N.4   1 <1>  -0.9060 
 12 C        4.4790     0.3150     2.4370 C.3   1 <1>   0.1200 
 13 O        3.2040     0.6380     2.8830 O.3   1 <1>  -0.5600 
 14 C        5.7200     2.9400     1.2760 C.3   1 <1>   0.4230 
 15 C        5.4390     4.4160     1.5850 C.3   1 <1>  -0.1600 
 16 C        6.6450     2.7560     0.0680 C.3   1 <1>  -0.1600 
 17 C        6.7340     5.2250     1.6960 C.3   1 <1>   0.1400 
 18 C        7.9090     3.6040     0.2070 C.3   1 <1>   0.1400 
 19 N        7.5050     5.0090     0.4510 N.am  1 <1>  -0.6600 
 20 C        7.4470     5.9050    -0.5950 C.2   1 <1>   0.5440 
 21 O        7.2330     5.4620    -1.7070 O.2   1 <1>  -0.5700 
 22 C        7.5820     7.3370    -0.3940 C.ar  1 <1>   0.0860 
 23 C        6.9250     8.2600    -1.1940 C.ar  1 <1>  -0.1500 
 24 C        8.3790     7.8920     0.5990 C.ar  1 <1>  -0.1500 
 25 C        7.0670     9.6150    -0.9640 C.ar  1 <1>   0.1600 
 26 C        8.4570     9.2630     0.7490 C.ar  1 <1>   0.1600 
 27 N        7.8130    10.1370    -0.0050 N.ar  1 <1>  -0.6200 
 28 H        3.1030     1.0780    -1.4020 H     1 <1>   0.0800 
 29 H        2.0330     1.9220    -0.3280 H     1 <1>   0.0800 
 30 H       -1.6980     1.1630     0.7670 H     1 <1>   0.0800 
 31 H       -1.6820     1.0700    -0.9840 H     1 <1>   0.0800 
 32 H       -0.5310     2.0870    -0.1480 H     1 <1>   0.0800 
 33 H       -1.5730    -1.1920     0.8730 H     1 <1>   0.0800 
 34 H       -0.2020    -2.0540     0.2260 H     1 <1>   0.0800 
 35 H       -1.4120    -1.4090    -0.8610 H     1 <1>   0.0800 
 36 H        3.2170    -0.7860     0.3210 H     1 <1>   0.0800 
 37 H        5.2500     0.3990     0.3900 H     1 <1>   0.0800 
 38 H        1.8660    -0.6810     2.1330 H     1 <1>   0.0800 
 39 H        1.4950     1.0220     1.8940 H     1 <1>   0.0800 
 40 H        4.0570     2.6560     0.1210 H     1 <1>   0.4500 
 41 H        3.7630     2.5290     1.7530 H     1 <1>   0.4500 
 42 H        5.2160     0.8040     3.0490 H     1 <1>   0.0800 
 43 H        4.6030    -0.7540     2.5010 H     1 <1>   0.0800 
 44 H        6.1840     2.4970     2.1420 H     1 <1>   0.0800 
 45 H        4.8430     4.8550     0.8040 H     1 <1>   0.0800 
 46 H        4.9030     4.5020     2.5140 H     1 <1>   0.0800 
 47 H        6.9430     1.7280    -0.0310 H     1 <1>   0.0800 
 48 H        6.1490     3.0570    -0.8390 H     1 <1>   0.0800 
 49 H        7.3200     4.9040     2.5420 H     1 <1>   0.0800 
 50 H        6.5020     6.2690     1.8220 H     1 <1>   0.0800 
 51 H        8.4980     3.5420    -0.6940 H     1 <1>   0.0800 
 52 H        8.5180     3.2600     1.0270 H     1 <1>   0.0800 
 53 H        6.3030     7.9160    -2.0010 H     1 <1>   0.1500 
 54 H        8.9450     7.2530     1.2520 H     1 <1>   0.1500 
 55 H        6.5420    10.3060    -1.6020 H     1 <1>   0.1500 
 56 H        9.0820     9.6660     1.5280 H     1 <1>   0.1500 
@<TRIPOS>BOND
  1   1   2  2   
  2   1   3  2   
  3   1   4  am  
  4   1   5  1   
  5   4   6  1   
  6   4   7  1   
  7   5   8  1   
  8   5  28  1   
  9   5  29  1   
 10   6  30  1   
 11   6  31  1   
 12   6  32  1   
 13   7  33  1   
 14   7  34  1   
 15   7  35  1   
 16   8   9  1   
 17   8  10  1   
 18   8  36  1   
 19   9  11  1   
 20   9  12  1   
 21   9  37  1   
 22  10  13  1   
 23  10  38  1   
 24  10  39  1   
 25  11  14  1   
 26  11  40  1   
 27  11  41  1   
 28  12  13  1   
 29  12  42  1   
 30  12  43  1   
 31  14  15  1   
 32  14  16  1   
 33  14  44  1   
 34  15  17  1   
 35  15  45  1   
 36  15  46  1   
 37  16  18  1   
 38  16  47  1   
 39  16  48  1   
 40  17  19  1   
 41  17  49  1   
 42  17  50  1   
 43  18  19  1   
 44  18  51  1   
 45  18  52  1   
 46  19  20  am  
 47  20  21  2   
 48  20  22  1   
 49  22  23  ar  
 50  22  24  ar  
 51  23  25  ar  
 52  23  53  1   
 53  24  26  ar  
 54  24  54  1   
 55  25  27  ar  
 56  25  55  1   
 57  26  27  ar  
 58  26  56  1   
@<TRIPOS>SUBSTRUCTURE
  1 ****  11 GROUP 4 **** **** 0

# MOE 2024.06 (io_trps.svl 2023.06)
