@<TRIPOS>MOLECULE
NONAME
40 41 1 0 0 
SMALL
USER_CHARGES


@<TRIPOS>ATOM
  1 S       -1.4110     0.1720     1.0870 S.3   1 <1>  -0.0800 
  2 C       -1.5110    -0.7350    -0.3890 C.2   1 <1>   0.4420 
  3 C       -0.7430     1.4680     0.1590 C.2   1 <1>   0.1980 
  4 N       -1.0700    -0.0640    -1.3930 N.2   1 <1>  -0.3380 
  5 N       -2.0210    -2.0120    -0.2940 N.am  1 <1>  -0.4940 
  6 N       -0.6350     1.1900    -1.0740 N.2   1 <1>  -0.3380 
  7 C       -0.3660     2.7520     0.8640 C.3   1 <1>   0.0200 
  8 C       -2.3120    -2.9280    -1.2780 C.2   1 <1>   0.5440 
  9 C        0.2130     3.7280    -0.1680 C.3   1 <1>   0.3430 
 10 O       -2.2230    -2.5900    -2.4390 O.2   1 <1>  -0.5700 
 11 C       -2.7120    -4.2900    -0.9590 C.ar  1 <1>   0.0860 
 12 N        0.6800     5.0200     0.4400 N.4   1 <1>  -0.9590 
 13 C       -3.1990    -4.7040     0.2890 C.ar  1 <1>   0.1900 
 14 C       -2.6200    -5.2850    -1.9410 C.ar  1 <1>  -0.1500 
 15 C       -0.4540     5.8600     0.9440 C.3   1 <1>   0.2630 
 16 C        1.4720     5.7880    -0.5710 C.3   1 <1>   0.2630 
 17 F       -3.3200    -3.8140     1.2430 F     1 <1>  -0.1900 
 18 C       -3.5750    -6.0110     0.5900 C.ar  1 <1>   0.0830 
 19 C       -2.9820    -6.5950    -1.6910 C.ar  1 <1>  -0.1500 
 20 O       -4.0270    -6.2560     1.8600 O.3   1 <1>  -0.3620 
 21 C       -3.4510    -6.9480    -0.4390 C.ar  1 <1>   0.1900 
 22 C       -4.4990    -7.5140     2.2920 C.3   1 <1>   0.0400 
 23 F       -3.7690    -8.2040    -0.2750 F     1 <1>  -0.1900 
 24 H       -2.2460    -2.3160     0.6520 H     1 <1>   0.3700 
 25 H        0.3650     2.5290     1.6180 H     1 <1>   0.0800 
 26 H       -1.2480     3.1600     1.3210 H     1 <1>   0.0800 
 27 H       -0.5310     3.9250    -0.9230 H     1 <1>   0.0800 
 28 H        1.0440     3.2420    -0.6560 H     1 <1>   0.0800 
 29 H        1.3100     4.8030     1.2290 H     1 <1>   0.4500 
 30 H       -2.2560    -5.0210    -2.9220 H     1 <1>   0.1500 
 31 H       -1.1370     6.0900     0.1410 H     1 <1>   0.0800 
 32 H       -0.0810     6.7850     1.3520 H     1 <1>   0.0800 
 33 H       -0.9950     5.3410     1.7190 H     1 <1>   0.0800 
 34 H        0.8570     6.0340    -1.4220 H     1 <1>   0.0800 
 35 H        2.3120     5.2040    -0.9130 H     1 <1>   0.0800 
 36 H        1.8450     6.7030    -0.1400 H     1 <1>   0.0800 
 37 H       -2.9020    -7.3440    -2.4610 H     1 <1>   0.1500 
 38 H       -4.8210    -7.4170     3.3130 H     1 <1>   0.0800 
 39 H       -3.6990    -8.2300     2.2310 H     1 <1>   0.0800 
 40 H       -5.3300    -7.8090     1.6760 H     1 <1>   0.0800 
@<TRIPOS>BOND
  1   1   2  1   
  2   1   3  1   
  3   2   4  2   
  4   2   5  1   
  5   3   6  2   
  6   3   7  1   
  7   4   6  1   
  8   5   8  am  
  9   5  24  1   
 10   7   9  1   
 11   7  25  1   
 12   7  26  1   
 13   8  10  2   
 14   8  11  1   
 15   9  12  1   
 16   9  27  1   
 17   9  28  1   
 18  11  13  ar  
 19  11  14  ar  
 20  12  15  1   
 21  12  16  1   
 22  12  29  1   
 23  13  17  1   
 24  13  18  ar  
 25  14  19  ar  
 26  14  30  1   
 27  15  31  1   
 28  15  32  1   
 29  15  33  1   
 30  16  34  1   
 31  16  35  1   
 32  16  36  1   
 33  18  20  1   
 34  18  21  ar  
 35  19  21  ar  
 36  19  37  1   
 37  20  22  1   
 38  21  23  1   
 39  22  38  1   
 40  22  39  1   
 41  22  40  1   
@<TRIPOS>SUBSTRUCTURE
  1 ****   5 GROUP 4 **** **** 0

# MOE 2024.06 (io_trps.svl 2023.06)
