@<TRIPOS>MOLECULE
NONAME
48 51 1 0 0 
SMALL
USER_CHARGES


@<TRIPOS>ATOM
  1 O       -1.4680     0.6640     2.6880 O.2   1 <1>  -0.5700 
  2 C       -1.9710     1.2410     1.7450 C.2   1 <1>   0.5440 
  3 N       -2.9920     0.6380     1.0550 N.am  1 <1>  -0.6600 
  4 C       -1.4140     2.4980     1.3030 C.ar  1 <1>   0.0860 
  5 C       -3.7970     1.2510    -0.0360 C.3   1 <1>   0.1400 
  6 C       -3.1630    -0.8320     1.0310 C.3   1 <1>   0.1400 
  7 C       -0.5540     2.5480     0.1970 C.ar  1 <1>  -0.0230 
  8 C       -1.7150     3.6840     1.9690 C.ar  1 <1>  -0.1500 
  9 C       -4.4830     0.0810    -0.7600 C.3   1 <1>   0.2000 
 10 C       -3.6200    -1.1290    -0.3970 C.3   1 <1>  -0.0800 
 11 N       -0.2290     1.3620    -0.5130 N.pl3 1 <1>   0.3260 
 12 C       -0.0310     3.7690    -0.2170 C.ar  1 <1>  -0.1500 
 13 C       -1.1920     4.8920     1.5500 C.ar  1 <1>  -0.1500 
 14 O       -5.7690    -0.1120    -0.2420 O.3   1 <1>  -0.5600 
 15 C       -4.3130    -2.4950    -0.5430 C.3   1 <1>   0.0200 
 16 C        0.2250     0.1790    -0.0720 C.2   1 <1>   0.0360 
 17 C       -0.4420     1.0940    -1.8090 C.2   1 <1>   0.0360 
 18 C       -0.3490     4.9350     0.4540 C.ar  1 <1>  -0.1500 
 19 C       -6.7690     0.6580    -0.8300 C.3   1 <1>   0.0400 
 20 C       -3.3430    -3.6530    -0.3850 C.2   1 <1>  -0.0400 
 21 N        0.2730    -0.7110    -1.0020 N.2   1 <1>  -0.3380 
 22 N       -0.1570    -0.1220    -2.1190 N.2   1 <1>  -0.3380 
 23 O       -3.8120    -4.8650    -0.2410 O.3   1 <1>  -0.0190 
 24 C       -2.0020    -3.7300    -0.3650 C.2   1 <1>  -0.1500 
 25 N       -2.8600    -5.7450    -0.1220 N.2   1 <1>  -0.4100 
 26 C       -1.7580    -5.0880    -0.1950 C.2   1 <1>   0.1080 
 27 C       -0.3820    -5.7100    -0.1070 C.3   1 <1>  -0.0590 
 28 H       -4.5160     1.9400     0.3690 H     1 <1>   0.0800 
 29 H       -3.1470     1.7650    -0.7200 H     1 <1>   0.0800 
 30 H       -2.2450    -1.3410     1.2720 H     1 <1>   0.0800 
 31 H       -3.9250    -1.1050     1.7410 H     1 <1>   0.0800 
 32 H       -2.3650     3.6480     2.8270 H     1 <1>   0.1500 
 33 H       -4.5450     0.2240    -1.8250 H     1 <1>   0.0800 
 34 H       -2.7540    -1.1110    -1.0350 H     1 <1>   0.0800 
 35 H        0.6330     3.8160    -1.0640 H     1 <1>   0.1500 
 36 H       -1.4370     5.8000     2.0770 H     1 <1>   0.1500 
 37 H       -4.7720    -2.5660    -1.5120 H     1 <1>   0.0800 
 38 H       -5.0910    -2.5870     0.1960 H     1 <1>   0.0800 
 39 H        0.4990     0.0150     0.9560 H     1 <1>   0.1500 
 40 H       -0.8160     1.8310    -2.4940 H     1 <1>   0.1500 
 41 H        0.0600     5.8770     0.1290 H     1 <1>   0.1500 
 42 H       -7.6980     0.4300    -0.3370 H     1 <1>   0.0800 
 43 H       -6.8450     0.4060    -1.8740 H     1 <1>   0.0800 
 44 H       -6.5440     1.7030    -0.7060 H     1 <1>   0.0800 
 45 H       -1.2580    -2.9610    -0.4610 H     1 <1>   0.1500 
 46 H        0.2150    -5.3890    -0.9410 H     1 <1>   0.0800 
 47 H       -0.4620    -6.7810    -0.1250 H     1 <1>   0.0800 
 48 H        0.0930    -5.4090     0.8070 H     1 <1>   0.0800 
@<TRIPOS>BOND
  1   1   2  2   
  2   2   3  am  
  3   2   4  1   
  4   3   5  1   
  5   3   6  1   
  6   4   7  ar  
  7   4   8  ar  
  8   5   9  1   
  9   5  28  1   
 10   5  29  1   
 11   6  10  1   
 12   6  30  1   
 13   6  31  1   
 14   7  11  1   
 15   7  12  ar  
 16   8  13  ar  
 17   8  32  1   
 18   9  10  1   
 19   9  14  1   
 20   9  33  1   
 21  10  15  1   
 22  10  34  1   
 23  11  16  1   
 24  11  17  1   
 25  12  18  ar  
 26  12  35  1   
 27  13  18  ar  
 28  13  36  1   
 29  14  19  1   
 30  15  20  1   
 31  15  37  1   
 32  15  38  1   
 33  16  21  2   
 34  16  39  1   
 35  17  22  2   
 36  17  40  1   
 37  18  41  1   
 38  19  42  1   
 39  19  43  1   
 40  19  44  1   
 41  20  23  1   
 42  20  24  2   
 43  21  22  1   
 44  23  25  1   
 45  24  26  1   
 46  24  45  1   
 47  25  26  2   
 48  26  27  1   
 49  27  46  1   
 50  27  47  1   
 51  27  48  1   
@<TRIPOS>SUBSTRUCTURE
  1 ****   3 GROUP 4 **** **** 0

# MOE 2024.06 (io_trps.svl 2023.06)
