@<TRIPOS>MOLECULE
NONAME
45 47 1 0 0 
SMALL
USER_CHARGES


@<TRIPOS>ATOM
  1 F       -1.9380     1.0880     3.0390 F     1 <1>  -0.1900 
  2 C       -2.4430     1.5020     1.8960 C.ar  1 <1>   0.1900 
  3 C       -1.9160     2.6580     1.2830 C.ar  1 <1>  -0.1710 
  4 C       -3.4750     0.7830     1.3520 C.ar  1 <1>  -0.1500 
  5 O       -0.9900     3.3560     1.7640 O.3   1 <1>  -0.8290 
  6 C       -2.4810     3.0310     0.0590 C.ar  1 <1>  -0.1500 
  7 C       -4.0640     1.1840     0.1440 C.ar  1 <1>   0.0860 
  8 C       -3.5170     2.3130    -0.4900 C.ar  1 <1>  -0.1500 
  9 C       -5.1860     0.4750    -0.4060 C.2   1 <1>   0.5440 
 10 O       -5.1870    -0.7490    -0.4300 O.2   1 <1>  -0.5700 
 11 N       -6.3010     1.1350    -0.9010 N.am  1 <1>  -0.6600 
 12 C       -7.3270     0.4450    -1.7200 C.3   1 <1>   0.1400 
 13 C       -6.7270     2.4740    -0.4220 C.3   1 <1>   0.1400 
 14 C       -8.6140     0.2940    -0.9060 C.3   1 <1>  -0.1600 
 15 C       -8.0060     2.3280     0.4030 C.3   1 <1>  -0.1600 
 16 C       -9.1580     1.6440    -0.3770 C.3   1 <1>   0.2800 
 17 O       -9.4880     2.3960    -1.5250 O.3   1 <1>  -0.5600 
 18 C      -10.4540     1.4350     0.4790 C.3   1 <1>   0.2000 
 19 C      -10.0680     3.6570    -1.3340 C.3   1 <1>   0.1200 
 20 O      -11.3000     0.5380    -0.1890 O.3   1 <1>  -0.6800 
 21 C      -11.2460     2.7540     0.7270 C.3   1 <1>   0.2800 
 22 C      -11.4010     3.5240    -0.5900 C.3   1 <1>  -0.1600 
 23 O      -10.5550     3.5640     1.6070 O.3   1 <1>  -0.6800 
 24 C      -12.6080     2.5270     1.3970 C.3   1 <1>  -0.2400 
 25 H       -3.8430    -0.0910     1.8540 H     1 <1>   0.1500 
 26 H       -2.0680     3.8980    -0.4210 H     1 <1>   0.1500 
 27 H       -3.9280     2.6200    -1.4340 H     1 <1>   0.1500 
 28 H       -7.5200     1.0270    -2.6040 H     1 <1>   0.0800 
 29 H       -6.9740    -0.5240    -2.0300 H     1 <1>   0.0800 
 30 H       -5.9660     2.9260     0.1910 H     1 <1>   0.0800 
 31 H       -6.9030     3.1140    -1.2700 H     1 <1>   0.0800 
 32 H       -8.4150    -0.3620    -0.0770 H     1 <1>   0.0800 
 33 H       -9.3410    -0.1890    -1.5300 H     1 <1>   0.0800 
 34 H       -8.2800     3.2970     0.7630 H     1 <1>   0.0800 
 35 H       -7.7770     1.7370     1.2720 H     1 <1>   0.0800 
 36 H      -10.2090     0.9810     1.4220 H     1 <1>   0.0800 
 37 H       -9.3820     4.2880    -0.7990 H     1 <1>   0.0800 
 38 H      -10.2300     4.0860    -2.3070 H     1 <1>   0.0800 
 39 H      -11.3120     0.7880    -1.1350 H     1 <1>   0.4000 
 40 H      -12.0890     3.0020    -1.2310 H     1 <1>   0.0800 
 41 H      -11.8150     4.4990    -0.4070 H     1 <1>   0.0800 
 42 H      -11.1330     4.2930     1.8960 H     1 <1>   0.4000 
 43 H      -13.2470     1.9450     0.7590 H     1 <1>   0.0800 
 44 H      -13.1030     3.4600     1.5960 H     1 <1>   0.0800 
 45 H      -12.4810     1.9850     2.3180 H     1 <1>   0.0800 
@<TRIPOS>BOND
  1   1   2  1   
  2   2   3  ar  
  3   2   4  ar  
  4   3   5  1   
  5   3   6  ar  
  6   4   7  ar  
  7   4  25  1   
  8   6   8  ar  
  9   6  26  1   
 10   7   8  ar  
 11   7   9  1   
 12   8  27  1   
 13   9  10  2   
 14   9  11  am  
 15  11  12  1   
 16  11  13  1   
 17  12  14  1   
 18  12  28  1   
 19  12  29  1   
 20  13  15  1   
 21  13  30  1   
 22  13  31  1   
 23  14  16  1   
 24  14  32  1   
 25  14  33  1   
 26  15  16  1   
 27  15  34  1   
 28  15  35  1   
 29  16  17  1   
 30  16  18  1   
 31  17  19  1   
 32  18  20  1   
 33  18  21  1   
 34  18  36  1   
 35  19  22  1   
 36  19  37  1   
 37  19  38  1   
 38  20  39  1   
 39  21  22  1   
 40  21  23  1   
 41  21  24  1   
 42  22  40  1   
 43  22  41  1   
 44  23  42  1   
 45  24  43  1   
 46  24  44  1   
 47  24  45  1   
@<TRIPOS>SUBSTRUCTURE
  1 ****  13 GROUP 4 **** **** 0

# MOE 2024.06 (io_trps.svl 2023.06)
