@<TRIPOS>MOLECULE
NONAME
39 41 1 0 0 
SMALL
USER_CHARGES


@<TRIPOS>ATOM
  1 O        1.9080     0.0500     2.0680 O.2   1 <1>  -0.5700 
  2 C        2.1860    -0.5960     1.0730 C.2   1 <1>   0.7150 
  3 N        3.0040    -0.0320     0.1350 N.am  1 <1>  -0.6600 
  4 C        1.6080    -1.8930     0.8600 C.2   1 <1>  -0.2370 
  5 C        3.0200     1.4210    -0.0860 C.3   1 <1>   0.4010 
  6 C        3.9050    -0.7460    -0.7850 C.3   1 <1>   0.1400 
  7 N        0.2500    -2.0860     0.8470 N.pl3 1 <1>   0.0480 
  8 C        2.2000    -3.1100     0.6290 C.2   1 <1>  -0.1500 
  9 C        1.6120     1.9210    -0.3880 C.2   1 <1>  -0.1810 
 10 C        3.9910     1.6310    -1.2510 C.3   1 <1>  -0.1600 
 11 C        4.8150     0.3440    -1.3380 C.3   1 <1>  -0.1600 
 12 C        0.0110    -3.3960     0.6030 C.2   1 <1>  -0.3020 
 13 C       -0.7780    -1.0460     1.0560 C.3   1 <1>   0.0160 
 14 C        1.1920    -4.0550     0.4650 C.2   1 <1>  -0.1500 
 15 C        0.7400     1.6000    -1.3620 C.2   1 <1>  -0.0400 
 16 C        0.9000     2.8470     0.3760 C.2   1 <1>   0.1080 
 17 O       -0.3490     2.2950    -1.1740 O.3   1 <1>  -0.0190 
 18 C        0.7880     0.6380    -2.5310 C.3   1 <1>  -0.0600 
 19 N       -0.2660     3.0540    -0.1220 N.2   1 <1>  -0.4100 
 20 C        1.3920     3.5210     1.6390 C.3   1 <1>  -0.0590 
 21 H        3.4110     1.8900     0.8000 H     1 <1>   0.0800 
 22 H        3.3270    -1.2040    -1.5690 H     1 <1>   0.0800 
 23 H        4.4710    -1.4980    -0.2620 H     1 <1>   0.0800 
 24 H        3.2530    -3.3250     0.5860 H     1 <1>   0.1500 
 25 H        4.6080     2.4950    -1.0870 H     1 <1>   0.0800 
 26 H        3.4450     1.7770    -2.1650 H     1 <1>   0.0800 
 27 H        5.1340     0.1280    -2.3420 H     1 <1>   0.0800 
 28 H        5.6830     0.4250    -0.7060 H     1 <1>   0.0800 
 29 H       -0.9830    -3.8020     0.5410 H     1 <1>   0.1500 
 30 H       -0.6070    -0.2290     0.3780 H     1 <1>   0.0800 
 31 H       -0.7150    -0.6840     2.0660 H     1 <1>   0.0800 
 32 H       -1.7540    -1.4580     0.8820 H     1 <1>   0.0800 
 33 H        1.3410    -5.1030     0.2700 H     1 <1>   0.1500 
 34 H        1.7280     0.1220    -2.5640 H     1 <1>   0.0800 
 35 H        0.6520     1.1770    -3.4500 H     1 <1>   0.0800 
 36 H        0.0020    -0.0880    -2.4320 H     1 <1>   0.0800 
 37 H        1.6200     2.7780     2.3820 H     1 <1>   0.0800 
 38 H        0.6300     4.1730     2.0270 H     1 <1>   0.0800 
 39 H        2.2710     4.1000     1.4300 H     1 <1>   0.0800 
@<TRIPOS>BOND
  1   1   2  2   
  2   2   3  am  
  3   2   4  1   
  4   3   5  1   
  5   3   6  1   
  6   4   7  1   
  7   4   8  2   
  8   5   9  1   
  9   5  10  1   
 10   5  21  1   
 11   6  11  1   
 12   6  22  1   
 13   6  23  1   
 14   7  12  1   
 15   7  13  1   
 16   8  14  1   
 17   8  24  1   
 18   9  15  2   
 19   9  16  1   
 20  10  11  1   
 21  10  25  1   
 22  10  26  1   
 23  11  27  1   
 24  11  28  1   
 25  12  14  2   
 26  12  29  1   
 27  13  30  1   
 28  13  31  1   
 29  13  32  1   
 30  14  33  1   
 31  15  17  1   
 32  15  18  1   
 33  16  19  2   
 34  16  20  1   
 35  17  19  1   
 36  18  34  1   
 37  18  35  1   
 38  18  36  1   
 39  20  37  1   
 40  20  38  1   
 41  20  39  1   
@<TRIPOS>SUBSTRUCTURE
  1 ****   2 GROUP 4 **** **** 0

# MOE 2024.06 (io_trps.svl 2023.06)
