@<TRIPOS>MOLECULE
NONAME
49 51 1 0 0 
SMALL
USER_CHARGES


@<TRIPOS>ATOM
  1 O       -0.8170    -0.3430    -0.9260 O.2   1 <1>  -0.5700 
  2 C       -1.6290     0.3730    -0.3790 C.2   1 <1>   0.6340 
  3 O       -1.4590     1.6990    -0.4350 O.3   1 <1>  -0.4300 
  4 C       -2.7880    -0.1360     0.3310 C.ar  1 <1>   0.0860 
  5 C       -0.3570     2.2800    -1.1050 C.3   1 <1>   0.0400 
  6 C       -3.7600     0.7150     0.8610 C.ar  1 <1>  -0.1500 
  7 C       -2.9760    -1.5080     0.5060 C.ar  1 <1>  -0.1500 
  8 C       -4.8570     0.2030     1.5290 C.ar  1 <1>   0.0830 
  9 C       -4.0790    -2.0450     1.1650 C.ar  1 <1>   0.0860 
 10 O       -5.7860     1.0260     2.0340 O.3   1 <1>  -0.5320 
 11 C       -5.0160    -1.1580     1.6860 C.ar  1 <1>  -0.1500 
 12 C       -4.2380    -3.4800     1.3010 C.2   1 <1>   0.5440 
 13 O       -3.3210    -4.1500     1.7330 O.2   1 <1>  -0.5700 
 14 N       -5.4040    -4.1060     0.9260 N.am  1 <1>  -0.6600 
 15 C       -6.4080    -3.5350    -0.0100 C.3   1 <1>   0.1400 
 16 C       -5.6270    -5.5620     1.0710 C.3   1 <1>   0.1400 
 17 C       -7.3040    -4.7080    -0.4320 C.3   1 <1>   0.2000 
 18 C       -6.4470    -5.9490    -0.1610 C.3   1 <1>  -0.0800 
 19 O       -8.4380    -4.7560     0.3870 O.3   1 <1>  -0.5600 
 20 C       -7.2420    -7.2550     0.0150 C.3   1 <1>   0.0200 
 21 C       -9.5030    -3.9570    -0.0220 C.3   1 <1>   0.0400 
 22 C       -6.3550    -8.4860     0.1070 C.2   1 <1>  -0.0400 
 23 O       -6.9130    -9.6450     0.3390 O.3   1 <1>  -0.0190 
 24 C       -5.0320    -8.6870    -0.0050 C.2   1 <1>  -0.1500 
 25 N       -6.0370   -10.6070     0.3900 N.2   1 <1>  -0.4100 
 26 C       -4.8940   -10.0580     0.1880 C.2   1 <1>   0.1080 
 27 C       -3.5810   -10.8080     0.1650 C.3   1 <1>  -0.0590 
 28 H       -0.4280     3.3490    -1.0160 H     1 <1>   0.0800 
 29 H       -0.3880     1.9900    -2.1410 H     1 <1>   0.0800 
 30 H        0.5520     1.9280    -0.6490 H     1 <1>   0.0800 
 31 H       -3.6540     1.7780     0.7490 H     1 <1>   0.1500 
 32 H       -2.2380    -2.1890     0.1160 H     1 <1>   0.1500 
 33 H       -5.5830     1.9720     1.9170 H     1 <1>   0.4500 
 34 H       -5.8700    -1.5340     2.2220 H     1 <1>   0.1500 
 35 H       -6.9790    -2.7580     0.4650 H     1 <1>   0.0800 
 36 H       -5.8960    -3.1380    -0.8690 H     1 <1>   0.0800 
 37 H       -4.6970    -6.1010     1.1220 H     1 <1>   0.0800 
 38 H       -6.1920    -5.7360     1.9710 H     1 <1>   0.0800 
 39 H       -7.6110    -4.6490    -1.4630 H     1 <1>   0.0800 
 40 H       -5.7660    -6.0630    -0.9860 H     1 <1>   0.0800 
 41 H       -7.9080    -7.3810    -0.8190 H     1 <1>   0.0800 
 42 H       -7.8430    -7.1990     0.9060 H     1 <1>   0.0800 
 43 H      -10.2990    -4.0720     0.6930 H     1 <1>   0.0800 
 44 H       -9.8400    -4.2810    -0.9920 H     1 <1>   0.0800 
 45 H       -9.1940    -2.9270    -0.0520 H     1 <1>   0.0800 
 46 H       -4.2330    -7.9940    -0.1960 H     1 <1>   0.1500 
 47 H       -2.9100   -10.3920     0.8940 H     1 <1>   0.0800 
 48 H       -3.1370   -10.7360    -0.8100 H     1 <1>   0.0800 
 49 H       -3.7470   -11.8450     0.3970 H     1 <1>   0.0800 
@<TRIPOS>BOND
  1   1   2  2   
  2   2   3  1   
  3   2   4  1   
  4   3   5  1   
  5   4   6  ar  
  6   4   7  ar  
  7   5  28  1   
  8   5  29  1   
  9   5  30  1   
 10   6   8  ar  
 11   6  31  1   
 12   7   9  ar  
 13   7  32  1   
 14   8  10  1   
 15   8  11  ar  
 16   9  11  ar  
 17   9  12  1   
 18  10  33  1   
 19  11  34  1   
 20  12  13  2   
 21  12  14  am  
 22  14  15  1   
 23  14  16  1   
 24  15  17  1   
 25  15  35  1   
 26  15  36  1   
 27  16  18  1   
 28  16  37  1   
 29  16  38  1   
 30  17  18  1   
 31  17  19  1   
 32  17  39  1   
 33  18  20  1   
 34  18  40  1   
 35  19  21  1   
 36  20  22  1   
 37  20  41  1   
 38  20  42  1   
 39  21  43  1   
 40  21  44  1   
 41  21  45  1   
 42  22  23  1   
 43  22  24  2   
 44  23  25  1   
 45  24  26  1   
 46  24  46  1   
 47  25  26  2   
 48  26  27  1   
 49  27  47  1   
 50  27  48  1   
 51  27  49  1   
@<TRIPOS>SUBSTRUCTURE
  1 ****  14 GROUP 4 **** **** 0

# MOE 2024.06 (io_trps.svl 2023.06)
