@<TRIPOS>MOLECULE
NONAME
48 50 1 0 0 
SMALL
USER_CHARGES


@<TRIPOS>ATOM
  1 CL      -1.5770     1.3860    -2.0090 Cl    1 <1>  -0.1770 
  2 C       -0.7850     2.7500    -1.2630 C.ar  1 <1>   0.1770 
  3 C       -1.5470     3.7970    -0.7810 C.ar  1 <1>  -0.1500 
  4 C        0.5940     2.7630    -1.1640 C.ar  1 <1>  -0.1500 
  5 C       -0.9150     4.8780    -0.1900 C.ar  1 <1>  -0.1500 
  6 C        1.2200     3.8480    -0.5720 C.ar  1 <1>  -0.1500 
  7 C        0.4690     4.9090    -0.0840 C.ar  1 <1>  -0.1430 
  8 C        1.1520     6.1010     0.5650 C.3   1 <1>  -0.0160 
  9 C        1.2890     7.2530    -0.4390 C.3   1 <1>  -0.0990 
 10 C        1.9750     8.4590     0.1760 C.2   1 <1>   0.5690 
 11 O        1.3790     9.5090     0.2000 O.2   1 <1>  -0.5700 
 12 N        3.2550     8.3970     0.6540 N.am  1 <1>  -0.6600 
 13 C        3.7110     9.3960     1.6940 C.3   1 <1>   0.1400 
 14 C        4.3470     7.6680    -0.0590 C.3   1 <1>   0.1400 
 15 C        4.4390    10.6220     1.0840 C.3   1 <1>   0.4230 
 16 C        5.3050     8.5980    -0.8500 C.3   1 <1>  -0.0800 
 17 N        3.9880    10.7620    -0.3490 N.4   1 <1>  -0.9590 
 18 C        5.9710    10.5340     1.3160 C.3   1 <1>   0.1200 
 19 C        6.6480     8.8080    -0.1340 C.3   1 <1>   0.1200 
 20 C        4.7510     9.9500    -1.3500 C.3   1 <1>   0.3430 
 21 C        3.9560    12.2250    -0.7740 C.3   1 <1>   0.2370 
 22 O        6.4550     9.2270     1.1730 O.3   1 <1>  -0.5600 
 23 C        5.3050    12.9410    -0.7120 C.2   1 <1>   0.9060 
 24 O        5.5920    13.5290     0.3330 O.co2 1 <1>  -0.9000 
 25 O        6.1050    12.7490    -1.6320 O.co2 1 <1>  -0.9000 
 26 H       -2.6180     3.7620    -0.8690 H     1 <1>   0.1500 
 27 H        1.1620     1.9340    -1.5450 H     1 <1>   0.1500 
 28 H       -1.5070     5.6950     0.1870 H     1 <1>   0.1500 
 29 H        2.2930     3.8560    -0.4930 H     1 <1>   0.1500 
 30 H        0.5740     6.4290     1.4120 H     1 <1>   0.0800 
 31 H        2.1220     5.8100     0.9290 H     1 <1>   0.0800 
 32 H        0.3070     7.5480    -0.7630 H     1 <1>   0.0800 
 33 H        1.8240     6.9270    -1.3100 H     1 <1>   0.0800 
 34 H        2.8520     9.7560     2.2320 H     1 <1>   0.0800 
 35 H        4.3380     8.9050     2.4190 H     1 <1>   0.0800 
 36 H        4.9080     7.0950     0.6610 H     1 <1>   0.0800 
 37 H        3.9180     6.9620    -0.7470 H     1 <1>   0.0800 
 38 H        4.1080    11.4970     1.6180 H     1 <1>   0.0800 
 39 H        5.5710     8.0600    -1.7420 H     1 <1>   0.0800 
 40 H        3.0170    10.3980    -0.3300 H     1 <1>   0.4500 
 41 H        6.1740    10.8210     2.3320 H     1 <1>   0.0800 
 42 H        6.5310    11.1970     0.6810 H     1 <1>   0.0800 
 43 H        7.2690     9.5270    -0.6450 H     1 <1>   0.0800 
 44 H        7.1850     7.8760    -0.0840 H     1 <1>   0.0800 
 45 H        4.1080     9.7690    -2.1950 H     1 <1>   0.0800 
 46 H        5.5840    10.5330    -1.7110 H     1 <1>   0.0800 
 47 H        3.6000    12.3020    -1.7850 H     1 <1>   0.0800 
 48 H        3.2830    12.7700    -0.1380 H     1 <1>   0.0800 
@<TRIPOS>BOND
  1   1   2  1   
  2   2   3  ar  
  3   2   4  ar  
  4   3   5  ar  
  5   3  26  1   
  6   4   6  ar  
  7   4  27  1   
  8   5   7  ar  
  9   5  28  1   
 10   6   7  ar  
 11   6  29  1   
 12   7   8  1   
 13   8   9  1   
 14   8  30  1   
 15   8  31  1   
 16   9  10  1   
 17   9  32  1   
 18   9  33  1   
 19  10  11  2   
 20  10  12  am  
 21  12  13  1   
 22  12  14  1   
 23  13  15  1   
 24  13  34  1   
 25  13  35  1   
 26  14  16  1   
 27  14  36  1   
 28  14  37  1   
 29  15  17  1   
 30  15  18  1   
 31  15  38  1   
 32  16  19  1   
 33  16  20  1   
 34  16  39  1   
 35  17  20  1   
 36  17  21  1   
 37  17  40  1   
 38  18  22  1   
 39  18  41  1   
 40  18  42  1   
 41  19  22  1   
 42  19  43  1   
 43  19  44  1   
 44  20  45  1   
 45  20  46  1   
 46  21  23  1   
 47  21  47  1   
 48  21  48  1   
 49  23  24  ar  
 50  23  25  ar  
@<TRIPOS>SUBSTRUCTURE
  1 ****  12 GROUP 4 **** **** 0

# MOE 2024.06 (io_trps.svl 2023.06)
