@<TRIPOS>MOLECULE
NONAME
45 47 1 0 0 
SMALL
USER_CHARGES


@<TRIPOS>ATOM
  1 S        0.7250     0.6190    -0.7210 S.o2  1 <1>   1.3330 
  2 O       -0.3520     1.5200    -1.0660 O.2   1 <1>  -0.6500 
  3 O        0.7270    -0.7270    -1.2490 O.2   1 <1>  -0.6500 
  4 N        0.7530     0.5100     0.9750 N.am  1 <1>  -0.8490 
  5 C        2.2940     1.3840    -1.1290 C.3   1 <1>  -0.0550 
  6 C        0.4550     1.7830     1.6400 C.3   1 <1>   0.1160 
  7 C       -0.1510    -0.5320     1.4690 C.3   1 <1>   0.1160 
  8 C        3.5220     0.4660    -0.9410 C.3   1 <1>  -0.0800 
  9 C        4.8540     1.0790    -1.3470 C.3   1 <1>   0.2200 
 10 C        3.7890     0.0240     0.5020 C.3   1 <1>   0.1200 
 11 N        4.9660     2.4630    -0.8350 N.am  1 <1>  -0.7300 
 12 C        5.8150     0.1910    -0.5700 C.3   1 <1>   0.1200 
 13 O        5.1770    -0.0780     0.6430 O.3   1 <1>  -0.5600 
 14 C        4.6330     3.6020    -1.5040 C.2   1 <1>   0.5440 
 15 O        4.3570     3.5000    -2.6840 O.2   1 <1>  -0.5700 
 16 C        4.6040     4.8980    -0.8510 C.ar  1 <1>   0.0860 
 17 C        4.2680     5.0530     0.5250 C.ar  1 <1>   0.3100 
 18 C        4.9120     6.0240    -1.5930 C.ar  1 <1>  -0.1500 
 19 N        3.9200     3.9740     1.2960 N.ar  1 <1>  -0.6200 
 20 C        4.2940     6.3570     1.0920 C.ar  1 <1>   0.3100 
 21 C        4.9220     7.2990    -1.0360 C.ar  1 <1>  -0.1500 
 22 C        3.6660     4.2440     2.5380 C.ar  1 <1>   0.1600 
 23 N        4.0140     6.5950     2.4000 N.ar  1 <1>  -0.6200 
 24 C        4.6200     7.4560     0.2880 C.ar  1 <1>  -0.1500 
 25 C        3.7140     5.5390     3.0840 C.ar  1 <1>   0.1600 
 26 H        2.2650     1.6870    -2.1590 H     1 <1>   0.0800 
 27 H        2.4080     2.2730    -0.5420 H     1 <1>   0.0800 
 28 H        0.5580     1.6750     2.7060 H     1 <1>   0.0800 
 29 H       -0.5510     2.1000     1.4160 H     1 <1>   0.0800 
 30 H        1.1380     2.5460     1.3090 H     1 <1>   0.0800 
 31 H       -0.1040    -0.5900     2.5430 H     1 <1>   0.0800 
 32 H        0.1350    -1.4900     1.0680 H     1 <1>   0.0800 
 33 H       -1.1650    -0.3210     1.1690 H     1 <1>   0.0800 
 34 H        3.3720    -0.4230    -1.5300 H     1 <1>   0.0800 
 35 H        5.0290     1.0490    -2.4100 H     1 <1>   0.0800 
 36 H        3.3390    -0.9290     0.7220 H     1 <1>   0.0800 
 37 H        3.4480     0.7600     1.2090 H     1 <1>   0.0800 
 38 H        5.0030     2.5190     0.1910 H     1 <1>   0.3700 
 39 H        6.7630     0.6660    -0.3850 H     1 <1>   0.0800 
 40 H        5.9650    -0.7450    -1.0780 H     1 <1>   0.0800 
 41 H        5.1540     5.9210    -2.6390 H     1 <1>   0.1500 
 42 H        5.1690     8.1490    -1.6520 H     1 <1>   0.1500 
 43 H        3.4030     3.4360     3.1980 H     1 <1>   0.1500 
 44 H        4.6250     8.4300     0.7460 H     1 <1>   0.1500 
 45 H        3.4870     5.6530     4.1300 H     1 <1>   0.1500 
@<TRIPOS>BOND
  1   1   2  2   
  2   1   3  2   
  3   1   4  am  
  4   1   5  1   
  5   4   6  1   
  6   4   7  1   
  7   5   8  1   
  8   5  26  1   
  9   5  27  1   
 10   6  28  1   
 11   6  29  1   
 12   6  30  1   
 13   7  31  1   
 14   7  32  1   
 15   7  33  1   
 16   8   9  1   
 17   8  10  1   
 18   8  34  1   
 19   9  11  1   
 20   9  12  1   
 21   9  35  1   
 22  10  13  1   
 23  10  36  1   
 24  10  37  1   
 25  11  14  am  
 26  11  38  1   
 27  12  13  1   
 28  12  39  1   
 29  12  40  1   
 30  14  15  2   
 31  14  16  1   
 32  16  17  ar  
 33  16  18  ar  
 34  17  19  ar  
 35  17  20  ar  
 36  18  21  ar  
 37  18  41  1   
 38  19  22  ar  
 39  20  23  ar  
 40  20  24  ar  
 41  21  24  ar  
 42  21  42  1   
 43  22  25  ar  
 44  22  43  1   
 45  23  25  ar  
 46  24  44  1   
 47  25  45  1   
@<TRIPOS>SUBSTRUCTURE
  1 ****  19 GROUP 4 **** **** 0

# MOE 2024.06 (io_trps.svl 2023.06)
