@<TRIPOS>MOLECULE
NONAME
23 23 1 0 0 
SMALL
USER_CHARGES


@<TRIPOS>ATOM
  1 F        0.5050     1.3040     1.3200 F     1 <1>  -0.3400 
  2 C       -0.0200     1.6750     0.1610 C.3   1 <1>   1.1640 
  3 F       -1.2910     1.2980     0.1870 F     1 <1>  -0.3400 
  4 F        0.5720     0.9440    -0.7750 F     1 <1>  -0.3400 
  5 C        0.1210     3.1780    -0.0680 C.ar  1 <1>  -0.1440 
  6 C       -0.4580     4.0400     0.8490 C.ar  1 <1>   0.1600 
  7 C        0.7990     3.7220    -1.1470 C.ar  1 <1>  -0.1500 
  8 N       -0.4150     5.3640     0.7800 N.ar  1 <1>  -0.6200 
  9 C        0.8500     5.0970    -1.2370 C.ar  1 <1>  -0.1500 
 10 C        0.2340     5.8710    -0.2660 C.ar  1 <1>   0.1660 
 11 C        0.2850     7.4020    -0.3630 C.3   1 <1>   0.5670 
 12 N        0.2050     7.9490     1.0000 N.4   1 <1>  -0.8530 
 13 C       -0.9080     7.9400    -1.1470 C.3   1 <1>  -0.2400 
 14 H       -0.9880     3.6180     1.6910 H     1 <1>   0.1500 
 15 H        1.2720     3.1030    -1.8940 H     1 <1>   0.1500 
 16 H        1.3660     5.5490    -2.0670 H     1 <1>   0.1500 
 17 H        1.2010     7.7120    -0.8390 H     1 <1>   0.0800 
 18 H       -0.4030     7.2760     1.4970 H     1 <1>   0.4500 
 19 H       -0.2060     8.8830     1.0290 H     1 <1>   0.4500 
 20 H        1.1140     7.9190     1.4650 H     1 <1>   0.4500 
 21 H       -1.8350     7.6360    -0.6930 H     1 <1>   0.0800 
 22 H       -0.8870     7.5420    -2.1470 H     1 <1>   0.0800 
 23 H       -0.8710     9.0120    -1.2190 H     1 <1>   0.0800 
@<TRIPOS>BOND
  1   1   2  1   
  2   2   3  1   
  3   2   4  1   
  4   2   5  1   
  5   5   6  ar  
  6   5   7  ar  
  7   6   8  ar  
  8   6  14  1   
  9   7   9  ar  
 10   7  15  1   
 11   8  10  ar  
 12   9  10  ar  
 13   9  16  1   
 14  10  11  1   
 15  11  12  1   
 16  11  13  1   
 17  11  17  1   
 18  12  18  1   
 19  12  19  1   
 20  12  20  1   
 21  13  21  1   
 22  13  22  1   
 23  13  23  1   
@<TRIPOS>SUBSTRUCTURE
  1 ****   6 GROUP 4 **** **** 0

# MOE 2024.06 (io_trps.svl 2023.06)
