@<TRIPOS>MOLECULE
NONAME
53 55 1 0 0 
SMALL
USER_CHARGES


@<TRIPOS>ATOM
  1 O       -0.0360     0.5290    -1.3180 O.2   1 <1>  -0.5700 
  2 C        1.0190    -0.0280    -1.5070 C.2   1 <1>   0.5690 
  3 N        2.1640     0.6740    -1.7710 N.am  1 <1>  -0.6600 
  4 C        1.0330    -1.5470    -1.4470 C.3   1 <1>  -0.0990 
  5 C        2.1980     2.1640    -1.5720 C.3   1 <1>   0.3200 
  6 C        3.4630     0.0610    -2.1760 C.3   1 <1>   0.0600 
  7 C       -0.0820    -2.1150    -0.5580 C.3   1 <1>   0.2000 
  8 C        3.0130     2.5620    -0.3470 C.2   1 <1>   0.2980 
  9 O        0.1630    -3.4870    -0.4260 O.3   1 <1>  -0.5600 
 10 C       -1.5090    -1.9000    -1.1270 C.3   1 <1>   0.3430 
 11 O        4.3080     2.5180    -0.3760 O.3   1 <1>  -0.2800 
 12 N        2.5680     2.9690     0.7800 N.2   1 <1>  -0.3380 
 13 C       -0.7140    -4.1670     0.4280 C.3   1 <1>   0.1200 
 14 N       -2.5510    -2.6230    -0.3190 N.4   1 <1>  -0.9590 
 15 C        4.6550     2.9190     0.8040 C.2   1 <1>   0.2980 
 16 N        3.6440     3.2010     1.5340 N.2   1 <1>  -0.3380 
 17 C       -2.1610    -4.0560    -0.0880 C.3   1 <1>   0.3430 
 18 C       -3.9030    -2.4970    -0.9250 C.3   1 <1>   0.4860 
 19 C        6.1330     2.9990     1.1550 C.3   1 <1>   0.0200 
 20 C       -4.9140    -3.0850     0.0400 C.ar  1 <1>  -0.1440 
 21 C        6.3960     3.4830     2.5890 C.3   1 <1>  -0.2400 
 22 C       -5.4800    -4.3280    -0.2110 C.ar  1 <1>  -0.1500 
 23 C       -5.2750    -2.3900     1.1860 C.ar  1 <1>  -0.1500 
 24 C       -6.3860    -4.8730     0.6810 C.ar  1 <1>  -0.1500 
 25 C       -6.1810    -2.9380     2.0760 C.ar  1 <1>  -0.1500 
 26 C       -6.7350    -4.1800     1.8250 C.ar  1 <1>  -0.1500 
 27 H        1.9710    -1.8650    -1.0330 H     1 <1>   0.0800 
 28 H        0.9430    -1.9340    -2.4440 H     1 <1>   0.0800 
 29 H        1.2020     2.5510    -1.4510 H     1 <1>   0.0800 
 30 H        2.6210     2.6310    -2.4420 H     1 <1>   0.0800 
 31 H        3.3060    -0.8710    -2.6900 H     1 <1>   0.0800 
 32 H        4.0700    -0.1140    -1.3040 H     1 <1>   0.0800 
 33 H        3.9930     0.7230    -2.8400 H     1 <1>   0.0800 
 34 H       -0.0060    -1.6660     0.4190 H     1 <1>   0.0800 
 35 H       -1.5220    -2.2550    -2.1440 H     1 <1>   0.0800 
 36 H       -1.7370    -0.8480    -1.1440 H     1 <1>   0.0800 
 37 H       -0.6210    -3.7580     1.4200 H     1 <1>   0.0800 
 38 H       -0.4090    -5.1990     0.4560 H     1 <1>   0.0800 
 39 H       -2.6040    -2.1730     0.6030 H     1 <1>   0.4500 
 40 H       -2.8300    -4.5110     0.6250 H     1 <1>   0.0800 
 41 H       -2.2350    -4.6090    -1.0100 H     1 <1>   0.0800 
 42 H       -3.9430    -3.0210    -1.8660 H     1 <1>   0.0800 
 43 H       -4.1390    -1.4600    -1.0990 H     1 <1>   0.0800 
 44 H        6.6100     3.6690     0.4630 H     1 <1>   0.0800 
 45 H        6.5660     2.0240     1.0260 H     1 <1>   0.0800 
 46 H        5.9820     4.4660     2.7310 H     1 <1>   0.0800 
 47 H        7.4530     3.5220     2.7820 H     1 <1>   0.0800 
 48 H        5.9390     2.8130     3.2970 H     1 <1>   0.0800 
 49 H       -5.2300    -4.8840    -1.0990 H     1 <1>   0.1500 
 50 H       -4.8650    -1.4170     1.4000 H     1 <1>   0.1500 
 51 H       -6.8270    -5.8370     0.4860 H     1 <1>   0.1500 
 52 H       -6.4620    -2.3990     2.9660 H     1 <1>   0.1500 
 53 H       -7.4420    -4.6050     2.5190 H     1 <1>   0.1500 
@<TRIPOS>BOND
  1   1   2  2   
  2   2   3  am  
  3   2   4  1   
  4   3   5  1   
  5   3   6  1   
  6   4   7  1   
  7   4  27  1   
  8   4  28  1   
  9   5   8  1   
 10   5  29  1   
 11   5  30  1   
 12   6  31  1   
 13   6  32  1   
 14   6  33  1   
 15   7   9  1   
 16   7  10  1   
 17   7  34  1   
 18   8  11  1   
 19   8  12  2   
 20   9  13  1   
 21  10  14  1   
 22  10  35  1   
 23  10  36  1   
 24  11  15  1   
 25  12  16  1   
 26  13  17  1   
 27  13  37  1   
 28  13  38  1   
 29  14  17  1   
 30  14  18  1   
 31  14  39  1   
 32  15  16  2   
 33  15  19  1   
 34  17  40  1   
 35  17  41  1   
 36  18  20  1   
 37  18  42  1   
 38  18  43  1   
 39  19  21  1   
 40  19  44  1   
 41  19  45  1   
 42  20  22  ar  
 43  20  23  ar  
 44  21  46  1   
 45  21  47  1   
 46  21  48  1   
 47  22  24  ar  
 48  22  49  1   
 49  23  25  ar  
 50  23  50  1   
 51  24  26  ar  
 52  24  51  1   
 53  25  26  ar  
 54  25  52  1   
 55  26  53  1   
@<TRIPOS>SUBSTRUCTURE
  1 ****   7 GROUP 4 **** **** 0

# MOE 2024.06 (io_trps.svl 2023.06)
