@<TRIPOS>MOLECULE
NONAME
54 57 1 0 0 
SMALL
USER_CHARGES


@<TRIPOS>ATOM
  1 O       -0.9830     1.0260     2.2040 O.2   1 <1>  -0.5700 
  2 C       -1.7990     1.3490     1.3620 C.2   1 <1>   0.7150 
  3 N       -3.0040     0.6840     1.2930 N.am  1 <1>  -0.6600 
  4 C       -1.4950     2.4160     0.4580 C.2   1 <1>  -0.2370 
  5 C       -3.3940    -0.3570     2.2860 C.3   1 <1>   0.1400 
  6 C       -4.0110     0.8960     0.2170 C.3   1 <1>   0.1400 
  7 N       -0.5650     2.3740    -0.5360 N.pl3 1 <1>   0.3140 
  8 C       -2.0540     3.6550     0.3870 C.2   1 <1>  -0.1500 
  9 C       -3.6220    -1.6880     1.5660 C.3   1 <1>  -0.1600 
 10 C       -4.2470    -0.4210    -0.5280 C.3   1 <1>  -0.1600 
 11 N       -0.5380     3.5280    -1.2320 N.2   1 <1>  -0.7070 
 12 C        0.3580     1.2670    -0.9440 C.3   1 <1>   0.1760 
 13 C       -1.4260     4.2870    -0.6670 C.2   1 <1>   0.1390 
 14 C       -4.6480    -1.5630     0.4260 C.3   1 <1>   0.4240 
 15 C       -0.3740    -0.0620    -1.1840 C.3   1 <1>  -0.2400 
 16 C        1.5230     1.1030     0.0420 C.3   1 <1>  -0.2400 
 17 O       -5.8290    -1.1490     1.0800 O.3   1 <1>  -0.5600 
 18 C       -4.8470    -2.9150    -0.3190 C.ar  1 <1>  -0.1440 
 19 C       -7.0410    -1.3570     0.4320 C.3   1 <1>   0.1200 
 20 C       -3.7990    -3.5610    -0.9900 C.ar  1 <1>   0.0820 
 21 C       -6.1050    -3.5180    -0.3350 C.ar  1 <1>  -0.1440 
 22 C       -7.2810    -2.8560     0.3520 C.3   1 <1>  -0.0170 
 23 O       -2.5670    -2.9880    -1.0050 O.3   1 <1>  -0.3630 
 24 C       -4.0230    -4.7750    -1.6380 C.ar  1 <1>  -0.1500 
 25 C       -6.3130    -4.7280    -0.9770 C.ar  1 <1>  -0.1500 
 26 C       -1.4070    -3.7100    -1.3580 C.3   1 <1>   0.0400 
 27 C       -5.2740    -5.3570    -1.6280 C.ar  1 <1>  -0.1500 
 28 H       -4.2980    -0.0460     2.7820 H     1 <1>   0.0800 
 29 H       -2.6320    -0.4790     3.0360 H     1 <1>   0.0800 
 30 H       -3.6840     1.6420    -0.4840 H     1 <1>   0.0800 
 31 H       -4.9310     1.2360     0.6610 H     1 <1>   0.0800 
 32 H       -2.8240     4.0700     1.0130 H     1 <1>   0.1500 
 33 H       -3.9680    -2.4260     2.2670 H     1 <1>   0.0800 
 34 H       -2.6740    -2.0210     1.1980 H     1 <1>   0.0800 
 35 H       -3.3430    -0.6730    -1.0410 H     1 <1>   0.0800 
 36 H       -5.0000    -0.2890    -1.2800 H     1 <1>   0.0800 
 37 H        0.7810     1.5690    -1.8860 H     1 <1>   0.0800 
 38 H       -1.6360     5.2920    -0.9950 H     1 <1>   0.1500 
 39 H       -0.7370    -0.4840    -0.2650 H     1 <1>   0.0800 
 40 H        0.3030    -0.7690    -1.6280 H     1 <1>   0.0800 
 41 H       -1.1950     0.0870    -1.8610 H     1 <1>   0.0800 
 42 H        1.1830     0.7260     0.9880 H     1 <1>   0.0800 
 43 H        2.0090     2.0500     0.1940 H     1 <1>   0.0800 
 44 H        2.2430     0.4110    -0.3550 H     1 <1>   0.0800 
 45 H       -7.0050    -0.9140    -0.5470 H     1 <1>   0.0800 
 46 H       -7.8120    -0.8800     1.0110 H     1 <1>   0.0800 
 47 H       -8.1870    -3.0380    -0.1970 H     1 <1>   0.0800 
 48 H       -7.3970    -3.2550     1.3440 H     1 <1>   0.0800 
 49 H       -3.2380    -5.2830    -2.1620 H     1 <1>   0.1500 
 50 H       -7.2880    -5.1850    -0.9730 H     1 <1>   0.1500 
 51 H       -0.5520    -3.0990    -1.1340 H     1 <1>   0.0800 
 52 H       -1.4360    -3.9240    -2.4110 H     1 <1>   0.0800 
 53 H       -1.3690    -4.6150    -0.7790 H     1 <1>   0.0800 
 54 H       -5.4390    -6.2950    -2.1280 H     1 <1>   0.1500 
@<TRIPOS>BOND
  1   1   2  2   
  2   2   3  am  
  3   2   4  1   
  4   3   5  1   
  5   3   6  1   
  6   4   7  1   
  7   4   8  2   
  8   5   9  1   
  9   5  28  1   
 10   5  29  1   
 11   6  10  1   
 12   6  30  1   
 13   6  31  1   
 14   7  11  1   
 15   7  12  1   
 16   8  13  1   
 17   8  32  1   
 18   9  14  1   
 19   9  33  1   
 20   9  34  1   
 21  10  14  1   
 22  10  35  1   
 23  10  36  1   
 24  11  13  2   
 25  12  15  1   
 26  12  16  1   
 27  12  37  1   
 28  13  38  1   
 29  14  17  1   
 30  14  18  1   
 31  15  39  1   
 32  15  40  1   
 33  15  41  1   
 34  16  42  1   
 35  16  43  1   
 36  16  44  1   
 37  17  19  1   
 38  18  20  ar  
 39  18  21  ar  
 40  19  22  1   
 41  19  45  1   
 42  19  46  1   
 43  20  23  1   
 44  20  24  ar  
 45  21  22  1   
 46  21  25  ar  
 47  22  47  1   
 48  22  48  1   
 49  23  26  1   
 50  24  27  ar  
 51  24  49  1   
 52  25  27  ar  
 53  25  50  1   
 54  26  51  1   
 55  26  52  1   
 56  26  53  1   
 57  27  54  1   
@<TRIPOS>SUBSTRUCTURE
  1 ****  10 GROUP 4 **** **** 0

# MOE 2024.06 (io_trps.svl 2023.06)
