@<TRIPOS>MOLECULE
NONAME
34 35 1 0 0 
SMALL
USER_CHARGES


@<TRIPOS>ATOM
  1 O       -0.1400    -0.2910     0.1700 O.2   1 <1>  -0.5700 
  2 C       -1.1020    -0.8690    -0.2960 C.2   1 <1>   0.7800 
  3 O       -2.2560    -0.2360    -0.5220 O.3   1 <1>  -0.4300 
  4 N       -1.0650    -2.1940    -0.6010 N.am  1 <1>  -0.5100 
  5 C       -2.5440     1.1260    -0.2900 C.3   1 <1>   0.2800 
  6 C       -2.2040    -3.1610    -0.4910 C.3   1 <1>   0.2250 
  7 C       -0.1390    -3.2060    -0.0020 C.3   1 <1>   0.2250 
  8 C       -3.9970     1.3070    -0.7300 C.3   1 <1>  -0.2400 
  9 C       -1.6400     2.0140    -1.1530 C.3   1 <1>  -0.2400 
 10 C       -2.4250     1.4470     1.2040 C.3   1 <1>  -0.2400 
 11 C       -1.3810    -3.9210     0.5760 C.3   1 <1>   0.1620 
 12 C       -1.3570    -5.4320     0.4120 C.2   1 <1>   0.1270 
 13 N       -2.3080    -6.1230    -0.1140 N.2   1 <1>  -0.4100 
 14 C       -0.3160    -6.2610     0.8220 C.2   1 <1>  -0.1500 
 15 O       -1.9150    -7.3750    -0.0690 O.3   1 <1>  -0.0190 
 16 C       -0.7330    -7.4940     0.4860 C.2   1 <1>   0.2240 
 17 N       -0.1420    -8.7360     0.6410 N.pl3 1 <1>  -0.8840 
 18 H       -2.3420    -3.6950    -1.4150 H     1 <1>   0.0000 
 19 H       -3.0990    -2.7070    -0.1040 H     1 <1>   0.0000 
 20 H        0.5080    -2.7880     0.7480 H     1 <1>   0.0000 
 21 H        0.3720    -3.7620    -0.7690 H     1 <1>   0.0000 
 22 H       -4.1040     1.0600    -1.7710 H     1 <1>   0.0800 
 23 H       -4.3070     2.3260    -0.5900 H     1 <1>   0.0800 
 24 H       -4.6440     0.6730    -0.1510 H     1 <1>   0.0800 
 25 H       -1.6950     1.7140    -2.1840 H     1 <1>   0.0800 
 26 H       -0.6180     1.9650    -0.8250 H     1 <1>   0.0800 
 27 H       -1.9540     3.0390    -1.0800 H     1 <1>   0.0800 
 28 H       -3.0170     0.7610     1.7830 H     1 <1>   0.0800 
 29 H       -2.7770     2.4440     1.3940 H     1 <1>   0.0800 
 30 H       -1.4030     1.3970     1.5330 H     1 <1>   0.0800 
 31 H       -1.6100    -3.6060     1.5790 H     1 <1>   0.0000 
 32 H        0.6020    -5.9680     1.2940 H     1 <1>   0.1500 
 33 H       -0.7690    -9.5380     0.5230 H     1 <1>   0.4000 
 34 H        0.5040    -8.8500     1.4260 H     1 <1>   0.4000 
@<TRIPOS>BOND
  1   1   2  2   
  2   2   3  1   
  3   2   4  am  
  4   3   5  1   
  5   4   6  1   
  6   4   7  1   
  7   5   8  1   
  8   5   9  1   
  9   5  10  1   
 10   6  11  1   
 11   6  18  1   
 12   6  19  1   
 13   7  11  1   
 14   7  20  1   
 15   7  21  1   
 16   8  22  1   
 17   8  23  1   
 18   8  24  1   
 19   9  25  1   
 20   9  26  1   
 21   9  27  1   
 22  10  28  1   
 23  10  29  1   
 24  10  30  1   
 25  11  12  1   
 26  11  31  1   
 27  12  13  2   
 28  12  14  1   
 29  13  15  1   
 30  14  16  2   
 31  14  32  1   
 32  15  16  1   
 33  16  17  1   
 34  17  33  1   
 35  17  34  1   
@<TRIPOS>SUBSTRUCTURE
  1 ****   6 GROUP 4 **** **** 0

# MOE 2024.06 (io_trps.svl 2023.06)
