@<TRIPOS>MOLECULE
NONAME
44 46 1 0 0 
SMALL
USER_CHARGES


@<TRIPOS>ATOM
  1 O       -0.0070     0.6520     1.0420 O.2   1 <1>  -0.5700 
  2 C       -0.0360     1.8010     0.6440 C.2   1 <1>   0.5440 
  3 N       -1.2490     2.4530     0.5770 N.am  1 <1>  -0.6600 
  4 C        1.1990     2.4430     0.2540 C.ar  1 <1>   0.0860 
  5 C       -2.4640     1.8280     1.1780 C.3   1 <1>   0.1400 
  6 C       -1.4610     3.6930    -0.2340 C.3   1 <1>   0.1400 
  7 C        1.5720     3.6670     0.8070 C.ar  1 <1>   0.1600 
  8 C        2.0590     1.8740    -0.6730 C.ar  1 <1>  -0.1500 
  9 C       -3.5220     2.8930     1.4730 C.3   1 <1>  -0.1600 
 10 C       -2.8520     3.6620    -0.8640 C.3   1 <1>  -0.1600 
 11 N        2.6680     4.3540     0.5130 N.ar  1 <1>  -0.6200 
 12 C        3.2080     2.5630    -0.9940 C.ar  1 <1>   0.0830 
 13 C       -3.9640     3.6690     0.2060 C.3   1 <1>   0.2800 
 14 C        3.4630     3.7860    -0.3810 C.ar  1 <1>   0.1600 
 15 O        4.0540     2.0310    -1.8960 O.3   1 <1>  -0.5320 
 16 O       -4.1050     5.0190     0.5720 O.3   1 <1>  -0.5600 
 17 C       -5.2960     3.1370    -0.3970 C.3   1 <1>  -0.1600 
 18 C       -5.2660     5.3700     1.2690 C.3   1 <1>   0.1200 
 19 C       -6.2540     4.2560    -0.8120 C.3   1 <1>   0.2800 
 20 C       -6.5080     5.1830     0.3820 C.3   1 <1>  -0.1600 
 21 O       -5.6340     5.0040    -1.7770 O.3   1 <1>  -0.6800 
 22 C       -7.5480     3.7290    -1.4270 C.3   1 <1>  -0.2400 
 23 H       -2.1940     1.3250     2.0920 H     1 <1>   0.0800 
 24 H       -2.8550     1.0930     0.4950 H     1 <1>   0.0800 
 25 H       -0.7200     3.7580    -1.0130 H     1 <1>   0.0800 
 26 H       -1.3710     4.5580     0.4010 H     1 <1>   0.0800 
 27 H        0.9150     4.1010     1.5410 H     1 <1>   0.1500 
 28 H        1.8370     0.9230    -1.1240 H     1 <1>   0.1500 
 29 H       -3.0900     3.5770     2.1830 H     1 <1>   0.0800 
 30 H       -4.3600     2.4250     1.9540 H     1 <1>   0.0800 
 31 H       -2.9120     2.7740    -1.4680 H     1 <1>   0.0800 
 32 H       -2.9700     4.5010    -1.5240 H     1 <1>   0.0800 
 33 H        4.3600     4.3190    -0.6370 H     1 <1>   0.1500 
 34 H        4.8610     2.5550    -2.0530 H     1 <1>   0.4500 
 35 H       -5.8050     2.5320     0.3290 H     1 <1>   0.0800 
 36 H       -5.1100     2.4890    -1.2340 H     1 <1>   0.0800 
 37 H       -5.1720     6.3990     1.5690 H     1 <1>   0.0800 
 38 H       -5.3320     4.7610     2.1540 H     1 <1>   0.0800 
 39 H       -6.8650     6.1370     0.0360 H     1 <1>   0.0800 
 40 H       -7.2850     4.7680     0.9970 H     1 <1>   0.0800 
 41 H       -4.8520     5.4110    -1.3480 H     1 <1>   0.4000 
 42 H       -8.0800     3.1240    -0.7160 H     1 <1>   0.0800 
 43 H       -7.3290     3.1280    -2.2910 H     1 <1>   0.0800 
 44 H       -8.1790     4.5480    -1.7200 H     1 <1>   0.0800 
@<TRIPOS>BOND
  1   1   2  2   
  2   2   3  am  
  3   2   4  1   
  4   3   5  1   
  5   3   6  1   
  6   4   7  ar  
  7   4   8  ar  
  8   5   9  1   
  9   5  23  1   
 10   5  24  1   
 11   6  10  1   
 12   6  25  1   
 13   6  26  1   
 14   7  11  ar  
 15   7  27  1   
 16   8  12  ar  
 17   8  28  1   
 18   9  13  1   
 19   9  29  1   
 20   9  30  1   
 21  10  13  1   
 22  10  31  1   
 23  10  32  1   
 24  11  14  ar  
 25  12  14  ar  
 26  12  15  1   
 27  13  16  1   
 28  13  17  1   
 29  14  33  1   
 30  15  34  1   
 31  16  18  1   
 32  17  19  1   
 33  17  35  1   
 34  17  36  1   
 35  18  20  1   
 36  18  37  1   
 37  18  38  1   
 38  19  20  1   
 39  19  21  1   
 40  19  22  1   
 41  20  39  1   
 42  20  40  1   
 43  21  41  1   
 44  22  42  1   
 45  22  43  1   
 46  22  44  1   
@<TRIPOS>SUBSTRUCTURE
  1 ****   6 GROUP 4 **** **** 0

# MOE 2024.06 (io_trps.svl 2023.06)
