@<TRIPOS>MOLECULE
NONAME
47 50 1 0 0 
SMALL
USER_CHARGES


@<TRIPOS>ATOM
  1 O        1.1500    -4.9820     1.4740 O.3   1 <1>  -0.6800 
  2 C        0.9290    -3.9100     0.6390 C.3   1 <1>   0.2000 
  3 C        1.7440    -4.0800    -0.6350 C.3   1 <1>  -0.1600 
  4 C        1.4720    -2.6500     1.2920 C.3   1 <1>  -0.1600 
  5 C        2.0880    -2.6540    -1.0920 C.3   1 <1>  -0.0800 
  6 C        1.8970    -1.7420     0.1300 C.3   1 <1>  -0.0800 
  7 C        3.5530    -2.4950    -1.5190 C.3   1 <1>  -0.1600 
  8 C        3.2470    -1.0580     0.3720 C.3   1 <1>  -0.1600 
  9 C        4.2700    -1.9930    -0.2690 C.3   1 <1>   0.4230 
 10 N        5.5390    -1.2900    -0.5970 N.4   1 <1>  -0.9590 
 11 C        6.1920    -0.7200     0.6180 C.3   1 <1>   0.4860 
 12 C        6.4960    -2.1680    -1.3480 C.3   1 <1>   0.2630 
 13 C        7.3250     0.1910     0.1830 C.ar  1 <1>  -0.1440 
 14 C        8.6360    -0.1700     0.3700 C.ar  1 <1>  -0.1500 
 15 C        7.0280     1.4210    -0.4230 C.ar  1 <1>  -0.1500 
 16 C        9.6920     0.6630    -0.0510 C.ar  1 <1>   0.0000 
 17 C        8.0420     2.2420    -0.8390 C.ar  1 <1>  -0.1500 
 18 C        9.3900     1.8930    -0.6750 C.ar  1 <1>   0.3100 
 19 C       11.0470     0.3280     0.1190 C.ar  1 <1>  -0.1500 
 20 N       10.3450     2.7450    -1.1220 N.ar  1 <1>  -0.6200 
 21 C       11.9870     1.2040    -0.3330 C.ar  1 <1>  -0.1500 
 22 C       11.5840     2.3980    -0.9470 C.ar  1 <1>   0.1600 
 23 H        0.7350    -5.7880     1.1110 H     1 <1>   0.4000 
 24 H       -0.1260    -3.8190     0.4320 H     1 <1>   0.0800 
 25 H        2.6400    -4.6320    -0.4100 H     1 <1>   0.0800 
 26 H        1.1810    -4.6040    -1.3880 H     1 <1>   0.0800 
 27 H        0.7220    -2.1810     1.9040 H     1 <1>   0.0800 
 28 H        2.3190    -2.9080     1.9050 H     1 <1>   0.0800 
 29 H        1.4220    -2.3590    -1.8870 H     1 <1>   0.0800 
 30 H        1.1240    -1.0150    -0.0620 H     1 <1>   0.0800 
 31 H        3.6000    -1.7510    -2.2950 H     1 <1>   0.0800 
 32 H        3.9630    -3.4200    -1.8850 H     1 <1>   0.0800 
 33 H        3.4260    -0.9030     1.4210 H     1 <1>   0.0800 
 34 H        3.2430    -0.1100    -0.1370 H     1 <1>   0.0800 
 35 H        4.4520    -2.8270     0.3920 H     1 <1>   0.0800 
 36 H        5.3070    -0.4940    -1.2030 H     1 <1>   0.4500 
 37 H        5.4850    -0.1440     1.1920 H     1 <1>   0.0800 
 38 H        6.5720    -1.5120     1.2430 H     1 <1>   0.0800 
 39 H        6.7730    -3.0210    -0.7500 H     1 <1>   0.0800 
 40 H        7.3900    -1.6190    -1.6010 H     1 <1>   0.0800 
 41 H        6.0480    -2.5190    -2.2630 H     1 <1>   0.0800 
 42 H        8.8990    -1.1000     0.8440 H     1 <1>   0.1500 
 43 H        6.0060     1.7310    -0.5600 H     1 <1>   0.1500 
 44 H        7.8360     3.1890    -1.3060 H     1 <1>   0.1500 
 45 H       11.3210    -0.5960     0.5970 H     1 <1>   0.1500 
 46 H       13.0390     1.0030    -0.2300 H     1 <1>   0.1500 
 47 H       12.3510     3.0680    -1.2960 H     1 <1>   0.1500 
@<TRIPOS>BOND
  1   1   2  1   
  2   1  23  1   
  3   2   3  1   
  4   2   4  1   
  5   2  24  1   
  6   3   5  1   
  7   3  25  1   
  8   3  26  1   
  9   4   6  1   
 10   4  27  1   
 11   4  28  1   
 12   5   6  1   
 13   5   7  1   
 14   5  29  1   
 15   6   8  1   
 16   6  30  1   
 17   7   9  1   
 18   7  31  1   
 19   7  32  1   
 20   8   9  1   
 21   8  33  1   
 22   8  34  1   
 23   9  10  1   
 24   9  35  1   
 25  10  11  1   
 26  10  12  1   
 27  10  36  1   
 28  11  13  1   
 29  11  37  1   
 30  11  38  1   
 31  12  39  1   
 32  12  40  1   
 33  12  41  1   
 34  13  14  ar  
 35  13  15  ar  
 36  14  16  ar  
 37  14  42  1   
 38  15  17  ar  
 39  15  43  1   
 40  16  18  ar  
 41  16  19  ar  
 42  17  18  ar  
 43  17  44  1   
 44  18  20  ar  
 45  19  21  ar  
 46  19  45  1   
 47  20  22  ar  
 48  21  22  ar  
 49  21  46  1   
 50  22  47  1   
@<TRIPOS>SUBSTRUCTURE
  1 ****  11 GROUP 4 **** **** 0

# MOE 2024.06 (io_trps.svl 2023.06)
