@<TRIPOS>MOLECULE
NONAME
39 41 1 0 0 
SMALL
USER_CHARGES


@<TRIPOS>ATOM
  1 S       -0.5550     0.2830     0.1290 S.o2  1 <1>   1.0900 
  2 O        0.7720    -0.0840    -0.3060 O.2   1 <1>  -0.6500 
  3 O       -0.7990     1.4620     0.9260 O.2   1 <1>  -0.6500 
  4 C       -1.2790    -1.1440     0.8830 C.3   1 <1>  -0.0550 
  5 C       -1.6300     0.2510    -1.2970 C.3   1 <1>  -0.0550 
  6 C       -1.6630    -2.0330    -0.2980 C.3   1 <1>   0.1760 
  7 C       -2.3210    -1.1230    -1.3570 C.3   1 <1>  -0.1600 
  8 N       -2.5700    -3.1340     0.1140 N.pl3 1 <1>   0.3140 
  9 N       -3.6470    -2.8940     0.8830 N.2   1 <1>  -0.7070 
 10 C       -2.4920    -4.4440    -0.2360 C.2   1 <1>  -0.3320 
 11 C       -4.2380    -4.0420     1.0040 C.2   1 <1>   0.1080 
 12 C       -3.5600    -5.0570     0.3210 C.2   1 <1>   0.0630 
 13 C       -1.3950    -5.0390    -1.1110 C.3   1 <1>  -0.0600 
 14 C       -5.5060    -4.1950     1.8150 C.3   1 <1>  -0.0590 
 15 N       -3.8730    -6.4360     0.2230 N.am  1 <1>  -0.4930 
 16 C       -5.0700    -7.0330    -0.0560 C.2   1 <1>   0.7160 
 17 O       -6.0540    -6.3540    -0.2800 O.2   1 <1>  -0.5700 
 18 C       -5.1450    -8.4800    -0.0970 C.2   1 <1>  -0.0860 
 19 C       -4.1930    -9.3610     0.3060 C.2   1 <1>  -0.1100 
 20 C       -6.3110    -9.1650    -0.5990 C.2   1 <1>  -0.1500 
 21 S       -4.6910   -11.0200     0.0750 S.3   1 <1>  -0.0800 
 22 C       -6.2320   -10.5070    -0.5770 C.2   1 <1>  -0.1100 
 23 H       -2.1590    -0.8550     1.4270 H     1 <1>   0.0800 
 24 H       -0.5900    -1.6360     1.5410 H     1 <1>   0.0800 
 25 H       -1.0570     0.4250    -2.1890 H     1 <1>   0.0800 
 26 H       -2.3730     1.0220    -1.2170 H     1 <1>   0.0800 
 27 H       -0.7640    -2.4550    -0.7080 H     1 <1>   0.0800 
 28 H       -2.2370    -1.5570    -2.3380 H     1 <1>   0.0800 
 29 H       -3.3650    -0.9930    -1.1210 H     1 <1>   0.0800 
 30 H       -1.3670    -4.5370    -2.0620 H     1 <1>   0.0800 
 31 H       -1.5760    -6.0830    -1.2910 H     1 <1>   0.0800 
 32 H       -0.4380    -4.9360    -0.6310 H     1 <1>   0.0800 
 33 H       -5.5370    -3.4500     2.5880 H     1 <1>   0.0800 
 34 H       -5.5460    -5.1680     2.2660 H     1 <1>   0.0800 
 35 H       -6.3570    -4.0680     1.1730 H     1 <1>   0.0800 
 36 H       -3.0690    -7.0540     0.2360 H     1 <1>   0.3700 
 37 H       -3.2180    -9.2110     0.7340 H     1 <1>   0.1500 
 38 H       -7.1580    -8.6020    -0.9530 H     1 <1>   0.1500 
 39 H       -6.9240   -11.2730    -0.8790 H     1 <1>   0.1500 
@<TRIPOS>BOND
  1   1   2  2   
  2   1   3  2   
  3   1   4  1   
  4   1   5  1   
  5   4   6  1   
  6   4  23  1   
  7   4  24  1   
  8   5   7  1   
  9   5  25  1   
 10   5  26  1   
 11   6   7  1   
 12   6   8  1   
 13   6  27  1   
 14   7  28  1   
 15   7  29  1   
 16   8   9  1   
 17   8  10  1   
 18   9  11  2   
 19  10  12  2   
 20  10  13  1   
 21  11  12  1   
 22  11  14  1   
 23  12  15  1   
 24  13  30  1   
 25  13  31  1   
 26  13  32  1   
 27  14  33  1   
 28  14  34  1   
 29  14  35  1   
 30  15  16  am  
 31  15  36  1   
 32  16  17  2   
 33  16  18  1   
 34  18  19  2   
 35  18  20  1   
 36  19  21  1   
 37  19  37  1   
 38  20  22  2   
 39  20  38  1   
 40  21  22  1   
 41  22  39  1   
@<TRIPOS>SUBSTRUCTURE
  1 ****  12 GROUP 4 **** **** 0

# MOE 2024.06 (io_trps.svl 2023.06)
