@<TRIPOS>MOLECULE
NONAME
42 42 1 0 0 
SMALL
USER_CHARGES


@<TRIPOS>ATOM
  1 O        0.6030     0.3510    -3.0470 O.2   1 <1>  -0.5700 
  2 C        0.7490    -0.2080    -1.9860 C.2   1 <1>   0.5690 
  3 N        1.3010     0.3690    -0.8770 N.am  1 <1>  -0.4940 
  4 C        0.3050    -1.6630    -1.8600 C.3   1 <1>   0.1810 
  5 C        1.8970     1.6260    -0.6090 C.2   1 <1>  -0.0880 
  6 O        0.6040    -2.1850    -0.5850 O.3   1 <1>  -0.5600 
  7 N        1.6970     2.8150    -1.2440 N.pl3 1 <1>   0.3140 
  8 C        2.7980     1.8690     0.3740 C.2   1 <1>  -0.1810 
  9 C        0.2270    -3.5190    -0.4260 C.3   1 <1>   0.1200 
 10 N        2.4480     3.7970    -0.6970 N.2   1 <1>  -0.7070 
 11 C        0.7610     3.1460    -2.3250 C.3   1 <1>   0.0160 
 12 C        3.1020     3.2240     0.2620 C.2   1 <1>   0.1080 
 13 C        3.3640     0.8820     1.3820 C.3   1 <1>   0.0210 
 14 C        0.5960    -3.9660     0.9850 C.3   1 <1>   0.1200 
 15 C        4.0760     3.9970     1.1330 C.3   1 <1>   0.0210 
 16 C        4.6050     0.1930     0.8130 C.3   1 <1>  -0.2400 
 17 O        0.2160    -5.2970     1.1310 O.3   1 <1>  -0.5600 
 18 C        3.3790     4.5690     2.3710 C.3   1 <1>  -0.2400 
 19 C        0.4970    -5.8290     2.3850 C.3   1 <1>   0.0400 
 20 H        1.3790    -0.3120    -0.1150 H     1 <1>   0.3700 
 21 H        0.8140    -2.2500    -2.6040 H     1 <1>   0.0800 
 22 H       -0.7570    -1.7210    -2.0190 H     1 <1>   0.0800 
 23 H        0.7520    -4.1180    -1.1510 H     1 <1>   0.0800 
 24 H       -0.8370    -3.5990    -0.5710 H     1 <1>   0.0800 
 25 H       -0.1730     2.6460    -2.1510 H     1 <1>   0.0800 
 26 H        1.1810     2.8270    -3.2600 H     1 <1>   0.0800 
 27 H        0.6040     4.2070    -2.3440 H     1 <1>   0.0800 
 28 H        2.6190     0.1430     1.6180 H     1 <1>   0.0800 
 29 H        3.6140     1.3930     2.2940 H     1 <1>   0.0800 
 30 H        0.0680    -3.3750     1.7130 H     1 <1>   0.0800 
 31 H        1.6590    -3.8920     1.1330 H     1 <1>   0.0800 
 32 H        4.4910     4.8010     0.5520 H     1 <1>   0.0800 
 33 H        4.8850     3.3550     1.4290 H     1 <1>   0.0800 
 34 H        4.3520    -0.3340    -0.0900 H     1 <1>   0.0800 
 35 H        5.0030    -0.5060     1.5250 H     1 <1>   0.0800 
 36 H        5.3600     0.9230     0.5810 H     1 <1>   0.0800 
 37 H        2.5820     5.2250     2.0650 H     1 <1>   0.0800 
 38 H        4.0780     5.1260     2.9680 H     1 <1>   0.0800 
 39 H        2.9610     3.7770     2.9650 H     1 <1>   0.0800 
 40 H        0.1680    -6.8540     2.3950 H     1 <1>   0.0800 
 41 H       -0.0350    -5.2710     3.1360 H     1 <1>   0.0800 
 42 H        1.5580    -5.7870     2.5600 H     1 <1>   0.0800 
@<TRIPOS>BOND
  1   1   2  2   
  2   2   3  am  
  3   2   4  1   
  4   3   5  1   
  5   3  20  1   
  6   4   6  1   
  7   4  21  1   
  8   4  22  1   
  9   5   7  1   
 10   5   8  2   
 11   6   9  1   
 12   7  10  1   
 13   7  11  1   
 14   8  12  1   
 15   8  13  1   
 16   9  14  1   
 17   9  23  1   
 18   9  24  1   
 19  10  12  2   
 20  11  25  1   
 21  11  26  1   
 22  11  27  1   
 23  12  15  1   
 24  13  16  1   
 25  13  28  1   
 26  13  29  1   
 27  14  17  1   
 28  14  30  1   
 29  14  31  1   
 30  15  18  1   
 31  15  32  1   
 32  15  33  1   
 33  16  34  1   
 34  16  35  1   
 35  16  36  1   
 36  17  19  1   
 37  18  37  1   
 38  18  38  1   
 39  18  39  1   
 40  19  40  1   
 41  19  41  1   
 42  19  42  1   
@<TRIPOS>SUBSTRUCTURE
  1 ****   3 GROUP 4 **** **** 0

# MOE 2024.06 (io_trps.svl 2023.06)
