@<TRIPOS>MOLECULE
NONAME
55 57 1 0 0 
SMALL
USER_CHARGES


@<TRIPOS>ATOM
  1 O       -0.4110     0.3290    -0.6480 O.2   1 <1>  -0.5700 
  2 C       -1.3730     0.9610    -0.2530 C.2   1 <1>   0.5440 
  3 N       -2.4980     0.2690     0.1360 N.am  1 <1>  -0.6600 
  4 C       -1.3240     2.4110    -0.2230 C.ar  1 <1>   0.0860 
  5 C       -3.8650     0.8470     0.1760 C.3   1 <1>   0.1400 
  6 C       -2.5580    -1.2120     0.0960 C.3   1 <1>   0.1400 
  7 C       -1.7250     3.1350     0.8990 C.ar  1 <1>  -0.1500 
  8 C       -0.8700     3.1320    -1.3260 C.ar  1 <1>  -0.1500 
  9 C       -4.7960    -0.3370    -0.0800 C.3   1 <1>   0.2000 
 10 C       -4.0190    -1.5720     0.3710 C.3   1 <1>  -0.0800 
 11 C       -1.6950     4.5170     0.9110 C.ar  1 <1>  -0.1500 
 12 C       -0.8370     4.5140    -1.3180 C.ar  1 <1>  -0.1500 
 13 O       -5.9760    -0.2240     0.6400 O.3   1 <1>  -0.6800 
 14 C       -4.4800    -2.8580    -0.3320 C.3   1 <1>  -0.0170 
 15 C       -1.2540     5.2160    -0.2000 C.ar  1 <1>  -0.1430 
 16 C       -3.6870    -4.0610     0.1540 C.ar  1 <1>  -0.1430 
 17 C       -1.2180     6.7360    -0.1800 C.3   1 <1>  -0.0170 
 18 C       -2.5760    -4.5300    -0.5180 C.ar  1 <1>  -0.1500 
 19 C       -4.0400    -4.7450     1.2990 C.ar  1 <1>  -0.1500 
 20 C        0.1130     7.2240     0.4180 C.3   1 <1>  -0.1600 
 21 C       -1.8890    -5.6260    -0.0230 C.ar  1 <1>   0.1600 
 22 C       -3.2860    -5.8320     1.7080 C.ar  1 <1>   0.1600 
 23 C        0.2460     8.7500     0.5580 C.3   1 <1>   0.2800 
 24 N       -2.2170    -6.2890     1.0750 N.ar  1 <1>  -0.6200 
 25 O       -0.7990     9.2030     1.3190 O.3   1 <1>  -0.6800 
 26 C        1.5260     9.1160     1.3060 C.3   1 <1>  -0.2400 
 27 C        0.1750     9.4850    -0.7800 C.3   1 <1>  -0.2400 
 28 H       -4.0410     1.2680     1.1500 H     1 <1>   0.0800 
 29 H       -3.9840     1.6000    -0.5830 H     1 <1>   0.0800 
 30 H       -2.2550    -1.5450    -0.8820 H     1 <1>   0.0800 
 31 H       -1.8990    -1.6390     0.8340 H     1 <1>   0.0800 
 32 H       -2.0570     2.6040     1.7730 H     1 <1>   0.1500 
 33 H       -0.5380     2.5930    -2.1960 H     1 <1>   0.1500 
 34 H       -5.0400    -0.3860    -1.1280 H     1 <1>   0.0800 
 35 H       -4.1210    -1.6900     1.4350 H     1 <1>   0.0800 
 36 H       -2.0110     5.0520     1.7900 H     1 <1>   0.1500 
 37 H       -0.4820     5.0430    -2.1860 H     1 <1>   0.1500 
 38 H       -5.7920    -0.2210     1.5990 H     1 <1>   0.4000 
 39 H       -4.3680    -2.7560    -1.3980 H     1 <1>   0.0800 
 40 H       -5.5260    -3.0170    -0.1320 H     1 <1>   0.0800 
 41 H       -1.3380     7.1070    -1.1810 H     1 <1>   0.0800 
 42 H       -2.0420     7.1030     0.4070 H     1 <1>   0.0800 
 43 H       -2.2350    -4.0550    -1.4200 H     1 <1>   0.1500 
 44 H       -4.8950    -4.4440     1.8770 H     1 <1>   0.1500 
 45 H        0.9180     6.8590    -0.1930 H     1 <1>   0.0800 
 46 H        0.2320     6.7810     1.3910 H     1 <1>   0.0800 
 47 H       -1.0240    -5.9770    -0.5590 H     1 <1>   0.1500 
 48 H       -3.5760    -6.3540     2.6030 H     1 <1>   0.1500 
 49 H       -0.7090    10.1640     1.4490 H     1 <1>   0.4000 
 50 H        2.3820     8.7730     0.7550 H     1 <1>   0.0800 
 51 H        1.5400     8.6480     2.2750 H     1 <1>   0.0800 
 52 H        1.6090    10.1810     1.4280 H     1 <1>   0.0800 
 53 H        0.9360     9.1130    -1.4420 H     1 <1>   0.0800 
 54 H        0.3380    10.5390    -0.6440 H     1 <1>   0.0800 
 55 H       -0.7820     9.3430    -1.2480 H     1 <1>   0.0800 
@<TRIPOS>BOND
  1   1   2  2   
  2   2   3  am  
  3   2   4  1   
  4   3   5  1   
  5   3   6  1   
  6   4   7  ar  
  7   4   8  ar  
  8   5   9  1   
  9   5  28  1   
 10   5  29  1   
 11   6  10  1   
 12   6  30  1   
 13   6  31  1   
 14   7  11  ar  
 15   7  32  1   
 16   8  12  ar  
 17   8  33  1   
 18   9  10  1   
 19   9  13  1   
 20   9  34  1   
 21  10  14  1   
 22  10  35  1   
 23  11  15  ar  
 24  11  36  1   
 25  12  15  ar  
 26  12  37  1   
 27  13  38  1   
 28  14  16  1   
 29  14  39  1   
 30  14  40  1   
 31  15  17  1   
 32  16  18  ar  
 33  16  19  ar  
 34  17  20  1   
 35  17  41  1   
 36  17  42  1   
 37  18  21  ar  
 38  18  43  1   
 39  19  22  ar  
 40  19  44  1   
 41  20  23  1   
 42  20  45  1   
 43  20  46  1   
 44  21  24  ar  
 45  21  47  1   
 46  22  24  ar  
 47  22  48  1   
 48  23  25  1   
 49  23  26  1   
 50  23  27  1   
 51  25  49  1   
 52  26  50  1   
 53  26  51  1   
 54  26  52  1   
 55  27  53  1   
 56  27  54  1   
 57  27  55  1   
@<TRIPOS>SUBSTRUCTURE
  1 ****   2 GROUP 4 **** **** 0

# MOE 2024.06 (io_trps.svl 2023.06)
