@<TRIPOS>MOLECULE
NONAME
53 56 1 0 0 
SMALL
USER_CHARGES


@<TRIPOS>ATOM
  1 O       -0.7750     0.6070     1.6500 O.2   1 <1>  -0.5700 
  2 C       -1.7840     1.2240     1.3500 C.2   1 <1>   0.7150 
  3 N       -2.9210     0.5070     1.0370 N.am  1 <1>  -0.6600 
  4 C       -1.7840     2.6690     1.3120 C.2   1 <1>   0.0550 
  5 C       -3.9770     1.0060     0.1170 C.3   1 <1>   0.1400 
  6 C       -2.9900    -0.9720     1.1100 C.3   1 <1>   0.1400 
  7 O       -0.7260     3.3420     0.8720 O.3   1 <1>  -0.2800 
  8 C       -2.7400     3.5730     1.6650 C.2   1 <1>  -0.1500 
  9 C       -4.7240    -0.2380    -0.3870 C.3   1 <1>   0.2000 
 10 C       -3.7330    -1.3830    -0.1620 C.3   1 <1>  -0.0800 
 11 C       -0.9590     4.6430     0.9220 C.2   1 <1>   0.0870 
 12 C       -2.2130     4.8340     1.4140 C.2   1 <1>  -0.1500 
 13 O       -5.8550    -0.4590     0.4070 O.3   1 <1>  -0.5600 
 14 C       -4.3690    -2.7820    -0.0760 C.3   1 <1>   0.0200 
 15 C        0.0510     5.5820     0.4900 C.ar  1 <1>   0.0530 
 16 C       -7.0090     0.2040    -0.0040 C.3   1 <1>   0.0400 
 17 C       -3.3410    -3.9000    -0.0230 C.2   1 <1>  -0.0400 
 18 C        1.3250     5.1550     0.1110 C.ar  1 <1>  -0.1500 
 19 C       -0.2050     6.9530     0.4330 C.ar  1 <1>  -0.1500 
 20 O       -3.7560    -5.1270     0.1530 O.3   1 <1>  -0.0190 
 21 C       -2.0020    -3.9350    -0.1240 C.2   1 <1>  -0.1500 
 22 C        2.2970     6.0450    -0.3050 C.ar  1 <1>  -0.1500 
 23 C        0.7610     7.8500     0.0190 C.ar  1 <1>  -0.1500 
 24 N       -2.7700    -5.9770     0.1770 N.2   1 <1>  -0.4100 
 25 C       -1.7010    -5.2860     0.0140 C.2   1 <1>   0.1080 
 26 C        2.0190     7.4070    -0.3540 C.ar  1 <1>   0.0830 
 27 C       -0.3060    -5.8700    -0.0220 C.3   1 <1>  -0.0590 
 28 O        2.9100     8.3470    -0.7490 O.3   1 <1>  -0.3620 
 29 C        4.2170     8.0000    -1.1480 C.3   1 <1>   0.0400 
 30 H       -4.6430     1.6790     0.6270 H     1 <1>   0.0800 
 31 H       -3.5110     1.5130    -0.7100 H     1 <1>   0.0800 
 32 H       -2.0130    -1.4190     1.1640 H     1 <1>   0.0800 
 33 H       -3.5560    -1.2480     1.9830 H     1 <1>   0.0800 
 34 H       -3.7150     3.3710     2.0710 H     1 <1>   0.1500 
 35 H       -5.0210    -0.1590    -1.4190 H     1 <1>   0.0800 
 36 H       -3.0280    -1.3710    -0.9740 H     1 <1>   0.0800 
 37 H       -2.7190     5.7660     1.5890 H     1 <1>   0.1500 
 38 H       -4.9970    -2.9410    -0.9350 H     1 <1>   0.0800 
 39 H       -4.9920    -2.8470     0.7990 H     1 <1>   0.0800 
 40 H       -7.7940    -0.0310     0.6940 H     1 <1>   0.0800 
 41 H       -7.2860    -0.1400    -0.9860 H     1 <1>   0.0800 
 42 H       -6.8360     1.2660    -0.0080 H     1 <1>   0.0800 
 43 H        1.5550     4.1040     0.1460 H     1 <1>   0.1500 
 44 H       -1.1720     7.3250     0.7160 H     1 <1>   0.1500 
 45 H       -1.2920    -3.1430    -0.2760 H     1 <1>   0.1500 
 46 H        3.2600     5.6610    -0.5850 H     1 <1>   0.1500 
 47 H        0.5490     8.9030    -0.0200 H     1 <1>   0.1500 
 48 H        0.3090    -5.3910     0.7170 H     1 <1>   0.0800 
 49 H        0.1250    -5.7230    -0.9940 H     1 <1>   0.0800 
 50 H       -0.3450    -6.9240     0.1870 H     1 <1>   0.0800 
 51 H        4.7360     8.9040    -1.4140 H     1 <1>   0.0800 
 52 H        4.1600     7.3470    -2.0000 H     1 <1>   0.0800 
 53 H        4.7170     7.5200    -0.3250 H     1 <1>   0.0800 
@<TRIPOS>BOND
  1   1   2  2   
  2   2   3  am  
  3   2   4  1   
  4   3   5  1   
  5   3   6  1   
  6   4   7  1   
  7   4   8  2   
  8   5   9  1   
  9   5  30  1   
 10   5  31  1   
 11   6  10  1   
 12   6  32  1   
 13   6  33  1   
 14   7  11  1   
 15   8  12  1   
 16   8  34  1   
 17   9  10  1   
 18   9  13  1   
 19   9  35  1   
 20  10  14  1   
 21  10  36  1   
 22  11  12  2   
 23  11  15  1   
 24  12  37  1   
 25  13  16  1   
 26  14  17  1   
 27  14  38  1   
 28  14  39  1   
 29  15  18  ar  
 30  15  19  ar  
 31  16  40  1   
 32  16  41  1   
 33  16  42  1   
 34  17  20  1   
 35  17  21  2   
 36  18  22  ar  
 37  18  43  1   
 38  19  23  ar  
 39  19  44  1   
 40  20  24  1   
 41  21  25  1   
 42  21  45  1   
 43  22  26  ar  
 44  22  46  1   
 45  23  26  ar  
 46  23  47  1   
 47  24  25  2   
 48  25  27  1   
 49  26  28  1   
 50  27  48  1   
 51  27  49  1   
 52  27  50  1   
 53  28  29  1   
 54  29  51  1   
 55  29  52  1   
 56  29  53  1   
@<TRIPOS>SUBSTRUCTURE
  1 ****   2 GROUP 4 **** **** 0

# MOE 2024.06 (io_trps.svl 2023.06)
