@<TRIPOS>MOLECULE
NONAME
57 59 1 0 0 
SMALL
USER_CHARGES


@<TRIPOS>ATOM
  1 O       -0.9250    -2.2310    -0.1150 O.2   1 <1>  -0.5700 
  2 C       -0.0120    -1.5760     0.3520 C.2   1 <1>   0.5690 
  3 N       -0.0380    -0.2020     0.3520 N.am  1 <1>  -0.6600 
  4 C        1.1860    -2.3480     0.9430 C.3   1 <1>   0.1710 
  5 C        0.9870     0.6690     0.9980 C.3   1 <1>   0.0600 
  6 C       -1.1380     0.5620    -0.3060 C.3   1 <1>   0.0600 
  7 N        1.2790    -3.7650     0.4790 N.3   1 <1>  -0.8100 
  8 C        1.7020    -3.8350    -0.9470 C.3   1 <1>   0.1100 
  9 C        2.1850    -4.5720     1.3290 C.3   1 <1>   0.1100 
 10 C        1.0990    -5.0400    -1.6960 C.3   1 <1>   0.2090 
 11 C        1.7920    -6.0610     1.3710 C.3   1 <1>  -0.1600 
 12 N        0.5850    -6.1020    -0.7770 N.pl3 1 <1>  -0.8380 
 13 C        1.6350    -6.7790     0.0190 C.3   1 <1>   0.2090 
 14 C       -0.6890    -6.1260    -0.3290 C.ar  1 <1>   0.7710 
 15 N       -1.2680    -7.2920    -0.0850 N.ar  1 <1>  -0.6200 
 16 N       -1.3050    -4.9580    -0.1020 N.ar  1 <1>  -0.1790 
 17 C       -2.5180    -7.2870     0.3450 C.ar  1 <1>   0.4100 
 18 C       -2.5840    -4.9010     0.3190 C.ar  1 <1>   0.2110 
 19 N       -3.1060    -8.4880     0.5990 N.pl3 1 <1>  -0.8380 
 20 C       -3.2190    -6.0770     0.5380 C.ar  1 <1>  -0.1500 
 21 C       -4.1250    -8.7190     1.6650 C.3   1 <1>   0.2090 
 22 C       -2.6620    -9.7480    -0.0740 C.3   1 <1>   0.2090 
 23 C       -5.3600    -9.3740     1.0470 C.3   1 <1>  -0.1600 
 24 C       -3.8730   -10.4410    -0.7010 C.3   1 <1>  -0.1600 
 25 C       -4.9630   -10.6720     0.3450 C.3   1 <1>   0.2000 
 26 O       -6.0750   -11.1860    -0.2830 O.3   1 <1>  -0.6800 
 27 H        1.0680    -2.3310     2.0120 H     1 <1>   0.0800 
 28 H        2.0990    -1.8350     0.6990 H     1 <1>   0.0800 
 29 H        1.5650     0.1260     1.7240 H     1 <1>   0.0800 
 30 H        0.5030     1.4870     1.5040 H     1 <1>   0.0800 
 31 H        1.6470     1.0690     0.2470 H     1 <1>   0.0800 
 32 H       -1.8070    -0.0960    -0.8320 H     1 <1>   0.0800 
 33 H       -0.7250     1.2620    -1.0110 H     1 <1>   0.0800 
 34 H       -1.7010     1.1010     0.4360 H     1 <1>   0.0800 
 35 H        2.7760    -3.8760    -1.0160 H     1 <1>   0.0800 
 36 H        1.3980    -2.9460    -1.4740 H     1 <1>   0.0800 
 37 H        2.1490    -4.2060     2.3420 H     1 <1>   0.0800 
 38 H        3.2040    -4.4700     0.9930 H     1 <1>   0.0800 
 39 H        1.8400    -5.4610    -2.3550 H     1 <1>   0.0800 
 40 H        0.2950    -4.6920    -2.3220 H     1 <1>   0.0800 
 41 H        0.8820    -6.1650     1.9340 H     1 <1>   0.0800 
 42 H        2.5490    -6.5820     1.9300 H     1 <1>   0.0800 
 43 H        1.3530    -7.8060     0.1850 H     1 <1>   0.0800 
 44 H        2.5700    -6.7750    -0.5160 H     1 <1>   0.0800 
 45 H       -0.6960    -4.1220    -0.1430 H     1 <1>   0.4570 
 46 H       -3.0390    -3.9330     0.4620 H     1 <1>   0.1500 
 47 H       -4.2440    -6.1060     0.8480 H     1 <1>   0.1500 
 48 H       -4.3960    -7.8020     2.1560 H     1 <1>   0.0800 
 49 H       -3.7050    -9.3730     2.4110 H     1 <1>   0.0800 
 50 H       -2.1970   -10.3940     0.6520 H     1 <1>   0.0800 
 51 H       -1.9400    -9.5410    -0.8460 H     1 <1>   0.0800 
 52 H       -5.8030    -8.6870     0.3480 H     1 <1>   0.0800 
 53 H       -6.0720    -9.5890     1.8230 H     1 <1>   0.0800 
 54 H       -3.5640   -11.3850    -1.1130 H     1 <1>   0.0800 
 55 H       -4.2430    -9.8210    -1.4970 H     1 <1>   0.0800 
 56 H       -4.6340   -11.3980     1.0700 H     1 <1>   0.0800 
 57 H       -6.3750   -10.5780    -0.9840 H     1 <1>   0.4000 
@<TRIPOS>BOND
  1   1   2  2   
  2   2   3  am  
  3   2   4  1   
  4   3   5  1   
  5   3   6  1   
  6   4   7  1   
  7   4  27  1   
  8   4  28  1   
  9   5  29  1   
 10   5  30  1   
 11   5  31  1   
 12   6  32  1   
 13   6  33  1   
 14   6  34  1   
 15   7   8  1   
 16   7   9  1   
 17   8  10  1   
 18   8  35  1   
 19   8  36  1   
 20   9  11  1   
 21   9  37  1   
 22   9  38  1   
 23  10  12  1   
 24  10  39  1   
 25  10  40  1   
 26  11  13  1   
 27  11  41  1   
 28  11  42  1   
 29  12  13  1   
 30  12  14  1   
 31  13  43  1   
 32  13  44  1   
 33  14  15  ar  
 34  14  16  ar  
 35  15  17  ar  
 36  16  18  ar  
 37  16  45  1   
 38  17  19  1   
 39  17  20  ar  
 40  18  20  ar  
 41  18  46  1   
 42  19  21  1   
 43  19  22  1   
 44  20  47  1   
 45  21  23  1   
 46  21  48  1   
 47  21  49  1   
 48  22  24  1   
 49  22  50  1   
 50  22  51  1   
 51  23  25  1   
 52  23  52  1   
 53  23  53  1   
 54  24  25  1   
 55  24  54  1   
 56  24  55  1   
 57  25  26  1   
 58  25  56  1   
 59  26  57  1   
@<TRIPOS>SUBSTRUCTURE
  1 ****  16 GROUP 4 **** **** 0

# MOE 2024.06 (io_trps.svl 2023.06)
