@<TRIPOS>MOLECULE
NONAME
41 42 1 0 0 
SMALL
USER_CHARGES


@<TRIPOS>ATOM
  1 S        0.3680     0.8570     0.8940 S.3   1 <1>  -0.0800 
  2 C        1.4740    -0.4380     0.5080 C.2   1 <1>   0.1980 
  3 C        1.5140     2.0030     0.2590 C.2   1 <1>  -0.1400 
  4 N        2.5610    -0.0520    -0.0270 N.2   1 <1>  -0.5650 
  5 C        1.0380    -1.8450     0.8440 C.3   1 <1>  -0.0600 
  6 C        2.5910     1.3280    -0.1900 C.2   1 <1>   0.0460 
  7 C        1.0920     3.4600     0.3440 C.3   1 <1>  -0.0600 
  8 C        3.8650     1.8760    -0.8330 C.3   1 <1>   0.6040 
  9 N        4.6860     2.5670     0.2050 N.4   1 <1>  -0.9590 
 10 C        3.5550     2.7720    -2.0340 C.3   1 <1>  -0.2400 
 11 C        5.8990     3.2800    -0.2920 C.3   1 <1>   0.4860 
 12 C        4.9920     1.6640     1.3570 C.3   1 <1>   0.2630 
 13 C        5.5510     4.7490    -0.5360 C.ar  1 <1>   0.1670 
 14 N        4.5840     5.2630     0.2220 N.ar  1 <1>  -0.6200 
 15 C        6.2310     5.4580    -1.5140 C.ar  1 <1>  -0.1500 
 16 C        4.2920     6.5360     0.0050 C.ar  1 <1>   0.1670 
 17 C        5.9110     6.7800    -1.7350 C.ar  1 <1>  -0.1500 
 18 C        4.9180     7.3210    -0.9500 C.ar  1 <1>  -0.1500 
 19 C        3.2060     7.1310     0.8770 C.3   1 <1>  -0.0970 
 20 H        0.1340    -2.0820     0.3140 H     1 <1>   0.0800 
 21 H        0.8620    -1.9320     1.9000 H     1 <1>   0.0800 
 22 H        1.8030    -2.5440     0.5570 H     1 <1>   0.0800 
 23 H        0.7810     3.6900     1.3480 H     1 <1>   0.0800 
 24 H        0.2620     3.6380    -0.3180 H     1 <1>   0.0800 
 25 H        1.8940     4.1220     0.0820 H     1 <1>   0.0800 
 26 H        4.4160     1.0250    -1.1980 H     1 <1>   0.0800 
 27 H        4.1000     3.3500     0.5490 H     1 <1>   0.4500 
 28 H        3.1230     3.7080    -1.7370 H     1 <1>   0.0800 
 29 H        2.8490     2.2670    -2.6710 H     1 <1>   0.0800 
 30 H        4.4370     2.9540    -2.6170 H     1 <1>   0.0800 
 31 H        6.2700     2.8230    -1.1940 H     1 <1>   0.0800 
 32 H        6.6730     3.2430     0.4550 H     1 <1>   0.0800 
 33 H        5.5950     0.8310     1.0320 H     1 <1>   0.0800 
 34 H        4.0800     1.2760     1.7830 H     1 <1>   0.0800 
 35 H        5.5220     2.2030     2.1250 H     1 <1>   0.0800 
 36 H        7.0040     4.9980    -2.1030 H     1 <1>   0.1500 
 37 H        6.4150     7.3670    -2.4850 H     1 <1>   0.1500 
 38 H        4.6350     8.3510    -1.0810 H     1 <1>   0.1500 
 39 H        3.4660     7.0090     1.9130 H     1 <1>   0.0800 
 40 H        2.2730     6.6310     0.6900 H     1 <1>   0.0800 
 41 H        3.0800     8.1790     0.6770 H     1 <1>   0.0800 
@<TRIPOS>BOND
  1   1   2  1   
  2   1   3  1   
  3   2   4  2   
  4   2   5  1   
  5   3   6  2   
  6   3   7  1   
  7   4   6  1   
  8   5  20  1   
  9   5  21  1   
 10   5  22  1   
 11   6   8  1   
 12   7  23  1   
 13   7  24  1   
 14   7  25  1   
 15   8   9  1   
 16   8  10  1   
 17   8  26  1   
 18   9  11  1   
 19   9  12  1   
 20   9  27  1   
 21  10  28  1   
 22  10  29  1   
 23  10  30  1   
 24  11  13  1   
 25  11  31  1   
 26  11  32  1   
 27  12  33  1   
 28  12  34  1   
 29  12  35  1   
 30  13  14  ar  
 31  13  15  ar  
 32  14  16  ar  
 33  15  17  ar  
 34  15  36  1   
 35  16  18  ar  
 36  16  19  1   
 37  17  18  ar  
 38  17  37  1   
 39  18  38  1   
 40  19  39  1   
 41  19  40  1   
 42  19  41  1   
@<TRIPOS>SUBSTRUCTURE
  1 ****   9 GROUP 4 **** **** 0

# MOE 2024.06 (io_trps.svl 2023.06)
