@<TRIPOS>MOLECULE
NONAME
52 54 1 0 0 
SMALL
USER_CHARGES


@<TRIPOS>ATOM
  1 S        0.7280     0.4210    -0.2080 S.3   1 <1>  -0.4600 
  2 C       -0.9110    -0.1240     0.3460 C.3   1 <1>   0.2140 
  3 C        0.4580     2.1560    -0.6590 C.3   1 <1>   0.0700 
  4 C       -0.8160    -1.5780     0.7750 C.ar  1 <1>  -0.1430 
  5 C        1.7810     2.7170    -1.1860 C.3   1 <1>  -0.0990 
  6 C       -0.7200    -1.9090     2.1180 C.ar  1 <1>  -0.1500 
  7 C       -0.8300    -2.5880    -0.1750 C.ar  1 <1>  -0.1500 
  8 C        1.6750     4.1700    -1.6200 C.2   1 <1>   0.5690 
  9 C       -0.6460    -3.2360     2.5080 C.ar  1 <1>  -0.1500 
 10 C       -0.7550    -3.9150     0.2130 C.ar  1 <1>  -0.1500 
 11 O        0.6000     4.7180    -1.5370 O.2   1 <1>  -0.5700 
 12 N        2.7800     4.8290    -2.0890 N.am  1 <1>  -0.6600 
 13 C       -0.6650    -4.2390     1.5550 C.ar  1 <1>  -0.1500 
 14 C        2.7000     6.2670    -2.5000 C.3   1 <1>   0.3210 
 15 C        4.1560     4.2560    -2.1700 C.3   1 <1>   0.0600 
 16 C        3.6320     7.1430    -1.6670 C.2   1 <1>   0.1080 
 17 N        4.7230     7.6650    -2.1460 N.2   1 <1>  -0.7070 
 18 C        3.4340     7.4800    -0.3270 C.2   1 <1>  -0.1810 
 19 N        5.2500     8.3530    -1.1170 N.pl3 1 <1>   0.3000 
 20 C        4.4970     8.2490    -0.0030 C.2   1 <1>  -0.3320 
 21 C        2.2630     7.0650     0.5520 C.3   1 <1>   0.0210 
 22 C        4.8640     8.9000     1.3210 C.3   1 <1>   0.0200 
 23 C        1.9230     8.1500     1.5820 C.3   1 <1>  -0.1600 
 24 C        4.3660     8.0620     2.5060 C.3   1 <1>  -0.1600 
 25 C        2.8610     8.1960     2.8020 C.3   1 <1>  -0.1600 
 26 H       -1.5890    -0.0030    -0.4800 H     1 <1>   0.0800 
 27 H       -1.2050     0.5130     1.1610 H     1 <1>   0.0800 
 28 H        0.1300     2.6790     0.2220 H     1 <1>   0.0800 
 29 H       -0.3090     2.1830    -1.4140 H     1 <1>   0.0800 
 30 H        2.0920     2.1300    -2.0290 H     1 <1>   0.0800 
 31 H        2.5230     2.6410    -0.4140 H     1 <1>   0.0800 
 32 H       -0.6990    -1.1360     2.8660 H     1 <1>   0.1500 
 33 H       -0.8930    -2.3420    -1.2200 H     1 <1>   0.1500 
 34 H       -0.5710    -3.4860     3.5510 H     1 <1>   0.1500 
 35 H       -0.7660    -4.6930    -0.5290 H     1 <1>   0.1500 
 36 H       -0.6060    -5.2700     1.8570 H     1 <1>   0.1500 
 37 H        1.6970     6.6410    -2.4080 H     1 <1>   0.0800 
 38 H        2.9810     6.3500    -3.5340 H     1 <1>   0.0800 
 39 H        4.1400     3.1820    -2.1770 H     1 <1>   0.0800 
 40 H        4.7360     4.5950    -1.3280 H     1 <1>   0.0800 
 41 H        4.6380     4.5940    -3.0720 H     1 <1>   0.0800 
 42 H        6.1280     8.8770    -1.2040 H     1 <1>   0.2700 
 43 H        2.4810     6.1310     1.0380 H     1 <1>   0.0800 
 44 H        1.4000     6.9160    -0.0710 H     1 <1>   0.0800 
 45 H        4.4620     9.8980     1.3690 H     1 <1>   0.0800 
 46 H        5.9350     8.9700     1.3870 H     1 <1>   0.0800 
 47 H        0.9200     7.9870     1.9360 H     1 <1>   0.0800 
 48 H        1.9310     9.1060     1.0870 H     1 <1>   0.0800 
 49 H        4.9080     8.3540     3.3880 H     1 <1>   0.0800 
 50 H        4.6030     7.0290     2.3180 H     1 <1>   0.0800 
 51 H        2.5860     7.4060     3.4790 H     1 <1>   0.0800 
 52 H        2.6910     9.1260     3.3180 H     1 <1>   0.0800 
@<TRIPOS>BOND
  1   1   2  1   
  2   1   3  1   
  3   2   4  1   
  4   2  26  1   
  5   2  27  1   
  6   3   5  1   
  7   3  28  1   
  8   3  29  1   
  9   4   6  ar  
 10   4   7  ar  
 11   5   8  1   
 12   5  30  1   
 13   5  31  1   
 14   6   9  ar  
 15   6  32  1   
 16   7  10  ar  
 17   7  33  1   
 18   8  11  2   
 19   8  12  am  
 20   9  13  ar  
 21   9  34  1   
 22  10  13  ar  
 23  10  35  1   
 24  12  14  1   
 25  12  15  1   
 26  13  36  1   
 27  14  16  1   
 28  14  37  1   
 29  14  38  1   
 30  15  39  1   
 31  15  40  1   
 32  15  41  1   
 33  16  17  2   
 34  16  18  1   
 35  17  19  1   
 36  18  20  2   
 37  18  21  1   
 38  19  20  1   
 39  19  42  1   
 40  20  22  1   
 41  21  23  1   
 42  21  43  1   
 43  21  44  1   
 44  22  24  1   
 45  22  45  1   
 46  22  46  1   
 47  23  25  1   
 48  23  47  1   
 49  23  48  1   
 50  24  25  1   
 51  24  49  1   
 52  24  50  1   
 53  25  51  1   
 54  25  52  1   
@<TRIPOS>SUBSTRUCTURE
  1 ****   5 GROUP 4 **** **** 0

# MOE 2024.06 (io_trps.svl 2023.06)
