@<TRIPOS>MOLECULE
NONAME
41 42 1 0 0 
SMALL
USER_CHARGES


@<TRIPOS>ATOM
  1 S       -0.0290     0.7690    -0.9020 S.o2  1 <1>   1.3330 
  2 O       -0.1570    -0.6630    -1.0510 O.2   1 <1>  -0.6500 
  3 O       -0.7130     1.6300    -1.8410 O.2   1 <1>  -0.6500 
  4 N        1.6290     1.1300    -0.9260 N.am  1 <1>  -0.8490 
  5 C       -0.5690     1.1950     0.7630 C.3   1 <1>  -0.0550 
  6 C        2.4840     0.0460    -0.4360 C.3   1 <1>   0.1160 
  7 C        2.1000     1.5950    -2.2320 C.3   1 <1>   0.1160 
  8 C       -0.4440     2.6560     1.2670 C.3   1 <1>  -0.0800 
  9 C       -1.1120     3.7080     0.3740 C.3   1 <1>   0.2000 
 10 C        1.0000     3.1440     1.4490 C.3   1 <1>   0.2090 
 11 O       -1.6360     4.6820     1.2120 O.3   1 <1>  -0.6800 
 12 C        0.0240     4.3420    -0.4310 C.3   1 <1>   0.2090 
 13 N        1.2390     4.1790     0.4110 N.pl3 1 <1>  -0.8380 
 14 C        2.4980     4.3940    -0.1020 C.ar  1 <1>   0.7200 
 15 N        3.5240     4.0010     0.6530 N.ar  1 <1>  -0.6200 
 16 N        2.5670     4.9840    -1.2980 N.ar  1 <1>  -0.6200 
 17 C        4.7250     4.2140     0.1530 C.ar  1 <1>   0.3930 
 18 C        3.7760     5.1940    -1.7770 C.ar  1 <1>   0.1600 
 19 O        5.8130     3.8330     0.8600 O.3   1 <1>  -0.3630 
 20 C        4.8900     4.8170    -1.0790 C.ar  1 <1>   0.1900 
 21 C        5.6840     3.2610     2.1460 C.3   1 <1>   0.0400 
 22 F        6.0830     5.0320    -1.5870 F     1 <1>  -0.1900 
 23 H       -1.6050     0.9260     0.8370 H     1 <1>   0.0800 
 24 H       -0.0450     0.5640     1.4530 H     1 <1>   0.0800 
 25 H        3.5040     0.3850    -0.3670 H     1 <1>   0.0800 
 26 H        2.4380    -0.8000    -1.1030 H     1 <1>   0.0800 
 27 H        2.1630    -0.2680     0.5420 H     1 <1>   0.0800 
 28 H        3.1450     1.8500    -2.1820 H     1 <1>   0.0800 
 29 H        1.5590     2.4780    -2.5290 H     1 <1>   0.0800 
 30 H        1.9530     0.8310    -2.9780 H     1 <1>   0.0800 
 31 H       -0.9170     2.6640     2.2340 H     1 <1>   0.0800 
 32 H       -1.9090     3.3270    -0.2410 H     1 <1>   0.0800 
 33 H        1.7070     2.3360     1.3640 H     1 <1>   0.0800 
 34 H        1.1180     3.6000     2.4170 H     1 <1>   0.0800 
 35 H       -0.8890     5.1940     1.5870 H     1 <1>   0.4000 
 36 H       -0.1680     5.3810    -0.6400 H     1 <1>   0.0800 
 37 H        0.1620     3.8270    -1.3630 H     1 <1>   0.0800 
 38 H        3.8770     5.6700    -2.7360 H     1 <1>   0.1500 
 39 H        6.6690     3.0480     2.5220 H     1 <1>   0.0800 
 40 H        5.1130     2.3530     2.0680 H     1 <1>   0.0800 
 41 H        5.1860     3.9640     2.7910 H     1 <1>   0.0800 
@<TRIPOS>BOND
  1   1   2  2   
  2   1   3  2   
  3   1   4  am  
  4   1   5  1   
  5   4   6  1   
  6   4   7  1   
  7   5   8  1   
  8   5  23  1   
  9   5  24  1   
 10   6  25  1   
 11   6  26  1   
 12   6  27  1   
 13   7  28  1   
 14   7  29  1   
 15   7  30  1   
 16   8   9  1   
 17   8  10  1   
 18   8  31  1   
 19   9  11  1   
 20   9  12  1   
 21   9  32  1   
 22  10  13  1   
 23  10  33  1   
 24  10  34  1   
 25  11  35  1   
 26  12  13  1   
 27  12  36  1   
 28  12  37  1   
 29  13  14  1   
 30  14  15  ar  
 31  14  16  ar  
 32  15  17  ar  
 33  16  18  ar  
 34  17  19  1   
 35  17  20  ar  
 36  18  20  ar  
 37  18  38  1   
 38  19  21  1   
 39  20  22  1   
 40  21  39  1   
 41  21  40  1   
 42  21  41  1   
@<TRIPOS>SUBSTRUCTURE
  1 ****  14 GROUP 4 **** **** 0

# MOE 2024.06 (io_trps.svl 2023.06)
