@<TRIPOS>MOLECULE
NONAME
49 53 1 0 0 
SMALL
USER_CHARGES


@<TRIPOS>ATOM
  1 N        1.1780     0.7070     1.5380 N.ar  1 <1>  -0.6200 
  2 C        0.4060     1.7580     1.7870 C.ar  1 <1>   0.7200 
  3 C        1.7890     0.7680     0.3810 C.ar  1 <1>   0.1660 
  4 N        0.1820     2.8170     1.0230 N.ar  1 <1>  -0.6200 
  5 N       -0.2450     1.7400     2.9500 N.pl3 1 <1>  -0.9000 
  6 C        1.6530     1.8060    -0.4910 C.ar  1 <1>  -0.1430 
  7 C        2.7390    -0.2840    -0.1380 C.3   1 <1>   0.1430 
  8 C        0.8180     2.8350    -0.1270 C.ar  1 <1>   0.1600 
  9 C        2.4850     1.6050    -1.7330 C.3   1 <1>  -0.0170 
 10 C        3.7450    -0.6190     0.9740 C.3   1 <1>   0.3430 
 11 C        1.9600    -1.5510    -0.5560 C.3   1 <1>  -0.1600 
 12 C        3.4030     0.4260    -1.3500 C.3   1 <1>  -0.1600 
 13 N        4.6490    -1.7500     0.5730 N.4   1 <1>  -0.9590 
 14 C        2.8960    -2.7400    -0.8460 C.3   1 <1>  -0.1600 
 15 C        3.8830    -2.9950     0.2980 C.3   1 <1>   0.3430 
 16 C        5.7370    -1.9450     1.5640 C.3   1 <1>   0.4860 
 17 C        6.6360    -0.7360     1.4700 C.ar  1 <1>  -0.1430 
 18 C        7.3620    -0.5200     0.2890 C.ar  1 <1>   0.0000 
 19 C        6.7380     0.1760     2.4990 C.ar  1 <1>  -0.1500 
 20 C        8.1430     0.6230     0.1640 C.ar  1 <1>  -0.1520 
 21 C        7.5100    -1.2320    -0.9240 C.2   1 <1>  -0.1500 
 22 C        7.5410     1.3140     2.3670 C.ar  1 <1>  -0.1500 
 23 N        8.7280     0.6190    -1.0760 N.pl3 1 <1>   0.0330 
 24 C        8.2410     1.5470     1.2070 C.ar  1 <1>  -0.1500 
 25 C        8.3310    -0.5150    -1.7250 C.2   1 <1>  -0.3020 
 26 H       -1.0100     2.4060     3.0180 H     1 <1>   0.4000 
 27 H       -0.4050     0.8250     3.3600 H     1 <1>   0.4000 
 28 H        0.6720     3.6790    -0.7800 H     1 <1>   0.1500 
 29 H        3.0510     2.4870    -1.9790 H     1 <1>   0.0800 
 30 H        1.8450     1.3410    -2.5570 H     1 <1>   0.0800 
 31 H        3.1980    -0.8870     1.8630 H     1 <1>   0.0800 
 32 H        4.3230     0.2640     1.1960 H     1 <1>   0.0800 
 33 H        1.3470    -1.3410    -1.4170 H     1 <1>   0.0800 
 34 H        1.2950    -1.8260     0.2460 H     1 <1>   0.0800 
 35 H        3.5570    -0.2280    -2.1890 H     1 <1>   0.0800 
 36 H        4.3560     0.8320    -1.0560 H     1 <1>   0.0800 
 37 H        5.1240    -1.4510    -0.2890 H     1 <1>   0.4500 
 38 H        3.4430    -2.5710    -1.7570 H     1 <1>   0.0800 
 39 H        2.3020    -3.6250    -0.9960 H     1 <1>   0.0800 
 40 H        3.3400    -3.2930     1.1810 H     1 <1>   0.0800 
 41 H        4.5540    -3.7940     0.0230 H     1 <1>   0.0800 
 42 H        6.3070    -2.8300     1.3300 H     1 <1>   0.0800 
 43 H        5.3330    -2.0410     2.5590 H     1 <1>   0.0800 
 44 H        6.2030     0.0410     3.4240 H     1 <1>   0.1500 
 45 H        7.0610    -2.1820    -1.1560 H     1 <1>   0.1500 
 46 H        7.6070     2.0110     3.1860 H     1 <1>   0.1500 
 47 H        9.3720     1.3350    -1.4310 H     1 <1>   0.2700 
 48 H        8.8590     2.4210     1.0980 H     1 <1>   0.1500 
 49 H        8.6730    -0.7450    -2.7200 H     1 <1>   0.1500 
@<TRIPOS>BOND
  1   1   2  ar  
  2   1   3  ar  
  3   2   4  ar  
  4   2   5  1   
  5   3   6  ar  
  6   3   7  1   
  7   4   8  ar  
  8   5  26  1   
  9   5  27  1   
 10   6   8  ar  
 11   6   9  1   
 12   7  10  1   
 13   7  11  1   
 14   7  12  1   
 15   8  28  1   
 16   9  12  1   
 17   9  29  1   
 18   9  30  1   
 19  10  13  1   
 20  10  31  1   
 21  10  32  1   
 22  11  14  1   
 23  11  33  1   
 24  11  34  1   
 25  12  35  1   
 26  12  36  1   
 27  13  15  1   
 28  13  16  1   
 29  13  37  1   
 30  14  15  1   
 31  14  38  1   
 32  14  39  1   
 33  15  40  1   
 34  15  41  1   
 35  16  17  1   
 36  16  42  1   
 37  16  43  1   
 38  17  18  ar  
 39  17  19  ar  
 40  18  20  ar  
 41  18  21  1   
 42  19  22  ar  
 43  19  44  1   
 44  20  23  1   
 45  20  24  ar  
 46  21  25  2   
 47  21  45  1   
 48  22  24  ar  
 49  22  46  1   
 50  23  25  1   
 51  23  47  1   
 52  24  48  1   
 53  25  49  1   
@<TRIPOS>SUBSTRUCTURE
  1 ****  10 GROUP 4 **** **** 0

# MOE 2024.06 (io_trps.svl 2023.06)
