@<TRIPOS>MOLECULE
NONAME
35 35 1 0 0 
SMALL
USER_CHARGES


@<TRIPOS>ATOM
  1 N       -8.0230    -0.0410    -0.1110 N.pl3 1 <1>  -0.8380 
  2 C       -7.6650    -0.9990     0.8410 C.2   1 <1>  -0.0500 
  3 C       -6.7400     0.6510    -0.4730 C.3   1 <1>   0.6580 
  4 C       -9.2230     0.7770     0.1970 C.3   1 <1>   0.2090 
  5 C       -6.3460    -1.0880     0.9770 C.2   1 <1>  -0.0500 
  6 N       -5.6690    -0.1750     0.1630 N.pl3 1 <1>  -0.8380 
  7 C       -6.6160     2.0580     0.0970 C.3   1 <1>  -0.2400 
  8 C      -10.4850    -0.0320    -0.1060 C.3   1 <1>  -0.1600 
  9 C       -4.8110    -0.8490    -0.8390 C.3   1 <1>   0.1290 
 10 C      -11.7540     0.7960     0.1390 C.3   1 <1>  -0.1600 
 11 C      -13.0140    -0.0210    -0.1680 C.3   1 <1>  -0.1600 
 12 C      -14.2820     0.8050     0.0750 C.3   1 <1>  -0.1600 
 13 C      -15.5390    -0.0130    -0.2320 C.3   1 <1>  -0.2400 
 14 H       -8.4170    -1.5690     1.3610 H     1 <1>   0.1500 
 15 H       -6.6270     0.6630    -1.5440 H     1 <1>   0.0800 
 16 H       -9.2310     1.6610    -0.4150 H     1 <1>   0.0800 
 17 H       -9.2050     1.0700     1.2340 H     1 <1>   0.0800 
 18 H       -5.7940    -1.7540     1.6190 H     1 <1>   0.1500 
 19 H       -6.7980     2.0420     1.1550 H     1 <1>   0.0800 
 20 H       -7.3010     2.7260    -0.3880 H     1 <1>   0.0800 
 21 H       -5.6210     2.4190    -0.0780 H     1 <1>   0.0800 
 22 H      -10.5050    -0.9070     0.5190 H     1 <1>   0.0800 
 23 H      -10.4540    -0.3480    -1.1330 H     1 <1>   0.0800 
 24 H       -4.3240    -0.1170    -1.4590 H     1 <1>   0.0800 
 25 H       -5.4060    -1.5020    -1.4550 H     1 <1>   0.0800 
 26 H       -4.0580    -1.4310    -0.3360 H     1 <1>   0.0800 
 27 H      -11.7360     1.6720    -0.4860 H     1 <1>   0.0800 
 28 H      -11.7790     1.1170     1.1670 H     1 <1>   0.0800 
 29 H      -13.0340    -0.8980     0.4570 H     1 <1>   0.0800 
 30 H      -12.9900    -0.3440    -1.1950 H     1 <1>   0.0800 
 31 H      -14.2690     1.6820    -0.5500 H     1 <1>   0.0800 
 32 H      -14.3130     1.1280     1.1020 H     1 <1>   0.0800 
 33 H      -15.5410    -0.3280    -1.2610 H     1 <1>   0.0800 
 34 H      -16.4180     0.5830    -0.0560 H     1 <1>   0.0800 
 35 H      -15.5850    -0.8840     0.3970 H     1 <1>   0.0800 
@<TRIPOS>BOND
  1   1   2  1   
  2   1   3  1   
  3   1   4  1   
  4   2   5  2   
  5   2  14  1   
  6   3   6  1   
  7   3   7  1   
  8   3  15  1   
  9   4   8  1   
 10   4  16  1   
 11   4  17  1   
 12   5   6  1   
 13   5  18  1   
 14   6   9  1   
 15   7  19  1   
 16   7  20  1   
 17   7  21  1   
 18   8  10  1   
 19   8  22  1   
 20   8  23  1   
 21   9  24  1   
 22   9  25  1   
 23   9  26  1   
 24  10  11  1   
 25  10  27  1   
 26  10  28  1   
 27  11  12  1   
 28  11  29  1   
 29  11  30  1   
 30  12  13  1   
 31  12  31  1   
 32  12  32  1   
 33  13  33  1   
 34  13  34  1   
 35  13  35  1   
@<TRIPOS>SUBSTRUCTURE
  1 ****   4 GROUP 4 **** **** 0

# MOE 2024.06 (io_trps.svl 2023.06)
