@<TRIPOS>MOLECULE
NONAME
49 50 1 0 0 
SMALL
USER_CHARGES


@<TRIPOS>ATOM
  1 O       -0.5540    -1.1170     0.1550 O.2   1 <1>  -0.5700 
  2 C       -1.2260    -0.1090     0.0750 C.2   1 <1>   0.5690 
  3 N       -2.5800    -0.1730     0.3440 N.am  1 <1>  -0.6600 
  4 C       -0.4910     1.2030    -0.3610 C.3   1 <1>   0.3410 
  5 C       -3.1650    -1.4140     0.9510 C.3   1 <1>   0.3210 
  6 C       -3.5870     0.9150     0.1130 C.3   1 <1>   0.1400 
  7 O       -1.0360     2.3110     0.3690 O.3   1 <1>  -0.3630 
  8 C        1.0190     1.1370    -0.0420 C.3   1 <1>  -0.2400 
  9 C       -0.6680     1.4220    -1.8750 C.3   1 <1>  -0.2400 
 10 C       -4.1990    -2.0610     0.0320 C.2   1 <1>   0.0460 
 11 C       -4.1230     1.5290     1.4190 C.3   1 <1>   0.1200 
 12 C       -0.6130     3.5840     0.1920 C.ar  1 <1>   0.0820 
 13 N       -5.5140    -1.7630     0.1380 N.2   1 <1>  -0.5650 
 14 C       -3.9910    -2.9690    -0.9510 C.2   1 <1>  -0.3320 
 15 O       -3.0840     1.8610     2.2790 O.3   1 <1>  -0.6800 
 16 C        0.3490     4.1080     1.0420 C.ar  1 <1>  -0.1500 
 17 C       -1.1740     4.3810    -0.7930 C.ar  1 <1>  -0.1500 
 18 C       -6.0700    -2.4910    -0.7740 C.2   1 <1>   0.0360 
 19 N       -5.1990    -3.2480    -1.4710 N.pl3 1 <1>   0.0330 
 20 C       -2.7040    -3.6040    -1.4510 C.3   1 <1>  -0.0600 
 21 C        0.7720     5.4160     0.8830 C.ar  1 <1>  -0.1500 
 22 C       -0.7480     5.6890    -0.9490 C.ar  1 <1>  -0.1500 
 23 C        0.2300     6.2100    -0.1160 C.ar  1 <1>  -0.1440 
 24 C        0.6960     7.6450    -0.2880 C.3   1 <1>  -0.0970 
 25 H       -3.6310    -1.1690     1.8880 H     1 <1>   0.0800 
 26 H       -2.3990    -2.1350     1.1640 H     1 <1>   0.0800 
 27 H       -4.4170     0.5200    -0.4460 H     1 <1>   0.0800 
 28 H       -3.1760     1.6980    -0.4910 H     1 <1>   0.0800 
 29 H        1.1650     1.0070     1.0150 H     1 <1>   0.0800 
 30 H        1.5300     2.0220    -0.3730 H     1 <1>   0.0800 
 31 H        1.4650     0.2980    -0.5450 H     1 <1>   0.0800 
 32 H       -1.7030     1.5500    -2.1290 H     1 <1>   0.0800 
 33 H       -0.3060     0.5570    -2.4010 H     1 <1>   0.0800 
 34 H       -0.1030     2.2710    -2.2140 H     1 <1>   0.0800 
 35 H       -4.7730     0.8390     1.9270 H     1 <1>   0.0800 
 36 H       -4.6770     2.4260     1.2030 H     1 <1>   0.0800 
 37 H       -2.3000     2.1450     1.7560 H     1 <1>   0.4000 
 38 H        0.7590     3.4950     1.8230 H     1 <1>   0.1500 
 39 H       -1.9410     3.9850    -1.4310 H     1 <1>   0.1500 
 40 H       -7.1280    -2.5080    -0.9720 H     1 <1>   0.1500 
 41 H       -5.4160    -3.8960    -2.2330 H     1 <1>   0.2700 
 42 H       -1.8580    -3.2280    -0.9040 H     1 <1>   0.0800 
 43 H       -2.5580    -3.3770    -2.4920 H     1 <1>   0.0800 
 44 H       -2.7420    -4.6710    -1.3260 H     1 <1>   0.0800 
 45 H        1.5230     5.8140     1.5430 H     1 <1>   0.1500 
 46 H       -1.1830     6.3010    -1.7200 H     1 <1>   0.1500 
 47 H        1.7240     7.7460     0.0100 H     1 <1>   0.0800 
 48 H        0.0930     8.2980     0.3170 H     1 <1>   0.0800 
 49 H        0.6110     7.9480    -1.3160 H     1 <1>   0.0800 
@<TRIPOS>BOND
  1   1   2  2   
  2   2   3  am  
  3   2   4  1   
  4   3   5  1   
  5   3   6  1   
  6   4   7  1   
  7   4   8  1   
  8   4   9  1   
  9   5  10  1   
 10   5  25  1   
 11   5  26  1   
 12   6  11  1   
 13   6  27  1   
 14   6  28  1   
 15   7  12  1   
 16   8  29  1   
 17   8  30  1   
 18   8  31  1   
 19   9  32  1   
 20   9  33  1   
 21   9  34  1   
 22  10  13  1   
 23  10  14  2   
 24  11  15  1   
 25  11  35  1   
 26  11  36  1   
 27  12  16  ar  
 28  12  17  ar  
 29  13  18  2   
 30  14  19  1   
 31  14  20  1   
 32  15  37  1   
 33  16  21  ar  
 34  16  38  1   
 35  17  22  ar  
 36  17  39  1   
 37  18  19  1   
 38  18  40  1   
 39  19  41  1   
 40  20  42  1   
 41  20  43  1   
 42  20  44  1   
 43  21  23  ar  
 44  21  45  1   
 45  22  23  ar  
 46  22  46  1   
 47  23  24  1   
 48  24  47  1   
 49  24  48  1   
 50  24  49  1   
@<TRIPOS>SUBSTRUCTURE
  1 ****   2 GROUP 4 **** **** 0

# MOE 2024.06 (io_trps.svl 2023.06)
