@<TRIPOS>MOLECULE
NONAME
44 46 1 0 0 
SMALL
USER_CHARGES


@<TRIPOS>ATOM
  1 O        2.6420    -0.4750    -1.7110 O.2   1 <1>  -0.5700 
  2 C        1.7750    -1.0910    -1.1220 C.2   1 <1>   0.6900 
  3 N        1.9680    -1.6810     0.0920 N.am  1 <1>  -0.4200 
  4 N        0.4970    -1.2540    -1.5550 N.am  1 <1>  -0.6600 
  5 C        0.8100    -2.2590     0.5110 C.2   1 <1>   0.5690 
  6 C        3.2610    -1.7060     0.8290 C.3   1 <1>   0.2010 
  7 C       -0.2670    -2.0240    -0.5360 C.3   1 <1>   0.2010 
  8 C       -0.1130    -0.7410    -2.8060 C.3   1 <1>   0.0600 
  9 O        0.6510    -2.8690     1.5380 O.2   1 <1>  -0.5700 
 10 C        3.6310    -0.3610     1.4490 C.2   1 <1>   0.5690 
 11 O        3.9600    -0.3470     2.6110 O.2   1 <1>  -0.5700 
 12 N        3.6050     0.7590     0.6600 N.am  1 <1>  -0.4940 
 13 C        3.9310     2.1170     0.9050 C.2   1 <1>  -0.0880 
 14 N        3.8640     2.8080     2.0780 N.pl3 1 <1>   0.3140 
 15 C        4.3550     3.0020    -0.0260 C.2   1 <1>  -0.1810 
 16 N        4.2350     4.0930     1.9170 N.2   1 <1>  -0.7070 
 17 C        3.3660     2.3650     3.3870 C.3   1 <1>   0.0160 
 18 C        4.5460     4.2130     0.6530 C.2   1 <1>   0.2350 
 19 C        4.5680     2.7620    -1.5120 C.3   1 <1>  -0.0590 
 20 C        5.0060     5.4530     0.0660 C.ar  1 <1>   0.0540 
 21 C        4.2930     6.6340     0.2550 C.ar  1 <1>  -0.1500 
 22 C        6.1700     5.5170    -0.6990 C.ar  1 <1>  -0.1500 
 23 C        4.7080     7.8270    -0.3100 C.ar  1 <1>  -0.1500 
 24 C        6.5920     6.7050    -1.2690 C.ar  1 <1>  -0.1500 
 25 C        5.8600     7.8630    -1.0770 C.ar  1 <1>  -0.1500 
 26 H        4.0430    -1.9990     0.1540 H     1 <1>   0.0800 
 27 H        3.2060    -2.4400     1.6130 H     1 <1>   0.0800 
 28 H       -0.6220    -2.9550    -0.9390 H     1 <1>   0.0800 
 29 H       -1.0740    -1.4390    -0.1320 H     1 <1>   0.0800 
 30 H        0.6250    -0.2090    -3.3820 H     1 <1>   0.0800 
 31 H       -0.9210    -0.0700    -2.5710 H     1 <1>   0.0800 
 32 H       -0.4880    -1.5610    -3.3930 H     1 <1>   0.0800 
 33 H        3.3800     0.5660    -0.3270 H     1 <1>   0.3700 
 34 H        2.5190     1.7220     3.2470 H     1 <1>   0.0800 
 35 H        3.0760     3.2230     3.9640 H     1 <1>   0.0800 
 36 H        4.1490     1.8380     3.8980 H     1 <1>   0.0800 
 37 H        4.0500     1.8780    -1.8370 H     1 <1>   0.0800 
 38 H        5.6160     2.6400    -1.7170 H     1 <1>   0.0800 
 39 H        4.1960     3.5980    -2.0760 H     1 <1>   0.0800 
 40 H        3.4020     6.6030     0.8580 H     1 <1>   0.1500 
 41 H        6.7500     4.6230    -0.8390 H     1 <1>   0.1500 
 42 H        4.1380     8.7250    -0.1500 H     1 <1>   0.1500 
 43 H        7.4920     6.7300    -1.8580 H     1 <1>   0.1500 
 44 H        6.1860     8.7890    -1.5180 H     1 <1>   0.1500 
@<TRIPOS>BOND
  1   1   2  2   
  2   2   3  am  
  3   2   4  am  
  4   3   5  am  
  5   3   6  1   
  6   4   7  1   
  7   4   8  1   
  8   5   7  1   
  9   5   9  2   
 10   6  10  1   
 11   6  26  1   
 12   6  27  1   
 13   7  28  1   
 14   7  29  1   
 15   8  30  1   
 16   8  31  1   
 17   8  32  1   
 18  10  11  2   
 19  10  12  am  
 20  12  13  1   
 21  12  33  1   
 22  13  14  1   
 23  13  15  2   
 24  14  16  1   
 25  14  17  1   
 26  15  18  1   
 27  15  19  1   
 28  16  18  2   
 29  17  34  1   
 30  17  35  1   
 31  17  36  1   
 32  18  20  1   
 33  19  37  1   
 34  19  38  1   
 35  19  39  1   
 36  20  21  ar  
 37  20  22  ar  
 38  21  23  ar  
 39  21  40  1   
 40  22  24  ar  
 41  22  41  1   
 42  23  25  ar  
 43  23  42  1   
 44  24  25  ar  
 45  24  43  1   
 46  25  44  1   
@<TRIPOS>SUBSTRUCTURE
  1 ****  13 GROUP 4 **** **** 0

# MOE 2024.06 (io_trps.svl 2023.06)
