@<TRIPOS>MOLECULE
NONAME
50 52 1 0 0 
SMALL
USER_CHARGES


@<TRIPOS>ATOM
  1 CL      -1.8440    -1.1220     3.0860 Cl    1 <1>  -0.1770 
  2 C       -2.0300    -1.4910     1.3860 C.ar  1 <1>   0.1770 
  3 C       -2.3810    -2.7750     0.9750 C.ar  1 <1>   0.0830 
  4 C       -1.8270    -0.4760     0.4740 C.ar  1 <1>  -0.1500 
  5 O       -2.5960    -3.7510     1.8840 O.3   1 <1>  -0.3630 
  6 C       -2.5450    -3.0570    -0.3860 C.ar  1 <1>   0.0860 
  7 C       -1.9860    -0.7620    -0.8680 C.ar  1 <1>   0.1770 
  8 C       -1.4570    -4.4390     2.3540 C.3   1 <1>   0.0400 
  9 C       -2.9210    -4.3750    -0.8370 C.2   1 <1>   0.5440 
 10 C       -2.3380    -2.0240    -1.3010 C.ar  1 <1>  -0.1500 
 11 CL      -1.7390     0.5050    -2.0420 Cl    1 <1>  -0.1770 
 12 O       -2.0760    -5.2450    -0.9430 O.2   1 <1>  -0.5700 
 13 N       -4.2280    -4.6940    -1.1410 N.am  1 <1>  -0.6600 
 14 C       -4.5600    -6.0400    -1.6770 C.3   1 <1>   0.1400 
 15 C       -5.3790    -4.0170    -0.4840 C.3   1 <1>   0.1400 
 16 C       -4.9740    -6.9440    -0.4960 C.3   1 <1>   0.4230 
 17 C       -5.8290    -4.8880     0.6980 C.3   1 <1>  -0.1600 
 18 N       -5.1310    -8.4130    -0.8660 N.4   1 <1>  -0.9590 
 19 C       -6.1790    -6.3530     0.3000 C.3   1 <1>   0.0000 
 20 C       -5.9110    -9.2140     0.1330 C.3   1 <1>   0.3430 
 21 C       -5.6420    -8.6810    -2.2500 C.3   1 <1>   0.2630 
 22 C       -6.3910    -7.1860     1.5990 C.3   1 <1>  -0.1600 
 23 C       -7.4640    -6.3800    -0.5780 C.3   1 <1>   0.1200 
 24 C       -5.7990    -8.6080     1.5310 C.3   1 <1>  -0.1600 
 25 O       -8.5060    -5.6850     0.0130 O.3   1 <1>  -0.6800 
 26 H       -1.5540     0.5120     0.7980 H     1 <1>   0.1500 
 27 H       -1.7780    -5.1790     3.0640 H     1 <1>   0.0800 
 28 H       -0.7920    -3.7400     2.8290 H     1 <1>   0.0800 
 29 H       -0.9670    -4.9150     1.5220 H     1 <1>   0.0800 
 30 H       -2.4520    -2.2130    -2.3540 H     1 <1>   0.1500 
 31 H       -5.3500    -5.9390    -2.3980 H     1 <1>   0.0800 
 32 H       -3.7020    -6.4560    -2.1750 H     1 <1>   0.0800 
 33 H       -5.1000    -3.0400    -0.1280 H     1 <1>   0.0800 
 34 H       -6.1820    -3.8910    -1.1910 H     1 <1>   0.0800 
 35 H       -4.1400    -6.8970     0.1860 H     1 <1>   0.0800 
 36 H       -5.0260    -4.8870     1.4160 H     1 <1>   0.0800 
 37 H       -6.6650    -4.4120     1.1800 H     1 <1>   0.0800 
 38 H       -4.1680    -8.7800    -0.8310 H     1 <1>   0.4500 
 39 H       -6.9520    -9.2330    -0.1470 H     1 <1>   0.0800 
 40 H       -5.5530   -10.2320     0.1460 H     1 <1>   0.0800 
 41 H       -6.6350    -8.2790    -2.3720 H     1 <1>   0.0800 
 42 H       -5.6770    -9.7420    -2.4360 H     1 <1>   0.0800 
 43 H       -4.9940    -8.2330    -2.9860 H     1 <1>   0.0800 
 44 H       -5.9390    -6.6930     2.4430 H     1 <1>   0.0800 
 45 H       -7.4410    -7.2560     1.8260 H     1 <1>   0.0800 
 46 H       -7.8050    -7.3850    -0.7480 H     1 <1>   0.0800 
 47 H       -7.2970    -5.9130    -1.5320 H     1 <1>   0.0800 
 48 H       -6.3170    -9.2380     2.2340 H     1 <1>   0.0800 
 49 H       -4.7640    -8.5930     1.8270 H     1 <1>   0.0800 
 50 H       -8.7650    -6.0670     0.8750 H     1 <1>   0.4000 
@<TRIPOS>BOND
  1   1   2  1   
  2   2   3  ar  
  3   2   4  ar  
  4   3   5  1   
  5   3   6  ar  
  6   4   7  ar  
  7   4  26  1   
  8   5   8  1   
  9   6   9  1   
 10   6  10  ar  
 11   7  10  ar  
 12   7  11  1   
 13   8  27  1   
 14   8  28  1   
 15   8  29  1   
 16   9  12  2   
 17   9  13  am  
 18  10  30  1   
 19  13  14  1   
 20  13  15  1   
 21  14  16  1   
 22  14  31  1   
 23  14  32  1   
 24  15  17  1   
 25  15  33  1   
 26  15  34  1   
 27  16  18  1   
 28  16  19  1   
 29  16  35  1   
 30  17  19  1   
 31  17  36  1   
 32  17  37  1   
 33  18  20  1   
 34  18  21  1   
 35  18  38  1   
 36  19  22  1   
 37  19  23  1   
 38  20  24  1   
 39  20  39  1   
 40  20  40  1   
 41  21  41  1   
 42  21  42  1   
 43  21  43  1   
 44  22  24  1   
 45  22  44  1   
 46  22  45  1   
 47  23  25  1   
 48  23  46  1   
 49  23  47  1   
 50  24  48  1   
 51  24  49  1   
 52  25  50  1   
@<TRIPOS>SUBSTRUCTURE
  1 ****  13 GROUP 4 **** **** 0

# MOE 2024.06 (io_trps.svl 2023.06)
