@<TRIPOS>MOLECULE
NONAME
42 43 1 0 0 
SMALL
USER_CHARGES


@<TRIPOS>ATOM
  1 O        1.0290    -0.4030    -1.9650 O.2   1 <1>  -0.5700 
  2 C        1.6240    -0.7480    -0.9570 C.2   1 <1>   0.5440 
  3 N        2.1540     0.2000    -0.1110 N.am  1 <1>  -0.4940 
  4 C        1.7970    -2.1600    -0.6300 C.ar  1 <1>   0.3960 
  5 C        2.2450     1.6120    -0.1730 C.2   1 <1>  -0.0880 
  6 N        2.4630    -2.5040     0.4760 N.ar  1 <1>  -0.6200 
  7 C        1.2830    -3.1500    -1.4490 C.ar  1 <1>  -0.1500 
  8 N        1.3450     2.4940    -0.6930 N.pl3 1 <1>   0.3140 
  9 C        3.2620     2.3580     0.3210 C.2   1 <1>  -0.1810 
 10 C        2.5820    -3.7950     0.7140 C.ar  1 <1>   0.4770 
 11 C        1.4700    -4.4620    -1.1000 C.ar  1 <1>   0.1660 
 12 N        1.7600     3.7700    -0.5380 N.2   1 <1>  -0.7070 
 13 C        0.0220     2.2280    -1.2700 C.3   1 <1>   0.0160 
 14 C        2.9030     3.6800     0.0630 C.2   1 <1>   0.1080 
 15 C        4.5270     1.8650     1.0040 C.3   1 <1>   0.0210 
 16 N        2.1220    -4.7950    -0.0130 N.ar  1 <1>  -0.6200 
 17 C        3.3320    -4.1880     1.9640 C.3   1 <1>  -0.0970 
 18 C        0.9340    -5.5930    -1.9520 C.3   1 <1>  -0.0970 
 19 C        3.7140     4.9130     0.4210 C.3   1 <1>   0.0210 
 20 C        4.3170     1.7670     2.5160 C.3   1 <1>  -0.2400 
 21 C        4.6760     5.2900    -0.7110 C.3   1 <1>  -0.2400 
 22 H        2.6850    -0.2260     0.6540 H     1 <1>   0.3700 
 23 H        0.7480    -2.8850    -2.3420 H     1 <1>   0.1500 
 24 H       -0.4360     1.4090    -0.7500 H     1 <1>   0.0800 
 25 H        0.1380     1.9850    -2.3090 H     1 <1>   0.0800 
 26 H       -0.5880     3.1060    -1.1710 H     1 <1>   0.0800 
 27 H        5.3410     2.5340     0.7890 H     1 <1>   0.0800 
 28 H        4.7900     0.8980     0.6130 H     1 <1>   0.0800 
 29 H        3.6140    -3.3200     2.5300 H     1 <1>   0.0800 
 30 H        4.2160    -4.7330     1.6920 H     1 <1>   0.0800 
 31 H        2.7080    -4.8150     2.5730 H     1 <1>   0.0800 
 32 H        0.4190    -5.2170    -2.8160 H     1 <1>   0.0800 
 33 H        0.2530    -6.1890    -1.3720 H     1 <1>   0.0800 
 34 H        1.7480    -6.2160    -2.2760 H     1 <1>   0.0800 
 35 H        4.2630     4.7360     1.3260 H     1 <1>   0.0800 
 36 H        3.0360     5.7280     0.6000 H     1 <1>   0.0800 
 37 H        4.0650     2.7320     2.9190 H     1 <1>   0.0800 
 38 H        5.2130     1.4140     2.9940 H     1 <1>   0.0800 
 39 H        3.5140     1.0860     2.7350 H     1 <1>   0.0800 
 40 H        5.3640     4.4860    -0.8990 H     1 <1>   0.0800 
 41 H        5.2290     6.1740    -0.4520 H     1 <1>   0.0800 
 42 H        4.1160     5.4790    -1.6110 H     1 <1>   0.0800 
@<TRIPOS>BOND
  1   1   2  2   
  2   2   3  am  
  3   2   4  1   
  4   3   5  1   
  5   3  22  1   
  6   4   6  ar  
  7   4   7  ar  
  8   5   8  1   
  9   5   9  2   
 10   6  10  ar  
 11   7  11  ar  
 12   7  23  1   
 13   8  12  1   
 14   8  13  1   
 15   9  14  1   
 16   9  15  1   
 17  10  16  ar  
 18  10  17  1   
 19  11  16  ar  
 20  11  18  1   
 21  12  14  2   
 22  13  24  1   
 23  13  25  1   
 24  13  26  1   
 25  14  19  1   
 26  15  20  1   
 27  15  27  1   
 28  15  28  1   
 29  17  29  1   
 30  17  30  1   
 31  17  31  1   
 32  18  32  1   
 33  18  33  1   
 34  18  34  1   
 35  19  21  1   
 36  19  35  1   
 37  19  36  1   
 38  20  37  1   
 39  20  38  1   
 40  20  39  1   
 41  21  40  1   
 42  21  41  1   
 43  21  42  1   
@<TRIPOS>SUBSTRUCTURE
  1 ****   3 GROUP 4 **** **** 0

# MOE 2024.06 (io_trps.svl 2023.06)
