@<TRIPOS>MOLECULE
NONAME
52 55 1 0 0 
SMALL
USER_CHARGES


@<TRIPOS>ATOM
  1 O       -0.0320    -0.5600    -0.9800 O.2   1 <1>  -0.5700 
  2 C        0.0140    -1.3680    -0.0800 C.2   1 <1>   0.5690 
  3 N        0.8250    -1.2160     1.0060 N.am  1 <1>  -0.5790 
  4 C       -0.9180    -2.5860    -0.1990 C.3   1 <1>   0.4040 
  5 C        1.7350    -0.0800     1.2180 C.3   1 <1>   0.0490 
  6 N       -2.1250    -2.2940    -1.0590 N.4   1 <1>  -0.9590 
  7 C        3.0090    -0.3310     1.9530 C.3   1 <1>  -0.2000 
  8 C        1.8990     0.4350     2.6080 C.3   1 <1>  -0.2000 
  9 C       -3.0700    -1.3580    -0.3590 C.3   1 <1>   0.3430 
 10 C       -2.8160    -3.5140    -1.5590 C.3   1 <1>   0.3430 
 11 C       -4.2070    -0.8970    -1.2850 C.3   1 <1>   0.1430 
 12 C       -3.9250    -3.1100    -2.5360 C.3   1 <1>  -0.1600 
 13 C       -5.1730    -0.0860    -0.4580 C.ar  1 <1>   0.1670 
 14 C       -4.9200    -2.1150    -1.9100 C.3   1 <1>  -0.1600 
 15 C       -3.7330     0.1250    -2.3560 C.3   1 <1>  -0.1600 
 16 N       -5.6470    -0.4660     0.6990 N.ar  1 <1>  -0.6200 
 17 C       -5.4740     1.1030    -1.0470 C.ar  1 <1>  -0.1430 
 18 C       -4.7680     1.2670    -2.3690 C.3   1 <1>  -0.0170 
 19 C       -6.4750     0.4100     1.2790 C.ar  1 <1>   0.7200 
 20 C       -6.3310     1.9380    -0.3760 C.ar  1 <1>   0.1600 
 21 N       -6.8330     1.6000     0.7890 N.ar  1 <1>  -0.6200 
 22 N       -6.9990     0.0500     2.5030 N.pl3 1 <1>  -0.8380 
 23 C       -7.6350     1.0540     3.4010 C.3   1 <1>   0.1290 
 24 C       -7.1950    -1.3710     2.8990 C.3   1 <1>   0.1290 
 25 H        0.8550    -1.8990     1.7650 H     1 <1>   0.3700 
 26 H       -1.2320    -2.8930     0.7830 H     1 <1>   0.0800 
 27 H       -0.3500    -3.3870    -0.6410 H     1 <1>   0.0800 
 28 H        1.7420     0.6280     0.4020 H     1 <1>   0.1000 
 29 H       -1.7500    -1.7640    -1.8650 H     1 <1>   0.4500 
 30 H        3.8910     0.2120     1.6600 H     1 <1>   0.1000 
 31 H        3.2340    -1.3230     2.3030 H     1 <1>   0.1000 
 32 H        1.3510    -0.0250     3.4120 H     1 <1>   0.1000 
 33 H        2.0360     1.4920     2.7570 H     1 <1>   0.1000 
 34 H       -2.5420    -0.4880    -0.0030 H     1 <1>   0.0800 
 35 H       -3.5070    -1.8520     0.4940 H     1 <1>   0.0800 
 36 H       -3.2480    -4.0550    -0.7310 H     1 <1>   0.0800 
 37 H       -2.1140    -4.1610    -2.0610 H     1 <1>   0.0800 
 38 H       -4.4590    -3.9940    -2.8400 H     1 <1>   0.0800 
 39 H       -3.4830    -2.6890    -3.4210 H     1 <1>   0.0800 
 40 H       -5.6330    -1.7860    -2.6480 H     1 <1>   0.0800 
 41 H       -5.4760    -2.6220    -1.1380 H     1 <1>   0.0800 
 42 H       -3.6280    -0.3090    -3.3340 H     1 <1>   0.0800 
 43 H       -2.7830     0.5420    -2.0660 H     1 <1>   0.0800 
 44 H       -5.4730     1.1370    -3.1730 H     1 <1>   0.0800 
 45 H       -4.2960     2.2310    -2.4510 H     1 <1>   0.0800 
 46 H       -6.6060     2.8920    -0.7940 H     1 <1>   0.1500 
 47 H       -7.1590     2.0130     3.2900 H     1 <1>   0.0800 
 48 H       -7.5400     0.7450     4.4270 H     1 <1>   0.0800 
 49 H       -8.6770     1.1510     3.1520 H     1 <1>   0.0800 
 50 H       -7.0970    -2.0230     2.0490 H     1 <1>   0.0800 
 51 H       -8.1790    -1.5030     3.3130 H     1 <1>   0.0800 
 52 H       -6.4610    -1.6430     3.6370 H     1 <1>   0.0800 
@<TRIPOS>BOND
  1   1   2  2   
  2   2   3  am  
  3   2   4  1   
  4   3   5  1   
  5   3  25  1   
  6   4   6  1   
  7   4  26  1   
  8   4  27  1   
  9   5   7  1   
 10   5   8  1   
 11   5  28  1   
 12   6   9  1   
 13   6  10  1   
 14   6  29  1   
 15   7   8  1   
 16   7  30  1   
 17   7  31  1   
 18   8  32  1   
 19   8  33  1   
 20   9  11  1   
 21   9  34  1   
 22   9  35  1   
 23  10  12  1   
 24  10  36  1   
 25  10  37  1   
 26  11  13  1   
 27  11  14  1   
 28  11  15  1   
 29  12  14  1   
 30  12  38  1   
 31  12  39  1   
 32  13  16  ar  
 33  13  17  ar  
 34  14  40  1   
 35  14  41  1   
 36  15  18  1   
 37  15  42  1   
 38  15  43  1   
 39  16  19  ar  
 40  17  18  1   
 41  17  20  ar  
 42  18  44  1   
 43  18  45  1   
 44  19  21  ar  
 45  19  22  1   
 46  20  21  ar  
 47  20  46  1   
 48  22  23  1   
 49  22  24  1   
 50  23  47  1   
 51  23  48  1   
 52  23  49  1   
 53  24  50  1   
 54  24  51  1   
 55  24  52  1   
@<TRIPOS>SUBSTRUCTURE
  1 ****   9 GROUP 4 **** **** 0

# MOE 2024.06 (io_trps.svl 2023.06)
