@<TRIPOS>MOLECULE
NONAME
55 59 1 0 0 
SMALL
USER_CHARGES


@<TRIPOS>ATOM
  1 O       -1.9890     1.8580    -1.2160 O.2   1 <1>  -0.5700 
  2 C       -1.6500     2.6620    -0.3560 C.2   1 <1>   0.6160 
  3 N       -0.8280     3.7310    -0.6620 N.am  1 <1>  -0.4770 
  4 C       -2.1540     2.5320     0.9760 C.2   1 <1>  -0.1240 
  5 C       -0.5700     4.7410     0.2890 C.ar  1 <1>   0.1170 
  6 C       -0.1860     3.7990    -2.0120 C.3   1 <1>   0.0600 
  7 C       -1.8900     3.4720     1.9130 C.2   1 <1>  -0.1780 
  8 C       -2.9850     1.3000     1.2780 C.3   1 <1>   0.4810 
  9 C       -1.0990     4.6160     1.5890 C.ar  1 <1>   0.0280 
 10 C        0.1910     5.8780    -0.0070 C.ar  1 <1>  -0.1500 
 11 N       -4.1550     1.2420     0.3620 N.4   1 <1>  -0.9590 
 12 C       -0.8460     5.6100     2.5360 C.ar  1 <1>  -0.1500 
 13 C        0.4300     6.8490     0.9410 C.ar  1 <1>  -0.1500 
 14 C       -5.0800     2.4130     0.5300 C.3   1 <1>   0.3430 
 15 C       -4.8790    -0.0550     0.4300 C.3   1 <1>   0.3430 
 16 C       -0.0890     6.7150     2.2190 C.ar  1 <1>  -0.1500 
 17 C       -6.1490     2.4420    -0.5730 C.3   1 <1>   0.1430 
 18 C       -5.9350    -0.1060    -0.6790 C.3   1 <1>  -0.1600 
 19 C       -7.1110     3.5660    -0.2750 C.ar  1 <1>   0.1670 
 20 C       -6.9000     1.0930    -0.6240 C.3   1 <1>  -0.1600 
 21 C       -5.5740     2.8470    -1.9570 C.3   1 <1>  -0.1600 
 22 N       -7.6560     3.7880     0.8990 N.ar  1 <1>  -0.6200 
 23 C       -7.3400     4.3420    -1.3700 C.ar  1 <1>  -0.1430 
 24 C       -6.5650     3.8570    -2.5700 C.3   1 <1>  -0.0170 
 25 C       -8.4710     4.8360     0.9260 C.ar  1 <1>   0.4770 
 26 C       -8.1980     5.4040    -1.2270 C.ar  1 <1>   0.1600 
 27 N       -8.7740     5.6580    -0.0700 N.ar  1 <1>  -0.6200 
 28 C       -9.1400     5.1270     2.2480 C.3   1 <1>  -0.0970 
 29 H       -0.3570     2.9010    -2.5780 H     1 <1>   0.0800 
 30 H        0.8770     3.9230    -1.9010 H     1 <1>   0.0800 
 31 H       -0.5880     4.6320    -2.5610 H     1 <1>   0.0800 
 32 H       -2.2520     3.4030     2.9250 H     1 <1>   0.1500 
 33 H       -3.3180     1.3210     2.3030 H     1 <1>   0.0800 
 34 H       -2.3700     0.4260     1.1350 H     1 <1>   0.0800 
 35 H        0.6070     6.0200    -0.9860 H     1 <1>   0.1500 
 36 H       -3.7290     1.3150    -0.5840 H     1 <1>   0.4500 
 37 H       -1.2460     5.5130     3.5300 H     1 <1>   0.1500 
 38 H        1.0200     7.7160     0.6950 H     1 <1>   0.1500 
 39 H       -4.5280     3.3380     0.5000 H     1 <1>   0.0800 
 40 H       -5.5740     2.3520     1.4860 H     1 <1>   0.0800 
 41 H       -5.3590    -0.1560     1.3900 H     1 <1>   0.0800 
 42 H       -4.1880    -0.8740     0.3040 H     1 <1>   0.0800 
 43 H        0.1020     7.4770     2.9560 H     1 <1>   0.1500 
 44 H       -6.5010    -1.0170    -0.5780 H     1 <1>   0.0800 
 45 H       -5.4430    -0.1470    -1.6340 H     1 <1>   0.0800 
 46 H       -7.5660     1.0730    -1.4710 H     1 <1>   0.0800 
 47 H       -7.5110     1.0040     0.2600 H     1 <1>   0.0800 
 48 H       -5.4220     2.0090    -2.6140 H     1 <1>   0.0800 
 49 H       -4.6300     3.3480    -1.8270 H     1 <1>   0.0800 
 50 H       -7.2350     3.3680    -3.2570 H     1 <1>   0.0800 
 51 H       -6.0560     4.6630    -3.0690 H     1 <1>   0.0800 
 52 H       -8.4180     6.0500    -2.0600 H     1 <1>   0.1500 
 53 H       -8.5280     4.7820     3.0600 H     1 <1>   0.0800 
 54 H      -10.0890     4.6270     2.2820 H     1 <1>   0.0800 
 55 H       -9.2960     6.1840     2.3550 H     1 <1>   0.0800 
@<TRIPOS>BOND
  1   1   2  2   
  2   2   3  am  
  3   2   4  1   
  4   3   5  1   
  5   3   6  1   
  6   4   7  2   
  7   4   8  1   
  8   5   9  ar  
  9   5  10  ar  
 10   6  29  1   
 11   6  30  1   
 12   6  31  1   
 13   7   9  1   
 14   7  32  1   
 15   8  11  1   
 16   8  33  1   
 17   8  34  1   
 18   9  12  ar  
 19  10  13  ar  
 20  10  35  1   
 21  11  14  1   
 22  11  15  1   
 23  11  36  1   
 24  12  16  ar  
 25  12  37  1   
 26  13  16  ar  
 27  13  38  1   
 28  14  17  1   
 29  14  39  1   
 30  14  40  1   
 31  15  18  1   
 32  15  41  1   
 33  15  42  1   
 34  16  43  1   
 35  17  19  1   
 36  17  20  1   
 37  17  21  1   
 38  18  20  1   
 39  18  44  1   
 40  18  45  1   
 41  19  22  ar  
 42  19  23  ar  
 43  20  46  1   
 44  20  47  1   
 45  21  24  1   
 46  21  48  1   
 47  21  49  1   
 48  22  25  ar  
 49  23  24  1   
 50  23  26  ar  
 51  24  50  1   
 52  24  51  1   
 53  25  27  ar  
 54  25  28  1   
 55  26  27  ar  
 56  26  52  1   
 57  28  53  1   
 58  28  54  1   
 59  28  55  1   
@<TRIPOS>SUBSTRUCTURE
  1 ****  14 GROUP 4 **** **** 0

# MOE 2024.06 (io_trps.svl 2023.06)
