@<TRIPOS>MOLECULE
NONAME
58 62 1 0 0 
SMALL
USER_CHARGES


@<TRIPOS>ATOM
  1 O       -1.4150     1.0400    -1.9810 O.2   1 <1>  -0.5700 
  2 C       -2.2410     0.8860    -1.1000 C.2   1 <1>   0.7160 
  3 N       -3.3090     0.0390    -1.3170 N.am  1 <1>  -0.6600 
  4 C       -2.0680     1.5650     0.1430 C.2   1 <1>  -0.0860 
  5 C       -3.3410    -0.8950    -2.4720 C.3   1 <1>   0.1400 
  6 C       -4.4110    -0.1080    -0.3160 C.3   1 <1>   0.1400 
  7 C       -2.8260     2.6430     0.6050 C.2   1 <1>   0.3720 
  8 C       -1.1800     1.3390     1.1470 C.2   1 <1>   0.0870 
  9 C       -3.2890    -2.3450    -1.9700 C.3   1 <1>  -0.1600 
 10 C       -5.1170    -1.4660    -0.4420 C.3   1 <1>  -0.1600 
 11 N       -2.4330     3.0130     1.7740 N.2   1 <1>  -0.4100 
 12 N       -3.8830     3.2410    -0.0950 N.pl3 1 <1>  -0.8210 
 13 O       -1.4380     2.2220     2.0780 O.3   1 <1>  -0.0190 
 14 C       -0.1270     0.3690     1.3270 C.ar  1 <1>   0.0530 
 15 C       -4.1070    -2.5930    -0.6830 C.3   1 <1>   0.2000 
 16 C       -4.7850     4.1140     0.7200 C.3   1 <1>   0.2090 
 17 C       -3.4670     3.9550    -1.3420 C.3   1 <1>   0.2090 
 18 C        0.9400     0.6240     2.1900 C.ar  1 <1>  -0.1500 
 19 C       -0.1290    -0.8580     0.6620 C.ar  1 <1>  -0.1500 
 20 O       -3.2420    -2.6080     0.4380 O.3   1 <1>  -0.3630 
 21 C       -5.9530     4.6460    -0.1300 C.3   1 <1>   0.1200 
 22 C       -4.6920     4.4950    -2.1020 C.3   1 <1>   0.1200 
 23 C        1.9560    -0.2950     2.3770 C.ar  1 <1>  -0.1500 
 24 C        0.8840    -1.7820     0.8430 C.ar  1 <1>  -0.1500 
 25 C       -2.4720    -3.6770     0.7680 C.ar  1 <1>   0.0820 
 26 O       -5.4820     5.3040    -1.2740 O.3   1 <1>  -0.5600 
 27 C        1.9310    -1.5020     1.7020 C.ar  1 <1>  -0.1500 
 28 C       -2.3680    -4.8460     0.0130 C.ar  1 <1>   0.1600 
 29 C       -1.7410    -3.5800     1.9340 C.ar  1 <1>  -0.1500 
 30 N       -1.6110    -5.8880     0.3270 N.ar  1 <1>  -0.6200 
 31 C       -0.9490    -4.6550     2.2770 C.ar  1 <1>  -0.1500 
 32 C       -0.9210    -5.7680     1.4520 C.ar  1 <1>   0.1600 
 33 H       -2.5200    -0.7140    -3.1460 H     1 <1>   0.0800 
 34 H       -4.2530    -0.7270    -3.0190 H     1 <1>   0.0800 
 35 H       -5.1200     0.6920    -0.4450 H     1 <1>   0.0800 
 36 H       -4.0010    -0.0330     0.6770 H     1 <1>   0.0800 
 37 H       -2.2620    -2.6230    -1.8190 H     1 <1>   0.0800 
 38 H       -3.6750    -2.9710    -2.7530 H     1 <1>   0.0800 
 39 H       -5.8180    -1.4300    -1.2570 H     1 <1>   0.0800 
 40 H       -5.6800    -1.6660     0.4520 H     1 <1>   0.0800 
 41 H       -4.6220    -3.5370    -0.7220 H     1 <1>   0.0800 
 42 H       -4.2280     4.9460     1.1150 H     1 <1>   0.0800 
 43 H       -5.1740     3.5490     1.5490 H     1 <1>   0.0800 
 44 H       -2.9240     3.2880    -1.9880 H     1 <1>   0.0800 
 45 H       -2.8160     4.7740    -1.0890 H     1 <1>   0.0800 
 46 H        0.9760     1.5590     2.7200 H     1 <1>   0.1500 
 47 H       -0.9340    -1.1080    -0.0030 H     1 <1>   0.1500 
 48 H       -6.5340     5.3500     0.4370 H     1 <1>   0.0800 
 49 H       -6.5910     3.8360    -0.4370 H     1 <1>   0.0800 
 50 H       -5.2940     3.6810    -2.4660 H     1 <1>   0.0800 
 51 H       -4.3740     5.0920    -2.9380 H     1 <1>   0.0800 
 52 H        2.7680    -0.0720     3.0470 H     1 <1>   0.1500 
 53 H        0.8540    -2.7200     0.3160 H     1 <1>   0.1500 
 54 H        2.7200    -2.2190     1.8430 H     1 <1>   0.1500 
 55 H       -2.9280    -4.9370    -0.8970 H     1 <1>   0.1500 
 56 H       -1.7890    -2.6940     2.5420 H     1 <1>   0.1500 
 57 H       -0.3580    -4.6320     3.1740 H     1 <1>   0.1500 
 58 H       -0.2990    -6.6010     1.7310 H     1 <1>   0.1500 
@<TRIPOS>BOND
  1   1   2  2   
  2   2   3  am  
  3   2   4  1   
  4   3   5  1   
  5   3   6  1   
  6   4   7  1   
  7   4   8  2   
  8   5   9  1   
  9   5  33  1   
 10   5  34  1   
 11   6  10  1   
 12   6  35  1   
 13   6  36  1   
 14   7  11  2   
 15   7  12  1   
 16   8  13  1   
 17   8  14  1   
 18   9  15  1   
 19   9  37  1   
 20   9  38  1   
 21  10  15  1   
 22  10  39  1   
 23  10  40  1   
 24  11  13  1   
 25  12  16  1   
 26  12  17  1   
 27  14  18  ar  
 28  14  19  ar  
 29  15  20  1   
 30  15  41  1   
 31  16  21  1   
 32  16  42  1   
 33  16  43  1   
 34  17  22  1   
 35  17  44  1   
 36  17  45  1   
 37  18  23  ar  
 38  18  46  1   
 39  19  24  ar  
 40  19  47  1   
 41  20  25  1   
 42  21  26  1   
 43  21  48  1   
 44  21  49  1   
 45  22  26  1   
 46  22  50  1   
 47  22  51  1   
 48  23  27  ar  
 49  23  52  1   
 50  24  27  ar  
 51  24  53  1   
 52  25  28  ar  
 53  25  29  ar  
 54  27  54  1   
 55  28  30  ar  
 56  28  55  1   
 57  29  31  ar  
 58  29  56  1   
 59  30  32  ar  
 60  31  32  ar  
 61  31  57  1   
 62  32  58  1   
@<TRIPOS>SUBSTRUCTURE
  1 ****   2 GROUP 4 **** **** 0

# MOE 2024.06 (io_trps.svl 2023.06)
