@<TRIPOS>MOLECULE
NONAME
54 58 1 0 0 
SMALL
USER_CHARGES


@<TRIPOS>ATOM
  1 O       -1.4880     0.6170     0.5160 O.2   1 <1>  -0.5700 
  2 C       -2.3180     1.4930     0.6990 C.2   1 <1>   0.7160 
  3 N       -1.8730     2.7960     0.7300 N.am  1 <1>  -0.7300 
  4 C       -3.7450     1.2020     0.8850 C.2   1 <1>   0.4300 
  5 C       -0.4730     3.2580     0.5530 C.3   1 <1>   0.0600 
  6 N       -4.6490     2.0970     1.1200 N.2   1 <1>  -0.4100 
  7 N       -4.2870    -0.0270     0.8380 N.2   1 <1>  -0.5650 
  8 O       -5.7900     1.4970     1.2260 O.3   1 <1>  -0.0190 
  9 C       -5.5140     0.2320     1.0420 C.2   1 <1>   0.2980 
 10 C       -6.6400    -0.8000     1.1070 C.3   1 <1>   0.2900 
 11 N       -7.6830    -0.6060     0.0710 N.3   1 <1>  -0.8100 
 12 C       -8.6730     0.4320     0.4230 C.3   1 <1>   0.1100 
 13 C       -8.3530    -1.8770    -0.2760 C.3   1 <1>   0.1100 
 14 C       -9.4680     0.8620    -0.8310 C.3   1 <1>   0.1430 
 15 C       -9.6840    -1.6680    -1.0270 C.3   1 <1>  -0.1600 
 16 C      -10.7510     1.5290    -0.3620 C.ar  1 <1>   0.1670 
 17 C       -9.7160    -0.3330    -1.7870 C.3   1 <1>  -0.1600 
 18 C       -8.7500     2.0210    -1.5710 C.3   1 <1>  -0.1600 
 19 N      -11.8040     0.9100     0.1160 N.ar  1 <1>  -0.6200 
 20 C      -10.6800     2.8830    -0.4790 C.ar  1 <1>  -0.1440 
 21 C       -9.3550     3.3320    -1.0410 C.3   1 <1>  -0.0170 
 22 C      -12.8290     1.6920     0.4780 C.ar  1 <1>   0.6200 
 23 C      -11.7690     3.6150    -0.0830 C.ar  1 <1>   0.1600 
 24 N      -12.8450     3.0310     0.3950 N.ar  1 <1>  -0.6200 
 25 C      -14.0190     1.0360     1.0040 C.ar  1 <1>   0.0000 
 26 C      -14.3640    -0.2670     0.6300 C.ar  1 <1>  -0.1500 
 27 C      -14.8730     1.6760     1.9080 C.ar  1 <1>  -0.1500 
 28 C      -15.4910    -0.8950     1.1270 C.ar  1 <1>  -0.1500 
 29 C      -16.0020     1.0550     2.4090 C.ar  1 <1>  -0.1500 
 30 C      -16.3150    -0.2340     2.0200 C.ar  1 <1>  -0.1500 
 31 H       -2.5790     3.5200     0.8900 H     1 <1>   0.3700 
 32 H        0.1840     2.4200     0.3890 H     1 <1>   0.0800 
 33 H       -0.1490     3.7840     1.4340 H     1 <1>   0.0800 
 34 H       -0.4120     3.9160    -0.2970 H     1 <1>   0.0800 
 35 H       -7.0870    -0.7830     2.0850 H     1 <1>   0.0800 
 36 H       -6.1860    -1.7660     0.9690 H     1 <1>   0.0800 
 37 H       -8.1980     1.2960     0.8520 H     1 <1>   0.0800 
 38 H       -9.3510     0.0360     1.1610 H     1 <1>   0.0800 
 39 H       -8.5470    -2.4510     0.6160 H     1 <1>   0.0800 
 40 H       -7.6830    -2.4470    -0.8990 H     1 <1>   0.0800 
 41 H      -10.4930    -1.6840    -0.3170 H     1 <1>   0.0800 
 42 H       -9.8430    -2.4860    -1.7070 H     1 <1>   0.0800 
 43 H       -8.9360    -0.3660    -2.5270 H     1 <1>   0.0800 
 44 H      -10.6550    -0.2130    -2.2980 H     1 <1>   0.0800 
 45 H       -8.9650     1.9610    -2.6230 H     1 <1>   0.0800 
 46 H       -7.6820     1.9830    -1.4400 H     1 <1>   0.0800 
 47 H       -9.4760     4.0580    -1.8260 H     1 <1>   0.0800 
 48 H       -8.7450     3.7400    -0.2530 H     1 <1>   0.0800 
 49 H      -11.7600     4.6890    -0.1580 H     1 <1>   0.1500 
 50 H      -13.7370    -0.7970    -0.0660 H     1 <1>   0.1500 
 51 H      -14.6460     2.6800     2.2230 H     1 <1>   0.1500 
 52 H      -15.7280    -1.8980     0.8190 H     1 <1>   0.1500 
 53 H      -16.6390     1.5760     3.1030 H     1 <1>   0.1500 
 54 H      -17.1930    -0.7200     2.4080 H     1 <1>   0.1500 
@<TRIPOS>BOND
  1   1   2  2   
  2   2   3  am  
  3   2   4  1   
  4   3   5  1   
  5   3  31  1   
  6   4   6  2   
  7   4   7  1   
  8   5  32  1   
  9   5  33  1   
 10   5  34  1   
 11   6   8  1   
 12   7   9  2   
 13   8   9  1   
 14   9  10  1   
 15  10  11  1   
 16  10  35  1   
 17  10  36  1   
 18  11  12  1   
 19  11  13  1   
 20  12  14  1   
 21  12  37  1   
 22  12  38  1   
 23  13  15  1   
 24  13  39  1   
 25  13  40  1   
 26  14  16  1   
 27  14  17  1   
 28  14  18  1   
 29  15  17  1   
 30  15  41  1   
 31  15  42  1   
 32  16  19  ar  
 33  16  20  ar  
 34  17  43  1   
 35  17  44  1   
 36  18  21  1   
 37  18  45  1   
 38  18  46  1   
 39  19  22  ar  
 40  20  21  1   
 41  20  23  ar  
 42  21  47  1   
 43  21  48  1   
 44  22  24  ar  
 45  22  25  1   
 46  23  24  ar  
 47  23  49  1   
 48  25  26  ar  
 49  25  27  ar  
 50  26  28  ar  
 51  26  50  1   
 52  27  29  ar  
 53  27  51  1   
 54  28  30  ar  
 55  28  52  1   
 56  29  30  ar  
 57  29  53  1   
 58  30  54  1   
@<TRIPOS>SUBSTRUCTURE
  1 ****  12 GROUP 4 **** **** 0

# MOE 2024.06 (io_trps.svl 2023.06)
