@<TRIPOS>MOLECULE
NONAME
42 43 1 0 0 
SMALL
USER_CHARGES


@<TRIPOS>ATOM
  1 O        2.1410    -1.6070    -1.7190 O.2   1 <1>  -0.5700 
  2 C        2.2160    -1.5810    -0.5120 C.2   1 <1>   0.5690 
  3 N        2.3880    -0.4280     0.1990 N.am  1 <1>  -0.4930 
  4 C        2.1130    -2.9040     0.2590 C.3   1 <1>   0.1710 
  5 C        2.5150     0.9000    -0.2780 C.2   1 <1>   0.0630 
  6 N        0.7420    -3.3160     0.6700 N.3   1 <1>  -0.8100 
  7 C        2.5270     1.3770    -1.5900 C.2   1 <1>   0.1390 
  8 C        2.6570     2.0050     0.4820 C.2   1 <1>  -0.3020 
  9 C       -0.1160    -3.5410    -0.5110 C.3   1 <1>   0.2530 
 10 C        0.1250    -2.3820     1.6250 C.3   1 <1>   0.0300 
 11 N        2.6650     2.6690    -1.6440 N.2   1 <1>  -0.7070 
 12 N        2.7460     3.0620    -0.3590 N.pl3 1 <1>   0.3140 
 13 C       -1.4230    -4.2170    -0.1210 C.ar  1 <1>  -0.1430 
 14 C        2.9180     4.4960     0.0060 C.3   1 <1>   0.1760 
 15 C       -2.6510    -3.7190    -0.5080 C.ar  1 <1>  -0.1500 
 16 C       -1.4480    -5.3680     0.6410 C.ar  1 <1>  -0.1500 
 17 C        4.2420     4.7130     0.7520 C.3   1 <1>  -0.2400 
 18 C        1.7290     4.9930     0.8400 C.3   1 <1>  -0.2400 
 19 C       -3.8090    -4.3770    -0.1260 C.ar  1 <1>   0.1600 
 20 C       -2.6610    -5.9480     0.9700 C.ar  1 <1>   0.1600 
 21 N       -3.8440    -5.4800     0.6040 N.ar  1 <1>  -0.6200 
 22 H        2.4090    -0.5190     1.2120 H     1 <1>   0.3700 
 23 H        2.7330    -2.8440     1.1350 H     1 <1>   0.0800 
 24 H        2.5300    -3.6780    -0.3630 H     1 <1>   0.0800 
 25 H        2.4350     0.7520    -2.4620 H     1 <1>   0.1500 
 26 H        2.7000     2.1050     1.5490 H     1 <1>   0.1500 
 27 H        0.3980    -4.1780    -1.2110 H     1 <1>   0.0800 
 28 H       -0.3180    -2.6040    -1.0030 H     1 <1>   0.0800 
 29 H        0.7790    -2.2270     2.4650 H     1 <1>   0.0800 
 30 H       -0.7980    -2.7930     1.9960 H     1 <1>   0.0800 
 31 H       -0.0840    -1.4360     1.1540 H     1 <1>   0.0800 
 32 H        2.9480     5.0530    -0.9140 H     1 <1>   0.0800 
 33 H       -2.7180    -2.8270    -1.1030 H     1 <1>   0.1500 
 34 H       -0.5280    -5.8080     0.9820 H     1 <1>   0.1500 
 35 H        4.2460     4.1850     1.6880 H     1 <1>   0.0800 
 36 H        4.3860     5.7600     0.9480 H     1 <1>   0.0800 
 37 H        5.0620     4.3680     0.1460 H     1 <1>   0.0800 
 38 H        1.6740     4.4730     1.7790 H     1 <1>   0.0800 
 39 H        0.8130     4.8420     0.2950 H     1 <1>   0.0800 
 40 H        1.8330     6.0450     1.0370 H     1 <1>   0.0800 
 41 H       -4.7570    -3.9740    -0.4380 H     1 <1>   0.1500 
 42 H       -2.6570    -6.8440     1.5660 H     1 <1>   0.1500 
@<TRIPOS>BOND
  1   1   2  2   
  2   2   3  am  
  3   2   4  1   
  4   3   5  1   
  5   3  22  1   
  6   4   6  1   
  7   4  23  1   
  8   4  24  1   
  9   5   7  1   
 10   5   8  2   
 11   6   9  1   
 12   6  10  1   
 13   7  11  2   
 14   7  25  1   
 15   8  12  1   
 16   8  26  1   
 17   9  13  1   
 18   9  27  1   
 19   9  28  1   
 20  10  29  1   
 21  10  30  1   
 22  10  31  1   
 23  11  12  1   
 24  12  14  1   
 25  13  15  ar  
 26  13  16  ar  
 27  14  17  1   
 28  14  18  1   
 29  14  32  1   
 30  15  19  ar  
 31  15  33  1   
 32  16  20  ar  
 33  16  34  1   
 34  17  35  1   
 35  17  36  1   
 36  17  37  1   
 37  18  38  1   
 38  18  39  1   
 39  18  40  1   
 40  19  21  ar  
 41  19  41  1   
 42  20  21  ar  
 43  20  42  1   
@<TRIPOS>SUBSTRUCTURE
  1 ****   2 GROUP 4 **** **** 0

# MOE 2024.06 (io_trps.svl 2023.06)
