@<TRIPOS>MOLECULE
NONAME
56 59 1 0 0 
SMALL
USER_CHARGES


@<TRIPOS>ATOM
  1 O       -3.6130     3.6150     1.7820 O.2   1 <1>  -0.5700 
  2 C       -2.8490     2.7270     1.4860 C.2   1 <1>   0.5690 
  3 N       -3.1980     1.8090     0.5170 N.am  1 <1>  -0.6600 
  4 C       -1.5360     2.6730     2.2450 C.3   1 <1>   0.1570 
  5 C       -4.4200     2.0160    -0.3310 C.3   1 <1>   0.1400 
  6 C       -2.3390     0.6420     0.1150 C.3   1 <1>   0.1400 
  7 N       -0.3990     2.7540     1.3190 N.pl3 1 <1>   0.3140 
  8 C       -5.2930     0.7400    -0.4540 C.3   1 <1>   0.4230 
  9 C       -3.1510    -0.5210    -0.4890 C.3   1 <1>   0.3430 
 10 N        0.3710     1.6740     1.0790 N.2   1 <1>  -0.7070 
 11 C        0.0210     3.8260     0.6090 C.2   1 <1>  -0.3320 
 12 N       -4.5670    -0.5060     0.0190 N.4   1 <1>  -0.9590 
 13 C       -5.8030     0.5860    -1.9070 C.3   1 <1>   0.1200 
 14 C        1.2680     2.0840     0.2410 C.2   1 <1>   0.1080 
 15 C        1.0990     3.4240    -0.1000 C.2   1 <1>  -0.1810 
 16 C       -0.6390     5.1980     0.6640 C.3   1 <1>  -0.0600 
 17 C       -5.3660    -1.7420    -0.2750 C.3   1 <1>   0.5180 
 18 O       -6.5340    -0.5960    -2.0600 O.3   1 <1>  -0.5600 
 19 C        2.3600     1.1740    -0.2760 C.3   1 <1>  -0.0590 
 20 C        1.9610     4.2310    -1.0570 C.3   1 <1>   0.0210 
 21 C       -4.5740    -2.9880     0.1690 C.3   1 <1>  -0.1950 
 22 C       -5.8320    -1.7680    -1.7500 C.3   1 <1>   0.1200 
 23 C        3.1090     4.9040    -0.3030 C.3   1 <1>  -0.2400 
 24 C       -3.5950    -3.7330    -0.6920 C.3   1 <1>  -0.2000 
 25 C       -4.8980    -4.3720    -0.3060 C.3   1 <1>  -0.2000 
 26 H       -1.4700     1.7590     2.8010 H     1 <1>   0.0800 
 27 H       -1.4770     3.4970     2.9290 H     1 <1>   0.0800 
 28 H       -5.0310     2.8110     0.0610 H     1 <1>   0.0800 
 29 H       -4.0940     2.3340    -1.3070 H     1 <1>   0.0800 
 30 H       -1.5980     0.9660    -0.5970 H     1 <1>   0.0800 
 31 H       -1.8160     0.2670     0.9770 H     1 <1>   0.0800 
 32 H       -6.1600     0.8860     0.1680 H     1 <1>   0.0800 
 33 H       -2.6600    -1.4450    -0.2320 H     1 <1>   0.0800 
 34 H       -3.1480    -0.4360    -1.5630 H     1 <1>   0.0800 
 35 H       -4.4960    -0.4170     1.0390 H     1 <1>   0.4500 
 36 H       -4.9880     0.5760    -2.6100 H     1 <1>   0.0800 
 37 H       -6.4570     1.4040    -2.1570 H     1 <1>   0.0800 
 38 H       -0.0910     5.9080     0.0730 H     1 <1>   0.0800 
 39 H       -0.6660     5.5580     1.6770 H     1 <1>   0.0800 
 40 H       -1.6440     5.1460     0.2860 H     1 <1>   0.0800 
 41 H       -6.2640    -1.7120     0.3220 H     1 <1>   0.0800 
 42 H        3.3140     1.6600    -0.1880 H     1 <1>   0.0800 
 43 H        2.1760     0.9350    -1.3060 H     1 <1>   0.0800 
 44 H        2.3830     0.2660     0.2980 H     1 <1>   0.0800 
 45 H        2.3540     3.5890    -1.8240 H     1 <1>   0.0800 
 46 H        1.3590     4.9810    -1.5390 H     1 <1>   0.0800 
 47 H       -4.3510    -2.9310     1.2210 H     1 <1>   0.1000 
 48 H       -6.5030    -2.5920    -1.9120 H     1 <1>   0.0800 
 49 H       -5.0020    -1.8640    -2.4270 H     1 <1>   0.0800 
 50 H        3.7250     4.1630     0.1740 H     1 <1>   0.0800 
 51 H        2.7160     5.5600     0.4540 H     1 <1>   0.0800 
 52 H        3.7140     5.4770    -0.9810 H     1 <1>   0.0800 
 53 H       -3.4570    -3.4960    -1.7330 H     1 <1>   0.1000 
 54 H       -2.6950    -4.1280    -0.2480 H     1 <1>   0.1000 
 55 H       -4.8750    -5.1840     0.4030 H     1 <1>   0.1000 
 56 H       -5.6200    -4.5480    -1.0860 H     1 <1>   0.1000 
@<TRIPOS>BOND
  1   1   2  2   
  2   2   3  am  
  3   2   4  1   
  4   3   5  1   
  5   3   6  1   
  6   4   7  1   
  7   4  26  1   
  8   4  27  1   
  9   5   8  1   
 10   5  28  1   
 11   5  29  1   
 12   6   9  1   
 13   6  30  1   
 14   6  31  1   
 15   7  10  1   
 16   7  11  1   
 17   8  12  1   
 18   8  13  1   
 19   8  32  1   
 20   9  12  1   
 21   9  33  1   
 22   9  34  1   
 23  10  14  2   
 24  11  15  2   
 25  11  16  1   
 26  12  17  1   
 27  12  35  1   
 28  13  18  1   
 29  13  36  1   
 30  13  37  1   
 31  14  15  1   
 32  14  19  1   
 33  15  20  1   
 34  16  38  1   
 35  16  39  1   
 36  16  40  1   
 37  17  21  1   
 38  17  22  1   
 39  17  41  1   
 40  18  22  1   
 41  19  42  1   
 42  19  43  1   
 43  19  44  1   
 44  20  23  1   
 45  20  45  1   
 46  20  46  1   
 47  21  24  1   
 48  21  25  1   
 49  21  47  1   
 50  22  48  1   
 51  22  49  1   
 52  23  50  1   
 53  23  51  1   
 54  23  52  1   
 55  24  25  1   
 56  24  53  1   
 57  24  54  1   
 58  25  55  1   
 59  25  56  1   
@<TRIPOS>SUBSTRUCTURE
  1 ****   6 GROUP 4 **** **** 0

# MOE 2024.06 (io_trps.svl 2023.06)
