@<TRIPOS>MOLECULE
NONAME
52 55 1 0 0 
SMALL
USER_CHARGES


@<TRIPOS>ATOM
  1 F       -0.0530    -2.6210    -2.6120 F     1 <1>  -0.2320 
  2 C        0.5740    -2.4840    -1.4520 C.3   1 <1>   0.4630 
  3 F        1.2690    -1.3580    -1.4850 F     1 <1>  -0.2320 
  4 C       -0.0740    -2.9230    -0.1820 C.3   1 <1>  -0.1950 
  5 C        1.0880    -3.6910    -0.7280 C.3   1 <1>  -0.2000 
  6 C       -1.4930    -3.5220    -0.1680 C.3   1 <1>  -0.0040 
  7 C       -1.8000    -4.4050     1.0390 C.2   1 <1>   0.5690 
  8 O       -0.9520    -4.5280     1.8920 O.2   1 <1>  -0.5700 
  9 N       -3.0140    -5.0420     1.1370 N.am  1 <1>  -0.6600 
 10 C       -4.1310    -4.9440     0.1550 C.3   1 <1>   0.1400 
 11 C       -3.3290    -5.9340     2.2890 C.3   1 <1>   0.1400 
 12 C       -4.4300    -6.3390    -0.3990 C.3   1 <1>  -0.1600 
 13 C       -3.6350    -7.3410     1.7700 C.3   1 <1>  -0.1600 
 14 C       -4.7610    -7.3370     0.7250 C.3   1 <1>   0.4240 
 15 O       -5.8970    -6.8590     1.4080 O.3   1 <1>  -0.5600 
 16 C       -4.9850    -8.7570     0.1640 C.ar  1 <1>  -0.1430 
 17 C       -7.1480    -7.1680     0.8780 C.3   1 <1>   0.1200 
 18 C       -6.2140    -9.3930     0.2760 C.ar  1 <1>  -0.1430 
 19 C       -3.9530    -9.4330    -0.4750 C.ar  1 <1>  -0.1500 
 20 C       -7.3610    -8.6760     0.9610 C.3   1 <1>  -0.0170 
 21 C       -6.4000   -10.6670    -0.2360 C.ar  1 <1>  -0.1500 
 22 C       -4.1180   -10.7080    -0.9870 C.ar  1 <1>   0.0830 
 23 C       -5.3660   -11.3410    -0.8800 C.ar  1 <1>   0.0830 
 24 O       -3.0040   -11.2360    -1.5730 O.3   1 <1>  -0.3630 
 25 O       -5.5520   -12.5830    -1.4160 O.3   1 <1>  -0.3630 
 26 C       -2.7480   -12.6220    -1.5400 C.3   1 <1>   0.0400 
 27 C       -6.8230   -13.1910    -1.4820 C.3   1 <1>   0.0400 
 28 H        0.1270    -2.3300     0.6940 H     1 <1>   0.1000 
 29 H        2.0230    -3.6240    -0.2020 H     1 <1>   0.1000 
 30 H        0.9080    -4.6630    -1.1480 H     1 <1>   0.1000 
 31 H       -1.6360    -4.1090    -1.0560 H     1 <1>   0.0800 
 32 H       -2.2000    -2.7140    -0.1800 H     1 <1>   0.0800 
 33 H       -3.8920    -4.2800    -0.6550 H     1 <1>   0.0800 
 34 H       -5.0020    -4.5550     0.6550 H     1 <1>   0.0800 
 35 H       -4.1810    -5.5420     2.8170 H     1 <1>   0.0800 
 36 H       -2.5040    -5.9780     2.9800 H     1 <1>   0.0800 
 37 H       -3.5670    -6.6800    -0.9390 H     1 <1>   0.0800 
 38 H       -5.2410    -6.2930    -1.0990 H     1 <1>   0.0800 
 39 H       -3.9160    -7.9790     2.5870 H     1 <1>   0.0800 
 40 H       -2.7330    -7.7410     1.3450 H     1 <1>   0.0800 
 41 H       -7.1970    -6.8250    -0.1410 H     1 <1>   0.0800 
 42 H       -7.8900    -6.6510     1.4600 H     1 <1>   0.0800 
 43 H       -2.9870    -8.9750    -0.5860 H     1 <1>   0.1500 
 44 H       -8.2940    -8.9280     0.4900 H     1 <1>   0.0800 
 45 H       -7.4100    -8.9740     1.9930 H     1 <1>   0.0800 
 46 H       -7.3650   -11.1200    -0.1230 H     1 <1>   0.1500 
 47 H       -1.6990   -12.7730    -1.7170 H     1 <1>   0.0800 
 48 H       -3.3190   -13.0980    -2.3170 H     1 <1>   0.0800 
 49 H       -3.0210   -13.0080    -0.5740 H     1 <1>   0.0800 
 50 H       -6.7200   -14.1240    -2.0060 H     1 <1>   0.0800 
 51 H       -7.4930   -12.5430    -2.0200 H     1 <1>   0.0800 
 52 H       -7.1770   -13.3720    -0.4830 H     1 <1>   0.0800 
@<TRIPOS>BOND
  1   1   2  1   
  2   2   3  1   
  3   2   4  1   
  4   2   5  1   
  5   4   5  1   
  6   4   6  1   
  7   4  28  1   
  8   5  29  1   
  9   5  30  1   
 10   6   7  1   
 11   6  31  1   
 12   6  32  1   
 13   7   8  2   
 14   7   9  am  
 15   9  10  1   
 16   9  11  1   
 17  10  12  1   
 18  10  33  1   
 19  10  34  1   
 20  11  13  1   
 21  11  35  1   
 22  11  36  1   
 23  12  14  1   
 24  12  37  1   
 25  12  38  1   
 26  13  14  1   
 27  13  39  1   
 28  13  40  1   
 29  14  15  1   
 30  14  16  1   
 31  15  17  1   
 32  16  18  ar  
 33  16  19  ar  
 34  17  20  1   
 35  17  41  1   
 36  17  42  1   
 37  18  20  1   
 38  18  21  ar  
 39  19  22  ar  
 40  19  43  1   
 41  20  44  1   
 42  20  45  1   
 43  21  23  ar  
 44  21  46  1   
 45  22  23  ar  
 46  22  24  1   
 47  23  25  1   
 48  24  26  1   
 49  25  27  1   
 50  26  47  1   
 51  26  48  1   
 52  26  49  1   
 53  27  50  1   
 54  27  51  1   
 55  27  52  1   
@<TRIPOS>SUBSTRUCTURE
  1 ****  12 GROUP 4 **** **** 0

# MOE 2024.06 (io_trps.svl 2023.06)
