@<TRIPOS>MOLECULE
NONAME
47 49 1 0 0 
SMALL
USER_CHARGES


@<TRIPOS>ATOM
  1 N       -0.0730     0.3890    -0.7290 N.ar  1 <1>  -0.6200 
  2 C       -0.1730     1.5780    -0.1470 C.ar  1 <1>   0.7710 
  3 C       -1.1530    -0.3510    -0.8000 C.ar  1 <1>   0.4100 
  4 N       -1.3470     2.0370     0.3290 N.ar  1 <1>  -0.1790 
  5 N        0.9370     2.3480    -0.0370 N.pl3 1 <1>  -0.8380 
  6 N       -1.0100    -1.5420    -1.3810 N.pl3 1 <1>  -0.9000 
  7 C       -2.3960     0.0700    -0.3010 C.ar  1 <1>  -0.1500 
  8 C       -2.4810     1.2950     0.2700 C.ar  1 <1>   0.2110 
  9 C        1.1330     3.5780     0.7750 C.3   1 <1>   0.4330 
 10 C        2.2390     1.9310    -0.6380 C.3   1 <1>   0.2090 
 11 C        0.0190     4.6060     0.5680 C.ar  1 <1>  -0.1430 
 12 C        2.5000     4.1100     0.3580 C.3   1 <1>  -0.1600 
 13 C        3.2830     2.8670    -0.0430 C.3   1 <1>  -0.1600 
 14 C       -0.3880     4.9750    -0.7070 C.ar  1 <1>  -0.1500 
 15 C       -0.5990     5.1930     1.6630 C.ar  1 <1>  -0.1500 
 16 C       -1.3800     5.9230    -0.8850 C.ar  1 <1>  -0.1500 
 17 C       -1.5910     6.1410     1.4860 C.ar  1 <1>  -0.1500 
 18 C       -1.9800     6.5260     0.2110 C.ar  1 <1>  -0.1430 
 19 C       -3.0330     7.6090     0.0160 C.3   1 <1>   0.4860 
 20 N       -2.3590     8.8720    -0.4030 N.4   1 <1>  -0.9590 
 21 C       -1.4860     9.4270     0.6800 C.3   1 <1>   0.2630 
 22 C       -3.3490     9.8940    -0.8620 C.3   1 <1>   0.2630 
 23 H       -1.3220     2.9940     0.6780 H     1 <1>   0.4570 
 24 H       -1.7520    -2.2320    -1.5150 H     1 <1>   0.4000 
 25 H       -0.0940    -1.8270    -1.7400 H     1 <1>   0.4000 
 26 H       -3.2420    -0.5870    -0.3890 H     1 <1>   0.1500 
 27 H       -3.3990     1.6960     0.6690 H     1 <1>   0.1500 
 28 H        1.1870     3.2890     1.8130 H     1 <1>   0.0800 
 29 H        2.1920     2.0560    -1.7080 H     1 <1>   0.0800 
 30 H        2.4700     0.9030    -0.4100 H     1 <1>   0.0800 
 31 H        2.9760     4.6530     1.1550 H     1 <1>   0.0800 
 32 H        2.3990     4.7620    -0.4920 H     1 <1>   0.0800 
 33 H        4.0690     3.0840    -0.7450 H     1 <1>   0.0800 
 34 H        3.7150     2.4030     0.8280 H     1 <1>   0.0800 
 35 H        0.0810     4.5300    -1.5720 H     1 <1>   0.1500 
 36 H       -0.3000     4.9300     2.6670 H     1 <1>   0.1500 
 37 H       -1.6670     6.1890    -1.8900 H     1 <1>   0.1500 
 38 H       -2.0470     6.5860     2.3580 H     1 <1>   0.1500 
 39 H       -3.5790     7.7650     0.9320 H     1 <1>   0.0800 
 40 H       -3.7280     7.2930    -0.7450 H     1 <1>   0.0800 
 41 H       -1.7460     8.6260    -1.1940 H     1 <1>   0.4500 
 42 H       -2.0740     9.6810     1.5470 H     1 <1>   0.0800 
 43 H       -0.9800    10.3140     0.3360 H     1 <1>   0.0800 
 44 H       -0.7400     8.7020     0.9690 H     1 <1>   0.0800 
 45 H       -4.0090    10.1700    -0.0550 H     1 <1>   0.0800 
 46 H       -3.9420     9.5060    -1.6760 H     1 <1>   0.0800 
 47 H       -2.8390    10.7800    -1.2060 H     1 <1>   0.0800 
@<TRIPOS>BOND
  1   1   2  ar  
  2   1   3  ar  
  3   2   4  ar  
  4   2   5  1   
  5   3   6  1   
  6   3   7  ar  
  7   4   8  ar  
  8   4  23  1   
  9   5   9  1   
 10   5  10  1   
 11   6  24  1   
 12   6  25  1   
 13   7   8  ar  
 14   7  26  1   
 15   8  27  1   
 16   9  11  1   
 17   9  12  1   
 18   9  28  1   
 19  10  13  1   
 20  10  29  1   
 21  10  30  1   
 22  11  14  ar  
 23  11  15  ar  
 24  12  13  1   
 25  12  31  1   
 26  12  32  1   
 27  13  33  1   
 28  13  34  1   
 29  14  16  ar  
 30  14  35  1   
 31  15  17  ar  
 32  15  36  1   
 33  16  18  ar  
 34  16  37  1   
 35  17  18  ar  
 36  17  38  1   
 37  18  19  1   
 38  19  20  1   
 39  19  39  1   
 40  19  40  1   
 41  20  21  1   
 42  20  22  1   
 43  20  41  1   
 44  21  42  1   
 45  21  43  1   
 46  21  44  1   
 47  22  45  1   
 48  22  46  1   
 49  22  47  1   
@<TRIPOS>SUBSTRUCTURE
  1 ****  11 GROUP 4 **** **** 0

# MOE 2024.06 (io_trps.svl 2023.06)
