@<TRIPOS>MOLECULE
NONAME
61 63 1 0 0 
SMALL
USER_CHARGES


@<TRIPOS>ATOM
  1 O       -4.4590     1.9100    -1.8270 O.2   1 <1>  -0.5700 
  2 C       -3.8200     1.3740    -0.9400 C.2   1 <1>   0.5440 
  3 N       -4.1140     0.0610    -0.6210 N.am  1 <1>  -0.6600 
  4 C       -2.7770     2.1430    -0.2830 C.ar  1 <1>   0.0860 
  5 C       -3.3150    -0.7440     0.3790 C.3   1 <1>   0.3640 
  6 C       -5.3190    -0.5810    -1.2320 C.3   1 <1>   0.1400 
  7 C       -1.7290     2.6780    -1.0280 C.ar  1 <1>  -0.1500 
  8 C       -2.7760     2.3830     1.0900 C.ar  1 <1>  -0.1500 
  9 C       -1.8320    -0.7160    -0.0070 C.ar  1 <1>  -0.1430 
 10 C       -3.7430    -2.2370     0.5660 C.3   1 <1>   0.2000 
 11 C       -5.2270    -2.1040    -1.2430 C.3   1 <1>   0.1200 
 12 C       -0.7120     3.3980    -0.4300 C.ar  1 <1>  -0.1500 
 13 C       -1.7550     3.0930     1.6950 C.ar  1 <1>  -0.1500 
 14 C       -0.8690    -0.4590     0.9590 C.ar  1 <1>  -0.1500 
 15 C       -1.4220    -0.9460    -1.3130 C.ar  1 <1>  -0.1500 
 16 O       -5.0110    -2.5450     0.0550 O.3   1 <1>  -0.5600 
 17 C       -3.7770    -2.6660     2.0430 C.3   1 <1>   0.1200 
 18 C       -0.7120     3.6040     0.9390 C.ar  1 <1>  -0.1430 
 19 C        0.4800    -0.4390     0.6510 C.ar  1 <1>   0.0830 
 20 C       -0.0790    -0.9070    -1.6440 C.ar  1 <1>  -0.1500 
 21 O       -2.5760    -2.3980     2.6890 O.3   1 <1>  -0.6800 
 22 C        0.4100     4.3890     1.6080 C.3   1 <1>  -0.0170 
 23 O        1.3120    -0.2160     1.7080 O.3   1 <1>  -0.3620 
 24 C        0.8820    -0.6390    -0.6770 C.ar  1 <1>   0.0830 
 25 C        1.5740     3.4900     2.0650 C.3   1 <1>  -0.0800 
 26 C        2.6000    -0.7870     1.7470 C.3   1 <1>   0.0400 
 27 O        2.1890    -0.5640    -1.0410 O.3   1 <1>  -0.3630 
 28 C        2.5500     4.2860     2.9410 C.3   1 <1>  -0.2400 
 29 C        2.3340     2.8850     0.8760 C.3   1 <1>  -0.2400 
 30 C        2.5270     0.2730    -2.1260 C.3   1 <1>   0.0400 
 31 H       -3.4240    -0.2610     1.3330 H     1 <1>   0.0800 
 32 H       -6.1920    -0.2840    -0.6770 H     1 <1>   0.0800 
 33 H       -5.4430    -0.2400    -2.2450 H     1 <1>   0.0800 
 34 H       -1.7190     2.5190    -2.0920 H     1 <1>   0.1500 
 35 H       -3.5870     2.0080     1.6890 H     1 <1>   0.1500 
 36 H       -3.0450    -2.8710     0.0480 H     1 <1>   0.0800 
 37 H       -4.4270    -2.4450    -1.8780 H     1 <1>   0.0800 
 38 H       -6.1540    -2.5280    -1.5860 H     1 <1>   0.0800 
 39 H        0.0850     3.7950    -1.0340 H     1 <1>   0.1500 
 40 H       -1.7730     3.2490     2.7600 H     1 <1>   0.1500 
 41 H       -1.1570    -0.2690     1.9780 H     1 <1>   0.1500 
 42 H       -2.1500    -1.1470    -2.0790 H     1 <1>   0.1500 
 43 H       -3.9700    -3.7210     2.1200 H     1 <1>   0.0800 
 44 H       -4.5500    -2.1250     2.5620 H     1 <1>   0.0800 
 45 H        0.2140    -1.0890    -2.6610 H     1 <1>   0.1500 
 46 H       -1.8370    -2.9050     2.2940 H     1 <1>   0.4000 
 47 H        0.7760     5.1420     0.9320 H     1 <1>   0.0800 
 48 H        0.0030     4.9030     2.4610 H     1 <1>   0.0800 
 49 H        1.1700     2.6820     2.6540 H     1 <1>   0.0800 
 50 H        2.9370    -0.7820     2.7680 H     1 <1>   0.0800 
 51 H        3.2620    -0.1940     1.1440 H     1 <1>   0.0800 
 52 H        2.5490    -1.7960     1.3780 H     1 <1>   0.0800 
 53 H        2.9780     5.1030     2.3870 H     1 <1>   0.0800 
 54 H        3.3450     3.6490     3.2850 H     1 <1>   0.0800 
 55 H        2.0420     4.6820     3.8030 H     1 <1>   0.0800 
 56 H        2.7080     3.6570     0.2280 H     1 <1>   0.0800 
 57 H        1.6870     2.2380     0.3120 H     1 <1>   0.0800 
 58 H        3.1620     2.2950     1.2260 H     1 <1>   0.0800 
 59 H        3.5900     0.4320    -2.1070 H     1 <1>   0.0800 
 60 H        2.0120     1.2120    -2.0160 H     1 <1>   0.0800 
 61 H        2.2470    -0.2090    -3.0450 H     1 <1>   0.0800 
@<TRIPOS>BOND
  1   1   2  2   
  2   2   3  am  
  3   2   4  1   
  4   3   5  1   
  5   3   6  1   
  6   4   7  ar  
  7   4   8  ar  
  8   5   9  1   
  9   5  10  1   
 10   5  31  1   
 11   6  11  1   
 12   6  32  1   
 13   6  33  1   
 14   7  12  ar  
 15   7  34  1   
 16   8  13  ar  
 17   8  35  1   
 18   9  14  ar  
 19   9  15  ar  
 20  10  16  1   
 21  10  17  1   
 22  10  36  1   
 23  11  16  1   
 24  11  37  1   
 25  11  38  1   
 26  12  18  ar  
 27  12  39  1   
 28  13  18  ar  
 29  13  40  1   
 30  14  19  ar  
 31  14  41  1   
 32  15  20  ar  
 33  15  42  1   
 34  17  21  1   
 35  17  43  1   
 36  17  44  1   
 37  18  22  1   
 38  19  23  1   
 39  19  24  ar  
 40  20  24  ar  
 41  20  45  1   
 42  21  46  1   
 43  22  25  1   
 44  22  47  1   
 45  22  48  1   
 46  23  26  1   
 47  24  27  1   
 48  25  28  1   
 49  25  29  1   
 50  25  49  1   
 51  26  50  1   
 52  26  51  1   
 53  26  52  1   
 54  27  30  1   
 55  28  53  1   
 56  28  54  1   
 57  28  55  1   
 58  29  56  1   
 59  29  57  1   
 60  29  58  1   
 61  30  59  1   
 62  30  60  1   
 63  30  61  1   
@<TRIPOS>SUBSTRUCTURE
  1 ****  14 GROUP 4 **** **** 0

# MOE 2024.06 (io_trps.svl 2023.06)
