@<TRIPOS>MOLECULE
NONAME
49 52 1 0 0 
SMALL
USER_CHARGES


@<TRIPOS>ATOM
  1 O        1.7080    -0.1240    -0.9110 O.2   1 <1>  -0.5700 
  2 C        2.1810    -0.9500    -0.1530 C.2   1 <1>   0.7150 
  3 N        3.1260    -0.5800     0.7610 N.am  1 <1>  -0.4940 
  4 C        1.7360    -2.3210    -0.2010 C.2   1 <1>   0.0550 
  5 C        3.6240     0.6810     1.1030 C.2   1 <1>   0.2500 
  6 O        2.1840    -3.2210     0.6660 O.3   1 <1>  -0.2800 
  7 C        0.8610    -2.9390    -1.0380 C.2   1 <1>  -0.1500 
  8 N        3.9580     0.9420     2.3270 N.2   1 <1>  -0.3380 
  9 N        3.8420     1.7380     0.2880 N.pl3 1 <1>   0.3340 
 10 C        1.6340    -4.3880     0.4170 C.2   1 <1>  -0.0400 
 11 C        0.7860    -4.2760    -0.6360 C.2   1 <1>  -0.1810 
 12 N        4.3920     2.2000     2.3680 N.2   1 <1>  -0.3380 
 13 C        4.3240     2.6730     1.1580 C.2   1 <1>   0.3120 
 14 C        3.7990     2.0350    -1.0710 C.2   1 <1>  -0.1810 
 15 C        2.0650    -5.5270     1.3360 C.3   1 <1>   0.0200 
 16 C       -0.0980    -5.3030    -1.3110 C.3   1 <1>   0.5240 
 17 N        4.6970     3.9400     0.7660 N.2   1 <1>  -0.5760 
 18 C        4.1800     3.2750    -1.4620 C.2   1 <1>  -0.1360 
 19 C        1.4850    -6.9010     0.9890 C.3   1 <1>  -0.2400 
 20 N       -1.4130    -5.3010    -0.6240 N.4   1 <1>  -0.9590 
 21 C        4.6200     4.2170    -0.4890 C.2   1 <1>   0.3750 
 22 C       -2.3050    -6.4110    -1.0260 C.3   1 <1>   0.3430 
 23 C       -2.1890    -4.0520    -0.8130 C.3   1 <1>   0.3430 
 24 C        5.0190     5.5980    -0.9590 C.3   1 <1>  -0.1790 
 25 C       -3.6880    -5.9620    -0.5720 C.3   1 <1>  -0.1600 
 26 C       -3.6150    -4.4370    -0.4420 C.3   1 <1>  -0.1600 
 27 H        3.3350    -1.3000     1.4530 H     1 <1>   0.3700 
 28 H        0.3360    -2.4750    -1.8570 H     1 <1>   0.1500 
 29 H        3.4670     1.2670    -1.7440 H     1 <1>   0.1500 
 30 H        1.7910    -5.2730     2.3450 H     1 <1>   0.0800 
 31 H        3.1400    -5.5910     1.3060 H     1 <1>   0.0800 
 32 H        0.3570    -6.2760    -1.2350 H     1 <1>   0.0800 
 33 H       -0.2150    -5.0630    -2.3550 H     1 <1>   0.0800 
 34 H        4.1640     3.5780    -2.4940 H     1 <1>   0.1500 
 35 H        0.4140    -6.8960     1.0590 H     1 <1>   0.0800 
 36 H        1.8600    -7.6300     1.6880 H     1 <1>   0.0800 
 37 H        1.7930    -7.2020     0.0040 H     1 <1>   0.0800 
 38 H       -1.2250    -5.3810     0.3840 H     1 <1>   0.4500 
 39 H       -2.0190    -7.3450    -0.5680 H     1 <1>   0.0800 
 40 H       -2.2980    -6.5180    -2.0990 H     1 <1>   0.0800 
 41 H       -2.1550    -3.7500    -1.8470 H     1 <1>   0.0800 
 42 H       -1.8150    -3.2510    -0.1930 H     1 <1>   0.0800 
 43 H        5.8390     5.5280    -1.6480 H     1 <1>   0.0800 
 44 H        5.3230     6.2020    -0.1220 H     1 <1>   0.0800 
 45 H        4.1860     6.0750    -1.4420 H     1 <1>   0.0800 
 46 H       -3.9230    -6.4080     0.3790 H     1 <1>   0.0800 
 47 H       -4.4350    -6.2670    -1.2850 H     1 <1>   0.0800 
 48 H       -4.3170    -3.9450    -1.0930 H     1 <1>   0.0800 
 49 H       -3.8220    -4.1350     0.5710 H     1 <1>   0.0800 
@<TRIPOS>BOND
  1   1   2  2   
  2   2   3  am  
  3   2   4  1   
  4   3   5  1   
  5   3  27  1   
  6   4   6  1   
  7   4   7  2   
  8   5   8  2   
  9   5   9  1   
 10   6  10  1   
 11   7  11  1   
 12   7  28  1   
 13   8  12  1   
 14   9  13  1   
 15   9  14  1   
 16  10  11  2   
 17  10  15  1   
 18  11  16  1   
 19  12  13  2   
 20  13  17  1   
 21  14  18  2   
 22  14  29  1   
 23  15  19  1   
 24  15  30  1   
 25  15  31  1   
 26  16  20  1   
 27  16  32  1   
 28  16  33  1   
 29  17  21  2   
 30  18  21  1   
 31  18  34  1   
 32  19  35  1   
 33  19  36  1   
 34  19  37  1   
 35  20  22  1   
 36  20  23  1   
 37  20  38  1   
 38  21  24  1   
 39  22  25  1   
 40  22  39  1   
 41  22  40  1   
 42  23  26  1   
 43  23  41  1   
 44  23  42  1   
 45  24  43  1   
 46  24  44  1   
 47  24  45  1   
 48  25  26  1   
 49  25  46  1   
 50  25  47  1   
 51  26  48  1   
 52  26  49  1   
@<TRIPOS>SUBSTRUCTURE
  1 ****   2 GROUP 4 **** **** 0

# MOE 2024.06 (io_trps.svl 2023.06)
