@<TRIPOS>MOLECULE
NONAME
53 55 1 0 0 
SMALL
USER_CHARGES


@<TRIPOS>ATOM
  1 S       -0.2680    -0.4630     0.3480 S.3   1 <1>  -0.0800 
  2 C       -1.4700    -1.1940    -0.6610 C.2   1 <1>   0.4420 
  3 C       -0.7860     1.0730    -0.2660 C.2   1 <1>   0.1980 
  4 N       -2.1260    -0.3280    -1.3430 N.2   1 <1>  -0.3380 
  5 N       -1.5860    -2.5670    -0.5910 N.am  1 <1>  -0.4940 
  6 N       -1.7300     0.9610    -1.1140 N.2   1 <1>  -0.3380 
  7 C       -0.0680     2.3250     0.2410 C.3   1 <1>   0.3800 
  8 C       -2.3090    -3.4010    -1.3930 C.2   1 <1>   0.5690 
  9 O        0.0540     2.2540     1.6350 O.3   1 <1>  -0.5600 
 10 C       -0.8220     3.6140    -0.1080 C.3   1 <1>  -0.2400 
 11 O       -2.8280    -3.0580    -2.4220 O.2   1 <1>  -0.5700 
 12 C       -2.4740    -4.8490    -0.9630 C.3   1 <1>  -0.0990 
 13 C        1.1390     2.9340     2.1870 C.3   1 <1>   0.0400 
 14 C       -3.8100    -5.1170    -0.2320 C.3   1 <1>  -0.0800 
 15 C       -3.8950    -6.5920     0.1960 C.3   1 <1>  -0.1600 
 16 C       -5.0290    -4.7580    -1.1060 C.3   1 <1>  -0.1600 
 17 C       -5.2450    -6.9380     0.8290 C.3   1 <1>   0.3430 
 18 C       -6.3560    -5.1430    -0.4550 C.3   1 <1>   0.3430 
 19 N       -6.3440    -6.5920    -0.1180 N.4   1 <1>  -0.9590 
 20 C       -7.6690    -7.0500     0.3810 C.3   1 <1>   0.4860 
 21 C       -7.6530    -8.5630     0.4670 C.ar  1 <1>  -0.1430 
 22 C       -7.5830    -9.1920     1.7030 C.ar  1 <1>  -0.1500 
 23 C       -7.7000    -9.3320    -0.6880 C.ar  1 <1>  -0.1500 
 24 C       -7.5470   -10.5730     1.7810 C.ar  1 <1>  -0.1500 
 25 C       -7.6640   -10.7120    -0.6080 C.ar  1 <1>  -0.1500 
 26 C       -7.5850   -11.3330     0.6260 C.ar  1 <1>  -0.1500 
 27 H       -1.0490    -2.9960     0.1550 H     1 <1>   0.3700 
 28 H        0.9180     2.3420    -0.1920 H     1 <1>   0.0800 
 29 H       -1.7920     3.6050     0.3550 H     1 <1>   0.0800 
 30 H       -0.9560     3.6760    -1.1730 H     1 <1>   0.0800 
 31 H       -0.2760     4.4810     0.2130 H     1 <1>   0.0800 
 32 H       -1.6500    -5.1250    -0.3310 H     1 <1>   0.0800 
 33 H       -2.4170    -5.4590    -1.8470 H     1 <1>   0.0800 
 34 H        1.1200     2.7810     3.2520 H     1 <1>   0.0800 
 35 H        1.0560     3.9850     1.9760 H     1 <1>   0.0800 
 36 H        2.0540     2.5350     1.7830 H     1 <1>   0.0800 
 37 H       -3.8380    -4.5020     0.6540 H     1 <1>   0.0800 
 38 H       -3.1180    -6.8060     0.9100 H     1 <1>   0.0800 
 39 H       -3.7350    -7.2360    -0.6520 H     1 <1>   0.0800 
 40 H       -4.9520    -5.2360    -2.0670 H     1 <1>   0.0800 
 41 H       -5.0500    -3.6960    -1.2840 H     1 <1>   0.0800 
 42 H       -5.3660    -6.3890     1.7490 H     1 <1>   0.0800 
 43 H       -5.2690    -7.9930     1.0560 H     1 <1>   0.0800 
 44 H       -7.1630    -4.9240    -1.1360 H     1 <1>   0.0800 
 45 H       -6.4990    -4.5590     0.4400 H     1 <1>   0.0800 
 46 H       -6.1630    -7.1200    -0.9800 H     1 <1>   0.4500 
 47 H       -8.4490    -6.7440    -0.2980 H     1 <1>   0.0800 
 48 H       -7.8730    -6.6260     1.3500 H     1 <1>   0.0800 
 49 H       -7.5590    -8.6220     2.6170 H     1 <1>   0.1500 
 50 H       -7.7700    -8.8740    -1.6600 H     1 <1>   0.1500 
 51 H       -7.4940   -11.0610     2.7390 H     1 <1>   0.1500 
 52 H       -7.7000   -11.3100    -1.5030 H     1 <1>   0.1500 
 53 H       -7.5580   -12.4080     0.6880 H     1 <1>   0.1500 
@<TRIPOS>BOND
  1   1   2  1   
  2   1   3  1   
  3   2   4  2   
  4   2   5  1   
  5   3   6  2   
  6   3   7  1   
  7   4   6  1   
  8   5   8  am  
  9   5  27  1   
 10   7   9  1   
 11   7  10  1   
 12   7  28  1   
 13   8  11  2   
 14   8  12  1   
 15   9  13  1   
 16  10  29  1   
 17  10  30  1   
 18  10  31  1   
 19  12  14  1   
 20  12  32  1   
 21  12  33  1   
 22  13  34  1   
 23  13  35  1   
 24  13  36  1   
 25  14  15  1   
 26  14  16  1   
 27  14  37  1   
 28  15  17  1   
 29  15  38  1   
 30  15  39  1   
 31  16  18  1   
 32  16  40  1   
 33  16  41  1   
 34  17  19  1   
 35  17  42  1   
 36  17  43  1   
 37  18  19  1   
 38  18  44  1   
 39  18  45  1   
 40  19  20  1   
 41  19  46  1   
 42  20  21  1   
 43  20  47  1   
 44  20  48  1   
 45  21  22  ar  
 46  21  23  ar  
 47  22  24  ar  
 48  22  49  1   
 49  23  25  ar  
 50  23  50  1   
 51  24  26  ar  
 52  24  51  1   
 53  25  26  ar  
 54  25  52  1   
 55  26  53  1   
@<TRIPOS>SUBSTRUCTURE
  1 ****  14 GROUP 4 **** **** 0

# MOE 2024.06 (io_trps.svl 2023.06)
