@<TRIPOS>MOLECULE
NONAME
39 40 1 0 0 
SMALL
USER_CHARGES


@<TRIPOS>ATOM
  1 S        0.0360    -0.3970    -0.4200 S.3   1 <1>  -0.0800 
  2 C       -1.4170    -0.9880     0.3230 C.2   1 <1>   0.4420 
  3 C       -0.4340     1.1860     0.0920 C.2   1 <1>   0.1980 
  4 N       -2.0990    -0.0410     0.8600 N.2   1 <1>  -0.3380 
  5 N       -1.6410    -2.3470     0.2450 N.am  1 <1>  -0.4940 
  6 N       -1.5340     1.1940     0.7240 N.2   1 <1>  -0.3380 
  7 C        0.4610     2.3590    -0.2430 C.3   1 <1>   0.0200 
  8 C       -2.7030    -3.0900     0.6960 C.2   1 <1>   0.5440 
  9 C       -0.1600     3.6360     0.3370 C.3   1 <1>   0.3430 
 10 O       -3.6510    -2.5560     1.2280 O.2   1 <1>  -0.5700 
 11 C       -2.6650    -4.5260     0.5120 C.ar  1 <1>   0.0860 
 12 N        0.6870     4.8560     0.1160 N.4   1 <1>  -0.9590 
 13 C       -3.5890    -5.2060    -0.2980 C.ar  1 <1>  -0.1430 
 14 C       -1.6660    -5.2700     1.1510 C.ar  1 <1>  -0.1500 
 15 C        0.1550     5.9880     0.9390 C.3   1 <1>   0.2630 
 16 C        0.7470     5.2600    -1.3260 C.3   1 <1>   0.2630 
 17 C       -3.4990    -6.5790    -0.4620 C.ar  1 <1>  -0.1500 
 18 C       -4.7080    -4.4510    -1.0080 C.3   1 <1>  -0.0970 
 19 C       -1.5710    -6.6400     0.9900 C.ar  1 <1>  -0.1500 
 20 C       -2.4930    -7.2720     0.1810 C.ar  1 <1>   0.1900 
 21 F       -2.4110    -8.5630     0.0200 F     1 <1>  -0.1900 
 22 H       -0.9230    -2.8770    -0.2410 H     1 <1>   0.3700 
 23 H        0.5450     2.4270    -1.3120 H     1 <1>   0.0800 
 24 H        1.4300     2.1870     0.1880 H     1 <1>   0.0800 
 25 H       -0.3010     3.4860     1.3970 H     1 <1>   0.0800 
 26 H       -1.1360     3.7830    -0.0980 H     1 <1>   0.0800 
 27 H        1.6450     4.6560     0.4450 H     1 <1>   0.4500 
 28 H       -0.9610    -4.7660     1.7900 H     1 <1>   0.1500 
 29 H       -0.8500     6.2330     0.6370 H     1 <1>   0.0800 
 30 H        0.7740     6.8630     0.8200 H     1 <1>   0.0800 
 31 H        0.1430     5.7180     1.9840 H     1 <1>   0.0800 
 32 H       -0.2440     5.4630    -1.7010 H     1 <1>   0.0800 
 33 H        1.1870     4.4770    -1.9220 H     1 <1>   0.0800 
 34 H        1.3450     6.1500    -1.4410 H     1 <1>   0.0800 
 35 H       -4.1970    -7.1190    -1.0770 H     1 <1>   0.1500 
 36 H       -4.3030    -3.6560    -1.6080 H     1 <1>   0.0800 
 37 H       -5.3790    -4.0240    -0.2820 H     1 <1>   0.0800 
 38 H       -5.2740    -5.1040    -1.6480 H     1 <1>   0.0800 
 39 H       -0.8040    -7.2130     1.4810 H     1 <1>   0.1500 
@<TRIPOS>BOND
  1   1   2  1   
  2   1   3  1   
  3   2   4  2   
  4   2   5  1   
  5   3   6  2   
  6   3   7  1   
  7   4   6  1   
  8   5   8  am  
  9   5  22  1   
 10   7   9  1   
 11   7  23  1   
 12   7  24  1   
 13   8  10  2   
 14   8  11  1   
 15   9  12  1   
 16   9  25  1   
 17   9  26  1   
 18  11  13  ar  
 19  11  14  ar  
 20  12  15  1   
 21  12  16  1   
 22  12  27  1   
 23  13  17  ar  
 24  13  18  1   
 25  14  19  ar  
 26  14  28  1   
 27  15  29  1   
 28  15  30  1   
 29  15  31  1   
 30  16  32  1   
 31  16  33  1   
 32  16  34  1   
 33  17  20  ar  
 34  17  35  1   
 35  18  36  1   
 36  18  37  1   
 37  18  38  1   
 38  19  20  ar  
 39  19  39  1   
 40  20  21  1   
@<TRIPOS>SUBSTRUCTURE
  1 ****   2 GROUP 4 **** **** 0

# MOE 2024.06 (io_trps.svl 2023.06)
