@<TRIPOS>MOLECULE
NONAME
56 58 1 0 0 
SMALL
USER_CHARGES


@<TRIPOS>ATOM
  1 O       -1.0080     0.4980    -1.6240 O.2   1 <1>  -0.5700 
  2 C       -1.9180     0.7730    -0.8720 C.2   1 <1>   0.5690 
  3 N       -2.9740    -0.1030    -0.7130 N.am  1 <1>  -0.6600 
  4 C       -1.8770     2.1110    -0.1060 C.3   1 <1>   0.2680 
  5 C       -2.9390    -1.4570    -1.3530 C.3   1 <1>   0.1400 
  6 C       -4.2770     0.2900    -0.0870 C.3   1 <1>   0.1400 
  7 C       -2.9130     3.1020    -0.6540 C.ar  1 <1>  -0.1440 
  8 C       -0.4680     2.7160     0.0260 C.ar  1 <1>  -0.1440 
  9 C       -3.3060    -2.6050    -0.3730 C.3   1 <1>   0.0000 
 10 C       -5.1630    -0.9240     0.2110 C.3   1 <1>  -0.1600 
 11 C       -3.1200     3.2330    -2.0210 C.ar  1 <1>  -0.1500 
 12 C       -3.6640     3.8780     0.2190 C.ar  1 <1>  -0.1500 
 13 C       -0.1240     3.9520    -0.5100 C.ar  1 <1>  -0.1500 
 14 C        0.5010     2.0020     0.7210 C.ar  1 <1>  -0.1500 
 15 C       -4.2920    -2.0730     0.7150 C.3   1 <1>   0.2000 
 16 C       -3.9830    -3.7300    -1.2030 C.3   1 <1>   0.1200 
 17 C       -2.0410    -3.1980     0.3160 C.3   1 <1>  -0.1600 
 18 C       -4.0700     4.1140    -2.5060 C.ar  1 <1>  -0.1500 
 19 C       -4.6140     4.7590    -0.2660 C.ar  1 <1>  -0.1500 
 20 C        1.1540     4.4610    -0.3500 C.ar  1 <1>  -0.1500 
 21 C        1.7780     2.5090     0.8820 C.ar  1 <1>  -0.1500 
 22 O       -5.1280    -3.0630     1.2090 O.3   1 <1>  -0.6800 
 23 O       -3.1840    -4.1610    -2.2580 O.3   1 <1>  -0.6800 
 24 C       -1.0880    -2.1860     0.9840 C.3   1 <1>  -0.1600 
 25 C       -4.8190     4.8770    -1.6290 C.ar  1 <1>  -0.1500 
 26 C        2.1060     3.7400     0.3470 C.ar  1 <1>  -0.1500 
 27 C        0.0440    -2.9070     1.7190 C.3   1 <1>  -0.2400 
 28 H       -2.1650     1.8760     0.9000 H     1 <1>   0.0800 
 29 H       -3.6440    -1.4360    -2.1670 H     1 <1>   0.0800 
 30 H       -1.9720    -1.6550    -1.7830 H     1 <1>   0.0800 
 31 H       -4.0840     0.7980     0.8420 H     1 <1>   0.0800 
 32 H       -4.7990     0.9720    -0.7380 H     1 <1>   0.0800 
 33 H       -5.6910    -1.2090    -0.6810 H     1 <1>   0.0800 
 34 H       -5.8840    -0.6470     0.9600 H     1 <1>   0.0800 
 35 H       -2.5380     2.6520    -2.7180 H     1 <1>   0.1500 
 36 H       -3.5110     3.8050     1.2820 H     1 <1>   0.1500 
 37 H       -0.8410     4.5380    -1.0580 H     1 <1>   0.1500 
 38 H        0.2670     1.0370     1.1380 H     1 <1>   0.1500 
 39 H       -3.7350    -1.7120     1.5600 H     1 <1>   0.0800 
 40 H       -4.9160    -3.3900    -1.6200 H     1 <1>   0.0800 
 41 H       -4.1760    -4.5900    -0.5840 H     1 <1>   0.0800 
 42 H       -2.3630    -3.9120     1.0560 H     1 <1>   0.0800 
 43 H       -1.4650    -3.7440    -0.4100 H     1 <1>   0.0800 
 44 H       -4.2230     4.2080    -3.5670 H     1 <1>   0.1500 
 45 H       -5.1920     5.3570     0.4170 H     1 <1>   0.1500 
 46 H        1.4050     5.4180    -0.7710 H     1 <1>   0.1500 
 47 H        2.5180     1.9420     1.4200 H     1 <1>   0.1500 
 48 H       -5.7960    -3.3190     0.5460 H     1 <1>   0.4000 
 49 H       -2.9610    -3.4310    -2.8660 H     1 <1>   0.4000 
 50 H       -0.6520    -1.5470     0.2350 H     1 <1>   0.0800 
 51 H       -1.6130    -1.5650     1.6860 H     1 <1>   0.0800 
 52 H       -5.5570     5.5630    -2.0060 H     1 <1>   0.1500 
 53 H        3.0990     4.1360     0.4690 H     1 <1>   0.1500 
 54 H        0.6090    -3.5150     1.0330 H     1 <1>   0.0800 
 55 H       -0.3520    -3.5370     2.4960 H     1 <1>   0.0800 
 56 H        0.7100    -2.1890     2.1650 H     1 <1>   0.0800 
@<TRIPOS>BOND
  1   1   2  2   
  2   2   3  am  
  3   2   4  1   
  4   3   5  1   
  5   3   6  1   
  6   4   7  1   
  7   4   8  1   
  8   4  28  1   
  9   5   9  1   
 10   5  29  1   
 11   5  30  1   
 12   6  10  1   
 13   6  31  1   
 14   6  32  1   
 15   7  11  ar  
 16   7  12  ar  
 17   8  13  ar  
 18   8  14  ar  
 19   9  15  1   
 20   9  16  1   
 21   9  17  1   
 22  10  15  1   
 23  10  33  1   
 24  10  34  1   
 25  11  18  ar  
 26  11  35  1   
 27  12  19  ar  
 28  12  36  1   
 29  13  20  ar  
 30  13  37  1   
 31  14  21  ar  
 32  14  38  1   
 33  15  22  1   
 34  15  39  1   
 35  16  23  1   
 36  16  40  1   
 37  16  41  1   
 38  17  24  1   
 39  17  42  1   
 40  17  43  1   
 41  18  25  ar  
 42  18  44  1   
 43  19  25  ar  
 44  19  45  1   
 45  20  26  ar  
 46  20  46  1   
 47  21  26  ar  
 48  21  47  1   
 49  22  48  1   
 50  23  49  1   
 51  24  27  1   
 52  24  50  1   
 53  24  51  1   
 54  25  52  1   
 55  26  53  1   
 56  27  54  1   
 57  27  55  1   
 58  27  56  1   
@<TRIPOS>SUBSTRUCTURE
  1 ****   2 GROUP 4 **** **** 0

# MOE 2024.06 (io_trps.svl 2023.06)
