@<TRIPOS>MOLECULE
NONAME
46 48 1 0 0 
SMALL
USER_CHARGES


@<TRIPOS>ATOM
  1 O        1.2870     1.0480     0.4030 O.3   1 <1>  -0.2800 
  2 C        1.4860     1.3610    -0.8380 C.2   1 <1>   0.2980 
  3 C        1.2360    -0.2420     0.3870 C.2   1 <1>   0.2980 
  4 N        1.5490     0.3280    -1.5920 N.2   1 <1>  -0.3380 
  5 C        1.6290     2.8210    -1.2580 C.3   1 <1>   0.2900 
  6 N        1.3880    -0.7230    -0.7870 N.2   1 <1>  -0.3380 
  7 C        1.0190    -1.0020     1.6740 C.3   1 <1>  -0.0600 
  8 N        2.8940     3.4320    -0.7850 N.3   1 <1>  -0.8100 
  9 C        4.0940     2.7140    -1.2890 C.3   1 <1>   0.1100 
 10 C        2.9430     4.8840    -1.0310 C.3   1 <1>   0.1100 
 11 C        4.8480     2.0080    -0.1490 C.3   1 <1>   0.2000 
 12 C        4.0190     5.5450    -0.1690 C.3   1 <1>   0.1200 
 13 O        5.5460     2.9240     0.6350 O.3   1 <1>  -0.5600 
 14 C        5.9250     1.0460    -0.6300 C.3   1 <1>  -0.1600 
 15 O        3.9530     6.9430    -0.3540 O.3   1 <1>  -0.3630 
 16 C        6.5420     2.2680     1.3480 C.3   1 <1>   0.1200 
 17 C        6.9220     1.0430     0.5180 C.3   1 <1>  -0.1600 
 18 C        4.8140     7.7670     0.2950 C.ar  1 <1>   0.0820 
 19 C        5.8030     7.3210     1.1680 C.ar  1 <1>  -0.1500 
 20 C        4.6790     9.1250     0.0550 C.ar  1 <1>  -0.1500 
 21 C        6.6410     8.2320     1.7890 C.ar  1 <1>  -0.1500 
 22 C        5.5170    10.0350     0.6760 C.ar  1 <1>  -0.1500 
 23 C        6.4990     9.5870     1.5440 C.ar  1 <1>  -0.1500 
 24 H        0.7960     3.3660    -0.8500 H     1 <1>   0.0800 
 25 H        1.5800     2.8830    -2.3310 H     1 <1>   0.0800 
 26 H        1.8110    -0.7780     2.3640 H     1 <1>   0.0800 
 27 H        1.0090    -2.0580     1.4780 H     1 <1>   0.0800 
 28 H        0.0790    -0.7150     2.1080 H     1 <1>   0.0800 
 29 H        4.7700     3.3870    -1.7880 H     1 <1>   0.0800 
 30 H        3.8020     1.9720    -2.0130 H     1 <1>   0.0800 
 31 H        1.9950     5.3200    -0.7640 H     1 <1>   0.0800 
 32 H        3.1360     5.0770    -2.0720 H     1 <1>   0.0800 
 33 H        4.1520     1.4890     0.4880 H     1 <1>   0.0800 
 34 H        4.9990     5.2140    -0.4610 H     1 <1>   0.0800 
 35 H        3.8450     5.3290     0.8710 H     1 <1>   0.0800 
 36 H        6.3880     1.4320    -1.5210 H     1 <1>   0.0800 
 37 H        5.5190     0.0700    -0.8320 H     1 <1>   0.0800 
 38 H        6.1360     1.9830     2.3030 H     1 <1>   0.0800 
 39 H        7.3690     2.9440     1.4830 H     1 <1>   0.0800 
 40 H        7.9340     1.1170     0.1610 H     1 <1>   0.0800 
 41 H        6.8250     0.1550     1.1170 H     1 <1>   0.0800 
 42 H        5.9350     6.2750     1.3760 H     1 <1>   0.1500 
 43 H        3.9140     9.4640    -0.6190 H     1 <1>   0.1500 
 44 H        7.4040     7.8860     2.4630 H     1 <1>   0.1500 
 45 H        5.4050    11.0870     0.4850 H     1 <1>   0.1500 
 46 H        7.1510    10.2930     2.0270 H     1 <1>   0.1500 
@<TRIPOS>BOND
  1   1   2  1   
  2   1   3  1   
  3   2   4  2   
  4   2   5  1   
  5   3   6  2   
  6   3   7  1   
  7   4   6  1   
  8   5   8  1   
  9   5  24  1   
 10   5  25  1   
 11   7  26  1   
 12   7  27  1   
 13   7  28  1   
 14   8   9  1   
 15   8  10  1   
 16   9  11  1   
 17   9  29  1   
 18   9  30  1   
 19  10  12  1   
 20  10  31  1   
 21  10  32  1   
 22  11  13  1   
 23  11  14  1   
 24  11  33  1   
 25  12  15  1   
 26  12  34  1   
 27  12  35  1   
 28  13  16  1   
 29  14  17  1   
 30  14  36  1   
 31  14  37  1   
 32  15  18  1   
 33  16  17  1   
 34  16  38  1   
 35  16  39  1   
 36  17  40  1   
 37  17  41  1   
 38  18  19  ar  
 39  18  20  ar  
 40  19  21  ar  
 41  19  42  1   
 42  20  22  ar  
 43  20  43  1   
 44  21  23  ar  
 45  21  44  1   
 46  22  23  ar  
 47  22  45  1   
 48  23  46  1   
@<TRIPOS>SUBSTRUCTURE
  1 ****   8 GROUP 4 **** **** 0

# MOE 2024.06 (io_trps.svl 2023.06)
