@<TRIPOS>MOLECULE
NONAME
45 46 1 0 0 
SMALL
USER_CHARGES


@<TRIPOS>ATOM
  1 O       -0.9410     0.5840     2.8730 O.2   1 <1>  -0.5700 
  2 C       -1.8240     1.0490     2.1940 C.2   1 <1>   0.5690 
  3 N       -2.8880     0.2860     1.7790 N.am  1 <1>  -0.6600 
  4 C       -1.6800     2.5200     1.8210 C.3   1 <1>  -0.0990 
  5 C       -2.8820    -1.1830     2.0430 C.3   1 <1>   0.3200 
  6 C       -4.1450     0.8330     1.1770 C.3   1 <1>   0.1400 
  7 C       -0.7060     2.7110     0.6460 C.3   1 <1>  -0.1600 
  8 C       -3.1760    -1.9460     0.7670 C.2   1 <1>  -0.3320 
  9 C       -4.0180     1.0110    -0.3400 C.3   1 <1>   0.1200 
 10 C       -0.5520     4.1890     0.2710 C.3   1 <1>  -0.0170 
 11 N       -4.3950    -2.3830     0.3940 N.pl3 1 <1>   0.0330 
 12 C       -2.3260    -2.3200    -0.2140 C.2   1 <1>   0.0770 
 13 O       -5.2480     1.4160    -0.8370 O.3   1 <1>  -0.6800 
 14 C        0.4060     4.3440    -0.8990 C.ar  1 <1>  -0.1440 
 15 C       -4.2060    -2.9870    -0.7980 C.2   1 <1>   0.0070 
 16 N       -2.9780    -2.9690    -1.1970 N.2   1 <1>  -0.5650 
 17 C        1.7720     4.4120    -0.6760 C.ar  1 <1>  -0.1500 
 18 C       -0.0750     4.4160    -2.1970 C.ar  1 <1>  -0.1500 
 19 C       -5.3340    -3.6200    -1.5840 C.3   1 <1>  -0.0600 
 20 C        2.6490     4.5540    -1.7380 C.ar  1 <1>  -0.1500 
 21 C        0.8000     4.5580    -3.2610 C.ar  1 <1>  -0.1500 
 22 C        2.1630     4.6270    -3.0320 C.ar  1 <1>  -0.1500 
 23 H       -1.2950     3.0360     2.6810 H     1 <1>   0.0800 
 24 H       -2.6270     2.9620     1.5850 H     1 <1>   0.0800 
 25 H       -3.6100    -1.4160     2.8000 H     1 <1>   0.0800 
 26 H       -1.9190    -1.4970     2.4090 H     1 <1>   0.0800 
 27 H       -4.3900     1.7750     1.6320 H     1 <1>   0.0800 
 28 H       -4.9580     0.1600     1.3830 H     1 <1>   0.0800 
 29 H       -1.0530     2.1590    -0.2100 H     1 <1>   0.0800 
 30 H        0.2570     2.3120     0.9190 H     1 <1>   0.0800 
 31 H       -3.7520     0.0860    -0.8210 H     1 <1>   0.0800 
 32 H       -3.2950     1.7680    -0.5800 H     1 <1>   0.0800 
 33 H       -0.1770     4.7420     1.1140 H     1 <1>   0.0800 
 34 H       -1.5100     4.6030     0.0080 H     1 <1>   0.0800 
 35 H       -5.2830    -2.2810     0.8910 H     1 <1>   0.2700 
 36 H       -1.2630    -2.1470    -0.2670 H     1 <1>   0.1500 
 37 H       -5.2140     1.4830    -1.8130 H     1 <1>   0.4000 
 38 H        2.1590     4.3540     0.3260 H     1 <1>   0.1500 
 39 H       -1.1320     4.3620    -2.3870 H     1 <1>   0.1500 
 40 H       -6.0800    -2.8840    -1.8180 H     1 <1>   0.0800 
 41 H       -5.7800    -4.4150    -1.0140 H     1 <1>   0.0800 
 42 H       -4.9510    -4.0280    -2.5020 H     1 <1>   0.0800 
 43 H        3.7080     4.6060    -1.5580 H     1 <1>   0.1500 
 44 H        0.4200     4.6130    -4.2660 H     1 <1>   0.1500 
 45 H        2.8440     4.7380    -3.8580 H     1 <1>   0.1500 
@<TRIPOS>BOND
  1   1   2  2   
  2   2   3  am  
  3   2   4  1   
  4   3   5  1   
  5   3   6  1   
  6   4   7  1   
  7   4  23  1   
  8   4  24  1   
  9   5   8  1   
 10   5  25  1   
 11   5  26  1   
 12   6   9  1   
 13   6  27  1   
 14   6  28  1   
 15   7  10  1   
 16   7  29  1   
 17   7  30  1   
 18   8  11  1   
 19   8  12  2   
 20   9  13  1   
 21   9  31  1   
 22   9  32  1   
 23  10  14  1   
 24  10  33  1   
 25  10  34  1   
 26  11  15  1   
 27  11  35  1   
 28  12  16  1   
 29  12  36  1   
 30  13  37  1   
 31  14  17  ar  
 32  14  18  ar  
 33  15  16  2   
 34  15  19  1   
 35  17  20  ar  
 36  17  38  1   
 37  18  21  ar  
 38  18  39  1   
 39  19  40  1   
 40  19  41  1   
 41  19  42  1   
 42  20  22  ar  
 43  20  43  1   
 44  21  22  ar  
 45  21  44  1   
 46  22  45  1   
@<TRIPOS>SUBSTRUCTURE
  1 ****   7 GROUP 4 **** **** 0

# MOE 2024.06 (io_trps.svl 2023.06)
