@<TRIPOS>MOLECULE
NONAME
46 48 1 0 0 
SMALL
USER_CHARGES


@<TRIPOS>ATOM
  1 F        0.3650     0.1490    -1.9980 F     1 <1>  -0.3400 
  2 C       -0.8750    -0.3280    -1.9310 C.3   1 <1>   1.1640 
  3 F       -1.4760     0.0470    -3.0530 F     1 <1>  -0.3400 
  4 F       -0.7600    -1.6490    -2.0010 F     1 <1>  -0.3400 
  5 C       -1.6100     0.1760    -0.6690 C.ar  1 <1>  -0.1440 
  6 C       -1.9180     1.5290    -0.4580 C.ar  1 <1>  -0.1440 
  7 C       -1.9860    -0.7500     0.3030 C.ar  1 <1>  -0.1500 
  8 C       -2.6060     1.9020     0.6900 C.ar  1 <1>  -0.1500 
  9 C       -1.5440     2.6530    -1.4380 C.3   1 <1>   0.0450 
 10 C       -2.6570    -0.3610     1.4470 C.ar  1 <1>  -0.1500 
 11 C       -2.9710     0.9680     1.6390 C.ar  1 <1>  -0.1500 
 12 C       -0.9780     3.9120    -0.7830 C.2   1 <1>   0.5690 
 13 O       -1.4540     4.9690    -1.1220 O.2   1 <1>  -0.5700 
 14 N        0.0660     3.8850     0.1130 N.am  1 <1>  -0.6600 
 15 C        0.3750     5.0900     0.9530 C.3   1 <1>   0.1400 
 16 C        0.9810     2.7270     0.3380 C.3   1 <1>   0.1400 
 17 C        1.7460     5.7640     0.6670 C.3   1 <1>   0.4230 
 18 C        2.4090     3.0360    -0.1600 C.3   1 <1>  -0.0800 
 19 N        2.3010     5.5650    -0.7330 N.4   1 <1>  -0.9590 
 20 C        2.7940     5.4070     1.7440 C.3   1 <1>   0.1200 
 21 C        3.4230     3.2470     0.9760 C.3   1 <1>   0.1200 
 22 C        2.4420     4.1470    -1.2250 C.3   1 <1>   0.3430 
 23 C        1.4790     6.3420    -1.7150 C.3   1 <1>   0.2630 
 24 O        2.8850     4.0370     1.9830 O.3   1 <1>  -0.5600 
 25 H       -1.7660    -1.7980     0.1870 H     1 <1>   0.1500 
 26 H       -2.8700     2.9320     0.8610 H     1 <1>   0.1500 
 27 H       -2.4350     2.9270    -1.9750 H     1 <1>   0.0800 
 28 H       -0.8280     2.3400    -2.1690 H     1 <1>   0.0800 
 29 H       -2.9390    -1.0920     2.1850 H     1 <1>   0.1500 
 30 H       -3.5010     1.2750     2.5250 H     1 <1>   0.1500 
 31 H       -0.3920     5.8330     0.8170 H     1 <1>   0.0800 
 32 H        0.3260     4.8070     1.9910 H     1 <1>   0.0800 
 33 H        0.9850     2.4710     1.3860 H     1 <1>   0.0800 
 34 H        0.6190     1.8650    -0.1870 H     1 <1>   0.0800 
 35 H        1.5830     6.8210     0.7890 H     1 <1>   0.0800 
 36 H        2.7380     2.1460    -0.6670 H     1 <1>   0.0800 
 37 H        3.2450     5.9710    -0.7280 H     1 <1>   0.4500 
 38 H        2.4970     5.8540     2.6760 H     1 <1>   0.0800 
 39 H        3.7690     5.7870     1.4930 H     1 <1>   0.0800 
 40 H        4.3460     3.6810     0.6290 H     1 <1>   0.0800 
 41 H        3.6500     2.2950     1.4280 H     1 <1>   0.0800 
 42 H        1.6450     3.9410    -1.9210 H     1 <1>   0.0800 
 43 H        3.3650     4.0650    -1.7750 H     1 <1>   0.0800 
 44 H        0.4750     5.9520    -1.7560 H     1 <1>   0.0800 
 45 H        1.9090     6.2790    -2.7010 H     1 <1>   0.0800 
 46 H        1.4280     7.3800    -1.4290 H     1 <1>   0.0800 
@<TRIPOS>BOND
  1   1   2  1   
  2   2   3  1   
  3   2   4  1   
  4   2   5  1   
  5   5   6  ar  
  6   5   7  ar  
  7   6   8  ar  
  8   6   9  1   
  9   7  10  ar  
 10   7  25  1   
 11   8  11  ar  
 12   8  26  1   
 13   9  12  1   
 14   9  27  1   
 15   9  28  1   
 16  10  11  ar  
 17  10  29  1   
 18  11  30  1   
 19  12  13  2   
 20  12  14  am  
 21  14  15  1   
 22  14  16  1   
 23  15  17  1   
 24  15  31  1   
 25  15  32  1   
 26  16  18  1   
 27  16  33  1   
 28  16  34  1   
 29  17  19  1   
 30  17  20  1   
 31  17  35  1   
 32  18  21  1   
 33  18  22  1   
 34  18  36  1   
 35  19  22  1   
 36  19  23  1   
 37  19  37  1   
 38  20  24  1   
 39  20  38  1   
 40  20  39  1   
 41  21  24  1   
 42  21  40  1   
 43  21  41  1   
 44  22  42  1   
 45  22  43  1   
 46  23  44  1   
 47  23  45  1   
 48  23  46  1   
@<TRIPOS>SUBSTRUCTURE
  1 ****  16 GROUP 4 **** **** 0

# MOE 2024.06 (io_trps.svl 2023.06)
