@<TRIPOS>MOLECULE
NONAME
45 47 1 0 0 
SMALL
USER_CHARGES


@<TRIPOS>ATOM
  1 S       -0.0370    -0.0700     2.2100 S.o2  1 <1>   1.4470 
  2 O        0.2520     1.1360     2.9580 O.2   1 <1>  -0.6500 
  3 O       -0.7360    -1.1570     2.8610 O.2   1 <1>  -0.6500 
  4 N       -0.9690     0.3930     0.8730 N.am  1 <1>  -0.8490 
  5 C        1.4780    -0.7140     1.4450 C.ar  1 <1>  -0.0090 
  6 C       -2.3780     0.5950     1.2460 C.3   1 <1>   0.1960 
  7 C       -0.4400     1.5930     0.2160 C.3   1 <1>   0.1960 
  8 C        1.4150    -1.7050     0.4700 C.ar  1 <1>  -0.1500 
  9 C        2.7330    -0.2370     1.8110 C.ar  1 <1>  -0.1500 
 10 C       -3.2720     0.8340     0.0030 C.3   1 <1>   0.0000 
 11 C       -1.2230     1.8840    -1.0680 C.3   1 <1>  -0.1600 
 12 C        2.5610    -2.2000    -0.1280 C.ar  1 <1>  -0.1500 
 13 C        3.8870    -0.7240     1.2200 C.ar  1 <1>  -0.1500 
 14 C       -4.7540     1.0310     0.3790 C.3   1 <1>   0.2000 
 15 C       -2.7260     2.0410    -0.7870 C.3   1 <1>  -0.1600 
 16 C       -3.3390    -0.4400    -0.8590 C.3   1 <1>  -0.1600 
 17 C        3.7980    -1.7010     0.2420 C.ar  1 <1>   0.0830 
 18 O       -4.9290     1.7410     1.5540 O.3   1 <1>  -0.6800 
 19 C       -5.3690    -0.3640     0.5080 C.3   1 <1>  -0.1600 
 20 C       -4.4050    -1.3220    -0.2030 C.3   1 <1>  -0.1600 
 21 O        4.9190    -2.1800    -0.3350 O.3   1 <1>  -0.3630 
 22 C        5.3740    -1.5380    -1.5070 C.3   1 <1>   1.3000 
 23 F        4.4700    -1.6000    -2.4770 F     1 <1>  -0.3400 
 24 F        5.6560    -0.2600    -1.2810 F     1 <1>  -0.3400 
 25 F        6.4790    -2.1240    -1.9460 F     1 <1>  -0.3400 
 26 H       -2.7400    -0.2710     1.7730 H     1 <1>   0.0800 
 27 H       -2.4430     1.4380     1.9150 H     1 <1>   0.0800 
 28 H       -0.5100     2.4390     0.8830 H     1 <1>   0.0800 
 29 H        0.5970     1.4460    -0.0330 H     1 <1>   0.0800 
 30 H        0.4520    -2.0910     0.1800 H     1 <1>   0.1500 
 31 H        2.8080     0.5250     2.5700 H     1 <1>   0.1500 
 32 H       -0.8460     2.7860    -1.5160 H     1 <1>   0.0800 
 33 H       -1.0600     1.0810    -1.7650 H     1 <1>   0.0800 
 34 H        2.4920    -2.9710    -0.8760 H     1 <1>   0.1500 
 35 H        4.8500    -0.3470     1.5180 H     1 <1>   0.1500 
 36 H       -5.2570     1.5710    -0.4070 H     1 <1>   0.0800 
 37 H       -3.2600     2.1610    -1.7130 H     1 <1>   0.0800 
 38 H       -2.8790     2.9340    -0.2040 H     1 <1>   0.0800 
 39 H       -3.6650    -0.1880    -1.8530 H     1 <1>   0.0800 
 40 H       -2.3930    -0.9480    -0.9300 H     1 <1>   0.0800 
 41 H       -4.7230     1.1770     2.3230 H     1 <1>   0.4000 
 42 H       -5.4810    -0.6590     1.5370 H     1 <1>   0.0800 
 43 H       -6.3330    -0.3800     0.0290 H     1 <1>   0.0800 
 44 H       -3.9390    -1.9700     0.5220 H     1 <1>   0.0800 
 45 H       -4.9110    -1.9310    -0.9330 H     1 <1>   0.0800 
@<TRIPOS>BOND
  1   1   2  2   
  2   1   3  2   
  3   1   4  am  
  4   1   5  1   
  5   4   6  1   
  6   4   7  1   
  7   5   8  ar  
  8   5   9  ar  
  9   6  10  1   
 10   6  26  1   
 11   6  27  1   
 12   7  11  1   
 13   7  28  1   
 14   7  29  1   
 15   8  12  ar  
 16   8  30  1   
 17   9  13  ar  
 18   9  31  1   
 19  10  14  1   
 20  10  15  1   
 21  10  16  1   
 22  11  15  1   
 23  11  32  1   
 24  11  33  1   
 25  12  17  ar  
 26  12  34  1   
 27  13  17  ar  
 28  13  35  1   
 29  14  18  1   
 30  14  19  1   
 31  14  36  1   
 32  15  37  1   
 33  15  38  1   
 34  16  20  1   
 35  16  39  1   
 36  16  40  1   
 37  17  21  1   
 38  18  41  1   
 39  19  20  1   
 40  19  42  1   
 41  19  43  1   
 42  20  44  1   
 43  20  45  1   
 44  21  22  1   
 45  22  23  1   
 46  22  24  1   
 47  22  25  1   
@<TRIPOS>SUBSTRUCTURE
  1 ****   4 GROUP 4 **** **** 0

# MOE 2024.06 (io_trps.svl 2023.06)
