@<TRIPOS>MOLECULE
NONAME
48 49 1 0 0 
SMALL
USER_CHARGES


@<TRIPOS>ATOM
  1 S       -0.8810     0.7240     1.2970 S.o2  1 <1>   1.4470 
  2 O       -0.7320    -0.3390     2.2680 O.2   1 <1>  -0.6500 
  3 O       -1.6800     1.8860     1.6280 O.2   1 <1>  -0.6500 
  4 N       -1.4940     0.0660    -0.1410 N.am  1 <1>  -0.8490 
  5 C        0.7650     1.2930     0.7840 C.ar  1 <1>  -0.0090 
  6 C       -0.8660    -1.2210    -0.5470 C.3   1 <1>   0.1960 
  7 C       -2.9590     0.0370    -0.2180 C.3   1 <1>   0.1960 
  8 C        1.9040     0.9530     1.5040 C.ar  1 <1>  -0.1500 
  9 C        0.9270     2.0870    -0.3450 C.ar  1 <1>  -0.1500 
 10 C       -1.7910    -2.4620    -0.5170 C.3   1 <1>   0.2000 
 11 C       -3.5710    -1.0600     0.6690 C.3   1 <1>  -0.1600 
 12 C        3.1590     1.3840     1.1090 C.ar  1 <1>  -0.1500 
 13 C        2.1780     2.5220    -0.7460 C.ar  1 <1>  -0.1500 
 14 O       -2.5000    -2.5400    -1.7080 O.3   1 <1>  -0.6800 
 15 C       -2.7870    -2.3970     0.6450 C.3   1 <1>  -0.1860 
 16 C        3.3040     2.1710    -0.0210 C.ar  1 <1>  -0.1430 
 17 C       -3.6890    -3.6160     0.6330 C.2   1 <1>   0.9060 
 18 C        4.6800     2.6480    -0.4570 C.3   1 <1>  -0.0160 
 19 O       -3.7310    -4.3420     1.6290 O.co2 1 <1>  -0.9000 
 20 O       -4.3350    -3.8590    -0.3960 O.co2 1 <1>  -0.9000 
 21 C        5.0130     3.9970     0.1910 C.3   1 <1>  -0.1600 
 22 C        6.3980     4.5010    -0.2340 C.3   1 <1>  -0.1600 
 23 C        6.7190     5.8500     0.4200 C.3   1 <1>  -0.1600 
 24 C        8.1020     6.3530    -0.0040 C.3   1 <1>  -0.2400 
 25 H       -0.4760    -1.1180    -1.5440 H     1 <1>   0.0800 
 26 H       -0.0280    -1.4270     0.0950 H     1 <1>   0.0800 
 27 H       -3.3690     0.9960     0.0490 H     1 <1>   0.0800 
 28 H       -3.2400    -0.1500    -1.2410 H     1 <1>   0.0800 
 29 H        1.8080     0.3420     2.3860 H     1 <1>   0.1500 
 30 H        0.0570     2.3650    -0.9160 H     1 <1>   0.1500 
 31 H       -1.2030    -3.3610    -0.4460 H     1 <1>   0.0800 
 32 H       -3.6410    -0.7100     1.6830 H     1 <1>   0.0800 
 33 H       -4.5770    -1.2320     0.3270 H     1 <1>   0.0800 
 34 H        4.0230     1.1070     1.6880 H     1 <1>   0.1500 
 35 H        2.2700     3.1370    -1.6240 H     1 <1>   0.1500 
 36 H       -3.3120    -3.0960    -1.5000 H     1 <1>   0.4000 
 37 H       -2.2140    -2.4530     1.5520 H     1 <1>   0.0800 
 38 H        5.4200     1.9180    -0.1770 H     1 <1>   0.0800 
 39 H        4.7050     2.7430    -1.5280 H     1 <1>   0.0800 
 40 H        4.2650     4.7170    -0.0920 H     1 <1>   0.0800 
 41 H        4.9800     3.8900     1.2620 H     1 <1>   0.0800 
 42 H        7.1460     3.7800     0.0520 H     1 <1>   0.0800 
 43 H        6.4290     4.6080    -1.3050 H     1 <1>   0.0800 
 44 H        5.9760     6.5760     0.1360 H     1 <1>   0.0800 
 45 H        6.6940     5.7480     1.4920 H     1 <1>   0.0800 
 46 H        8.1430     6.4830    -1.0710 H     1 <1>   0.0800 
 47 H        8.8640     5.6520     0.2900 H     1 <1>   0.0800 
 48 H        8.3080     7.2990     0.4640 H     1 <1>   0.0800 
@<TRIPOS>BOND
  1   1   2  2   
  2   1   3  2   
  3   1   4  am  
  4   1   5  1   
  5   4   6  1   
  6   4   7  1   
  7   5   8  ar  
  8   5   9  ar  
  9   6  10  1   
 10   6  25  1   
 11   6  26  1   
 12   7  11  1   
 13   7  27  1   
 14   7  28  1   
 15   8  12  ar  
 16   8  29  1   
 17   9  13  ar  
 18   9  30  1   
 19  10  14  1   
 20  10  15  1   
 21  10  31  1   
 22  11  15  1   
 23  11  32  1   
 24  11  33  1   
 25  12  16  ar  
 26  12  34  1   
 27  13  16  ar  
 28  13  35  1   
 29  14  36  1   
 30  15  17  1   
 31  15  37  1   
 32  16  18  1   
 33  17  19  ar  
 34  17  20  ar  
 35  18  21  1   
 36  18  38  1   
 37  18  39  1   
 38  21  22  1   
 39  21  40  1   
 40  21  41  1   
 41  22  23  1   
 42  22  42  1   
 43  22  43  1   
 44  23  24  1   
 45  23  44  1   
 46  23  45  1   
 47  24  46  1   
 48  24  47  1   
 49  24  48  1   
@<TRIPOS>SUBSTRUCTURE
  1 ****   5 GROUP 4 **** **** 0

# MOE 2024.06 (io_trps.svl 2023.06)
