@<TRIPOS>MOLECULE
NONAME
55 56 1 0 0 
SMALL
USER_CHARGES


@<TRIPOS>ATOM
  1 S        1.0760     1.0200    -0.9400 S.o2  1 <1>   1.3330 
  2 O        0.7950     2.4010    -1.2620 O.2   1 <1>  -0.6500 
  3 O        0.2020     0.3030    -0.0400 O.2   1 <1>  -0.6500 
  4 N        1.1320     0.1460    -2.3960 N.am  1 <1>  -0.8490 
  5 C        2.7750     0.9350    -0.3720 C.3   1 <1>  -0.0550 
  6 C        1.0420    -1.3060    -2.2030 C.3   1 <1>   0.1160 
  7 C        0.1020     0.5840    -3.3420 C.3   1 <1>   0.1160 
  8 C        3.0260     1.6620     0.9640 C.3   1 <1>  -0.0800 
  9 C        4.5270     1.7880     1.2420 C.3   1 <1>   0.2200 
 10 C        2.5400     0.8300     2.1520 C.3   1 <1>   0.1200 
 11 N        4.9250     3.1850     1.5530 N.am  1 <1>  -0.7300 
 12 C        4.7720     0.8260     2.4110 C.3   1 <1>   0.1200 
 13 O        3.6290     0.0360     2.4840 O.3   1 <1>  -0.5600 
 14 C        4.4690     4.0050     2.5360 C.2   1 <1>   0.5690 
 15 O        3.6450     3.6600     3.3480 O.2   1 <1>  -0.5700 
 16 C        5.0430     5.4250     2.6080 C.3   1 <1>   0.1710 
 17 N        5.7220     5.8810     1.3560 N.3   1 <1>  -0.8100 
 18 C        6.5980     7.0370     1.6290 C.3   1 <1>   0.2530 
 19 C        4.7330     6.2040     0.3100 C.3   1 <1>   0.0300 
 20 C        7.4260     7.4050     0.4060 C.ar  1 <1>  -0.1440 
 21 C        8.3580     6.5110    -0.0980 C.ar  1 <1>  -0.1500 
 22 C        7.2640     8.6330    -0.2170 C.ar  1 <1>  -0.1500 
 23 C        9.1180     6.8400    -1.2070 C.ar  1 <1>  -0.1500 
 24 C        8.0230     8.9610    -1.3270 C.ar  1 <1>  -0.1500 
 25 C        8.9560     8.0680    -1.8270 C.ar  1 <1>  -0.1440 
 26 C        9.7870     8.4280    -3.0440 C.3   1 <1>  -0.0970 
 27 H        3.0740    -0.0910    -0.2730 H     1 <1>   0.0800 
 28 H        3.3920     1.3830    -1.1260 H     1 <1>   0.0800 
 29 H        1.1730    -1.8130    -3.1440 H     1 <1>   0.0800 
 30 H        0.0820    -1.5740    -1.7920 H     1 <1>   0.0800 
 31 H        1.8110    -1.6410    -1.5280 H     1 <1>   0.0800 
 32 H        0.1700     0.0200    -4.2570 H     1 <1>   0.0800 
 33 H        0.2380     1.6260    -3.5790 H     1 <1>   0.0800 
 34 H       -0.8790     0.4520    -2.9160 H     1 <1>   0.0800 
 35 H        2.5380     2.6220     0.9510 H     1 <1>   0.0800 
 36 H        5.1030     1.4540     0.3960 H     1 <1>   0.0800 
 37 H        1.6950     0.2010     1.9370 H     1 <1>   0.0800 
 38 H        2.3150     1.4590     2.9980 H     1 <1>   0.0800 
 39 H        5.5830     3.6350     0.9050 H     1 <1>   0.3700 
 40 H        4.8720     1.3500     3.3450 H     1 <1>   0.0800 
 41 H        5.6220     0.1890     2.2440 H     1 <1>   0.0800 
 42 H        5.7510     5.4270     3.4170 H     1 <1>   0.0800 
 43 H        4.2500     6.1050     2.8640 H     1 <1>   0.0800 
 44 H        6.0050     7.8790     1.9430 H     1 <1>   0.0800 
 45 H        7.2750     6.7910     2.4290 H     1 <1>   0.0800 
 46 H        5.2330     6.4310    -0.6170 H     1 <1>   0.0800 
 47 H        4.1380     7.0540     0.6000 H     1 <1>   0.0800 
 48 H        4.0780     5.3680     0.1360 H     1 <1>   0.0800 
 49 H        8.4870     5.5540     0.3750 H     1 <1>   0.1500 
 50 H        6.5440     9.3390     0.1570 H     1 <1>   0.1500 
 51 H        9.8360     6.1330    -1.5860 H     1 <1>   0.1500 
 52 H        7.8850     9.9170    -1.8000 H     1 <1>   0.1500 
 53 H       10.7400     7.9320    -3.0090 H     1 <1>   0.0800 
 54 H        9.9590     9.4890    -3.0820 H     1 <1>   0.0800 
 55 H        9.2710     8.1270    -3.9380 H     1 <1>   0.0800 
@<TRIPOS>BOND
  1   1   2  2   
  2   1   3  2   
  3   1   4  am  
  4   1   5  1   
  5   4   6  1   
  6   4   7  1   
  7   5   8  1   
  8   5  27  1   
  9   5  28  1   
 10   6  29  1   
 11   6  30  1   
 12   6  31  1   
 13   7  32  1   
 14   7  33  1   
 15   7  34  1   
 16   8   9  1   
 17   8  10  1   
 18   8  35  1   
 19   9  11  1   
 20   9  12  1   
 21   9  36  1   
 22  10  13  1   
 23  10  37  1   
 24  10  38  1   
 25  11  14  am  
 26  11  39  1   
 27  12  13  1   
 28  12  40  1   
 29  12  41  1   
 30  14  15  2   
 31  14  16  1   
 32  16  17  1   
 33  16  42  1   
 34  16  43  1   
 35  17  18  1   
 36  17  19  1   
 37  18  20  1   
 38  18  44  1   
 39  18  45  1   
 40  19  46  1   
 41  19  47  1   
 42  19  48  1   
 43  20  21  ar  
 44  20  22  ar  
 45  21  23  ar  
 46  21  49  1   
 47  22  24  ar  
 48  22  50  1   
 49  23  25  ar  
 50  23  51  1   
 51  24  25  ar  
 52  24  52  1   
 53  25  26  1   
 54  26  53  1   
 55  26  54  1   
 56  26  55  1   
@<TRIPOS>SUBSTRUCTURE
  1 ****  11 GROUP 4 **** **** 0

# MOE 2024.06 (io_trps.svl 2023.06)
