@<TRIPOS>MOLECULE
NONAME
47 50 1 0 0 
SMALL
USER_CHARGES


@<TRIPOS>ATOM
  1 F       -0.7920    -2.2250    -2.8730 F     1 <1>  -0.1900 
  2 C       -1.7070    -2.0800    -1.9530 C.ar  1 <1>   0.1900 
  3 C       -2.4510    -0.9130    -1.9080 C.ar  1 <1>   0.1600 
  4 C       -1.9130    -3.0940    -1.0480 C.ar  1 <1>  -0.1500 
  5 N       -3.3980    -0.6870    -1.0060 N.ar  1 <1>  -0.6200 
  6 C       -2.9030    -2.8850    -0.0980 C.ar  1 <1>   0.0860 
  7 C       -3.5860    -1.6680    -0.1300 C.ar  1 <1>   0.1600 
  8 C       -3.2200    -3.8820     0.8980 C.2   1 <1>   0.5440 
  9 O       -2.3400    -4.2500     1.6510 O.2   1 <1>  -0.5700 
 10 N       -4.4830    -4.4260     1.0070 N.am  1 <1>  -0.6600 
 11 C       -5.5420    -4.3120    -0.0370 C.3   1 <1>   0.1400 
 12 C       -4.8360    -5.3760     2.1000 C.3   1 <1>   0.1400 
 13 C       -5.7770    -5.6870    -0.6660 C.3   1 <1>  -0.1600 
 14 C       -5.0690    -6.7680     1.5070 C.3   1 <1>  -0.1600 
 15 C       -6.1280    -6.7540     0.3900 C.3   1 <1>   0.4240 
 16 O       -7.2980    -6.3050     1.0420 O.3   1 <1>  -0.5600 
 17 C       -6.3220    -8.1680    -0.2320 C.ar  1 <1>  -0.1430 
 18 C       -8.5240    -6.5980     0.4560 C.3   1 <1>   0.1200 
 19 C       -5.2830    -8.8450    -0.8850 C.ar  1 <1>   0.0830 
 20 C       -7.5630    -8.7980    -0.1490 C.ar  1 <1>  -0.1430 
 21 C       -8.7300    -8.1030     0.5220 C.3   1 <1>  -0.0170 
 22 O       -4.0700    -8.2420    -0.9970 O.3   1 <1>  -0.3630 
 23 C       -5.4970   -10.1160    -1.4160 C.ar  1 <1>  -0.1500 
 24 C       -7.7630   -10.0630    -0.6760 C.ar  1 <1>  -0.1500 
 25 C       -2.9110    -8.9350    -1.4070 C.3   1 <1>   0.0400 
 26 C       -6.7310   -10.7230    -1.3090 C.ar  1 <1>  -0.1500 
 27 H       -2.2580    -0.1470    -2.6380 H     1 <1>   0.1500 
 28 H       -1.3390    -4.0030    -1.0700 H     1 <1>   0.1500 
 29 H       -4.3400    -1.5040     0.6230 H     1 <1>   0.1500 
 30 H       -5.2620    -3.6170    -0.8070 H     1 <1>   0.0800 
 31 H       -6.4500    -3.9570     0.4210 H     1 <1>   0.0800 
 32 H       -5.7290    -5.0310     2.5920 H     1 <1>   0.0800 
 33 H       -4.0520    -5.4230     2.8360 H     1 <1>   0.0800 
 34 H       -4.8800    -5.9610    -1.1860 H     1 <1>   0.0800 
 35 H       -6.5550    -5.6290    -1.4020 H     1 <1>   0.0800 
 36 H       -5.3840    -7.4460     2.2790 H     1 <1>   0.0800 
 37 H       -4.1270    -7.1220     1.1400 H     1 <1>   0.0800 
 38 H       -8.5300    -6.2470    -0.5600 H     1 <1>   0.0800 
 39 H       -9.2880    -6.0870     1.0150 H     1 <1>   0.0800 
 40 H       -9.6510    -8.3550     0.0270 H     1 <1>   0.0800 
 41 H       -8.7990    -8.4130     1.5490 H     1 <1>   0.0800 
 42 H       -4.7170   -10.6500    -1.9210 H     1 <1>   0.1500 
 43 H       -8.7250   -10.5390    -0.5970 H     1 <1>   0.1500 
 44 H       -2.0720    -8.2720    -1.2980 H     1 <1>   0.0800 
 45 H       -3.0200    -9.2190    -2.4380 H     1 <1>   0.0800 
 46 H       -2.7790    -9.7980    -0.7780 H     1 <1>   0.0800 
 47 H       -6.8900   -11.7050    -1.7190 H     1 <1>   0.1500 
@<TRIPOS>BOND
  1   1   2  1   
  2   2   3  ar  
  3   2   4  ar  
  4   3   5  ar  
  5   3  27  1   
  6   4   6  ar  
  7   4  28  1   
  8   5   7  ar  
  9   6   7  ar  
 10   6   8  1   
 11   7  29  1   
 12   8   9  2   
 13   8  10  am  
 14  10  11  1   
 15  10  12  1   
 16  11  13  1   
 17  11  30  1   
 18  11  31  1   
 19  12  14  1   
 20  12  32  1   
 21  12  33  1   
 22  13  15  1   
 23  13  34  1   
 24  13  35  1   
 25  14  15  1   
 26  14  36  1   
 27  14  37  1   
 28  15  16  1   
 29  15  17  1   
 30  16  18  1   
 31  17  19  ar  
 32  17  20  ar  
 33  18  21  1   
 34  18  38  1   
 35  18  39  1   
 36  19  22  1   
 37  19  23  ar  
 38  20  21  1   
 39  20  24  ar  
 40  21  40  1   
 41  21  41  1   
 42  22  25  1   
 43  23  26  ar  
 44  23  42  1   
 45  24  26  ar  
 46  24  43  1   
 47  25  44  1   
 48  25  45  1   
 49  25  46  1   
 50  26  47  1   
@<TRIPOS>SUBSTRUCTURE
  1 ****  13 GROUP 4 **** **** 0

# MOE 2024.06 (io_trps.svl 2023.06)
