@<TRIPOS>MOLECULE
NONAME
52 54 1 0 0 
SMALL
USER_CHARGES


@<TRIPOS>ATOM
  1 O        1.6850    -0.1560     0.2310 O.3   1 <1>  -0.5600 
  2 C        2.5570    -1.1290    -0.2930 C.3   1 <1>   0.4240 
  3 C        0.3390    -0.2170    -0.1430 C.3   1 <1>   0.1200 
  4 C        1.8880    -2.5120    -0.4030 C.ar  1 <1>  -0.1440 
  5 C        3.7280    -1.1820     0.6930 C.3   1 <1>  -0.1600 
  6 C        3.0640    -0.6170    -1.6570 C.3   1 <1>  -0.1600 
  7 C       -0.2700    -1.5090     0.3920 C.3   1 <1>  -0.0160 
  8 C        0.5520    -2.6940    -0.0760 C.ar  1 <1>  -0.1440 
  9 C        2.6150    -3.6150    -0.8300 C.ar  1 <1>  -0.1500 
 10 C        4.3470     0.1990     0.9310 C.3   1 <1>   0.3430 
 11 C        4.1930     0.4140    -1.5510 C.3   1 <1>   0.3430 
 12 C       -0.0320    -3.9460    -0.1730 C.ar  1 <1>  -0.1500 
 13 C        2.0520    -4.8740    -0.9380 C.ar  1 <1>   0.0820 
 14 N        4.1380     1.1040    -0.2400 N.4   1 <1>  -0.9590 
 15 C        0.6980    -5.0530    -0.6020 C.ar  1 <1>   0.0820 
 16 O        2.9280    -5.8260    -1.3780 O.3   1 <1>  -0.3630 
 17 C        4.9140     2.3790    -0.1710 C.3   1 <1>   0.3430 
 18 O        0.1150    -6.2840    -0.6960 O.3   1 <1>  -0.3620 
 19 C        2.5830    -7.1800    -1.5590 C.3   1 <1>   0.0400 
 20 C        4.2400     3.3660     0.8030 C.3   1 <1>   0.2000 
 21 C       -1.2260    -6.5230    -0.3270 C.3   1 <1>   0.0400 
 22 O        2.8590     3.2780     0.6500 O.3   1 <1>  -0.6800 
 23 C        4.6650     4.8260     0.5770 C.3   1 <1>   0.1200 
 24 O        3.8380     5.6600     1.3240 O.3   1 <1>  -0.6800 
 25 H        0.2630    -0.1740    -1.2150 H     1 <1>   0.0800 
 26 H       -0.1620     0.6370     0.2800 H     1 <1>   0.0800 
 27 H        4.4880    -1.8430     0.3200 H     1 <1>   0.0800 
 28 H        3.3910    -1.5900     1.6290 H     1 <1>   0.0800 
 29 H        2.2490    -0.2060    -2.2220 H     1 <1>   0.0800 
 30 H        3.4420    -1.4390    -2.2360 H     1 <1>   0.0800 
 31 H       -1.2820    -1.5940     0.0390 H     1 <1>   0.0800 
 32 H       -0.2880    -1.4800     1.4670 H     1 <1>   0.0800 
 33 H        3.6520    -3.5220    -1.0930 H     1 <1>   0.1500 
 34 H        5.3990     0.0870     1.1370 H     1 <1>   0.0800 
 35 H        3.8780     0.6420     1.7950 H     1 <1>   0.0800 
 36 H        4.1000     1.1270    -2.3540 H     1 <1>   0.0800 
 37 H        5.1450    -0.0840    -1.6480 H     1 <1>   0.0800 
 38 H       -1.0660    -4.0390     0.0930 H     1 <1>   0.1500 
 39 H        3.1450     1.4160    -0.1240 H     1 <1>   0.4500 
 40 H        4.9290     2.8360    -1.1460 H     1 <1>   0.0800 
 41 H        5.9320     2.1920     0.1250 H     1 <1>   0.0800 
 42 H        3.4540    -7.7050    -1.9070 H     1 <1>   0.0800 
 43 H        1.7990    -7.2450    -2.2930 H     1 <1>   0.0800 
 44 H        2.2620    -7.5880    -0.6170 H     1 <1>   0.0800 
 45 H        4.4730     3.0900     1.8180 H     1 <1>   0.0800 
 46 H       -1.4310    -7.5670    -0.4740 H     1 <1>   0.0800 
 47 H       -1.8720    -5.9330    -0.9530 H     1 <1>   0.0800 
 48 H       -1.3530    -6.2690     0.7110 H     1 <1>   0.0800 
 49 H        2.4750     4.0890     1.0650 H     1 <1>   0.4000 
 50 H        4.5660     5.0980    -0.4610 H     1 <1>   0.0800 
 51 H        5.6830     4.9830     0.8920 H     1 <1>   0.0800 
 52 H        4.0860     6.6030     1.2150 H     1 <1>   0.4000 
@<TRIPOS>BOND
  1   1   2  1   
  2   1   3  1   
  3   2   4  1   
  4   2   5  1   
  5   2   6  1   
  6   3   7  1   
  7   3  25  1   
  8   3  26  1   
  9   4   8  ar  
 10   4   9  ar  
 11   5  10  1   
 12   5  27  1   
 13   5  28  1   
 14   6  11  1   
 15   6  29  1   
 16   6  30  1   
 17   7   8  1   
 18   7  31  1   
 19   7  32  1   
 20   8  12  ar  
 21   9  13  ar  
 22   9  33  1   
 23  10  14  1   
 24  10  34  1   
 25  10  35  1   
 26  11  14  1   
 27  11  36  1   
 28  11  37  1   
 29  12  15  ar  
 30  12  38  1   
 31  13  15  ar  
 32  13  16  1   
 33  14  17  1   
 34  14  39  1   
 35  15  18  1   
 36  16  19  1   
 37  17  20  1   
 38  17  40  1   
 39  17  41  1   
 40  18  21  1   
 41  19  42  1   
 42  19  43  1   
 43  19  44  1   
 44  20  22  1   
 45  20  23  1   
 46  20  45  1   
 47  21  46  1   
 48  21  47  1   
 49  21  48  1   
 50  22  49  1   
 51  23  24  1   
 52  23  50  1   
 53  23  51  1   
 54  24  52  1   
@<TRIPOS>SUBSTRUCTURE
  1 ****   2 GROUP 4 **** **** 0

# MOE 2024.06 (io_trps.svl 2023.06)
