@<TRIPOS>MOLECULE
NONAME
55 58 1 0 0 
SMALL
USER_CHARGES


@<TRIPOS>ATOM
  1 O       -0.3760     0.7690    -1.5930 O.2   1 <1>  -0.5700 
  2 C       -1.4040     1.1950    -1.1010 C.2   1 <1>   0.5440 
  3 N       -2.5030     0.3630    -1.0350 N.am  1 <1>  -0.6600 
  4 C       -1.4270     2.5410    -0.5940 C.ar  1 <1>   0.0860 
  5 C       -3.6060     0.5630    -0.0450 C.3   1 <1>   0.1400 
  6 C       -2.5020    -0.9230    -1.7970 C.3   1 <1>   0.1400 
  7 C       -2.4720     3.4180    -0.8200 C.ar  1 <1>   0.1600 
  8 C       -0.3850     3.0550     0.1550 C.ar  1 <1>   0.1600 
  9 C       -4.1500    -0.7860     0.4210 C.3   1 <1>  -0.1600 
 10 C       -3.9290    -1.4180    -2.0450 C.3   1 <1>  -0.1600 
 11 N       -2.5100     4.6360    -0.3380 N.ar  1 <1>  -0.6200 
 12 N       -0.3860     4.2680     0.6530 N.ar  1 <1>  -0.6200 
 13 C       -4.7720    -1.5580    -0.7580 C.3   1 <1>   0.4240 
 14 C       -1.4590     5.0040     0.3820 C.ar  1 <1>   0.7200 
 15 O       -5.9940    -0.9280    -1.0630 O.3   1 <1>  -0.5600 
 16 C       -4.9660    -3.0490    -0.4030 C.ar  1 <1>  -0.1430 
 17 N       -1.5260     6.2590     0.8690 N.pl3 1 <1>  -0.8690 
 18 C       -7.1280    -1.3090    -0.3450 C.3   1 <1>   0.1200 
 19 C       -6.2280    -3.6250    -0.3560 C.ar  1 <1>  -0.1440 
 20 C       -3.8680    -3.8520    -0.1220 C.ar  1 <1>  -0.1500 
 21 C       -0.5010     6.9840     1.6600 C.3   1 <1>   0.1290 
 22 C       -7.4440    -2.7700    -0.6500 C.3   1 <1>  -0.0170 
 23 C       -6.3810    -4.9670    -0.0480 C.ar  1 <1>  -0.1500 
 24 C       -4.0010    -5.1920     0.2000 C.ar  1 <1>   0.0830 
 25 C       -5.2790    -5.7720     0.2260 C.ar  1 <1>   0.0830 
 26 O       -2.8230    -5.8280     0.4630 O.3   1 <1>  -0.3620 
 27 O       -5.4240    -7.1030     0.4980 O.3   1 <1>  -0.3620 
 28 C       -2.7580    -6.9370     1.3320 C.3   1 <1>   0.0400 
 29 C       -6.6430    -7.7820     0.2890 C.3   1 <1>   0.0400 
 30 H       -4.3990     1.1300    -0.5040 H     1 <1>   0.0800 
 31 H       -3.2410     1.1110     0.8080 H     1 <1>   0.0800 
 32 H       -1.9440    -1.6560    -1.2400 H     1 <1>   0.0800 
 33 H       -2.0040    -0.7810    -2.7420 H     1 <1>   0.0800 
 34 H       -3.3020     3.0910    -1.4240 H     1 <1>   0.1500 
 35 H        0.4720     2.4290     0.3430 H     1 <1>   0.1500 
 36 H       -4.8740    -0.6440     1.1990 H     1 <1>   0.0800 
 37 H       -3.3390    -1.3440     0.8510 H     1 <1>   0.0800 
 38 H       -3.8840    -2.3640    -2.5540 H     1 <1>   0.0800 
 39 H       -4.3980    -0.7220    -2.7180 H     1 <1>   0.0800 
 40 H       -2.3650     6.7690     0.5940 H     1 <1>   0.4000 
 41 H       -7.9420    -0.6770    -0.6540 H     1 <1>   0.0800 
 42 H       -6.9500    -1.1650     0.7060 H     1 <1>   0.0800 
 43 H       -2.8750    -3.4460    -0.1460 H     1 <1>   0.1500 
 44 H        0.3250     6.3370     1.9020 H     1 <1>   0.0800 
 45 H       -0.9380     7.3420     2.5760 H     1 <1>   0.0800 
 46 H       -0.1310     7.8200     1.0930 H     1 <1>   0.0800 
 47 H       -7.7160    -2.8690    -1.6860 H     1 <1>   0.0800 
 48 H       -8.2770    -3.0840    -0.0480 H     1 <1>   0.0800 
 49 H       -7.3740    -5.3700    -0.0280 H     1 <1>   0.1500 
 50 H       -1.7370    -7.0590     1.6430 H     1 <1>   0.0800 
 51 H       -3.0840    -7.8130     0.8010 H     1 <1>   0.0800 
 52 H       -3.3850    -6.7510     2.1860 H     1 <1>   0.0800 
 53 H       -6.4760    -8.8280     0.4680 H     1 <1>   0.0800 
 54 H       -6.9580    -7.6300    -0.7280 H     1 <1>   0.0800 
 55 H       -7.3750    -7.4070     0.9820 H     1 <1>   0.0800 
@<TRIPOS>BOND
  1   1   2  2   
  2   2   3  am  
  3   2   4  1   
  4   3   5  1   
  5   3   6  1   
  6   4   7  ar  
  7   4   8  ar  
  8   5   9  1   
  9   5  30  1   
 10   5  31  1   
 11   6  10  1   
 12   6  32  1   
 13   6  33  1   
 14   7  11  ar  
 15   7  34  1   
 16   8  12  ar  
 17   8  35  1   
 18   9  13  1   
 19   9  36  1   
 20   9  37  1   
 21  10  13  1   
 22  10  38  1   
 23  10  39  1   
 24  11  14  ar  
 25  12  14  ar  
 26  13  15  1   
 27  13  16  1   
 28  14  17  1   
 29  15  18  1   
 30  16  19  ar  
 31  16  20  ar  
 32  17  21  1   
 33  17  40  1   
 34  18  22  1   
 35  18  41  1   
 36  18  42  1   
 37  19  22  1   
 38  19  23  ar  
 39  20  24  ar  
 40  20  43  1   
 41  21  44  1   
 42  21  45  1   
 43  21  46  1   
 44  22  47  1   
 45  22  48  1   
 46  23  25  ar  
 47  23  49  1   
 48  24  25  ar  
 49  24  26  1   
 50  25  27  1   
 51  26  28  1   
 52  27  29  1   
 53  28  50  1   
 54  28  51  1   
 55  28  52  1   
 56  29  53  1   
 57  29  54  1   
 58  29  55  1   
@<TRIPOS>SUBSTRUCTURE
  1 ****   9 GROUP 4 **** **** 0

# MOE 2024.06 (io_trps.svl 2023.06)
