@<TRIPOS>MOLECULE
NONAME
49 51 1 0 0 
SMALL
USER_CHARGES


@<TRIPOS>ATOM
  1 O       -2.6080     2.3090    -2.0050 O.2   1 <1>  -0.5700 
  2 C       -2.5930     2.4460    -0.7960 C.2   1 <1>   0.5440 
  3 N       -3.4520     1.6850    -0.0240 N.am  1 <1>  -0.6600 
  4 C       -1.6610     3.3910    -0.2020 C.ar  1 <1>   0.0860 
  5 C       -4.6490     1.0340    -0.6460 C.3   1 <1>   0.2200 
  6 C       -2.9340     1.0580     1.2310 C.3   1 <1>   0.0600 
  7 C       -1.9840     4.1360     0.9330 C.ar  1 <1>  -0.1500 
  8 C       -0.3990     3.6000    -0.7570 C.ar  1 <1>  -0.1500 
  9 C       -5.5170     2.0310    -1.4140 C.3   1 <1>  -0.1600 
 10 C       -5.6360     0.4650     0.3750 C.3   1 <1>  -0.1600 
 11 C       -1.0880     5.0310     1.4910 C.ar  1 <1>  -0.1500 
 12 C        0.4990     4.4940    -0.2030 C.ar  1 <1>  -0.1500 
 13 C       -6.8960     1.3710    -1.5240 C.3   1 <1>  -0.0800 
 14 C       -6.9800     0.3700    -0.3630 C.3   1 <1>  -0.0800 
 15 C        0.1700     5.2250     0.9330 C.ar  1 <1>   0.0730 
 16 C       -8.0590     2.3540    -1.3450 C.3   1 <1>  -0.1600 
 17 C       -8.1830     0.7920     0.4910 C.3   1 <1>  -0.1600 
 18 C        1.1010     6.1530     1.5100 C.1   1 <1>   0.4840 
 19 C       -8.3990     2.2620     0.1410 C.3   1 <1>   0.4230 
 20 N        1.8390     6.8880     1.9730 N.1   1 <1>  -0.5570 
 21 N       -9.7630     2.7580     0.5030 N.4   1 <1>  -0.9590 
 22 C      -10.8980     2.1020    -0.2280 C.3   1 <1>   0.2630 
 23 C       -9.8390     4.2430     0.3400 C.3   1 <1>   0.2630 
 24 H       -4.3250     0.2530    -1.3150 H     1 <1>   0.0800 
 25 H       -3.5210     1.3790     2.0730 H     1 <1>   0.0800 
 26 H       -1.9070     1.3310     1.4020 H     1 <1>   0.0800 
 27 H       -2.9800    -0.0150     1.1520 H     1 <1>   0.0800 
 28 H       -2.9550     4.0110     1.3790 H     1 <1>   0.1500 
 29 H       -0.1270     3.0480    -1.6420 H     1 <1>   0.1500 
 30 H       -5.5710     2.9490    -0.8560 H     1 <1>   0.0800 
 31 H       -5.1150     2.2320    -2.3920 H     1 <1>   0.0800 
 32 H       -5.3230    -0.5010     0.7290 H     1 <1>   0.0800 
 33 H       -5.7190     1.1470     1.2030 H     1 <1>   0.0800 
 34 H       -1.3700     5.5890     2.3680 H     1 <1>   0.1500 
 35 H        1.4650     4.6270    -0.6610 H     1 <1>   0.1500 
 36 H       -6.9700     0.8540    -2.4670 H     1 <1>   0.0800 
 37 H       -7.1100    -0.6300    -0.7440 H     1 <1>   0.0800 
 38 H       -8.8740     2.0120    -1.9540 H     1 <1>   0.0800 
 39 H       -7.7850     3.3510    -1.6400 H     1 <1>   0.0800 
 40 H       -8.0020     0.6500     1.5410 H     1 <1>   0.0800 
 41 H       -9.0240     0.1950     0.1910 H     1 <1>   0.0800 
 42 H       -7.6590     2.8320     0.6810 H     1 <1>   0.0800 
 43 H       -9.8830     2.5490     1.5050 H     1 <1>   0.4500 
 44 H      -10.8360     2.3080    -1.2840 H     1 <1>   0.0800 
 45 H      -11.8410     2.4770     0.1370 H     1 <1>   0.0800 
 46 H      -10.8790     1.0350    -0.0820 H     1 <1>   0.0800 
 47 H       -9.7210     4.5120    -0.6970 H     1 <1>   0.0800 
 48 H       -9.0610     4.7230     0.9110 H     1 <1>   0.0800 
 49 H      -10.7930     4.6100     0.6840 H     1 <1>   0.0800 
@<TRIPOS>BOND
  1   1   2  2   
  2   2   3  am  
  3   2   4  1   
  4   3   5  1   
  5   3   6  1   
  6   4   7  ar  
  7   4   8  ar  
  8   5   9  1   
  9   5  10  1   
 10   5  24  1   
 11   6  25  1   
 12   6  26  1   
 13   6  27  1   
 14   7  11  ar  
 15   7  28  1   
 16   8  12  ar  
 17   8  29  1   
 18   9  13  1   
 19   9  30  1   
 20   9  31  1   
 21  10  14  1   
 22  10  32  1   
 23  10  33  1   
 24  11  15  ar  
 25  11  34  1   
 26  12  15  ar  
 27  12  35  1   
 28  13  14  1   
 29  13  16  1   
 30  13  36  1   
 31  14  17  1   
 32  14  37  1   
 33  15  18  1   
 34  16  19  1   
 35  16  38  1   
 36  16  39  1   
 37  17  19  1   
 38  17  40  1   
 39  17  41  1   
 40  18  20  3   
 41  19  21  1   
 42  19  42  1   
 43  21  22  1   
 44  21  23  1   
 45  21  43  1   
 46  22  44  1   
 47  22  45  1   
 48  22  46  1   
 49  23  47  1   
 50  23  48  1   
 51  23  49  1   
@<TRIPOS>SUBSTRUCTURE
  1 ****   3 GROUP 4 **** **** 0

# MOE 2024.06 (io_trps.svl 2023.06)
