@<TRIPOS>MOLECULE
NONAME
62 65 1 0 0 
SMALL
USER_CHARGES


@<TRIPOS>ATOM
  1 O       -0.6020     0.8150    -0.7740 O.2   1 <1>  -0.5700 
  2 C       -1.6510     1.1400    -0.2500 C.2   1 <1>   0.5440 
  3 N       -1.7790     2.4180     0.2650 N.am  1 <1>  -0.6600 
  4 C       -2.7250     0.1780    -0.1780 C.ar  1 <1>   0.0860 
  5 C       -0.7980     3.4900    -0.0590 C.3   1 <1>   0.1400 
  6 C       -2.7820     2.7770     1.3100 C.3   1 <1>   0.0600 
  7 C       -4.0270     0.5200    -0.5350 C.ar  1 <1>   0.1600 
  8 C       -2.5160    -1.1310     0.2400 C.ar  1 <1>  -0.1500 
  9 C       -1.4580     4.5310    -0.9600 C.3   1 <1>  -0.2400 
 10 N       -5.0850    -0.2690    -0.4770 N.ar  1 <1>  -0.6200 
 11 C       -3.6010    -1.9710     0.2990 C.ar  1 <1>  -0.1500 
 12 C       -4.8700    -1.5110    -0.0520 C.ar  1 <1>   0.4100 
 13 N       -5.9580    -2.3500     0.0400 N.pl3 1 <1>  -0.8380 
 14 C       -6.3120    -2.9360     1.3580 C.3   1 <1>   0.2090 
 15 C       -7.1380    -2.1300    -0.8390 C.3   1 <1>   0.2090 
 16 C       -6.9890    -4.2880     1.1380 C.3   1 <1>  -0.1600 
 17 C       -7.8340    -3.4680    -1.0850 C.3   1 <1>  -0.1600 
 18 C       -8.2230    -4.1590     0.2330 C.3   1 <1>   0.4240 
 19 O       -9.1070    -3.3140     0.9330 O.3   1 <1>  -0.5600 
 20 C       -8.8510    -5.5460    -0.0260 C.ar  1 <1>  -0.1440 
 21 C      -10.4540    -3.3590     0.5830 C.3   1 <1>   0.1200 
 22 C      -10.1690    -5.8180     0.3160 C.ar  1 <1>  -0.1440 
 23 C       -8.1050    -6.5570    -0.6190 C.ar  1 <1>  -0.1500 
 24 C      -11.0110    -4.7300     0.9530 C.3   1 <1>  -0.0170 
 25 C      -10.7180    -7.0670     0.0760 C.ar  1 <1>  -0.1500 
 26 C       -8.6340    -7.8140    -0.8610 C.ar  1 <1>   0.0830 
 27 C       -9.9690    -8.0790    -0.5190 C.ar  1 <1>   0.0830 
 28 O       -7.7660    -8.6960    -1.4340 O.3   1 <1>  -0.3620 
 29 O      -10.5150    -9.3030    -0.7880 O.3   1 <1>  -0.3620 
 30 C       -7.8470   -10.0790    -1.1710 C.3   1 <1>   0.0400 
 31 C      -11.8890    -9.5690    -0.6120 C.3   1 <1>   0.0400 
 32 H        0.0590     3.0780    -0.5660 H     1 <1>   0.0800 
 33 H       -0.4490     3.9490     0.8500 H     1 <1>   0.0800 
 34 H       -3.1970     1.8930     1.7640 H     1 <1>   0.0800 
 35 H       -3.5780     3.3520     0.8700 H     1 <1>   0.0800 
 36 H       -2.3140     3.3610     2.0830 H     1 <1>   0.0800 
 37 H       -4.1950     1.5210    -0.8910 H     1 <1>   0.1500 
 38 H       -1.5250    -1.4620     0.5020 H     1 <1>   0.1500 
 39 H       -1.8080     4.0650    -1.8640 H     1 <1>   0.0800 
 40 H       -0.7400     5.2860    -1.2230 H     1 <1>   0.0800 
 41 H       -2.2810     5.0050    -0.4570 H     1 <1>   0.0800 
 42 H       -3.4900    -2.9920     0.6070 H     1 <1>   0.1500 
 43 H       -6.9800    -2.2660     1.8750 H     1 <1>   0.0800 
 44 H       -5.4310    -3.0620     1.9630 H     1 <1>   0.0800 
 45 H       -6.8210    -1.7100    -1.7780 H     1 <1>   0.0800 
 46 H       -7.8110    -1.4360    -0.3650 H     1 <1>   0.0800 
 47 H       -7.2870    -4.7070     2.0810 H     1 <1>   0.0800 
 48 H       -6.2710    -4.9520     0.6970 H     1 <1>   0.0800 
 49 H       -7.1560    -4.0960    -1.6330 H     1 <1>   0.0800 
 50 H       -8.7000    -3.3260    -1.7010 H     1 <1>   0.0800 
 51 H      -10.5540    -3.1710    -0.4720 H     1 <1>   0.0800 
 52 H      -10.9630    -2.5850     1.1290 H     1 <1>   0.0800 
 53 H       -7.0850    -6.3840    -0.9070 H     1 <1>   0.1500 
 54 H      -12.0290    -4.8000     0.6160 H     1 <1>   0.0800 
 55 H      -11.0000    -4.8430     2.0230 H     1 <1>   0.0800 
 56 H      -11.7380    -7.2330     0.3620 H     1 <1>   0.1500 
 57 H       -6.8980   -10.5220    -1.4130 H     1 <1>   0.0800 
 58 H       -8.6150   -10.5050    -1.7910 H     1 <1>   0.0800 
 59 H       -8.0700   -10.2270    -0.1300 H     1 <1>   0.0800 
 60 H      -12.0810   -10.5700    -0.9530 H     1 <1>   0.0800 
 61 H      -12.4580    -8.8690    -1.1980 H     1 <1>   0.0800 
 62 H      -12.1310    -9.4880     0.4330 H     1 <1>   0.0800 
@<TRIPOS>BOND
  1   1   2  2   
  2   2   3  am  
  3   2   4  1   
  4   3   5  1   
  5   3   6  1   
  6   4   7  ar  
  7   4   8  ar  
  8   5   9  1   
  9   5  32  1   
 10   5  33  1   
 11   6  34  1   
 12   6  35  1   
 13   6  36  1   
 14   7  10  ar  
 15   7  37  1   
 16   8  11  ar  
 17   8  38  1   
 18   9  39  1   
 19   9  40  1   
 20   9  41  1   
 21  10  12  ar  
 22  11  12  ar  
 23  11  42  1   
 24  12  13  1   
 25  13  14  1   
 26  13  15  1   
 27  14  16  1   
 28  14  43  1   
 29  14  44  1   
 30  15  17  1   
 31  15  45  1   
 32  15  46  1   
 33  16  18  1   
 34  16  47  1   
 35  16  48  1   
 36  17  18  1   
 37  17  49  1   
 38  17  50  1   
 39  18  19  1   
 40  18  20  1   
 41  19  21  1   
 42  20  22  ar  
 43  20  23  ar  
 44  21  24  1   
 45  21  51  1   
 46  21  52  1   
 47  22  24  1   
 48  22  25  ar  
 49  23  26  ar  
 50  23  53  1   
 51  24  54  1   
 52  24  55  1   
 53  25  27  ar  
 54  25  56  1   
 55  26  27  ar  
 56  26  28  1   
 57  27  29  1   
 58  28  30  1   
 59  29  31  1   
 60  30  57  1   
 61  30  58  1   
 62  30  59  1   
 63  31  60  1   
 64  31  61  1   
 65  31  62  1   
@<TRIPOS>SUBSTRUCTURE
  1 ****  13 GROUP 4 **** **** 0

# MOE 2024.06 (io_trps.svl 2023.06)
