@<TRIPOS>MOLECULE
NONAME
50 53 1 0 0 
SMALL
USER_CHARGES


@<TRIPOS>ATOM
  1 O        0.6380     0.1120    -1.5660 O.2   1 <1>  -0.5700 
  2 C        1.5760    -0.5880    -1.2330 C.2   1 <1>   0.7150 
  3 N        2.7770     0.0160    -0.9210 N.am  1 <1>  -0.6600 
  4 C        1.4280    -2.0160    -1.1640 C.2   1 <1>  -0.2370 
  5 C        3.0170     1.4680    -1.1740 C.3   1 <1>   0.1400 
  6 C        3.8740    -0.6750    -0.1900 C.3   1 <1>   0.1400 
  7 N        0.5550    -2.6950    -0.3400 N.pl3 1 <1>   0.0480 
  8 C        2.1280    -2.9460    -1.8910 C.2   1 <1>  -0.1500 
  9 C        3.2390     2.2060     0.1520 C.3   1 <1>   0.1000 
 10 C        4.1250     0.0380     1.1440 C.3   1 <1>  -0.1600 
 11 C        0.7360    -4.0230    -0.5670 C.2   1 <1>  -0.3020 
 12 C       -0.4270    -2.1900     0.6660 C.3   1 <1>   0.1760 
 13 C        1.6920    -4.2090    -1.5130 C.2   1 <1>  -0.1500 
 14 C        3.4940     3.6820    -0.1270 C.2   1 <1>   0.2980 
 15 C        4.3800     1.5430     0.9530 C.3   1 <1>  -0.1600 
 16 C       -1.7010    -1.6790    -0.0160 C.3   1 <1>  -0.2400 
 17 C        0.1800    -1.1410     1.6070 C.3   1 <1>  -0.2400 
 18 O        2.4860     4.4080    -0.5370 O.3   1 <1>  -0.0190 
 19 N        4.5960     4.3040    -0.0130 N.2   1 <1>  -0.5650 
 20 N        2.9900     5.5900    -0.6980 N.2   1 <1>  -0.4100 
 21 C        4.2360     5.5350    -0.3880 C.2   1 <1>   0.4620 
 22 C        5.1670     6.6440    -0.4290 C.ar  1 <1>   0.0540 
 23 C        4.7590     7.9070    -0.8600 C.ar  1 <1>   0.1600 
 24 C        6.4990     6.5150    -0.0490 C.ar  1 <1>  -0.1500 
 25 N        5.5210     8.9880    -0.9400 N.ar  1 <1>  -0.6200 
 26 C        7.3100     7.6260    -0.1240 C.ar  1 <1>  -0.1500 
 27 C        6.7800     8.8230    -0.5700 C.ar  1 <1>   0.1600 
 28 H        2.1860     1.9070    -1.6990 H     1 <1>   0.0800 
 29 H        3.8890     1.5730    -1.7960 H     1 <1>   0.0800 
 30 H        4.7650    -0.6530    -0.7940 H     1 <1>   0.0800 
 31 H        3.6280    -1.7050     0.0020 H     1 <1>   0.0800 
 32 H        2.8830    -2.7470    -2.6310 H     1 <1>   0.1500 
 33 H        2.3310     2.1380     0.7260 H     1 <1>   0.0800 
 34 H        4.9730    -0.4110     1.6310 H     1 <1>   0.0800 
 35 H        3.2710    -0.1070     1.7810 H     1 <1>   0.0800 
 36 H        0.1750    -4.7800    -0.0480 H     1 <1>   0.1500 
 37 H       -0.7060    -3.0330     1.2730 H     1 <1>   0.0800 
 38 H        2.0550    -5.1420    -1.9090 H     1 <1>   0.1500 
 39 H        4.4740     2.0210     1.9120 H     1 <1>   0.0800 
 40 H        5.3100     1.6760     0.4250 H     1 <1>   0.0800 
 41 H       -1.4990    -0.8070    -0.6100 H     1 <1>   0.0800 
 42 H       -2.4350    -1.4170     0.7250 H     1 <1>   0.0800 
 43 H       -2.1140    -2.4450    -0.6480 H     1 <1>   0.0800 
 44 H        0.3470    -0.2090     1.0980 H     1 <1>   0.0800 
 45 H        1.1070    -1.5010     2.0140 H     1 <1>   0.0800 
 46 H       -0.4970    -0.9520     2.4200 H     1 <1>   0.0800 
 47 H        3.7320     8.0300    -1.1590 H     1 <1>   0.1500 
 48 H        6.8860     5.5710     0.2940 H     1 <1>   0.1500 
 49 H        8.3450     7.5690     0.1610 H     1 <1>   0.1500 
 50 H        7.4200     9.6870    -0.6250 H     1 <1>   0.1500 
@<TRIPOS>BOND
  1   1   2  2   
  2   2   3  am  
  3   2   4  1   
  4   3   5  1   
  5   3   6  1   
  6   4   7  1   
  7   4   8  2   
  8   5   9  1   
  9   5  28  1   
 10   5  29  1   
 11   6  10  1   
 12   6  30  1   
 13   6  31  1   
 14   7  11  1   
 15   7  12  1   
 16   8  13  1   
 17   8  32  1   
 18   9  14  1   
 19   9  15  1   
 20   9  33  1   
 21  10  15  1   
 22  10  34  1   
 23  10  35  1   
 24  11  13  2   
 25  11  36  1   
 26  12  16  1   
 27  12  17  1   
 28  12  37  1   
 29  13  38  1   
 30  14  18  1   
 31  14  19  2   
 32  15  39  1   
 33  15  40  1   
 34  16  41  1   
 35  16  42  1   
 36  16  43  1   
 37  17  44  1   
 38  17  45  1   
 39  17  46  1   
 40  18  20  1   
 41  19  21  1   
 42  20  21  2   
 43  21  22  1   
 44  22  23  ar  
 45  22  24  ar  
 46  23  25  ar  
 47  23  47  1   
 48  24  26  ar  
 49  24  48  1   
 50  25  27  ar  
 51  26  27  ar  
 52  26  49  1   
 53  27  50  1   
@<TRIPOS>SUBSTRUCTURE
  1 ****   9 GROUP 4 **** **** 0

# MOE 2024.06 (io_trps.svl 2023.06)
