@<TRIPOS>MOLECULE
NONAME
49 51 1 0 0 
SMALL
USER_CHARGES


@<TRIPOS>ATOM
  1 O        3.4110    -0.8700    -1.1440 O.2   1 <1>  -0.5700 
  2 C        2.5060    -1.1610    -0.3900 C.2   1 <1>   0.5440 
  3 N        1.8840    -0.1730     0.3230 N.am  1 <1>  -0.4930 
  4 C        2.0700    -2.5370    -0.2580 C.ar  1 <1>   0.0860 
  5 C        2.1160     1.2100     0.4250 C.2   1 <1>   0.3520 
  6 C        2.1930    -3.4270    -1.3270 C.ar  1 <1>  -0.1500 
  7 C        1.5150    -3.0330     0.9260 C.ar  1 <1>  -0.1500 
  8 N        1.2840     1.9270     1.0730 N.2   1 <1>  -0.4100 
  9 C        3.1420     2.0480    -0.0470 C.2   1 <1>   0.3520 
 10 C        1.7700    -4.7380    -1.2270 C.ar  1 <1>  -0.1500 
 11 C        1.0880    -4.3440     1.0340 C.ar  1 <1>  -0.1500 
 12 O        1.7720     3.1270     0.9950 O.3   1 <1>   0.2420 
 13 N        2.8830     3.2400     0.3350 N.2   1 <1>  -0.4100 
 14 N        4.2720     1.6890    -0.8050 N.am  1 <1>  -0.4930 
 15 C        1.2110    -5.2080    -0.0500 C.ar  1 <1>   0.0830 
 16 C        5.3640     2.3770    -1.2200 C.2   1 <1>   0.5690 
 17 O        0.8190    -6.4990    -0.0350 O.3   1 <1>  -0.3630 
 18 O        6.2010     1.8260    -1.8870 O.2   1 <1>  -0.5700 
 19 C        5.5810     3.8310    -0.8690 C.3   1 <1>  -0.1790 
 20 C        0.2210    -7.0870     1.1110 C.3   1 <1>   0.1810 
 21 C       -0.1330    -8.5500     0.8660 C.2   1 <1>   0.5690 
 22 O        0.4170    -9.3650     1.5730 O.2   1 <1>  -0.5700 
 23 N       -1.0550    -8.9240    -0.0860 N.am  1 <1>  -0.6600 
 24 C       -1.3900   -10.3590    -0.3120 C.3   1 <1>   0.1400 
 25 C       -1.7610    -7.9880    -1.0070 C.3   1 <1>   0.1400 
 26 C       -2.9020   -10.5670    -0.1720 C.3   1 <1>  -0.1600 
 27 C       -3.2760    -8.1740    -0.8730 C.3   1 <1>  -0.1600 
 28 C       -3.6910    -9.6340    -1.1010 C.3   1 <1>  -0.1600 
 29 H        1.0440    -0.4520     0.8250 H     1 <1>   0.3700 
 30 H        2.6290    -3.0820    -2.2490 H     1 <1>   0.1500 
 31 H        1.4240    -2.3920     1.7850 H     1 <1>   0.1500 
 32 H        1.8740    -5.4100    -2.0610 H     1 <1>   0.1500 
 33 H        0.6710    -4.6770     1.9660 H     1 <1>   0.1500 
 34 H        4.2690     0.7090    -1.1230 H     1 <1>   0.3700 
 35 H        5.5820     3.9540     0.1980 H     1 <1>   0.0800 
 36 H        4.8010     4.4300    -1.3000 H     1 <1>   0.0800 
 37 H        6.5260     4.1630    -1.2570 H     1 <1>   0.0800 
 38 H       -0.6700    -6.5390     1.3540 H     1 <1>   0.0800 
 39 H        0.9220    -7.0250     1.9230 H     1 <1>   0.0800 
 40 H       -0.8750   -10.9890     0.3930 H     1 <1>   0.0800 
 41 H       -1.0720   -10.6390    -1.3010 H     1 <1>   0.0800 
 42 H       -1.4560    -8.2020    -2.0170 H     1 <1>   0.0800 
 43 H       -1.5110    -6.9640    -0.7980 H     1 <1>   0.0800 
 44 H       -3.1810   -10.3840     0.8520 H     1 <1>   0.0800 
 45 H       -3.1410   -11.5900    -0.3980 H     1 <1>   0.0800 
 46 H       -3.7760    -7.5420    -1.5860 H     1 <1>   0.0800 
 47 H       -3.5800    -7.8610     0.1110 H     1 <1>   0.0800 
 48 H       -4.7460    -9.7470    -0.9210 H     1 <1>   0.0800 
 49 H       -3.4970    -9.9040    -2.1250 H     1 <1>   0.0800 
@<TRIPOS>BOND
  1   1   2  2   
  2   2   3  am  
  3   2   4  1   
  4   3   5  1   
  5   3  29  1   
  6   4   6  ar  
  7   4   7  ar  
  8   5   8  2   
  9   5   9  1   
 10   6  10  ar  
 11   6  30  1   
 12   7  11  ar  
 13   7  31  1   
 14   8  12  1   
 15   9  13  2   
 16   9  14  1   
 17  10  15  ar  
 18  10  32  1   
 19  11  15  ar  
 20  11  33  1   
 21  12  13  1   
 22  14  16  am  
 23  14  34  1   
 24  15  17  1   
 25  16  18  2   
 26  16  19  1   
 27  17  20  1   
 28  19  35  1   
 29  19  36  1   
 30  19  37  1   
 31  20  21  1   
 32  20  38  1   
 33  20  39  1   
 34  21  22  2   
 35  21  23  am  
 36  23  24  1   
 37  23  25  1   
 38  24  26  1   
 39  24  40  1   
 40  24  41  1   
 41  25  27  1   
 42  25  42  1   
 43  25  43  1   
 44  26  28  1   
 45  26  44  1   
 46  26  45  1   
 47  27  28  1   
 48  27  46  1   
 49  27  47  1   
 50  28  48  1   
 51  28  49  1   
@<TRIPOS>SUBSTRUCTURE
  1 ****   4 GROUP 4 **** **** 0

# MOE 2024.06 (io_trps.svl 2023.06)
