@<TRIPOS>MOLECULE
NONAME
49 51 1 0 0 
SMALL
USER_CHARGES


@<TRIPOS>ATOM
  1 O       -0.7910     0.7860    -1.4790 O.2   1 <1>  -0.5700 
  2 C       -1.7900     1.1350    -0.8970 C.2   1 <1>   0.5690 
  3 N       -2.8860     0.3160    -0.7780 N.am  1 <1>  -0.6600 
  4 C       -1.7950     2.5270    -0.2880 C.3   1 <1>  -0.0990 
  5 C       -2.8820    -1.0710    -1.3600 C.3   1 <1>   0.1400 
  6 C       -4.1980     0.7320    -0.2060 C.3   1 <1>   0.1400 
  7 C       -0.4410     3.2380    -0.4380 C.3   1 <1>   0.0960 
  8 C       -3.2970    -2.1400    -0.3190 C.3   1 <1>   0.0000 
  9 C       -4.6320    -0.2680     0.8640 C.3   1 <1>  -0.1600 
 10 N       -0.4920     4.5670     0.1940 N.pl3 1 <1>   0.0480 
 11 C       -4.6550    -1.6810     0.2770 C.3   1 <1>   0.2000 
 12 C       -3.5580    -3.4870    -1.0400 C.3   1 <1>   0.1200 
 13 C       -2.2050    -2.2840     0.7900 C.3   1 <1>  -0.0170 
 14 C       -0.8410     5.7360    -0.3450 C.2   1 <1>   0.0360 
 15 C       -0.2270     4.8980     1.4590 C.2   1 <1>   0.0360 
 16 O       -5.1000    -2.5470     1.2610 O.3   1 <1>  -0.6800 
 17 O       -2.5270    -3.8150    -1.9100 O.3   1 <1>  -0.6800 
 18 C       -0.9420    -3.0320     0.3760 C.ar  1 <1>  -0.1440 
 19 N       -0.7980     6.6930     0.5150 N.2   1 <1>  -0.3380 
 20 N       -0.4040     6.1560     1.6720 N.2   1 <1>  -0.3380 
 21 C        0.1030    -2.3730    -0.2520 C.ar  1 <1>  -0.1500 
 22 C       -0.8280    -4.3930     0.6260 C.ar  1 <1>  -0.1500 
 23 C        1.2370    -3.0630    -0.6410 C.ar  1 <1>  -0.1500 
 24 C        0.3060    -5.0850     0.2390 C.ar  1 <1>  -0.1500 
 25 C        1.3390    -4.4210    -0.3980 C.ar  1 <1>  -0.1500 
 26 H       -2.5550     3.1080    -0.7760 H     1 <1>   0.0800 
 27 H       -2.0290     2.4380     0.7570 H     1 <1>   0.0800 
 28 H       -3.5710    -1.0930    -2.1870 H     1 <1>   0.0800 
 29 H       -1.9120    -1.3100    -1.7610 H     1 <1>   0.0800 
 30 H       -4.1520     1.7150     0.2260 H     1 <1>   0.0800 
 31 H       -4.9280     0.7550    -0.9980 H     1 <1>   0.0800 
 32 H       -0.1970     3.3540    -1.4800 H     1 <1>   0.0800 
 33 H        0.3360     2.6580     0.0290 H     1 <1>   0.0800 
 34 H       -5.6190    -0.0060     1.2000 H     1 <1>   0.0800 
 35 H       -3.9590    -0.2060     1.7000 H     1 <1>   0.0800 
 36 H       -5.3980    -1.7050    -0.5040 H     1 <1>   0.0800 
 37 H       -4.4570    -3.4330    -1.6300 H     1 <1>   0.0800 
 38 H       -3.6690    -4.2880    -0.3290 H     1 <1>   0.0800 
 39 H       -1.9170    -1.3120     1.1480 H     1 <1>   0.0800 
 40 H       -2.6140    -2.8080     1.6340 H     1 <1>   0.0800 
 41 H       -1.1240     5.8510    -1.3760 H     1 <1>   0.1500 
 42 H        0.0930     4.1900     2.2010 H     1 <1>   0.1500 
 43 H       -4.5680    -2.4490     2.0730 H     1 <1>   0.4000 
 44 H       -1.6740    -3.8550    -1.4160 H     1 <1>   0.4000 
 45 H        0.0430    -1.3170    -0.4450 H     1 <1>   0.1500 
 46 H       -1.6220    -4.9250     1.1200 H     1 <1>   0.1500 
 47 H        2.0390    -2.5420    -1.1340 H     1 <1>   0.1500 
 48 H        0.3850    -6.1410     0.4320 H     1 <1>   0.1500 
 49 H        2.2200    -4.9580    -0.7020 H     1 <1>   0.1500 
@<TRIPOS>BOND
  1   1   2  2   
  2   2   3  am  
  3   2   4  1   
  4   3   5  1   
  5   3   6  1   
  6   4   7  1   
  7   4  26  1   
  8   4  27  1   
  9   5   8  1   
 10   5  28  1   
 11   5  29  1   
 12   6   9  1   
 13   6  30  1   
 14   6  31  1   
 15   7  10  1   
 16   7  32  1   
 17   7  33  1   
 18   8  11  1   
 19   8  12  1   
 20   8  13  1   
 21   9  11  1   
 22   9  34  1   
 23   9  35  1   
 24  10  14  1   
 25  10  15  1   
 26  11  16  1   
 27  11  36  1   
 28  12  17  1   
 29  12  37  1   
 30  12  38  1   
 31  13  18  1   
 32  13  39  1   
 33  13  40  1   
 34  14  19  2   
 35  14  41  1   
 36  15  20  2   
 37  15  42  1   
 38  16  43  1   
 39  17  44  1   
 40  18  21  ar  
 41  18  22  ar  
 42  19  20  1   
 43  21  23  ar  
 44  21  45  1   
 45  22  24  ar  
 46  22  46  1   
 47  23  25  ar  
 48  23  47  1   
 49  24  25  ar  
 50  24  48  1   
 51  25  49  1   
@<TRIPOS>SUBSTRUCTURE
  1 ****   3 GROUP 4 **** **** 0

# MOE 2024.06 (io_trps.svl 2023.06)
