@<TRIPOS>MOLECULE
NONAME
54 57 1 0 0 
SMALL
USER_CHARGES


@<TRIPOS>ATOM
  1 O       -1.0880     0.0260     0.3310 O.2   1 <1>  -0.5700 
  2 C       -1.9350     0.8980     0.4500 C.2   1 <1>   0.7150 
  3 N       -3.2070     0.4870     0.7980 N.am  1 <1>  -0.6600 
  4 C       -1.5950     2.2900     0.2070 C.2   1 <1>   0.0550 
  5 C       -3.4430    -0.8560     1.3990 C.3   1 <1>   0.1400 
  6 C       -4.4400     1.1030     0.2290 C.3   1 <1>   0.1400 
  7 O       -2.3400     3.2600     0.7660 O.3   1 <1>  -0.2800 
  8 C       -0.5900     2.8660    -0.5130 C.2   1 <1>  -0.1810 
  9 C       -3.9490    -1.8130     0.2950 C.3   1 <1>   0.4230 
 10 C       -5.0070     0.1620    -0.8450 C.3   1 <1>  -0.1600 
 11 C       -1.8360     4.4380     0.4140 C.ar  1 <1>   0.1400 
 12 C       -0.7300     4.2600    -0.3920 C.ar  1 <1>   0.0000 
 13 C        0.5220     2.2250    -1.3270 C.3   1 <1>  -0.0590 
 14 N       -4.1210    -3.2390     0.7380 N.4   1 <1>  -0.9590 
 15 C       -5.2680    -1.2730    -0.3020 C.3   1 <1>  -0.1060 
 16 C       -2.3010     5.6960     0.7640 C.ar  1 <1>  -0.1500 
 17 C       -0.0510     5.3830    -0.8720 C.ar  1 <1>  -0.1500 
 18 C       -4.4880    -4.1310    -0.3900 C.3   1 <1>   0.3430 
 19 C       -3.0080    -3.7880     1.5580 C.3   1 <1>   0.2630 
 20 C       -6.3400    -1.2510     0.8050 C.2   1 <1>   0.9060 
 21 C       -5.7120    -2.1780    -1.4760 C.3   1 <1>  -0.1600 
 22 C       -1.6320     6.8060     0.2890 C.ar  1 <1>   0.0820 
 23 C       -0.5010     6.6430    -0.5320 C.ar  1 <1>  -0.1500 
 24 C       -5.7820    -3.6530    -1.0530 C.3   1 <1>  -0.1600 
 25 O       -6.2950    -2.1090     1.7020 O.co2 1 <1>  -0.9000 
 26 O       -7.2130    -0.3850     0.7860 O.co2 1 <1>  -0.9000 
 27 O       -2.1180     8.0180     0.6540 O.3   1 <1>  -0.3630 
 28 C       -1.5070     9.2190     0.2370 C.3   1 <1>   0.0400 
 29 H       -2.5250    -1.2180     1.8230 H     1 <1>   0.0800 
 30 H       -4.1660    -0.7650     2.1920 H     1 <1>   0.0800 
 31 H       -5.1620     1.2560     1.0150 H     1 <1>   0.0800 
 32 H       -4.2290     2.0600    -0.2160 H     1 <1>   0.0800 
 33 H       -3.2040    -1.8000    -0.4810 H     1 <1>   0.0800 
 34 H       -5.9300     0.5810    -1.2110 H     1 <1>   0.0800 
 35 H       -4.3190     0.1340    -1.6720 H     1 <1>   0.0800 
 36 H        0.5020     2.6020    -2.3340 H     1 <1>   0.0800 
 37 H        0.4140     1.1570    -1.3620 H     1 <1>   0.0800 
 38 H        1.4750     2.4580    -0.8880 H     1 <1>   0.0800 
 39 H       -4.9870    -3.1530     1.3380 H     1 <1>   0.4500 
 40 H       -3.1650     5.7960     1.3930 H     1 <1>   0.1500 
 41 H        0.8130     5.2510    -1.4980 H     1 <1>   0.1500 
 42 H       -3.6920    -4.1380    -1.1170 H     1 <1>   0.0800 
 43 H       -4.6300    -5.1370    -0.0280 H     1 <1>   0.0800 
 44 H       -2.0880    -3.7700     0.9990 H     1 <1>   0.0800 
 45 H       -3.2270    -4.8030     1.8450 H     1 <1>   0.0800 
 46 H       -2.8850    -3.2040     2.4550 H     1 <1>   0.0800 
 47 H       -6.6820    -1.8590    -1.8240 H     1 <1>   0.0800 
 48 H       -5.0200    -2.0800    -2.2950 H     1 <1>   0.0800 
 49 H        0.0290     7.4970    -0.9070 H     1 <1>   0.1500 
 50 H       -5.9830    -4.2630    -1.9170 H     1 <1>   0.0800 
 51 H       -6.6000    -3.7970    -0.3670 H     1 <1>   0.0800 
 52 H       -2.0650    10.0390     0.6520 H     1 <1>   0.0800 
 53 H       -1.5300     9.2680    -0.8380 H     1 <1>   0.0800 
 54 H       -0.4960     9.2420     0.6040 H     1 <1>   0.0800 
@<TRIPOS>BOND
  1   1   2  2   
  2   2   3  am  
  3   2   4  1   
  4   3   5  1   
  5   3   6  1   
  6   4   7  1   
  7   4   8  2   
  8   5   9  1   
  9   5  29  1   
 10   5  30  1   
 11   6  10  1   
 12   6  31  1   
 13   6  32  1   
 14   7  11  1   
 15   8  12  1   
 16   8  13  1   
 17   9  14  1   
 18   9  15  1   
 19   9  33  1   
 20  10  15  1   
 21  10  34  1   
 22  10  35  1   
 23  11  12  ar  
 24  11  16  ar  
 25  12  17  ar  
 26  13  36  1   
 27  13  37  1   
 28  13  38  1   
 29  14  18  1   
 30  14  19  1   
 31  14  39  1   
 32  15  20  1   
 33  15  21  1   
 34  16  22  ar  
 35  16  40  1   
 36  17  23  ar  
 37  17  41  1   
 38  18  24  1   
 39  18  42  1   
 40  18  43  1   
 41  19  44  1   
 42  19  45  1   
 43  19  46  1   
 44  20  25  ar  
 45  20  26  ar  
 46  21  24  1   
 47  21  47  1   
 48  21  48  1   
 49  22  23  ar  
 50  22  27  1   
 51  23  49  1   
 52  24  50  1   
 53  24  51  1   
 54  27  28  1   
 55  28  52  1   
 56  28  53  1   
 57  28  54  1   
@<TRIPOS>SUBSTRUCTURE
  1 ****   3 GROUP 4 **** **** 0

# MOE 2024.06 (io_trps.svl 2023.06)
