@<TRIPOS>MOLECULE
NONAME
39 41 1 0 0 
SMALL
USER_CHARGES


@<TRIPOS>ATOM
  1 O       -2.5580     1.1630    -1.7110 O.2   1 <1>  -0.5700 
  2 C       -2.0700     0.9240    -0.6340 C.2   1 <1>   0.6300 
  3 N       -2.0470    -0.3280    -0.1200 N.am  1 <1>  -0.7300 
  4 C       -1.4740     2.0550     0.2050 C.3   1 <1>  -0.0950 
  5 C       -2.5670    -1.5340    -0.7990 C.3   1 <1>   0.2200 
  6 C       -0.1040     1.8880     0.7950 C.3   1 <1>  -0.2000 
  7 C       -0.3180     2.8280    -0.3550 C.3   1 <1>  -0.2000 
  8 C       -2.5360     2.8130     1.0090 C.3   1 <1>  -0.1450 
  9 C       -3.8700    -1.9520    -0.1410 C.3   1 <1>  -0.0800 
 10 C       -1.6650    -2.7240    -0.4920 C.3   1 <1>   0.1200 
 11 C       -3.3770    -2.7750     1.0540 C.3   1 <1>   0.1200 
 12 C       -4.7460    -2.7800    -1.1010 C.3   1 <1>  -0.0170 
 13 O       -2.0920    -3.2310     0.7380 O.3   1 <1>  -0.5600 
 14 C       -6.0650    -3.1710    -0.4530 C.ar  1 <1>  -0.1430 
 15 C       -6.3120    -4.4520    -0.0020 C.ar  1 <1>  -0.1500 
 16 C       -7.0870    -2.2590    -0.2840 C.ar  1 <1>  -0.1500 
 17 C       -7.5310    -4.7490     0.5850 C.ar  1 <1>   0.1600 
 18 C       -8.2700    -2.6580     0.3150 C.ar  1 <1>   0.1600 
 19 N       -8.5160    -3.8820     0.7550 N.ar  1 <1>  -0.6200 
 20 H       -1.6360    -0.4880     0.8010 H     1 <1>   0.3700 
 21 H       -2.6610    -1.3550    -1.8570 H     1 <1>   0.0800 
 22 H        0.1070     2.3050     1.7650 H     1 <1>   0.1000 
 23 H        0.4520     0.9850     0.6070 H     1 <1>   0.1000 
 24 H        0.0460     2.5560    -1.3320 H     1 <1>   0.1000 
 25 H       -0.2660     3.8880    -0.1800 H     1 <1>   0.1000 
 26 H       -2.0920     3.6110     1.5770 H     1 <1>   0.0800 
 27 H       -3.0360     2.1440     1.6850 H     1 <1>   0.0800 
 28 H       -3.2650     3.2350     0.3390 H     1 <1>   0.0800 
 29 H       -4.4320    -1.0950     0.1860 H     1 <1>   0.0800 
 30 H       -0.6260    -2.4540    -0.4320 H     1 <1>   0.0800 
 31 H       -1.7970    -3.4990    -1.2260 H     1 <1>   0.0800 
 32 H       -4.0040    -3.6210     1.2750 H     1 <1>   0.0800 
 33 H       -3.2940    -2.1570     1.9300 H     1 <1>   0.0800 
 34 H       -4.2220    -3.6660    -1.4150 H     1 <1>   0.0800 
 35 H       -4.9560    -2.1980    -1.9820 H     1 <1>   0.0800 
 36 H       -5.5690    -5.2230    -0.0980 H     1 <1>   0.1500 
 37 H       -6.9750    -1.2420    -0.6130 H     1 <1>   0.1500 
 38 H       -7.7060    -5.7530     0.9310 H     1 <1>   0.1500 
 39 H       -9.0560    -1.9330     0.4380 H     1 <1>   0.1500 
@<TRIPOS>BOND
  1   1   2  2   
  2   2   3  am  
  3   2   4  1   
  4   3   5  1   
  5   3  20  1   
  6   4   6  1   
  7   4   7  1   
  8   4   8  1   
  9   5   9  1   
 10   5  10  1   
 11   5  21  1   
 12   6   7  1   
 13   6  22  1   
 14   6  23  1   
 15   7  24  1   
 16   7  25  1   
 17   8  26  1   
 18   8  27  1   
 19   8  28  1   
 20   9  11  1   
 21   9  12  1   
 22   9  29  1   
 23  10  13  1   
 24  10  30  1   
 25  10  31  1   
 26  11  13  1   
 27  11  32  1   
 28  11  33  1   
 29  12  14  1   
 30  12  34  1   
 31  12  35  1   
 32  14  15  ar  
 33  14  16  ar  
 34  15  17  ar  
 35  15  36  1   
 36  16  18  ar  
 37  16  37  1   
 38  17  19  ar  
 39  17  38  1   
 40  18  19  ar  
 41  18  39  1   
@<TRIPOS>SUBSTRUCTURE
  1 ****   9 GROUP 4 **** **** 0

# MOE 2024.06 (io_trps.svl 2023.06)
