@<TRIPOS>MOLECULE
NONAME
55 58 1 0 0 
SMALL
USER_CHARGES


@<TRIPOS>ATOM
  1 O       -1.5220    -2.5360     0.8250 O.2   1 <1>  -0.5700 
  2 C       -0.5130    -3.0010     0.3630 C.2   1 <1>   0.5690 
  3 N       -0.4790    -3.5220    -0.8810 N.am  1 <1>  -0.7300 
  4 C        0.7670    -3.0300     1.1690 C.3   1 <1>  -0.0990 
  5 C        0.7320    -4.1300    -1.4700 C.3   1 <1>   0.1400 
  6 C        1.9650    -2.6250     0.2890 C.3   1 <1>  -0.0800 
  7 C        1.9730    -3.2850    -1.1130 C.3   1 <1>  -0.0800 
  8 C        3.3200    -2.9460     0.9370 C.3   1 <1>  -0.1600 
  9 C        3.2800    -4.0840    -1.1910 C.3   1 <1>  -0.1600 
 10 C        4.2170    -3.3620    -0.2240 C.3   1 <1>   0.2200 
 11 N        5.3890    -4.1800     0.2110 N.am  1 <1>  -0.6600 
 12 C        6.6870    -3.7280     0.0640 C.2   1 <1>   0.5440 
 13 C        5.1500    -5.5860     0.6650 C.3   1 <1>   0.0600 
 14 O        7.6010    -4.5290     0.1120 O.2   1 <1>  -0.5700 
 15 C        6.9970    -2.3290    -0.1510 C.ar  1 <1>   0.0860 
 16 C        6.6590    -1.3550     0.7860 C.ar  1 <1>  -0.1500 
 17 C        7.6480    -1.9070    -1.3080 C.ar  1 <1>  -0.1500 
 18 C        6.9520    -0.0210     0.5730 C.ar  1 <1>  -0.1500 
 19 C        7.9400    -0.5730    -1.5220 C.ar  1 <1>  -0.1500 
 20 C        7.6070     0.4020    -0.5830 C.ar  1 <1>   0.0860 
 21 C        7.9340     1.7970    -0.8070 C.2   1 <1>   0.5440 
 22 O        7.5710     2.3320    -1.8370 O.2   1 <1>  -0.5700 
 23 N        8.6540     2.5290     0.1130 N.am  1 <1>  -0.6600 
 24 C        8.8520     4.0050    -0.0230 C.3   1 <1>   0.1400 
 25 C        9.5020     1.9230     1.1840 C.3   1 <1>   0.1400 
 26 C       10.3490     4.3470    -0.0910 C.3   1 <1>   0.1200 
 27 C       10.9620     2.3890     1.0460 C.3   1 <1>   0.1200 
 28 O       11.0330     3.7850     0.9940 O.3   1 <1>  -0.5600 
 29 H       -1.3520    -3.5360    -1.4120 H     1 <1>   0.3700 
 30 H        0.6780    -2.3630     2.0080 H     1 <1>   0.0800 
 31 H        0.8930    -4.0290     1.5430 H     1 <1>   0.0800 
 32 H        0.8320    -5.1270    -1.0760 H     1 <1>   0.0800 
 33 H        0.6260    -4.1960    -2.5390 H     1 <1>   0.0800 
 34 H        1.9060    -1.5590     0.1360 H     1 <1>   0.0800 
 35 H        2.0360    -2.4890    -1.8370 H     1 <1>   0.0800 
 36 H        3.2140    -3.7580     1.6320 H     1 <1>   0.0800 
 37 H        3.7170    -2.0900     1.4520 H     1 <1>   0.0800 
 38 H        3.6810    -4.0960    -2.1890 H     1 <1>   0.0800 
 39 H        3.0980    -5.0900    -0.8630 H     1 <1>   0.0800 
 40 H        4.5530    -2.4680    -0.7210 H     1 <1>   0.0800 
 41 H        4.2180    -5.6680     1.1930 H     1 <1>   0.0800 
 42 H        5.9410    -5.9020     1.3230 H     1 <1>   0.0800 
 43 H        5.1350    -6.2410    -0.1890 H     1 <1>   0.0800 
 44 H        6.1630    -1.6590     1.6920 H     1 <1>   0.1500 
 45 H        7.9260    -2.6440    -2.0420 H     1 <1>   0.1500 
 46 H        6.6730     0.7140     1.3090 H     1 <1>   0.1500 
 47 H        8.4360    -0.2690    -2.4280 H     1 <1>   0.1500 
 48 H        8.3620     4.3780    -0.9060 H     1 <1>   0.0800 
 49 H        8.4160     4.4990     0.8270 H     1 <1>   0.0800 
 50 H        9.1260     2.2220     2.1460 H     1 <1>   0.0800 
 51 H        9.4780     0.8490     1.1330 H     1 <1>   0.0800 
 52 H       10.4880     5.4120    -0.0520 H     1 <1>   0.0800 
 53 H       10.7790     3.9740    -1.0050 H     1 <1>   0.0800 
 54 H       11.4050     1.9870     0.1510 H     1 <1>   0.0800 
 55 H       11.5380     2.0620     1.8930 H     1 <1>   0.0800 
@<TRIPOS>BOND
  1   1   2  2   
  2   2   3  am  
  3   2   4  1   
  4   3   5  1   
  5   3  29  1   
  6   4   6  1   
  7   4  30  1   
  8   4  31  1   
  9   5   7  1   
 10   5  32  1   
 11   5  33  1   
 12   6   7  1   
 13   6   8  1   
 14   6  34  1   
 15   7   9  1   
 16   7  35  1   
 17   8  10  1   
 18   8  36  1   
 19   8  37  1   
 20   9  10  1   
 21   9  38  1   
 22   9  39  1   
 23  10  11  1   
 24  10  40  1   
 25  11  12  am  
 26  11  13  1   
 27  12  14  2   
 28  12  15  1   
 29  13  41  1   
 30  13  42  1   
 31  13  43  1   
 32  15  16  ar  
 33  15  17  ar  
 34  16  18  ar  
 35  16  44  1   
 36  17  19  ar  
 37  17  45  1   
 38  18  20  ar  
 39  18  46  1   
 40  19  20  ar  
 41  19  47  1   
 42  20  21  1   
 43  21  22  2   
 44  21  23  am  
 45  23  24  1   
 46  23  25  1   
 47  24  26  1   
 48  24  48  1   
 49  24  49  1   
 50  25  27  1   
 51  25  50  1   
 52  25  51  1   
 53  26  28  1   
 54  26  52  1   
 55  26  53  1   
 56  27  28  1   
 57  27  54  1   
 58  27  55  1   
@<TRIPOS>SUBSTRUCTURE
  1 ****  16 GROUP 4 **** **** 0

# MOE 2024.06 (io_trps.svl 2023.06)
