@<TRIPOS>MOLECULE
NONAME
52 54 1 0 0 
SMALL
USER_CHARGES


@<TRIPOS>ATOM
  1 O       -0.8000     0.2800     0.0110 O.2   1 <1>  -0.5700 
  2 C       -1.6140     0.9730     0.5960 C.2   1 <1>   0.6160 
  3 N       -2.7810     0.3840     1.0290 N.am  1 <1>  -0.6600 
  4 C       -1.3430     2.3950     0.7820 C.2   1 <1>   0.1140 
  5 C       -2.8790    -1.0990     1.2120 C.3   1 <1>   0.1400 
  6 C       -4.1180     1.0240     0.8340 C.3   1 <1>   0.1400 
  7 N       -0.4650     3.0230    -0.0940 N.pl3 1 <1>  -0.6000 
  8 C       -1.8870     3.1620     1.7750 C.2   1 <1>  -0.1360 
  9 C       -3.7470    -1.7350     0.1140 C.3   1 <1>   0.3440 
 10 C       -4.9310     0.2810    -0.2540 C.3   1 <1>   0.2000 
 11 C       -0.1520     4.3560    -0.0160 C.2   1 <1>  -0.0380 
 12 C       -1.6080     4.5420     1.8960 C.2   1 <1>   0.5410 
 13 O       -4.9920    -1.0880     0.0590 O.3   1 <1>  -0.5600 
 14 C       -3.9560    -3.2210     0.3880 C.ar  1 <1>  -0.1430 
 15 C       -6.3780     0.8220    -0.4680 C.3   1 <1>   0.0000 
 16 C       -0.7120     5.1150     0.9590 C.2   1 <1>  -0.1360 
 17 C        0.8200     4.8920    -1.0460 C.3   1 <1>  -0.1020 
 18 O       -2.1310     5.2180     2.7760 O.2   1 <1>  -0.5700 
 19 C       -5.0050    -3.6730     1.1770 C.ar  1 <1>  -0.1500 
 20 C       -3.0710    -4.1470    -0.1480 C.ar  1 <1>  -0.1500 
 21 C       -6.3550     2.3120    -0.8550 C.3   1 <1>  -0.2400 
 22 C       -7.0470     0.0520    -1.6220 C.3   1 <1>  -0.2400 
 23 C       -7.2520     0.6590     0.7900 C.3   1 <1>  -0.2400 
 24 C       -5.1680    -5.0250     1.4260 C.ar  1 <1>  -0.1500 
 25 C       -3.2320    -5.4990     0.1000 C.ar  1 <1>  -0.1500 
 26 C       -4.2800    -5.9390     0.8880 C.ar  1 <1>  -0.1500 
 27 H       -1.9010    -1.5470     1.1950 H     1 <1>   0.0800 
 28 H       -3.3170    -1.3110     2.1710 H     1 <1>   0.0800 
 29 H       -4.6530     1.0070     1.7660 H     1 <1>   0.0800 
 30 H       -3.9940     2.0490     0.5360 H     1 <1>   0.0800 
 31 H       -0.0110     2.4130    -0.7910 H     1 <1>   0.4000 
 32 H       -2.5480     2.7470     2.5100 H     1 <1>   0.1500 
 33 H       -3.2670    -1.6140    -0.8420 H     1 <1>   0.0800 
 34 H       -4.4040     0.3730    -1.1880 H     1 <1>   0.0800 
 35 H       -0.5070     6.1620     1.0700 H     1 <1>   0.1500 
 36 H        1.7590     4.3740    -0.9690 H     1 <1>   0.0800 
 37 H        0.9950     5.9420    -0.8920 H     1 <1>   0.0800 
 38 H        0.4230     4.7520    -2.0350 H     1 <1>   0.0800 
 39 H       -5.7040    -2.9700     1.5970 H     1 <1>   0.1500 
 40 H       -2.2500    -3.8200    -0.7630 H     1 <1>   0.1500 
 41 H       -7.3470     2.6500    -1.1010 H     1 <1>   0.0800 
 42 H       -5.7250     2.4710    -1.7130 H     1 <1>   0.0800 
 43 H       -5.9960     2.9230    -0.0470 H     1 <1>   0.0800 
 44 H       -8.0360     0.4280    -1.8120 H     1 <1>   0.0800 
 45 H       -7.1280    -0.9940    -1.3820 H     1 <1>   0.0800 
 46 H       -6.4690     0.1440    -2.5250 H     1 <1>   0.0800 
 47 H       -8.2600     0.9790     0.5910 H     1 <1>   0.0800 
 48 H       -6.8750     1.2430     1.6090 H     1 <1>   0.0800 
 49 H       -7.2840    -0.3730     1.0930 H     1 <1>   0.0800 
 50 H       -5.9860    -5.3640     2.0370 H     1 <1>   0.1500 
 51 H       -2.5410    -6.2090    -0.3210 H     1 <1>   0.1500 
 52 H       -4.4060    -6.9900     1.0810 H     1 <1>   0.1500 
@<TRIPOS>BOND
  1   1   2  2   
  2   2   3  am  
  3   2   4  1   
  4   3   5  1   
  5   3   6  1   
  6   4   7  1   
  7   4   8  2   
  8   5   9  1   
  9   5  27  1   
 10   5  28  1   
 11   6  10  1   
 12   6  29  1   
 13   6  30  1   
 14   7  11  1   
 15   7  31  1   
 16   8  12  1   
 17   8  32  1   
 18   9  13  1   
 19   9  14  1   
 20   9  33  1   
 21  10  13  1   
 22  10  15  1   
 23  10  34  1   
 24  11  16  2   
 25  11  17  1   
 26  12  16  1   
 27  12  18  2   
 28  14  19  ar  
 29  14  20  ar  
 30  15  21  1   
 31  15  22  1   
 32  15  23  1   
 33  16  35  1   
 34  17  36  1   
 35  17  37  1   
 36  17  38  1   
 37  19  24  ar  
 38  19  39  1   
 39  20  25  ar  
 40  20  40  1   
 41  21  41  1   
 42  21  42  1   
 43  21  43  1   
 44  22  44  1   
 45  22  45  1   
 46  22  46  1   
 47  23  47  1   
 48  23  48  1   
 49  23  49  1   
 50  24  26  ar  
 51  24  50  1   
 52  25  26  ar  
 53  25  51  1   
 54  26  52  1   
@<TRIPOS>SUBSTRUCTURE
  1 ****   3 GROUP 4 **** **** 0

# MOE 2024.06 (io_trps.svl 2023.06)
