@<TRIPOS>MOLECULE
NONAME
51 53 1 0 0 
SMALL
USER_CHARGES


@<TRIPOS>ATOM
  1 O       -0.2540    -0.2910     0.0120 O.2   1 <1>  -0.5700 
  2 C       -1.2180     0.4300    -0.1690 C.2   1 <1>   0.6900 
  3 N       -2.4760    -0.1060    -0.1960 N.am  1 <1>  -0.6600 
  4 N       -1.0860     1.7730    -0.3720 N.am  1 <1>  -0.5470 
  5 C       -3.7430     0.6460    -0.0650 C.3   1 <1>   0.1400 
  6 C       -2.7120    -1.5600    -0.0890 C.3   1 <1>   0.1400 
  7 C        0.0210     2.6310    -0.3050 C.ar  1 <1>   0.1170 
  8 C       -4.7570    -0.3670     0.4880 C.3   1 <1>  -0.0800 
  9 C       -4.2300    -1.7320     0.0080 C.3   1 <1>  -0.0800 
 10 C        1.1700     2.3290     0.4180 C.ar  1 <1>  -0.1500 
 11 C       -0.0370     3.8490    -0.9730 C.ar  1 <1>  -0.1500 
 12 C       -6.2580    -0.0870     0.1660 C.3   1 <1>   0.2800 
 13 C       -4.8660    -2.1220    -1.3360 C.3   1 <1>  -0.1600 
 14 C        2.2360     3.2120     0.4690 C.ar  1 <1>  -0.1430 
 15 C        1.0180     4.7430    -0.9280 C.ar  1 <1>  -0.1430 
 16 O       -6.3700     0.6510    -0.9980 O.3   1 <1>  -0.6800 
 17 C       -7.0040    -1.4110    -0.0840 C.3   1 <1>  -0.1600 
 18 C       -6.9670     0.7160     1.2780 C.3   1 <1>  -0.1600 
 19 C       -6.3960    -2.2580    -1.2230 C.3   1 <1>  -0.1600 
 20 C        2.1540     4.4190    -0.2060 C.ar  1 <1>  -0.1500 
 21 C        3.4850     2.8650     1.2580 C.3   1 <1>  -0.0970 
 22 C        0.9470     6.0690    -1.6640 C.3   1 <1>  -0.0970 
 23 C       -6.3790     2.1070     1.5750 C.3   1 <1>  -0.2400 
 24 H       -1.9380     2.1880    -0.7290 H     1 <1>   0.3700 
 25 H       -3.6300     1.4850     0.5990 H     1 <1>   0.0800 
 26 H       -4.0220     0.9940    -1.0440 H     1 <1>   0.0800 
 27 H       -2.2990    -2.0700    -0.9430 H     1 <1>   0.0800 
 28 H       -2.2350    -1.9250     0.8050 H     1 <1>   0.0800 
 29 H       -4.6430    -0.3690     1.5570 H     1 <1>   0.0800 
 30 H       -4.4540    -2.5010     0.7270 H     1 <1>   0.0800 
 31 H        1.2290     1.3970     0.9470 H     1 <1>   0.1500 
 32 H       -0.9180     4.0930    -1.5360 H     1 <1>   0.1500 
 33 H       -4.6370    -1.3580    -2.0610 H     1 <1>   0.0800 
 34 H       -4.4470    -3.0450    -1.6960 H     1 <1>   0.0800 
 35 H       -7.3110     0.7270    -1.2390 H     1 <1>   0.4000 
 36 H       -6.9620    -1.9890     0.8230 H     1 <1>   0.0800 
 37 H       -8.0440    -1.2270    -0.2860 H     1 <1>   0.0800 
 38 H       -8.0040     0.8340     1.0150 H     1 <1>   0.0800 
 39 H       -6.9440     0.1400     2.1870 H     1 <1>   0.0800 
 40 H       -6.6530    -3.2900    -1.0580 H     1 <1>   0.0800 
 41 H       -6.8320    -1.9640    -2.1620 H     1 <1>   0.0800 
 42 H        2.9790     5.1080    -0.1680 H     1 <1>   0.1500 
 43 H        4.3630     3.1560     0.7110 H     1 <1>   0.0800 
 44 H        3.5350     1.8060     1.4410 H     1 <1>   0.0800 
 45 H        3.4730     3.3790     2.2020 H     1 <1>   0.0800 
 46 H        1.2580     6.8680    -1.0140 H     1 <1>   0.0800 
 47 H       -0.0550     6.2710    -1.9960 H     1 <1>   0.0800 
 48 H        1.5960     6.0440    -2.5200 H     1 <1>   0.0800 
 49 H       -6.3390     2.7040     0.6810 H     1 <1>   0.0800 
 50 H       -5.3880     2.0250     1.9840 H     1 <1>   0.0800 
 51 H       -6.9950     2.6170     2.2950 H     1 <1>   0.0800 
@<TRIPOS>BOND
  1   1   2  2   
  2   2   3  am  
  3   2   4  am  
  4   3   5  1   
  5   3   6  1   
  6   4   7  1   
  7   4  24  1   
  8   5   8  1   
  9   5  25  1   
 10   5  26  1   
 11   6   9  1   
 12   6  27  1   
 13   6  28  1   
 14   7  10  ar  
 15   7  11  ar  
 16   8   9  1   
 17   8  12  1   
 18   8  29  1   
 19   9  13  1   
 20   9  30  1   
 21  10  14  ar  
 22  10  31  1   
 23  11  15  ar  
 24  11  32  1   
 25  12  16  1   
 26  12  17  1   
 27  12  18  1   
 28  13  19  1   
 29  13  33  1   
 30  13  34  1   
 31  14  20  ar  
 32  14  21  1   
 33  15  20  ar  
 34  15  22  1   
 35  16  35  1   
 36  17  19  1   
 37  17  36  1   
 38  17  37  1   
 39  18  23  1   
 40  18  38  1   
 41  18  39  1   
 42  19  40  1   
 43  19  41  1   
 44  20  42  1   
 45  21  43  1   
 46  21  44  1   
 47  21  45  1   
 48  22  46  1   
 49  22  47  1   
 50  22  48  1   
 51  23  49  1   
 52  23  50  1   
 53  23  51  1   
@<TRIPOS>SUBSTRUCTURE
  1 ****   3 GROUP 4 **** **** 0

# MOE 2024.06 (io_trps.svl 2023.06)
