@<TRIPOS>MOLECULE
NONAME
44 45 1 0 0 
SMALL
USER_CHARGES


@<TRIPOS>ATOM
  1 O        3.3480    -0.8050    -0.6710 O.2   1 <1>  -0.5700 
  2 C        2.4500    -1.1820     0.0500 C.2   1 <1>   0.5690 
  3 N        1.6960    -0.3200     0.8010 N.am  1 <1>  -0.4930 
  4 C        2.1370    -2.7050     0.0850 C.3   1 <1>   0.6280 
  5 C        1.7670     1.0940     0.8740 C.2   1 <1>   0.0630 
  6 N        2.7090    -3.5130    -1.0740 N.4   1 <1>  -0.9590 
  7 C        0.6270    -2.9180     0.1510 C.ar  1 <1>  -0.1430 
  8 C        2.8640     1.9620     0.9250 C.2   1 <1>   0.1080 
  9 C        0.6930     1.9060     0.9310 C.2   1 <1>  -0.3020 
 10 C        2.0980    -4.8750    -1.2220 C.3   1 <1>   0.2630 
 11 C        4.2030    -3.6120    -1.0010 C.3   1 <1>   0.2630 
 12 C        0.0810    -3.6230     1.2150 C.ar  1 <1>  -0.1500 
 13 C       -0.2110    -2.4140    -0.8360 C.ar  1 <1>  -0.1500 
 14 N        2.4970     3.2040     0.9990 N.2   1 <1>  -0.7070 
 15 C        4.3290     1.5850     0.9170 C.3   1 <1>  -0.0590 
 16 N        1.1560     3.1720     0.9990 N.pl3 1 <1>   0.3140 
 17 C       -1.2860    -3.8290     1.2950 C.ar  1 <1>  -0.1430 
 18 C       -1.5760    -2.6180    -0.7570 C.ar  1 <1>  -0.1500 
 19 C        0.3540     4.3980     1.0700 C.3   1 <1>   0.0160 
 20 C       -2.1110    -3.3230     0.3050 C.ar  1 <1>  -0.1500 
 21 C       -1.8830    -4.5980     2.4610 C.3   1 <1>  -0.0970 
 22 H        0.8500    -0.6940     1.2400 H     1 <1>   0.3700 
 23 H        2.5600    -3.0860     0.9980 H     1 <1>   0.0800 
 24 H        2.4870    -2.9570    -1.9140 H     1 <1>   0.4500 
 25 H       -0.3540     1.6700     0.9240 H     1 <1>   0.1500 
 26 H        2.2700    -5.4630    -0.3350 H     1 <1>   0.0800 
 27 H        2.5280    -5.3890    -2.0660 H     1 <1>   0.0800 
 28 H        1.0330    -4.7980    -1.3800 H     1 <1>   0.0800 
 29 H        4.5040    -4.1400    -0.1110 H     1 <1>   0.0800 
 30 H        4.6510    -2.6310    -0.9870 H     1 <1>   0.0800 
 31 H        4.5830    -4.1410    -1.8600 H     1 <1>   0.0800 
 32 H        0.7080    -4.0200     1.9960 H     1 <1>   0.1500 
 33 H        0.1760    -1.8550    -1.6730 H     1 <1>   0.1500 
 34 H        4.4770     0.6510     1.4220 H     1 <1>   0.0800 
 35 H        4.9010     2.3450     1.4180 H     1 <1>   0.0800 
 36 H        4.6730     1.5050    -0.0970 H     1 <1>   0.0800 
 37 H       -2.2300    -2.2280    -1.5200 H     1 <1>   0.1500 
 38 H       -0.3740     4.3910     0.2810 H     1 <1>   0.0800 
 39 H        1.0020     5.2470     0.9550 H     1 <1>   0.0800 
 40 H       -0.1340     4.4440     2.0240 H     1 <1>   0.0800 
 41 H       -3.1760    -3.4750     0.3580 H     1 <1>   0.1500 
 42 H       -1.1930    -5.3370     2.8260 H     1 <1>   0.0800 
 43 H       -2.7840    -5.1020     2.1570 H     1 <1>   0.0800 
 44 H       -2.1220    -3.9210     3.2610 H     1 <1>   0.0800 
@<TRIPOS>BOND
  1   1   2  2   
  2   2   3  am  
  3   2   4  1   
  4   3   5  1   
  5   3  22  1   
  6   4   6  1   
  7   4   7  1   
  8   4  23  1   
  9   5   8  1   
 10   5   9  2   
 11   6  10  1   
 12   6  11  1   
 13   6  24  1   
 14   7  12  ar  
 15   7  13  ar  
 16   8  14  2   
 17   8  15  1   
 18   9  16  1   
 19   9  25  1   
 20  10  26  1   
 21  10  27  1   
 22  10  28  1   
 23  11  29  1   
 24  11  30  1   
 25  11  31  1   
 26  12  17  ar  
 27  12  32  1   
 28  13  18  ar  
 29  13  33  1   
 30  14  16  1   
 31  15  34  1   
 32  15  35  1   
 33  15  36  1   
 34  16  19  1   
 35  17  20  ar  
 36  17  21  1   
 37  18  20  ar  
 38  18  37  1   
 39  19  38  1   
 40  19  39  1   
 41  19  40  1   
 42  20  41  1   
 43  21  42  1   
 44  21  43  1   
 45  21  44  1   
@<TRIPOS>SUBSTRUCTURE
  1 ****   3 GROUP 4 **** **** 0

# MOE 2024.06 (io_trps.svl 2023.06)
