@<TRIPOS>MOLECULE
NONAME
45 47 1 0 0 
SMALL
USER_CHARGES


@<TRIPOS>ATOM
  1 O       -1.3930     0.0540    -1.7340 O.2   1 <1>  -0.5700 
  2 C       -1.6430     0.5320    -0.6440 C.2   1 <1>   0.7160 
  3 N       -1.8830    -0.3180     0.3900 N.am  1 <1>  -0.7300 
  4 C       -1.7100     1.9560    -0.4130 C.2   1 <1>  -0.0860 
  5 C       -1.8170    -1.7960     0.3390 C.3   1 <1>   0.2200 
  6 C       -1.5880     2.9910    -1.3510 C.2   1 <1>   0.1080 
  7 C       -1.9080     2.6300     0.7560 C.2   1 <1>  -0.3020 
  8 C       -3.2100    -2.4110     0.3050 C.3   1 <1>  -0.0800 
  9 C       -1.3230    -2.3070     1.6850 C.3   1 <1>   0.1200 
 10 N       -1.6990     4.1660    -0.8200 N.2   1 <1>  -0.7070 
 11 C       -1.3520     2.8210    -2.8370 C.3   1 <1>  -0.0590 
 12 N       -1.8980     3.9430     0.4870 N.pl3 1 <1>   0.3140 
 13 C       -3.6060    -2.4540     1.7860 C.3   1 <1>   0.1200 
 14 C       -4.2370    -1.7120    -0.6060 C.3   1 <1>  -0.0170 
 15 O       -2.4360    -2.2430     2.5230 O.3   1 <1>  -0.5600 
 16 C       -2.0650     5.0530     1.4460 C.3   1 <1>   0.0960 
 17 C       -5.5510    -2.4770    -0.6260 C.ar  1 <1>  -0.1430 
 18 C       -3.5450     5.2740     1.7850 C.3   1 <1>  -0.2400 
 19 C       -5.7280    -3.5930    -1.4180 C.ar  1 <1>  -0.1500 
 20 C       -6.6330    -2.0990     0.1440 C.ar  1 <1>  -0.1500 
 21 C       -6.9400    -4.2620    -1.3980 C.ar  1 <1>   0.1600 
 22 C       -7.8020    -2.8390     0.0910 C.ar  1 <1>   0.1600 
 23 N       -7.9810    -3.9130    -0.6600 N.ar  1 <1>  -0.6200 
 24 H       -2.1400     0.0650     1.3000 H     1 <1>   0.3700 
 25 H       -1.1960    -2.1240    -0.4780 H     1 <1>   0.0800 
 26 H       -2.0510     2.2450     1.7480 H     1 <1>   0.1500 
 27 H       -3.1090    -3.4290    -0.0280 H     1 <1>   0.0800 
 28 H       -0.5230    -1.7120     2.0910 H     1 <1>   0.0800 
 29 H       -1.0180    -3.3370     1.6160 H     1 <1>   0.0800 
 30 H       -2.1470     2.2420    -3.2690 H     1 <1>   0.0800 
 31 H       -0.4180     2.3170    -3.0010 H     1 <1>   0.0800 
 32 H       -1.3190     3.7810    -3.3170 H     1 <1>   0.0800 
 33 H       -4.0260    -3.4070     2.0590 H     1 <1>   0.0800 
 34 H       -4.2950    -1.6670     2.0380 H     1 <1>   0.0800 
 35 H       -3.8440    -1.6520    -1.6070 H     1 <1>   0.0800 
 36 H       -4.4160    -0.7060    -0.2710 H     1 <1>   0.0800 
 37 H       -1.5070     4.8240     2.3350 H     1 <1>   0.0800 
 38 H       -1.6540     5.9420     1.0030 H     1 <1>   0.0800 
 39 H       -3.9620     4.3950     2.2440 H     1 <1>   0.0800 
 40 H       -4.0950     5.5050     0.8900 H     1 <1>   0.0800 
 41 H       -3.6430     6.0980     2.4690 H     1 <1>   0.0800 
 42 H       -4.9350    -3.9480    -2.0510 H     1 <1>   0.1500 
 43 H       -6.5790    -1.2380     0.7840 H     1 <1>   0.1500 
 44 H       -7.0590    -5.1310    -2.0230 H     1 <1>   0.1500 
 45 H       -8.6360    -2.5300     0.6990 H     1 <1>   0.1500 
@<TRIPOS>BOND
  1   1   2  2   
  2   2   3  am  
  3   2   4  1   
  4   3   5  1   
  5   3  24  1   
  6   4   6  1   
  7   4   7  2   
  8   5   8  1   
  9   5   9  1   
 10   5  25  1   
 11   6  10  2   
 12   6  11  1   
 13   7  12  1   
 14   7  26  1   
 15   8  13  1   
 16   8  14  1   
 17   8  27  1   
 18   9  15  1   
 19   9  28  1   
 20   9  29  1   
 21  10  12  1   
 22  11  30  1   
 23  11  31  1   
 24  11  32  1   
 25  12  16  1   
 26  13  15  1   
 27  13  33  1   
 28  13  34  1   
 29  14  17  1   
 30  14  35  1   
 31  14  36  1   
 32  16  18  1   
 33  16  37  1   
 34  16  38  1   
 35  17  19  ar  
 36  17  20  ar  
 37  18  39  1   
 38  18  40  1   
 39  18  41  1   
 40  19  21  ar  
 41  19  42  1   
 42  20  22  ar  
 43  20  43  1   
 44  21  23  ar  
 45  21  44  1   
 46  22  23  ar  
 47  22  45  1   
@<TRIPOS>SUBSTRUCTURE
  1 ****   3 GROUP 4 **** **** 0

# MOE 2024.06 (io_trps.svl 2023.06)
