@<TRIPOS>MOLECULE
NONAME
54 58 1 0 0 
SMALL
USER_CHARGES


@<TRIPOS>ATOM
  1 O       -1.0590     1.0550    -1.9950 O.2   1 <1>  -0.5700 
  2 C       -2.1030     1.3040    -1.4390 C.2   1 <1>   0.5690 
  3 N       -3.2280     0.5450    -1.6410 N.am  1 <1>  -0.6600 
  4 C       -2.1430     2.4950    -0.4990 C.3   1 <1>  -0.0990 
  5 C       -4.5570     0.7740    -1.0090 C.3   1 <1>   0.1400 
  6 C       -3.2020    -0.6640    -2.5110 C.3   1 <1>   0.1400 
  7 C       -0.7540     3.0940    -0.2480 C.3   1 <1>   0.0960 
  8 C       -4.8900    -0.4280    -0.1230 C.3   1 <1>  -0.1600 
  9 C       -3.5240    -1.8930    -1.6590 C.3   1 <1>  -0.1600 
 10 N       -0.8630     4.2680     0.6380 N.pl3 1 <1>   0.3140 
 11 C       -4.8590    -1.7380    -0.9230 C.3   1 <1>   0.4600 
 12 N       -1.0580     4.1220     1.9630 N.2   1 <1>  -0.7070 
 13 C       -0.8250     5.5760     0.2890 C.2   1 <1>  -0.3320 
 14 O       -5.8560    -1.6900    -1.9220 O.3   1 <1>  -0.5600 
 15 C       -5.1060    -2.9400    -0.0200 C.2   1 <1>  -0.3320 
 16 C       -1.1280     5.3320     2.4250 C.2   1 <1>   0.1390 
 17 C       -0.9910     6.2860     1.4250 C.2   1 <1>  -0.1500 
 18 C       -0.6300     6.1010    -1.1240 C.3   1 <1>  -0.0600 
 19 C       -7.1790    -2.0090    -1.5590 C.3   1 <1>   0.1200 
 20 N       -4.2810    -3.3940     0.9730 N.pl3 1 <1>   0.0330 
 21 C       -6.1960    -3.7300    -0.0870 C.2   1 <1>  -0.1810 
 22 C       -7.2920    -3.4690    -1.0900 C.3   1 <1>   0.0210 
 23 C       -4.8670    -4.5000     1.5390 C.ar  1 <1>  -0.1520 
 24 C       -6.0760    -4.7390     0.8900 C.ar  1 <1>   0.0000 
 25 C       -4.4370    -5.3270     2.5790 C.ar  1 <1>  -0.1500 
 26 C       -6.8700    -5.8220     1.2820 C.ar  1 <1>  -0.1500 
 27 C       -5.2290    -6.3880     2.9560 C.ar  1 <1>  -0.1500 
 28 C       -6.4450    -6.6350     2.3070 C.ar  1 <1>  -0.1500 
 29 H       -2.5480     2.1770     0.4440 H     1 <1>   0.0800 
 30 H       -2.7820     3.2440    -0.9270 H     1 <1>   0.0800 
 31 H       -5.3000     0.8730    -1.7820 H     1 <1>   0.0800 
 32 H       -4.5700     1.6740    -0.4220 H     1 <1>   0.0800 
 33 H       -2.2380    -0.7860    -2.9740 H     1 <1>   0.0800 
 34 H       -3.9350    -0.5550    -3.2930 H     1 <1>   0.0800 
 35 H       -0.2970     3.3900    -1.1730 H     1 <1>   0.0800 
 36 H       -0.1200     2.3690     0.2290 H     1 <1>   0.0800 
 37 H       -5.8520    -0.2980     0.3340 H     1 <1>   0.0800 
 38 H       -4.1670    -0.4790     0.6690 H     1 <1>   0.0800 
 39 H       -2.7290    -2.0300    -0.9510 H     1 <1>   0.0800 
 40 H       -3.5640    -2.7690    -2.2800 H     1 <1>   0.0800 
 41 H       -1.2780     5.5600     3.4670 H     1 <1>   0.1500 
 42 H       -1.0170     7.3520     1.5630 H     1 <1>   0.1500 
 43 H       -1.4100     5.7350    -1.7680 H     1 <1>   0.0800 
 44 H        0.3230     5.7850    -1.5100 H     1 <1>   0.0800 
 45 H       -0.6600     7.1760    -1.1270 H     1 <1>   0.0800 
 46 H       -7.8030    -1.8470    -2.4200 H     1 <1>   0.0800 
 47 H       -7.4900    -1.3410    -0.7760 H     1 <1>   0.0800 
 48 H       -3.3770    -3.0000     1.2480 H     1 <1>   0.2700 
 49 H       -7.1840    -4.1340    -1.9270 H     1 <1>   0.0800 
 50 H       -8.2530    -3.6320    -0.6390 H     1 <1>   0.0800 
 51 H       -3.5020    -5.1310     3.0720 H     1 <1>   0.1500 
 52 H       -7.7990    -6.0000     0.7740 H     1 <1>   0.1500 
 53 H       -4.9200    -7.0400     3.7540 H     1 <1>   0.1500 
 54 H       -7.0440    -7.4720     2.6200 H     1 <1>   0.1500 
@<TRIPOS>BOND
  1   1   2  2   
  2   2   3  am  
  3   2   4  1   
  4   3   5  1   
  5   3   6  1   
  6   4   7  1   
  7   4  29  1   
  8   4  30  1   
  9   5   8  1   
 10   5  31  1   
 11   5  32  1   
 12   6   9  1   
 13   6  33  1   
 14   6  34  1   
 15   7  10  1   
 16   7  35  1   
 17   7  36  1   
 18   8  11  1   
 19   8  37  1   
 20   8  38  1   
 21   9  11  1   
 22   9  39  1   
 23   9  40  1   
 24  10  12  1   
 25  10  13  1   
 26  11  14  1   
 27  11  15  1   
 28  12  16  2   
 29  13  17  2   
 30  13  18  1   
 31  14  19  1   
 32  15  20  1   
 33  15  21  2   
 34  16  17  1   
 35  16  41  1   
 36  17  42  1   
 37  18  43  1   
 38  18  44  1   
 39  18  45  1   
 40  19  22  1   
 41  19  46  1   
 42  19  47  1   
 43  20  23  1   
 44  20  48  1   
 45  21  22  1   
 46  21  24  1   
 47  22  49  1   
 48  22  50  1   
 49  23  24  ar  
 50  23  25  ar  
 51  24  26  ar  
 52  25  27  ar  
 53  25  51  1   
 54  26  28  ar  
 55  26  52  1   
 56  27  28  ar  
 57  27  53  1   
 58  28  54  1   
@<TRIPOS>SUBSTRUCTURE
  1 ****   8 GROUP 4 **** **** 0

# MOE 2024.06 (io_trps.svl 2023.06)
