@<TRIPOS>MOLECULE
NONAME
53 55 1 0 0 
SMALL
USER_CHARGES


@<TRIPOS>ATOM
  1 O       -0.5010    -0.9870    -1.6040 O.2   1 <1>  -0.5700 
  2 C        0.4840    -1.5080    -1.1320 C.2   1 <1>   0.5690 
  3 N        0.4060    -2.4160    -0.1060 N.am  1 <1>  -0.6600 
  4 C        1.8310    -1.1230    -1.7210 C.3   1 <1>  -0.0990 
  5 C        1.5900    -2.9600     0.6150 C.3   1 <1>   0.1400 
  6 C       -0.9170    -2.8190     0.4380 C.3   1 <1>   0.1400 
  7 C        3.0110    -1.4040    -0.7810 C.3   1 <1>  -0.1600 
  8 C        2.8770    -2.8160    -0.2040 C.3   1 <1>  -0.1600 
  9 C       -1.3670    -1.8230     1.5040 C.3   1 <1>  -0.0990 
 10 C       -2.8320    -2.0390     1.8180 C.2   1 <1>   0.5690 
 11 O       -3.0830    -2.7440     2.7670 O.2   1 <1>  -0.5700 
 12 N       -3.8140    -1.4780     1.0400 N.am  1 <1>  -0.6600 
 13 C       -5.2590    -1.7710     1.3180 C.3   1 <1>   0.1400 
 14 C       -3.5320    -0.6540    -0.1810 C.3   1 <1>   0.1400 
 15 C       -6.0020    -2.1520     0.0240 C.3   1 <1>   0.0000 
 16 C       -4.7990     0.0180    -0.7210 C.3   1 <1>  -0.1600 
 17 C       -7.4360    -2.6120     0.3430 C.3   1 <1>   0.2000 
 18 C       -5.9350    -0.9830    -1.0080 C.3   1 <1>  -0.1600 
 19 C       -5.4220    -3.4330    -0.6070 C.3   1 <1>  -0.1600 
 20 O       -8.3010    -1.5390     0.5680 O.3   1 <1>  -0.5600 
 21 C       -7.8640    -3.4480    -0.8630 C.3   1 <1>  -0.1600 
 22 C       -6.5690    -4.0630    -1.4110 C.3   1 <1>  -0.1600 
 23 C       -9.5230    -1.8770     1.1440 C.3   1 <1>   0.0400 
 24 H        1.9560    -1.6820    -2.6300 H     1 <1>   0.0800 
 25 H        1.8140    -0.0790    -1.9760 H     1 <1>   0.0800 
 26 H        1.6960    -2.4280     1.5450 H     1 <1>   0.0800 
 27 H        1.4290    -4.0010     0.8390 H     1 <1>   0.0800 
 28 H       -1.6330    -2.8430    -0.3660 H     1 <1>   0.0800 
 29 H       -0.8670    -3.8100     0.8550 H     1 <1>   0.0800 
 30 H        3.9380    -1.3080    -1.3200 H     1 <1>   0.0800 
 31 H        3.0100    -0.6860     0.0210 H     1 <1>   0.0800 
 32 H        3.7210    -3.0340     0.4270 H     1 <1>   0.0800 
 33 H        2.8710    -3.5380    -1.0010 H     1 <1>   0.0800 
 34 H       -1.2060    -0.8150     1.1760 H     1 <1>   0.0800 
 35 H       -0.7940    -1.9750     2.4000 H     1 <1>   0.0800 
 36 H       -5.3460    -2.5710     2.0320 H     1 <1>   0.0800 
 37 H       -5.7170    -0.8990     1.7510 H     1 <1>   0.0800 
 38 H       -2.8100     0.1090     0.0490 H     1 <1>   0.0800 
 39 H       -3.1170    -1.2860    -0.9480 H     1 <1>   0.0800 
 40 H       -5.1340     0.7380     0.0050 H     1 <1>   0.0800 
 41 H       -4.5610     0.5580    -1.6200 H     1 <1>   0.0800 
 42 H       -7.4170    -3.2330     1.2240 H     1 <1>   0.0800 
 43 H       -5.8110    -1.3770    -2.0010 H     1 <1>   0.0800 
 44 H       -6.8550    -0.4260    -1.0180 H     1 <1>   0.0800 
 45 H       -4.5600    -3.2400    -1.2210 H     1 <1>   0.0800 
 46 H       -5.1300    -4.1150     0.1740 H     1 <1>   0.0800 
 47 H       -8.5660    -4.2110    -0.5780 H     1 <1>   0.0800 
 48 H       -8.3010    -2.8080    -1.6100 H     1 <1>   0.0800 
 49 H       -6.5650    -5.1330    -1.2970 H     1 <1>   0.0800 
 50 H       -6.4670    -3.8250    -2.4560 H     1 <1>   0.0800 
 51 H      -10.0830    -0.9710     1.2930 H     1 <1>   0.0800 
 52 H       -9.3500    -2.3550     2.0930 H     1 <1>   0.0800 
 53 H      -10.0640    -2.5290     0.4820 H     1 <1>   0.0800 
@<TRIPOS>BOND
  1   1   2  2   
  2   2   3  am  
  3   2   4  1   
  4   3   5  1   
  5   3   6  1   
  6   4   7  1   
  7   4  24  1   
  8   4  25  1   
  9   5   8  1   
 10   5  26  1   
 11   5  27  1   
 12   6   9  1   
 13   6  28  1   
 14   6  29  1   
 15   7   8  1   
 16   7  30  1   
 17   7  31  1   
 18   8  32  1   
 19   8  33  1   
 20   9  10  1   
 21   9  34  1   
 22   9  35  1   
 23  10  11  2   
 24  10  12  am  
 25  12  13  1   
 26  12  14  1   
 27  13  15  1   
 28  13  36  1   
 29  13  37  1   
 30  14  16  1   
 31  14  38  1   
 32  14  39  1   
 33  15  17  1   
 34  15  18  1   
 35  15  19  1   
 36  16  18  1   
 37  16  40  1   
 38  16  41  1   
 39  17  20  1   
 40  17  21  1   
 41  17  42  1   
 42  18  43  1   
 43  18  44  1   
 44  19  22  1   
 45  19  45  1   
 46  19  46  1   
 47  20  23  1   
 48  21  22  1   
 49  21  47  1   
 50  21  48  1   
 51  22  49  1   
 52  22  50  1   
 53  23  51  1   
 54  23  52  1   
 55  23  53  1   
@<TRIPOS>SUBSTRUCTURE
  1 ****  12 GROUP 4 **** **** 0

# MOE 2024.06 (io_trps.svl 2023.06)
