@<TRIPOS>MOLECULE
NONAME
57 60 1 0 0 
SMALL
USER_CHARGES


@<TRIPOS>ATOM
  1 O       -0.5630     0.5720    -1.5540 O.2   1 <1>  -0.5700 
  2 C        0.0260    -0.4250    -1.9070 C.2   1 <1>   0.5690 
  3 N        1.3760    -0.6280    -1.6490 N.am  1 <1>  -0.4770 
  4 C       -0.8100    -1.4840    -2.6540 C.3   1 <1>   0.1710 
  5 C        2.0850    -0.1090    -0.5230 C.ar  1 <1>   0.1170 
  6 C        2.2170    -1.2740    -2.7100 C.3   1 <1>   0.1400 
  7 N       -1.2690    -2.6480    -1.8370 N.3   1 <1>  -0.8100 
  8 C        3.4880    -0.1620    -0.4760 C.ar  1 <1>   0.0820 
  9 C        1.4390     0.4450     0.5820 C.ar  1 <1>  -0.1500 
 10 C        3.5510    -1.7890    -2.1650 C.3   1 <1>   0.1200 
 11 C       -0.1880    -3.2450    -1.0310 C.3   1 <1>   0.1100 
 12 C       -2.4190    -2.2850    -0.9880 C.3   1 <1>   0.1100 
 13 O        4.2070    -0.7660    -1.4540 O.3   1 <1>  -0.3630 
 14 C        4.1980     0.3700     0.5860 C.ar  1 <1>  -0.1500 
 15 C        2.1470     0.9630     1.6540 C.ar  1 <1>  -0.1500 
 16 C       -0.5680    -4.6490    -0.4960 C.3   1 <1>   0.0000 
 17 C       -2.7510    -3.3900     0.0310 C.3   1 <1>  -0.1600 
 18 C        3.5280     0.9350     1.6550 C.ar  1 <1>  -0.1500 
 19 C       -2.1220    -4.7240    -0.3830 C.3   1 <1>   0.2000 
 20 C       -0.1450    -5.7330    -1.5180 C.3   1 <1>   0.1200 
 21 C        0.1130    -4.8770     0.8900 C.3   1 <1>  -0.0170 
 22 O       -2.5410    -5.7050     0.5040 O.3   1 <1>  -0.6800 
 23 O        1.2040    -5.6530    -1.8490 O.3   1 <1>  -0.6800 
 24 C        1.6360    -4.7590     0.9240 C.ar  1 <1>  -0.1440 
 25 C        2.2570    -3.5280     1.0870 C.ar  1 <1>  -0.1500 
 26 C        2.4210    -5.8990     0.8170 C.ar  1 <1>  -0.1500 
 27 C        3.6370    -3.4360     1.1140 C.ar  1 <1>  -0.1500 
 28 C        3.8020    -5.8070     0.8390 C.ar  1 <1>  -0.1500 
 29 C        4.4110    -4.5740     0.9850 C.ar  1 <1>  -0.1500 
 30 H       -0.2660    -1.8540    -3.5000 H     1 <1>   0.0800 
 31 H       -1.6760    -0.9900    -3.0570 H     1 <1>   0.0800 
 32 H        1.7100    -2.1090    -3.1530 H     1 <1>   0.0800 
 33 H        2.4140    -0.5510    -3.4830 H     1 <1>   0.0800 
 34 H        0.3680     0.4850     0.6250 H     1 <1>   0.1500 
 35 H        4.1950    -2.1040    -2.9660 H     1 <1>   0.0800 
 36 H        3.3920    -2.6180    -1.4990 H     1 <1>   0.0800 
 37 H        0.7130    -3.3080    -1.6110 H     1 <1>   0.0800 
 38 H        0.0070    -2.5860    -0.2040 H     1 <1>   0.0800 
 39 H       -2.2210    -1.3640    -0.4630 H     1 <1>   0.0800 
 40 H       -3.2720    -2.1240    -1.6260 H     1 <1>   0.0800 
 41 H        5.2720     0.3310     0.5750 H     1 <1>   0.1500 
 42 H        1.6170     1.3940     2.4860 H     1 <1>   0.1500 
 43 H       -3.8190    -3.4890     0.0960 H     1 <1>   0.0800 
 44 H       -2.3810    -3.0900     0.9940 H     1 <1>   0.0800 
 45 H        4.0790     1.3460     2.4840 H     1 <1>   0.1500 
 46 H       -2.5320    -4.9870    -1.3450 H     1 <1>   0.0800 
 47 H       -0.6990    -5.6190    -2.4350 H     1 <1>   0.0800 
 48 H       -0.3360    -6.7160    -1.1230 H     1 <1>   0.0800 
 49 H       -0.2870    -4.1730     1.5980 H     1 <1>   0.0800 
 50 H       -0.1430    -5.8560     1.2540 H     1 <1>   0.0800 
 51 H       -2.4260    -5.3990     1.4220 H     1 <1>   0.4000 
 52 H        1.7420    -5.5630    -1.0290 H     1 <1>   0.4000 
 53 H        1.6790    -2.6280     1.2010 H     1 <1>   0.1500 
 54 H        1.9630    -6.8690     0.7130 H     1 <1>   0.1500 
 55 H        4.1070    -2.4750     1.2380 H     1 <1>   0.1500 
 56 H        4.4030    -6.6950     0.7470 H     1 <1>   0.1500 
 57 H        5.4850    -4.4990     1.0030 H     1 <1>   0.1500 
@<TRIPOS>BOND
  1   1   2  2   
  2   2   3  am  
  3   2   4  1   
  4   3   5  1   
  5   3   6  1   
  6   4   7  1   
  7   4  30  1   
  8   4  31  1   
  9   5   8  ar  
 10   5   9  ar  
 11   6  10  1   
 12   6  32  1   
 13   6  33  1   
 14   7  11  1   
 15   7  12  1   
 16   8  13  1   
 17   8  14  ar  
 18   9  15  ar  
 19   9  34  1   
 20  10  13  1   
 21  10  35  1   
 22  10  36  1   
 23  11  16  1   
 24  11  37  1   
 25  11  38  1   
 26  12  17  1   
 27  12  39  1   
 28  12  40  1   
 29  14  18  ar  
 30  14  41  1   
 31  15  18  ar  
 32  15  42  1   
 33  16  19  1   
 34  16  20  1   
 35  16  21  1   
 36  17  19  1   
 37  17  43  1   
 38  17  44  1   
 39  18  45  1   
 40  19  22  1   
 41  19  46  1   
 42  20  23  1   
 43  20  47  1   
 44  20  48  1   
 45  21  24  1   
 46  21  49  1   
 47  21  50  1   
 48  22  51  1   
 49  23  52  1   
 50  24  25  ar  
 51  24  26  ar  
 52  25  27  ar  
 53  25  53  1   
 54  26  28  ar  
 55  26  54  1   
 56  27  29  ar  
 57  27  55  1   
 58  28  29  ar  
 59  28  56  1   
 60  29  57  1   
@<TRIPOS>SUBSTRUCTURE
  1 ****  11 GROUP 4 **** **** 0

# MOE 2024.06 (io_trps.svl 2023.06)
