@<TRIPOS>MOLECULE
NONAME
48 50 1 0 0 
SMALL
USER_CHARGES


@<TRIPOS>ATOM
  1 O       -1.4080    -2.3070     0.4270 O.2   1 <1>  -0.5700 
  2 C       -2.0780    -1.3260     0.2340 C.2   1 <1>   0.4230 
  3 C       -3.4990    -1.3170     0.4360 C.ar  1 <1>   0.0860 
  4 C       -1.3420    -0.0660    -0.1760 C.3   1 <1>  -0.1790 
  5 C       -4.4500    -0.7650    -0.4180 C.ar  1 <1>   0.1660 
  6 C       -4.0180    -1.9100     1.5740 C.ar  1 <1>   0.1600 
  7 N       -5.7260    -0.7600    -0.1350 N.ar  1 <1>  -0.6200 
  8 C       -4.0900    -0.1480    -1.7600 C.3   1 <1>  -0.0960 
  9 N       -5.2920    -1.9270     1.8720 N.ar  1 <1>  -0.6200 
 10 C       -6.1120    -1.3290     1.0070 C.ar  1 <1>   0.7200 
 11 N       -7.4510    -1.3270     1.3030 N.pl3 1 <1>  -0.8380 
 12 C       -8.0020    -2.0680     2.4770 C.3   1 <1>   0.2090 
 13 C       -8.4840    -0.7320     0.4170 C.3   1 <1>   0.2090 
 14 C       -8.2150    -3.5670     2.1880 C.3   1 <1>   0.2090 
 15 C       -9.1700    -1.8000    -0.4410 C.3   1 <1>  -0.1600 
 16 N       -8.8950    -3.8980     0.8830 N.pl3 1 <1>  -0.8380 
 17 C       -9.8760    -2.9090     0.3480 C.3   1 <1>   0.2090 
 18 C       -8.6910    -5.0920     0.2710 C.ar  1 <1>   0.1000 
 19 C       -7.4700    -5.4670    -0.3230 C.ar  1 <1>  -0.1430 
 20 C       -9.7420    -6.0150     0.2190 C.ar  1 <1>  -0.1500 
 21 C       -7.3490    -6.7040    -0.9050 C.ar  1 <1>   0.2110 
 22 C       -6.2800    -4.5120    -0.3540 C.3   1 <1>  -0.0970 
 23 C       -9.5800    -7.2370    -0.3740 C.ar  1 <1>   0.2110 
 24 N       -8.3900    -7.5730    -0.9270 N.ar  1 <1>  -0.1790 
 25 H       -1.9380     0.8060     0.0140 H     1 <1>   0.0800 
 26 H       -1.0890    -0.1140    -1.2190 H     1 <1>   0.0800 
 27 H       -0.4320     0.0130     0.3910 H     1 <1>   0.0800 
 28 H       -3.3370    -2.3840     2.2610 H     1 <1>   0.1500 
 29 H       -3.2750    -0.6760    -2.2210 H     1 <1>   0.0800 
 30 H       -3.8270     0.8850    -1.6320 H     1 <1>   0.0800 
 31 H       -4.9330    -0.2010    -2.4260 H     1 <1>   0.0800 
 32 H       -8.9390    -1.6300     2.7710 H     1 <1>   0.0800 
 33 H       -7.3390    -1.9650     3.3180 H     1 <1>   0.0800 
 34 H       -8.0460     0.0120    -0.2260 H     1 <1>   0.0800 
 35 H       -9.2170    -0.2260     1.0220 H     1 <1>   0.0800 
 36 H       -8.8000    -3.9810     2.9890 H     1 <1>   0.0800 
 37 H       -7.2570    -4.0510     2.2220 H     1 <1>   0.0800 
 38 H       -8.4590    -2.2300    -1.1210 H     1 <1>   0.0800 
 39 H       -9.9100    -1.3000    -1.0370 H     1 <1>   0.0800 
 40 H      -10.5510    -3.4180    -0.3180 H     1 <1>   0.0800 
 41 H      -10.4610    -2.4930     1.1500 H     1 <1>   0.0800 
 42 H      -10.6800    -5.7400     0.6670 H     1 <1>   0.1500 
 43 H       -6.4210    -7.0070    -1.3630 H     1 <1>   0.1500 
 44 H       -6.6070    -3.5240    -0.6210 H     1 <1>   0.0800 
 45 H       -5.5430    -4.8180    -1.0740 H     1 <1>   0.0800 
 46 H       -5.8090    -4.4650     0.6100 H     1 <1>   0.0800 
 47 H      -10.3910    -7.9470    -0.4090 H     1 <1>   0.1500 
 48 H       -8.2740    -8.4910    -1.3690 H     1 <1>   0.4570 
@<TRIPOS>BOND
  1   1   2  2   
  2   2   3  1   
  3   2   4  1   
  4   3   5  ar  
  5   3   6  ar  
  6   4  25  1   
  7   4  26  1   
  8   4  27  1   
  9   5   7  ar  
 10   5   8  1   
 11   6   9  ar  
 12   6  28  1   
 13   7  10  ar  
 14   8  29  1   
 15   8  30  1   
 16   8  31  1   
 17   9  10  ar  
 18  10  11  1   
 19  11  12  1   
 20  11  13  1   
 21  12  14  1   
 22  12  32  1   
 23  12  33  1   
 24  13  15  1   
 25  13  34  1   
 26  13  35  1   
 27  14  16  1   
 28  14  36  1   
 29  14  37  1   
 30  15  17  1   
 31  15  38  1   
 32  15  39  1   
 33  16  17  1   
 34  16  18  1   
 35  17  40  1   
 36  17  41  1   
 37  18  19  ar  
 38  18  20  ar  
 39  19  21  ar  
 40  19  22  1   
 41  20  23  ar  
 42  20  42  1   
 43  21  24  ar  
 44  21  43  1   
 45  22  44  1   
 46  22  45  1   
 47  22  46  1   
 48  23  24  ar  
 49  23  47  1   
 50  24  48  1   
@<TRIPOS>SUBSTRUCTURE
  1 ****  22 GROUP 4 **** **** 0

# MOE 2024.06 (io_trps.svl 2023.06)
