@<TRIPOS>MOLECULE
NONAME
56 58 1 0 0 
SMALL
USER_CHARGES


@<TRIPOS>ATOM
  1 O        0.1240    -0.3010    -3.0820 O.2   1 <1>  -0.5700 
  2 C        0.9990    -0.7300    -2.3660 C.2   1 <1>   0.5690 
  3 N        1.8210     0.0650    -1.6140 N.am  1 <1>  -0.4940 
  4 C        1.2170    -2.2480    -2.2950 C.3   1 <1>   0.2610 
  5 C        1.9640     1.4580    -1.4210 C.2   1 <1>  -0.0880 
  6 O        2.2050    -2.5540    -1.3150 O.3   1 <1>  -0.3630 
  7 C        1.7040    -2.8390    -3.6230 C.3   1 <1>  -0.2400 
  8 N        1.0690     2.4580    -1.6510 N.pl3 1 <1>   0.3140 
  9 C        3.0830     2.0450    -0.9110 C.2   1 <1>  -0.0540 
 10 C        1.8560    -3.2640    -0.2150 C.ar  1 <1>   0.0820 
 11 N        1.5790     3.6620    -1.3120 N.2   1 <1>  -0.7070 
 12 C       -0.3180     2.3780    -2.1230 C.3   1 <1>   0.0160 
 13 C        4.3140     1.4020    -0.5140 C.ar  1 <1>   0.0540 
 14 C        2.7680     3.4060    -0.8750 C.2   1 <1>   0.1080 
 15 C        2.2600    -2.8110     1.0370 C.ar  1 <1>  -0.1440 
 16 C        1.1160    -4.4350    -0.3290 C.ar  1 <1>  -0.1500 
 17 C        4.7800     1.4090     0.8070 C.ar  1 <1>   0.0820 
 18 C        5.0640     0.7300    -1.4750 C.ar  1 <1>  -0.1500 
 19 C        3.6920     4.4990    -0.3860 C.3   1 <1>  -0.0590 
 20 C        1.8910    -3.5290     2.1630 C.ar  1 <1>  -0.1500 
 21 C        3.0920    -1.5470     1.1980 C.3   1 <1>  -0.0970 
 22 C        0.7500    -5.1470     0.8000 C.ar  1 <1>  -0.1440 
 23 O        4.0210     2.0470     1.7390 O.3   1 <1>  -0.3620 
 24 C        5.9690     0.7620     1.1320 C.ar  1 <1>  -0.1500 
 25 C        6.2410     0.0840    -1.1480 C.ar  1 <1>  -0.1500 
 26 C        1.1400    -4.6860     2.0460 C.ar  1 <1>  -0.1500 
 27 C       -0.0610    -6.4250     0.6830 C.3   1 <1>  -0.0970 
 28 C        4.3640     2.0630     3.1060 C.3   1 <1>   0.0400 
 29 C        6.6960     0.1010     0.1580 C.ar  1 <1>  -0.1500 
 30 H        2.5190    -0.4910    -1.1080 H     1 <1>   0.3700 
 31 H        0.2820    -2.6980    -2.0130 H     1 <1>   0.0800 
 32 H        2.6330    -2.3820    -3.9130 H     1 <1>   0.0800 
 33 H        0.9760    -2.6500    -4.3920 H     1 <1>   0.0800 
 34 H        1.8380    -3.9010    -3.5310 H     1 <1>   0.0800 
 35 H       -0.8200     1.5770    -1.6140 H     1 <1>   0.0800 
 36 H       -0.3190     2.2000    -3.1810 H     1 <1>   0.0800 
 37 H       -0.8170     3.3050    -1.9130 H     1 <1>   0.0800 
 38 H        0.8330    -4.7990    -1.2990 H     1 <1>   0.1500 
 39 H        4.7140     0.7200    -2.4920 H     1 <1>   0.1500 
 40 H        4.7160     4.2290    -0.5610 H     1 <1>   0.0800 
 41 H        3.5400     4.6480     0.6670 H     1 <1>   0.0800 
 42 H        3.4770     5.4150    -0.9040 H     1 <1>   0.0800 
 43 H        2.1860    -3.1920     3.1410 H     1 <1>   0.1500 
 44 H        3.8660    -1.5120     0.4520 H     1 <1>   0.0800 
 45 H        3.5630    -1.5180     2.1630 H     1 <1>   0.0800 
 46 H        2.4670    -0.6780     1.0990 H     1 <1>   0.0800 
 47 H        6.3480     0.7580     2.1360 H     1 <1>   0.1500 
 48 H        6.8050    -0.4300    -1.9080 H     1 <1>   0.1500 
 49 H        0.8640    -5.2300     2.9330 H     1 <1>   0.1500 
 50 H       -0.5660    -6.4710    -0.2650 H     1 <1>   0.0800 
 51 H       -0.8000    -6.4680     1.4630 H     1 <1>   0.0800 
 52 H        0.5880    -7.2770     0.7710 H     1 <1>   0.0800 
 53 H        3.6020     2.6080     3.6330 H     1 <1>   0.0800 
 54 H        5.3130     2.5570     3.2220 H     1 <1>   0.0800 
 55 H        4.4060     1.0510     3.4680 H     1 <1>   0.0800 
 56 H        7.6140    -0.3990     0.4140 H     1 <1>   0.1500 
@<TRIPOS>BOND
  1   1   2  2   
  2   2   3  am  
  3   2   4  1   
  4   3   5  1   
  5   3  30  1   
  6   4   6  1   
  7   4   7  1   
  8   4  31  1   
  9   5   8  1   
 10   5   9  2   
 11   6  10  1   
 12   7  32  1   
 13   7  33  1   
 14   7  34  1   
 15   8  11  1   
 16   8  12  1   
 17   9  13  1   
 18   9  14  1   
 19  10  15  ar  
 20  10  16  ar  
 21  11  14  2   
 22  12  35  1   
 23  12  36  1   
 24  12  37  1   
 25  13  17  ar  
 26  13  18  ar  
 27  14  19  1   
 28  15  20  ar  
 29  15  21  1   
 30  16  22  ar  
 31  16  38  1   
 32  17  23  1   
 33  17  24  ar  
 34  18  25  ar  
 35  18  39  1   
 36  19  40  1   
 37  19  41  1   
 38  19  42  1   
 39  20  26  ar  
 40  20  43  1   
 41  21  44  1   
 42  21  45  1   
 43  21  46  1   
 44  22  26  ar  
 45  22  27  1   
 46  23  28  1   
 47  24  29  ar  
 48  24  47  1   
 49  25  29  ar  
 50  25  48  1   
 51  26  49  1   
 52  27  50  1   
 53  27  51  1   
 54  27  52  1   
 55  28  53  1   
 56  28  54  1   
 57  28  55  1   
 58  29  56  1   
@<TRIPOS>SUBSTRUCTURE
  1 ****   3 GROUP 4 **** **** 0

# MOE 2024.06 (io_trps.svl 2023.06)
