@<TRIPOS>MOLECULE
NONAME
53 55 1 0 0 
SMALL
USER_CHARGES


@<TRIPOS>ATOM
  1 CL      -0.5010    -0.4940    -0.5180 Cl    1 <1>  -0.1770 
  2 C       -0.6740    -2.2040    -0.2130 C.ar  1 <1>   0.1770 
  3 C        0.0040    -3.1070    -1.0090 C.ar  1 <1>  -0.1500 
  4 C       -1.4880    -2.6280     0.8220 C.ar  1 <1>  -0.1500 
  5 C       -0.1380    -4.4620    -0.7630 C.ar  1 <1>  -0.1500 
  6 C       -1.6290    -3.9840     1.0670 C.ar  1 <1>  -0.1500 
  7 C       -0.9520    -4.9070     0.2690 C.ar  1 <1>   0.0830 
  8 O       -1.0370    -6.2500     0.4350 O.3   1 <1>  -0.3630 
  9 C       -1.8670    -6.8190     1.4380 C.3   1 <1>   0.1810 
 10 C       -1.8310    -8.3460     1.4030 C.2   1 <1>   0.5690 
 11 O       -1.5210    -8.9080     2.4270 O.2   1 <1>  -0.5700 
 12 N       -2.1700    -9.0440     0.2720 N.am  1 <1>  -0.6600 
 13 C       -2.1450   -10.5470     0.2620 C.3   1 <1>   0.3640 
 14 C       -2.6050    -8.3890    -1.0040 C.3   1 <1>   0.1400 
 15 C       -0.8540   -11.0990    -0.3730 C.ar  1 <1>  -0.1430 
 16 C       -3.4240   -11.1180    -0.4360 C.3   1 <1>   0.2000 
 17 C       -3.0820    -9.4060    -2.0520 C.3   1 <1>   0.1200 
 18 C       -0.6610   -12.4760    -0.3810 C.ar  1 <1>  -0.1500 
 19 C        0.1420   -10.2940    -0.9220 C.ar  1 <1>  -0.1500 
 20 O       -3.9650   -10.3030    -1.4560 O.3   1 <1>  -0.5600 
 21 C       -4.5500   -11.3500     0.5770 C.3   1 <1>   0.1200 
 22 C        0.4660   -13.0450    -0.9480 C.ar  1 <1>   0.0830 
 23 C        1.2830   -10.8500    -1.4740 C.ar  1 <1>  -0.1500 
 24 O       -4.2400   -12.4230     1.4070 O.3   1 <1>  -0.6800 
 25 O        0.5410   -14.4000    -0.9550 O.3   1 <1>  -0.3630 
 26 C        1.4610   -12.2210    -1.4820 C.ar  1 <1>   0.0830 
 27 C        0.5800   -15.0260    -2.2190 C.3   1 <1>   0.0400 
 28 O        2.6170   -12.7010    -2.0020 O.3   1 <1>  -0.3630 
 29 C        3.5090   -13.2900    -1.0810 C.3   1 <1>   0.0400 
 30 H        0.6330    -2.7520    -1.8060 H     1 <1>   0.1500 
 31 H       -2.0010    -1.9000     1.4260 H     1 <1>   0.1500 
 32 H        0.3840    -5.1810    -1.3690 H     1 <1>   0.1500 
 33 H       -2.2620    -4.2950     1.8760 H     1 <1>   0.1500 
 34 H       -1.5150    -6.4800     2.3950 H     1 <1>   0.0800 
 35 H       -2.8750    -6.4840     1.2800 H     1 <1>   0.0800 
 36 H       -2.1450   -10.9040     1.2770 H     1 <1>   0.0800 
 37 H       -3.4120    -7.7080    -0.7960 H     1 <1>   0.0800 
 38 H       -1.7900    -7.8220    -1.4170 H     1 <1>   0.0800 
 39 H       -3.1960   -12.0600    -0.9000 H     1 <1>   0.0800 
 40 H       -2.2570    -9.9540    -2.4730 H     1 <1>   0.0800 
 41 H       -3.6040    -8.9050    -2.8480 H     1 <1>   0.0800 
 42 H       -1.3900   -13.1340     0.0580 H     1 <1>   0.1500 
 43 H        0.0550    -9.2230    -0.9170 H     1 <1>   0.1500 
 44 H       -5.4750   -11.5730     0.0740 H     1 <1>   0.0800 
 45 H       -4.6770   -10.4780     1.1960 H     1 <1>   0.0800 
 46 H        2.0470   -10.2200    -1.8920 H     1 <1>   0.1500 
 47 H       -4.4010   -13.2740     0.9530 H     1 <1>   0.4000 
 48 H        0.4690   -16.0850    -2.0730 H     1 <1>   0.0800 
 49 H        1.5240   -14.8200    -2.6910 H     1 <1>   0.0800 
 50 H       -0.2280   -14.6480    -2.8200 H     1 <1>   0.0800 
 51 H        4.4060   -13.5600    -1.6070 H     1 <1>   0.0800 
 52 H        3.0540   -14.1660    -0.6550 H     1 <1>   0.0800 
 53 H        3.7330   -12.5740    -0.3100 H     1 <1>   0.0800 
@<TRIPOS>BOND
  1   1   2  1   
  2   2   3  ar  
  3   2   4  ar  
  4   3   5  ar  
  5   3  30  1   
  6   4   6  ar  
  7   4  31  1   
  8   5   7  ar  
  9   5  32  1   
 10   6   7  ar  
 11   6  33  1   
 12   7   8  1   
 13   8   9  1   
 14   9  10  1   
 15   9  34  1   
 16   9  35  1   
 17  10  11  2   
 18  10  12  am  
 19  12  13  1   
 20  12  14  1   
 21  13  15  1   
 22  13  16  1   
 23  13  36  1   
 24  14  17  1   
 25  14  37  1   
 26  14  38  1   
 27  15  18  ar  
 28  15  19  ar  
 29  16  20  1   
 30  16  21  1   
 31  16  39  1   
 32  17  20  1   
 33  17  40  1   
 34  17  41  1   
 35  18  22  ar  
 36  18  42  1   
 37  19  23  ar  
 38  19  43  1   
 39  21  24  1   
 40  21  44  1   
 41  21  45  1   
 42  22  25  1   
 43  22  26  ar  
 44  23  26  ar  
 45  23  46  1   
 46  24  47  1   
 47  25  27  1   
 48  26  28  1   
 49  27  48  1   
 50  27  49  1   
 51  27  50  1   
 52  28  29  1   
 53  29  51  1   
 54  29  52  1   
 55  29  53  1   
@<TRIPOS>SUBSTRUCTURE
  1 ****  12 GROUP 4 **** **** 0

# MOE 2024.06 (io_trps.svl 2023.06)
