@<TRIPOS>MOLECULE
NONAME
46 48 1 0 0 
SMALL
USER_CHARGES


@<TRIPOS>ATOM
  1 F       -1.5960    -0.1090    -2.2980 F     1 <1>  -0.3400 
  2 C       -2.0320    -0.9580    -1.3740 C.3   1 <1>   1.1640 
  3 F       -2.8780    -1.7590    -2.0090 F     1 <1>  -0.3400 
  4 F       -0.9820    -1.6900    -1.0370 F     1 <1>  -0.3400 
  5 C       -2.6730    -0.2350    -0.1740 C.ar  1 <1>  -0.1440 
  6 C       -3.3610    -0.9710     0.7990 C.ar  1 <1>   0.0860 
  7 C       -2.5710     1.1490    -0.0400 C.ar  1 <1>  -0.1500 
  8 C       -3.5220    -2.4110     0.7450 C.2   1 <1>   0.5440 
  9 C       -3.9140    -0.2820     1.8760 C.ar  1 <1>  -0.1500 
 10 C       -3.1310     1.8280     1.0370 C.ar  1 <1>  -0.1440 
 11 O       -2.5840    -3.1060     1.0790 O.2   1 <1>  -0.5700 
 12 N       -4.6980    -3.0080     0.3350 N.am  1 <1>  -0.6600 
 13 C       -3.8080     1.0890     1.9960 C.ar  1 <1>  -0.1500 
 14 C       -3.0060     3.3590     1.1540 C.3   1 <1>   1.1640 
 15 C       -5.9040    -2.2200    -0.0650 C.3   1 <1>   0.2200 
 16 C       -4.7820    -4.5020     0.2830 C.3   1 <1>   0.0600 
 17 F       -1.8480     3.8150     0.6930 F     1 <1>  -0.3400 
 18 F       -3.1060     3.7940     2.4050 F     1 <1>  -0.3400 
 19 F       -3.9540     3.9800     0.4650 F     1 <1>  -0.3400 
 20 C       -7.1870    -2.6500     0.6440 C.3   1 <1>  -0.1600 
 21 C       -6.2280    -2.3270    -1.5530 C.3   1 <1>  -0.1600 
 22 C       -8.3150    -2.1300    -0.2550 C.3   1 <1>  -0.0800 
 23 C       -7.7080    -1.9350    -1.6560 C.3   1 <1>  -0.0800 
 24 C       -8.8600    -0.7600     0.1750 C.3   1 <1>  -0.1600 
 25 C       -7.9270    -0.4590    -2.0220 C.3   1 <1>  -0.1600 
 26 C       -9.0730    -0.0100    -1.1300 C.3   1 <1>   0.2000 
 27 O       -9.0090     1.3480    -0.9160 O.3   1 <1>  -0.6800 
 28 H       -2.0400     1.7210    -0.7870 H     1 <1>   0.1500 
 29 H       -4.4340    -0.8430     2.6350 H     1 <1>   0.1500 
 30 H       -4.2570     1.5750     2.8490 H     1 <1>   0.1500 
 31 H       -5.7600    -1.1770     0.1530 H     1 <1>   0.0800 
 32 H       -5.5190    -4.8280    -0.4270 H     1 <1>   0.0800 
 33 H       -5.0390    -4.8800     1.2560 H     1 <1>   0.0800 
 34 H       -3.8310    -4.9170    -0.0060 H     1 <1>   0.0800 
 35 H       -7.2600    -3.7210     0.6840 H     1 <1>   0.0800 
 36 H       -7.2410    -2.2570     1.6430 H     1 <1>   0.0800 
 37 H       -5.5940    -1.6920    -2.1450 H     1 <1>   0.0800 
 38 H       -6.1170    -3.3400    -1.8910 H     1 <1>   0.0800 
 39 H       -9.1240    -2.8410    -0.2980 H     1 <1>   0.0800 
 40 H       -8.2160    -2.5630    -2.3700 H     1 <1>   0.0800 
 41 H       -8.1340    -0.2420     0.7770 H     1 <1>   0.0800 
 42 H       -9.7810    -0.8570     0.7230 H     1 <1>   0.0800 
 43 H       -8.1750    -0.3450    -3.0620 H     1 <1>   0.0800 
 44 H       -7.0460     0.1150    -1.7970 H     1 <1>   0.0800 
 45 H      -10.0270    -0.2550    -1.5690 H     1 <1>   0.0800 
 46 H       -8.1450     1.5870    -0.5350 H     1 <1>   0.4000 
@<TRIPOS>BOND
  1   1   2  1   
  2   2   3  1   
  3   2   4  1   
  4   2   5  1   
  5   5   6  ar  
  6   5   7  ar  
  7   6   8  1   
  8   6   9  ar  
  9   7  10  ar  
 10   7  28  1   
 11   8  11  2   
 12   8  12  am  
 13   9  13  ar  
 14   9  29  1   
 15  10  13  ar  
 16  10  14  1   
 17  12  15  1   
 18  12  16  1   
 19  13  30  1   
 20  14  17  1   
 21  14  18  1   
 22  14  19  1   
 23  15  20  1   
 24  15  21  1   
 25  15  31  1   
 26  16  32  1   
 27  16  33  1   
 28  16  34  1   
 29  20  22  1   
 30  20  35  1   
 31  20  36  1   
 32  21  23  1   
 33  21  37  1   
 34  21  38  1   
 35  22  23  1   
 36  22  24  1   
 37  22  39  1   
 38  23  25  1   
 39  23  40  1   
 40  24  26  1   
 41  24  41  1   
 42  24  42  1   
 43  25  26  1   
 44  25  43  1   
 45  25  44  1   
 46  26  27  1   
 47  26  45  1   
 48  27  46  1   
@<TRIPOS>SUBSTRUCTURE
  1 ****   6 GROUP 4 **** **** 0

# MOE 2024.06 (io_trps.svl 2023.06)
