@<TRIPOS>MOLECULE
NONAME
54 58 1 0 0 
SMALL
USER_CHARGES


@<TRIPOS>ATOM
  1 O       -1.4990     1.3290    -2.0780 O.2   1 <1>  -0.5700 
  2 C       -1.7010     1.7820    -0.9640 C.2   1 <1>   0.7160 
  3 N       -2.6330     1.1300    -0.1750 N.am  1 <1>  -0.6600 
  4 C       -0.9480     2.9590    -0.5300 C.2   1 <1>   0.2030 
  5 C       -3.6840     0.2370    -0.7410 C.3   1 <1>   0.1400 
  6 C       -3.0120     1.4560     1.2180 C.3   1 <1>   0.1400 
  7 N       -1.3610     3.9840     0.2130 N.2   1 <1>  -0.7070 
  8 C        0.3880     3.1470    -0.8890 C.2   1 <1>  -0.1500 
  9 C       -4.9620     0.7740    -0.1040 C.3   1 <1>   0.2800 
 10 C       -4.5520     1.4450     1.2220 C.3   1 <1>  -0.0800 
 11 N       -0.2780     4.7740     0.3350 N.pl3 1 <1>   0.3000 
 12 C        0.8010     4.3070    -0.3280 C.2   1 <1>  -0.2050 
 13 O       -5.4560     1.8370    -0.8500 O.3   1 <1>  -0.5600 
 14 C       -6.2390    -0.0280     0.0960 C.3   1 <1>  -0.1600 
 15 C       -5.3570     2.7620     1.1290 C.3   1 <1>  -0.0800 
 16 C        2.0840     4.9600    -0.3610 C.ar  1 <1>   0.0530 
 17 C       -6.3530     2.3660     0.0290 C.3   1 <1>   0.2000 
 18 C       -7.2180     1.1290     0.3540 C.3   1 <1>  -0.1600 
 19 C       -4.4340     3.9060     0.6570 C.3   1 <1>   0.3430 
 20 C        2.2010     6.3470    -0.4460 C.ar  1 <1>  -0.1500 
 21 C        3.2570     4.2120    -0.3070 C.ar  1 <1>  -0.1500 
 22 N       -5.1380     5.0450     0.0000 N.4   1 <1>  -0.9590 
 23 C        3.4400     6.9610    -0.4630 C.ar  1 <1>  -0.1500 
 24 C        4.4980     4.8200    -0.3260 C.ar  1 <1>  -0.1500 
 25 C       -4.1120     5.9260    -0.6330 C.3   1 <1>   0.2630 
 26 C       -6.0250     5.8060     0.9310 C.3   1 <1>   0.2630 
 27 C        4.5920     6.1980    -0.4020 C.ar  1 <1>  -0.1500 
 28 H       -3.7330     0.2840    -1.8150 H     1 <1>   0.0800 
 29 H       -3.4990    -0.7740    -0.4250 H     1 <1>   0.0800 
 30 H       -2.6500     0.6630     1.8510 H     1 <1>   0.0800 
 31 H       -2.5880     2.3740     1.5770 H     1 <1>   0.0800 
 32 H        0.9570     2.4710    -1.5050 H     1 <1>   0.1500 
 33 H       -4.8820     0.8670     2.0680 H     1 <1>   0.0800 
 34 H       -0.2630     5.6350     0.8950 H     1 <1>   0.2700 
 35 H       -6.4860    -0.5570    -0.8080 H     1 <1>   0.0800 
 36 H       -6.1730    -0.7210     0.9170 H     1 <1>   0.0800 
 37 H       -5.8450     3.0050     2.0560 H     1 <1>   0.0800 
 38 H       -6.9090     3.1690    -0.4200 H     1 <1>   0.0800 
 39 H       -7.5720     1.1530     1.3700 H     1 <1>   0.0800 
 40 H       -8.0600     1.0720    -0.3140 H     1 <1>   0.0800 
 41 H       -3.7550     3.4880    -0.0690 H     1 <1>   0.0800 
 42 H       -3.8390     4.2620     1.4820 H     1 <1>   0.0800 
 43 H        1.3180     6.9550    -0.5090 H     1 <1>   0.1500 
 44 H        3.1930     3.1400    -0.2460 H     1 <1>   0.1500 
 45 H       -5.6940     4.6300    -0.7660 H     1 <1>   0.4500 
 46 H        3.5120     8.0330    -0.5290 H     1 <1>   0.1500 
 47 H        5.3920     4.2220    -0.2810 H     1 <1>   0.1500 
 48 H       -3.4800     6.3650     0.1210 H     1 <1>   0.0800 
 49 H       -4.5870     6.7140    -1.1940 H     1 <1>   0.0800 
 50 H       -3.4920     5.3500    -1.3030 H     1 <1>   0.0800 
 51 H       -5.4470     6.2270     1.7360 H     1 <1>   0.0800 
 52 H       -6.7770     5.1560     1.3480 H     1 <1>   0.0800 
 53 H       -6.5190     6.6060     0.4040 H     1 <1>   0.0800 
 54 H        5.5580     6.6740    -0.4160 H     1 <1>   0.1500 
@<TRIPOS>BOND
  1   1   2  2   
  2   2   3  am  
  3   2   4  1   
  4   3   5  1   
  5   3   6  1   
  6   4   7  2   
  7   4   8  1   
  8   5   9  1   
  9   5  28  1   
 10   5  29  1   
 11   6  10  1   
 12   6  30  1   
 13   6  31  1   
 14   7  11  1   
 15   8  12  2   
 16   8  32  1   
 17   9  10  1   
 18   9  13  1   
 19   9  14  1   
 20  10  15  1   
 21  10  33  1   
 22  11  12  1   
 23  11  34  1   
 24  12  16  1   
 25  13  17  1   
 26  14  18  1   
 27  14  35  1   
 28  14  36  1   
 29  15  17  1   
 30  15  19  1   
 31  15  37  1   
 32  16  20  ar  
 33  16  21  ar  
 34  17  18  1   
 35  17  38  1   
 36  18  39  1   
 37  18  40  1   
 38  19  22  1   
 39  19  41  1   
 40  19  42  1   
 41  20  23  ar  
 42  20  43  1   
 43  21  24  ar  
 44  21  44  1   
 45  22  25  1   
 46  22  26  1   
 47  22  45  1   
 48  23  27  ar  
 49  23  46  1   
 50  24  27  ar  
 51  24  47  1   
 52  25  48  1   
 53  25  49  1   
 54  25  50  1   
 55  26  51  1   
 56  26  52  1   
 57  26  53  1   
 58  27  54  1   
@<TRIPOS>SUBSTRUCTURE
  1 ****   7 GROUP 4 **** **** 0

# MOE 2024.06 (io_trps.svl 2023.06)
