@<TRIPOS>MOLECULE
NONAME
50 53 1 0 0 
SMALL
USER_CHARGES


@<TRIPOS>ATOM
  1 CL       1.8120     0.9190    -1.7600 Cl    1 <1>  -0.1770 
  2 C        2.9840    -0.0800    -0.9350 C.ar  1 <1>   0.1770 
  3 C        3.5030     0.3320     0.2830 C.ar  1 <1>  -0.1440 
  4 C        3.3850    -1.2610    -1.5310 C.ar  1 <1>  -0.1500 
  5 C        4.4500    -0.4680     0.9080 C.ar  1 <1>  -0.1500 
  6 C        3.0460     1.6310     0.9140 C.3   1 <1>   0.4870 
  7 C        4.3300    -2.0500    -0.9000 C.ar  1 <1>  -0.1500 
  8 C        4.8600    -1.6520     0.3170 C.ar  1 <1>  -0.1500 
  9 N        4.1050     2.6560     0.7310 N.4   1 <1>  -0.9590 
 10 C        3.9200     3.8320     1.6520 C.3   1 <1>   0.3430 
 11 C        4.3600     2.9890    -0.7080 C.3   1 <1>   0.3430 
 12 C        5.0560     4.8790     1.5910 C.3   1 <1>   0.2200 
 13 C        5.7420     3.6360    -0.9590 C.3   1 <1>  -0.0800 
 14 N        4.9430     5.6570     0.3100 N.am  1 <1>  -0.6600 
 15 C        6.4710     4.2960     1.8470 C.3   1 <1>   0.1200 
 16 C        6.9160     3.0530    -0.1420 C.3   1 <1>   0.1200 
 17 C        5.7040     5.1670    -0.8730 C.3   1 <1>   0.1400 
 18 C        4.1860     6.8080     0.3040 C.2   1 <1>   0.5690 
 19 O        6.6680     3.0490     1.2330 O.3   1 <1>  -0.5600 
 20 O        3.4540     7.0610     1.2310 O.2   1 <1>  -0.5700 
 21 C        4.2460     7.8240    -0.8180 C.3   1 <1>   0.1570 
 22 N        5.5660     8.4440    -0.7780 N.pl3 1 <1>   0.3140 
 23 N        6.5200     8.1960    -1.6580 N.2   1 <1>  -0.4180 
 24 C        6.0790     9.2090     0.1820 C.2   1 <1>   0.2700 
 25 N        7.5590     8.8160    -1.2330 N.2   1 <1>   0.0000 
 26 N        7.3070     9.4510    -0.0870 N.2   1 <1>  -0.3380 
 27 N        5.4280     9.6690     1.3160 N.pl3 1 <1>  -0.8840 
 28 H        2.9640    -1.5600    -2.4760 H     1 <1>   0.1500 
 29 H        4.8760    -0.1880     1.8580 H     1 <1>   0.1500 
 30 H        2.8720     1.4650     1.9640 H     1 <1>   0.0800 
 31 H        2.1230     1.9660     0.4700 H     1 <1>   0.0800 
 32 H        4.6520    -2.9730    -1.3520 H     1 <1>   0.1500 
 33 H        5.5950    -2.2720     0.8050 H     1 <1>   0.1500 
 34 H        5.0030     2.2360     1.0420 H     1 <1>   0.4500 
 35 H        2.9910     4.3310     1.4290 H     1 <1>   0.0800 
 36 H        3.8610     3.4700     2.6650 H     1 <1>   0.0800 
 37 H        4.3270     2.0780    -1.2830 H     1 <1>   0.0800 
 38 H        3.5800     3.6340    -1.0800 H     1 <1>   0.0800 
 39 H        4.8850     5.5680     2.4000 H     1 <1>   0.0800 
 40 H        5.9830     3.4280    -1.9860 H     1 <1>   0.0800 
 41 H        6.5890     4.1310     2.9040 H     1 <1>   0.0800 
 42 H        7.2420     4.9810     1.5350 H     1 <1>   0.0800 
 43 H        7.8260     3.6020    -0.3210 H     1 <1>   0.0800 
 44 H        7.0880     2.0290    -0.4310 H     1 <1>   0.0800 
 45 H        5.2480     5.5390    -1.7740 H     1 <1>   0.0800 
 46 H        6.7080     5.5600    -0.8400 H     1 <1>   0.0800 
 47 H        3.5050     8.5860    -0.6640 H     1 <1>   0.0800 
 48 H        4.0860     7.3660    -1.7730 H     1 <1>   0.0800 
 49 H        4.7320     9.0670     1.7740 H     1 <1>   0.4000 
 50 H        6.0410    10.1420     1.9890 H     1 <1>   0.4000 
@<TRIPOS>BOND
  1   1   2  1   
  2   2   3  ar  
  3   2   4  ar  
  4   3   5  ar  
  5   3   6  1   
  6   4   7  ar  
  7   4  28  1   
  8   5   8  ar  
  9   5  29  1   
 10   6   9  1   
 11   6  30  1   
 12   6  31  1   
 13   7   8  ar  
 14   7  32  1   
 15   8  33  1   
 16   9  10  1   
 17   9  11  1   
 18   9  34  1   
 19  10  12  1   
 20  10  35  1   
 21  10  36  1   
 22  11  13  1   
 23  11  37  1   
 24  11  38  1   
 25  12  14  1   
 26  12  15  1   
 27  12  39  1   
 28  13  16  1   
 29  13  17  1   
 30  13  40  1   
 31  14  17  1   
 32  14  18  am  
 33  15  19  1   
 34  15  41  1   
 35  15  42  1   
 36  16  19  1   
 37  16  43  1   
 38  16  44  1   
 39  17  45  1   
 40  17  46  1   
 41  18  20  2   
 42  18  21  1   
 43  21  22  1   
 44  21  47  1   
 45  21  48  1   
 46  22  23  1   
 47  22  24  1   
 48  23  25  2   
 49  24  26  2   
 50  24  27  1   
 51  25  26  1   
 52  27  49  1   
 53  27  50  1   
@<TRIPOS>SUBSTRUCTURE
  1 ****  13 GROUP 4 **** **** 0

# MOE 2024.06 (io_trps.svl 2023.06)
