@<TRIPOS>MOLECULE
NONAME
41 42 1 0 0 
SMALL
USER_CHARGES


@<TRIPOS>ATOM
  1 O       -0.0990     1.8970     0.1840 O.2   1 <1>  -0.5700 
  2 C        0.5360     2.8590     0.5350 C.2   1 <1>   0.4230 
  3 C        1.9320     3.0360     0.2200 C.ar  1 <1>   0.0860 
  4 C       -0.2160     3.9010     1.3420 C.3   1 <1>  -0.1790 
  5 C        2.6710     4.1560     0.6130 C.ar  1 <1>   0.1600 
  6 C        2.6290     2.0770    -0.5110 C.ar  1 <1>  -0.1500 
  7 N        3.9450     4.3800     0.3640 N.ar  1 <1>  -0.6200 
  8 C        3.9580     2.2920    -0.7800 C.ar  1 <1>  -0.1500 
  9 C        4.5920     3.4470    -0.3240 C.ar  1 <1>   0.4100 
 10 N        5.9270     3.6710    -0.5690 N.pl3 1 <1>  -0.8380 
 11 C        6.3260     4.7970    -1.4810 C.3   1 <1>   0.2090 
 12 C        6.9190     2.5810    -0.3920 C.3   1 <1>   0.2090 
 13 C        6.1590     6.2000    -0.8670 C.3   1 <1>   0.2000 
 14 C        8.0260     3.0390     0.5510 C.3   1 <1>  -0.2400 
 15 O        6.6450     7.1330    -1.7940 O.3   1 <1>  -0.5600 
 16 C        6.9110     6.3890     0.4620 C.3   1 <1>  -0.1600 
 17 C        6.4170     8.4660    -1.4520 C.3   1 <1>   0.1200 
 18 C        6.7880     7.8330     0.9630 C.3   1 <1>  -0.1600 
 19 C        7.1740     8.8010    -0.1610 C.3   1 <1>  -0.1600 
 20 H        0.2390     4.0200     2.3080 H     1 <1>   0.0800 
 21 H       -1.2350     3.5860     1.4830 H     1 <1>   0.0800 
 22 H       -0.2200     4.8400     0.8220 H     1 <1>   0.0800 
 23 H        2.1750     4.9250     1.1760 H     1 <1>   0.1500 
 24 H        2.1270     1.1880    -0.8560 H     1 <1>   0.1500 
 25 H        4.5200     1.5780    -1.3490 H     1 <1>   0.1500 
 26 H        5.7220     4.7460    -2.3700 H     1 <1>   0.0800 
 27 H        7.3540     4.6770    -1.7700 H     1 <1>   0.0800 
 28 H        7.3310     2.3020    -1.3470 H     1 <1>   0.0800 
 29 H        6.4390     1.7180     0.0370 H     1 <1>   0.0800 
 30 H        5.1100     6.3950    -0.7290 H     1 <1>   0.0800 
 31 H        8.5910     3.8380     0.1110 H     1 <1>   0.0800 
 32 H        8.6930     2.2210     0.7490 H     1 <1>   0.0800 
 33 H        7.5990     3.3680     1.4820 H     1 <1>   0.0800 
 34 H        7.9470     6.1410     0.3180 H     1 <1>   0.0800 
 35 H        6.5050     5.7170     1.1980 H     1 <1>   0.0800 
 36 H        5.3570     8.6140    -1.3330 H     1 <1>   0.0800 
 37 H        6.7670     9.0780    -2.2650 H     1 <1>   0.0800 
 38 H        7.4210     7.9840     1.8200 H     1 <1>   0.0800 
 39 H        5.7700     8.0160     1.2590 H     1 <1>   0.0800 
 40 H        6.9550     9.8110     0.1340 H     1 <1>   0.0800 
 41 H        8.2300     8.7340    -0.3550 H     1 <1>   0.0800 
@<TRIPOS>BOND
  1   1   2  2   
  2   2   3  1   
  3   2   4  1   
  4   3   5  ar  
  5   3   6  ar  
  6   4  20  1   
  7   4  21  1   
  8   4  22  1   
  9   5   7  ar  
 10   5  23  1   
 11   6   8  ar  
 12   6  24  1   
 13   7   9  ar  
 14   8   9  ar  
 15   8  25  1   
 16   9  10  1   
 17  10  11  1   
 18  10  12  1   
 19  11  13  1   
 20  11  26  1   
 21  11  27  1   
 22  12  14  1   
 23  12  28  1   
 24  12  29  1   
 25  13  15  1   
 26  13  16  1   
 27  13  30  1   
 28  14  31  1   
 29  14  32  1   
 30  14  33  1   
 31  15  17  1   
 32  16  18  1   
 33  16  34  1   
 34  16  35  1   
 35  17  19  1   
 36  17  36  1   
 37  17  37  1   
 38  18  19  1   
 39  18  38  1   
 40  18  39  1   
 41  19  40  1   
 42  19  41  1   
@<TRIPOS>SUBSTRUCTURE
  1 ****   7 GROUP 4 **** **** 0

# MOE 2024.06 (io_trps.svl 2023.06)
