@<TRIPOS>MOLECULE
NONAME
59 61 1 0 0 
SMALL
USER_CHARGES


@<TRIPOS>ATOM
  1 O        0.1380     0.9240     0.1870 O.2   1 <1>  -0.5700 
  2 C        0.0560     2.1230     0.1200 C.2   1 <1>   0.5690 
  3 N       -0.9010     2.7920     0.7970 N.am  1 <1>  -0.7300 
  4 C        1.0240     2.9110    -0.7630 C.3   1 <1>   0.1810 
  5 C       -1.1030     4.2580     0.7180 C.3   1 <1>   0.3640 
  6 O        1.1100     4.2730    -0.3920 O.3   1 <1>  -0.5600 
  7 C       -2.5630     4.5310     0.3710 C.ar  1 <1>  -0.1440 
  8 C       -0.1510     4.9350    -0.3040 C.3   1 <1>   0.2610 
  9 C       -3.2160     3.8120    -0.6240 C.ar  1 <1>  -0.1500 
 10 C       -3.2600     5.5210     1.0500 C.ar  1 <1>  -0.1500 
 11 C        0.0700     6.3950     0.0950 C.2   1 <1>   0.5690 
 12 C       -4.5390     4.0780    -0.9310 C.ar  1 <1>  -0.1500 
 13 C       -4.5830     5.7880     0.7430 C.ar  1 <1>  -0.1500 
 14 O       -0.7690     7.2270    -0.1430 O.2   1 <1>  -0.5700 
 15 N        1.2370     6.7420     0.7040 N.am  1 <1>  -0.7300 
 16 C       -5.2230     5.0660    -0.2480 C.ar  1 <1>  -0.1500 
 17 C        1.5750     8.1100     1.2050 C.3   1 <1>   0.1400 
 18 C        2.2570     9.0710     0.1770 C.3   1 <1>   0.5030 
 19 N        3.4600     8.4670    -0.5220 N.4   1 <1>  -0.9590 
 20 C        2.7360    10.3290     0.9430 C.3   1 <1>  -0.1600 
 21 C        1.2400     9.5680    -0.8810 C.3   1 <1>  -0.1600 
 22 C        4.4950     7.9250     0.4020 C.3   1 <1>   0.3430 
 23 C        3.1280     7.4550    -1.5860 C.3   1 <1>   0.2630 
 24 C        3.3490    11.4150     0.0380 C.3   1 <1>  -0.1600 
 25 C        1.8080    10.6380    -1.8350 C.3   1 <1>  -0.1600 
 26 C        5.8520     7.9220    -0.2920 C.3   1 <1>  -0.2400 
 27 C        2.3600    11.8380    -1.0550 C.3   1 <1>  -0.1600 
 28 H       -1.5840     2.2570     1.3370 H     1 <1>   0.3700 
 29 H        0.7030     2.8530    -1.7870 H     1 <1>   0.0800 
 30 H        2.0070     2.4830    -0.6820 H     1 <1>   0.0800 
 31 H       -0.9000     4.6650     1.6940 H     1 <1>   0.0800 
 32 H       -0.6010     4.9160    -1.2810 H     1 <1>   0.0800 
 33 H       -2.7030     3.0380    -1.1680 H     1 <1>   0.1500 
 34 H       -2.7800     6.1010     1.8190 H     1 <1>   0.1500 
 35 H       -5.0370     3.5160    -1.7020 H     1 <1>   0.1500 
 36 H       -5.1130     6.5600     1.2730 H     1 <1>   0.1500 
 37 H        1.8960     5.9780     0.8930 H     1 <1>   0.3700 
 38 H       -6.2520     5.2750    -0.4870 H     1 <1>   0.1500 
 39 H        0.6660     8.5760     1.5470 H     1 <1>   0.0800 
 40 H        2.2050     8.0060     2.0700 H     1 <1>   0.0800 
 41 H        3.8750     9.2760    -1.0000 H     1 <1>   0.4500 
 42 H        1.8840    10.7650     1.4380 H     1 <1>   0.0800 
 43 H        3.4290    10.0770     1.7230 H     1 <1>   0.0800 
 44 H        0.8360     8.7530    -1.4500 H     1 <1>   0.0800 
 45 H        0.3990    10.0010    -0.3650 H     1 <1>   0.0800 
 46 H        4.5700     8.5360     1.2840 H     1 <1>   0.0800 
 47 H        4.2320     6.9250     0.7090 H     1 <1>   0.0800 
 48 H        2.6800     6.5770    -1.1540 H     1 <1>   0.0800 
 49 H        4.0210     7.1560    -2.1100 H     1 <1>   0.0800 
 50 H        2.4460     7.8690    -2.3090 H     1 <1>   0.0800 
 51 H        3.5940    12.2780     0.6350 H     1 <1>   0.0800 
 52 H        4.2650    11.0720    -0.4100 H     1 <1>   0.0800 
 53 H        2.5820    10.2230    -2.4560 H     1 <1>   0.0800 
 54 H        1.0240    10.9780    -2.4910 H     1 <1>   0.0800 
 55 H        6.1150     8.9110    -0.6240 H     1 <1>   0.0800 
 56 H        5.8720     7.2420    -1.1240 H     1 <1>   0.0800 
 57 H        6.6030     7.6000     0.4070 H     1 <1>   0.0800 
 58 H        2.8390    12.5230    -1.7350 H     1 <1>   0.0800 
 59 H        1.5370    12.3640    -0.5990 H     1 <1>   0.0800 
@<TRIPOS>BOND
  1   1   2  2   
  2   2   3  am  
  3   2   4  1   
  4   3   5  1   
  5   3  28  1   
  6   4   6  1   
  7   4  29  1   
  8   4  30  1   
  9   5   7  1   
 10   5   8  1   
 11   5  31  1   
 12   6   8  1   
 13   7   9  ar  
 14   7  10  ar  
 15   8  11  1   
 16   8  32  1   
 17   9  12  ar  
 18   9  33  1   
 19  10  13  ar  
 20  10  34  1   
 21  11  14  2   
 22  11  15  am  
 23  12  16  ar  
 24  12  35  1   
 25  13  16  ar  
 26  13  36  1   
 27  15  17  1   
 28  15  37  1   
 29  16  38  1   
 30  17  18  1   
 31  17  39  1   
 32  17  40  1   
 33  18  19  1   
 34  18  20  1   
 35  18  21  1   
 36  19  22  1   
 37  19  23  1   
 38  19  41  1   
 39  20  24  1   
 40  20  42  1   
 41  20  43  1   
 42  21  25  1   
 43  21  44  1   
 44  21  45  1   
 45  22  26  1   
 46  22  46  1   
 47  22  47  1   
 48  23  48  1   
 49  23  49  1   
 50  23  50  1   
 51  24  27  1   
 52  24  51  1   
 53  24  52  1   
 54  25  27  1   
 55  25  53  1   
 56  25  54  1   
 57  26  55  1   
 58  26  56  1   
 59  26  57  1   
 60  27  58  1   
 61  27  59  1   
@<TRIPOS>SUBSTRUCTURE
  1 ****  11 GROUP 4 **** **** 0

# MOE 2024.06 (io_trps.svl 2023.06)
