@<TRIPOS>MOLECULE
NONAME
50 52 1 0 0 
SMALL
USER_CHARGES


@<TRIPOS>ATOM
  1 O        2.5530    -1.4510    -2.2050 O.2   1 <1>  -0.5700 
  2 C        2.6310    -1.5600    -0.9960 C.2   1 <1>   0.5440 
  3 N        3.0710    -0.4750    -0.2630 N.am  1 <1>  -0.6600 
  4 C        2.2760    -2.8220    -0.3700 C.ar  1 <1>   0.0860 
  5 C        3.7600    -0.6030     1.0590 C.3   1 <1>   0.1400 
  6 C        3.1250     0.8900    -0.8530 C.3   1 <1>   0.1400 
  7 C        2.7280    -4.0330    -0.8960 C.ar  1 <1>  -0.1500 
  8 C        1.4670    -2.8770     0.7660 C.ar  1 <1>  -0.1500 
  9 C        5.2200    -0.1460     0.9510 C.3   1 <1>   0.2000 
 10 C        4.5850     1.3040    -1.0390 C.3   1 <1>  -0.1600 
 11 C        2.4030    -5.2410    -0.3070 C.ar  1 <1>  -0.1500 
 12 C        1.1400    -4.0810     1.3610 C.ar  1 <1>  -0.1500 
 13 O        5.7540    -0.1060     2.2320 O.3   1 <1>  -0.6800 
 14 C        5.3470     1.2440     0.2880 C.3   1 <1>   0.2200 
 15 C        1.6100    -5.2670     0.8260 C.ar  1 <1>  -0.1500 
 16 N        6.7630     1.5910     0.0140 N.am  1 <1>  -0.7300 
 17 C        7.6920     2.0480     0.9010 C.2   1 <1>   0.5440 
 18 O        7.3500     2.0930     2.0680 O.2   1 <1>  -0.5700 
 19 C        9.0310     2.4620     0.5080 C.ar  1 <1>   0.0860 
 20 C        9.5800     2.2650    -0.7750 C.ar  1 <1>   0.3930 
 21 C        9.8480     3.0970     1.4380 C.ar  1 <1>  -0.1500 
 22 O        8.8360     1.6450    -1.7180 O.3   1 <1>  -0.3620 
 23 N       10.8030     2.6440    -1.1490 N.ar  1 <1>  -0.6200 
 24 C       11.1120     3.4900     1.0600 C.ar  1 <1>  -0.1500 
 25 C        9.3140     1.3940    -3.0230 C.3   1 <1>   0.1200 
 26 C       11.5350     3.2430    -0.2300 C.ar  1 <1>   0.1600 
 27 C        8.2050     0.6910    -3.8010 C.3   1 <1>  -0.2400 
 28 H        3.2450     0.0090     1.7790 H     1 <1>   0.0800 
 29 H        3.7480    -1.6220     1.4010 H     1 <1>   0.0800 
 30 H        2.6150     0.9140    -1.8020 H     1 <1>   0.0800 
 31 H        2.6250     1.5790    -0.1930 H     1 <1>   0.0800 
 32 H        3.3390    -4.0150    -1.7820 H     1 <1>   0.1500 
 33 H        1.0910    -1.9590     1.1820 H     1 <1>   0.1500 
 34 H        5.7780    -0.8710     0.3840 H     1 <1>   0.0800 
 35 H        4.6160     2.3070    -1.4270 H     1 <1>   0.0800 
 36 H        5.0350     0.6430    -1.7600 H     1 <1>   0.0800 
 37 H        2.7660    -6.1620    -0.7310 H     1 <1>   0.1500 
 38 H        0.5170    -4.0980     2.2390 H     1 <1>   0.1500 
 39 H        6.4280     0.6250     2.2730 H     1 <1>   0.4000 
 40 H        4.9270     1.9780     0.9560 H     1 <1>   0.0800 
 41 H        1.3560    -6.2070     1.2860 H     1 <1>   0.1500 
 42 H        7.0760     1.4400    -0.9520 H     1 <1>   0.3700 
 43 H        9.4990     3.2810     2.4400 H     1 <1>   0.1500 
 44 H       11.7650     3.9830     1.7590 H     1 <1>   0.1500 
 45 H        9.5710     2.3350    -3.4800 H     1 <1>   0.0800 
 46 H       10.1900     0.7720    -2.9520 H     1 <1>   0.0800 
 47 H       12.5260     3.5530    -0.5200 H     1 <1>   0.1500 
 48 H        7.3350     1.3200    -3.8600 H     1 <1>   0.0800 
 49 H        7.9490    -0.2390    -3.3270 H     1 <1>   0.0800 
 50 H        8.5430     0.4830    -4.8010 H     1 <1>   0.0800 
@<TRIPOS>BOND
  1   1   2  2   
  2   2   3  am  
  3   2   4  1   
  4   3   5  1   
  5   3   6  1   
  6   4   7  ar  
  7   4   8  ar  
  8   5   9  1   
  9   5  28  1   
 10   5  29  1   
 11   6  10  1   
 12   6  30  1   
 13   6  31  1   
 14   7  11  ar  
 15   7  32  1   
 16   8  12  ar  
 17   8  33  1   
 18   9  13  1   
 19   9  14  1   
 20   9  34  1   
 21  10  14  1   
 22  10  35  1   
 23  10  36  1   
 24  11  15  ar  
 25  11  37  1   
 26  12  15  ar  
 27  12  38  1   
 28  13  39  1   
 29  14  16  1   
 30  14  40  1   
 31  15  41  1   
 32  16  17  am  
 33  16  42  1   
 34  17  18  2   
 35  17  19  1   
 36  19  20  ar  
 37  19  21  ar  
 38  20  22  1   
 39  20  23  ar  
 40  21  24  ar  
 41  21  43  1   
 42  22  25  1   
 43  23  26  ar  
 44  24  26  ar  
 45  24  44  1   
 46  25  27  1   
 47  25  45  1   
 48  25  46  1   
 49  26  47  1   
 50  27  48  1   
 51  27  49  1   
 52  27  50  1   
@<TRIPOS>SUBSTRUCTURE
  1 ****   9 GROUP 4 **** **** 0

# MOE 2024.06 (io_trps.svl 2023.06)
