@<TRIPOS>MOLECULE
NONAME
48 50 1 0 0 
SMALL
USER_CHARGES


@<TRIPOS>ATOM
  1 O        1.3400     1.6080    -0.7220 O.2   1 <1>  -0.5700 
  2 C        0.5330     2.1740    -0.0270 C.2   1 <1>   0.5690 
  3 N       -0.3580     3.0940    -0.4480 N.am  1 <1>  -0.6600 
  4 C        0.4260     1.9650     1.4570 C.3   1 <1>  -0.0990 
  5 C       -1.1550     3.6720     0.6450 C.3   1 <1>   0.1400 
  6 C       -0.4820     3.6260    -1.8420 C.3   1 <1>   0.2010 
  7 C       -0.8030     2.8000     1.8600 C.3   1 <1>  -0.1600 
  8 C       -0.1240     5.1130    -1.9440 C.2   1 <1>   0.5690 
  9 O       -1.0500     5.8900    -2.0220 O.2   1 <1>  -0.5700 
 10 N        1.1800     5.5530    -1.9050 N.am  1 <1>  -0.6600 
 11 C        2.3720     4.6550    -1.7920 C.3   1 <1>   0.1400 
 12 C        1.4820     7.0040    -1.7820 C.3   1 <1>   0.1400 
 13 C        2.9990     4.7280    -0.3950 C.3   1 <1>   0.1400 
 14 C        1.5520     7.3800    -0.2970 C.3   1 <1>  -0.1600 
 15 N        3.7050     6.0300    -0.1990 N.am  1 <1>  -0.6600 
 16 C        2.9150     7.1560     0.3770 C.3   1 <1>   0.1400 
 17 C        5.0390     6.1520    -0.5440 C.2   1 <1>   0.5440 
 18 O        5.5390     5.2800    -1.2330 O.2   1 <1>  -0.5700 
 19 C        5.8460     7.2990    -0.1790 C.ar  1 <1>   0.0860 
 20 C        6.0900     7.6800     1.1480 C.ar  1 <1>   0.0820 
 21 C        6.4280     8.0730    -1.1840 C.ar  1 <1>  -0.1500 
 22 O        5.5840     6.9730     2.1710 O.3   1 <1>  -0.5320 
 23 C        6.8660     8.7910     1.4450 C.ar  1 <1>  -0.1500 
 24 C        7.2010     9.1810    -0.8910 C.ar  1 <1>  -0.1500 
 25 C        7.4200     9.5430     0.4270 C.ar  1 <1>  -0.1500 
 26 H        1.3190     2.3330     1.9270 H     1 <1>   0.0800 
 27 H        0.2930     0.9230     1.6800 H     1 <1>   0.0800 
 28 H       -2.2060     3.6260     0.4160 H     1 <1>   0.0800 
 29 H       -0.8600     4.6960     0.8050 H     1 <1>   0.0800 
 30 H       -1.4980     3.5000    -2.1670 H     1 <1>   0.0800 
 31 H        0.1390     3.0580    -2.5090 H     1 <1>   0.0800 
 32 H       -0.6100     3.4050     2.7280 H     1 <1>   0.0800 
 33 H       -1.6320     2.1480     2.0730 H     1 <1>   0.0800 
 34 H        3.1090     4.9360    -2.5240 H     1 <1>   0.0800 
 35 H        2.1040     3.6370    -1.9950 H     1 <1>   0.0800 
 36 H        0.6980     7.5710    -2.2570 H     1 <1>   0.0800 
 37 H        2.4060     7.2390    -2.2830 H     1 <1>   0.0800 
 38 H        3.7070     3.9240    -0.2930 H     1 <1>   0.0800 
 39 H        2.2430     4.5930     0.3580 H     1 <1>   0.0800 
 40 H        0.7900     6.8460     0.2420 H     1 <1>   0.0800 
 41 H        1.3140     8.4230    -0.2020 H     1 <1>   0.0800 
 42 H        2.7730     6.9790     1.4290 H     1 <1>   0.0800 
 43 H        3.4780     8.0670     0.2790 H     1 <1>   0.0800 
 44 H        6.2680     7.7890    -2.2090 H     1 <1>   0.1500 
 45 H        5.8970     7.2590     3.0470 H     1 <1>   0.4500 
 46 H        7.0440     9.0740     2.4670 H     1 <1>   0.1500 
 47 H        7.6370     9.7610    -1.6870 H     1 <1>   0.1500 
 48 H        8.0220    10.4060     0.6550 H     1 <1>   0.1500 
@<TRIPOS>BOND
  1   1   2  2   
  2   2   3  am  
  3   2   4  1   
  4   3   5  1   
  5   3   6  1   
  6   4   7  1   
  7   4  26  1   
  8   4  27  1   
  9   5   7  1   
 10   5  28  1   
 11   5  29  1   
 12   6   8  1   
 13   6  30  1   
 14   6  31  1   
 15   7  32  1   
 16   7  33  1   
 17   8   9  2   
 18   8  10  am  
 19  10  11  1   
 20  10  12  1   
 21  11  13  1   
 22  11  34  1   
 23  11  35  1   
 24  12  14  1   
 25  12  36  1   
 26  12  37  1   
 27  13  15  1   
 28  13  38  1   
 29  13  39  1   
 30  14  16  1   
 31  14  40  1   
 32  14  41  1   
 33  15  16  1   
 34  15  17  am  
 35  16  42  1   
 36  16  43  1   
 37  17  18  2   
 38  17  19  1   
 39  19  20  ar  
 40  19  21  ar  
 41  20  22  1   
 42  20  23  ar  
 43  21  24  ar  
 44  21  44  1   
 45  22  45  1   
 46  23  25  ar  
 47  23  46  1   
 48  24  25  ar  
 49  24  47  1   
 50  25  48  1   
@<TRIPOS>SUBSTRUCTURE
  1 ****  13 GROUP 4 **** **** 0

# MOE 2024.06 (io_trps.svl 2023.06)
