@<TRIPOS>MOLECULE
NONAME
35 36 1 0 0 
SMALL
USER_CHARGES


@<TRIPOS>ATOM
  1 CL       1.9410    -0.2220     0.1770 Cl    1 <1>  -0.1240 
  2 C        2.3260     1.4600    -0.0470 C.2   1 <1>   0.1640 
  3 S        1.3160     2.6180     0.7790 S.3   1 <1>  -0.0800 
  4 C        3.2910     2.0590    -0.7640 C.2   1 <1>  -0.1500 
  5 C        2.2490     3.9760     0.1220 C.2   1 <1>  -0.0450 
  6 C        3.2450     3.4810    -0.6670 C.2   1 <1>  -0.1500 
  7 C        1.8630     5.3170     0.4820 C.2   1 <1>   0.7150 
  8 O        0.8510     5.5360     1.1210 O.2   1 <1>  -0.5700 
  9 N        2.6760     6.3580     0.1030 N.am  1 <1>  -0.4940 
 10 C        2.4750     7.7550     0.2220 C.2   1 <1>  -0.0880 
 11 N        3.4380     8.6390     0.5990 N.pl3 1 <1>   0.3140 
 12 C        1.3600     8.4900    -0.0090 C.2   1 <1>  -0.1810 
 13 N        2.9760     9.9080     0.6090 N.2   1 <1>  -0.7070 
 14 C        4.8180     8.3300     1.0220 C.3   1 <1>   0.0960 
 15 C        1.7340     9.8040     0.2500 C.2   1 <1>   0.1390 
 16 C       -0.0200     8.0440    -0.4560 C.3   1 <1>  -0.0590 
 17 C        5.7420     8.1560    -0.1920 C.3   1 <1>  -0.1600 
 18 C        7.1630     7.7750     0.2420 C.3   1 <1>  -0.1600 
 19 C        8.0770     7.5950    -0.9720 C.3   1 <1>  -0.2400 
 20 H        4.0300     1.5470    -1.3550 H     1 <1>   0.1500 
 21 H        3.9640     4.0750    -1.2040 H     1 <1>   0.1500 
 22 H        3.5660     6.0700    -0.2930 H     1 <1>   0.3700 
 23 H        4.7980     7.4360     1.6170 H     1 <1>   0.0800 
 24 H        5.1680     9.1400     1.6370 H     1 <1>   0.0800 
 25 H        1.0750    10.6510     0.1640 H     1 <1>   0.1500 
 26 H        0.0440     7.1190    -1.0000 H     1 <1>   0.0800 
 27 H       -0.4650     8.7870    -1.0910 H     1 <1>   0.0800 
 28 H       -0.6470     7.8930     0.4050 H     1 <1>   0.0800 
 29 H        5.7730     9.0840    -0.7390 H     1 <1>   0.0800 
 30 H        5.3510     7.3930    -0.8400 H     1 <1>   0.0800 
 31 H        7.1410     6.8580     0.8070 H     1 <1>   0.0800 
 32 H        7.5670     8.5480     0.8760 H     1 <1>   0.0800 
 33 H        7.7110     6.8110    -1.6110 H     1 <1>   0.0800 
 34 H        9.0700     7.3340    -0.6490 H     1 <1>   0.0800 
 35 H        8.1340     8.5070    -1.5390 H     1 <1>   0.0800 
@<TRIPOS>BOND
  1   1   2  1   
  2   2   3  1   
  3   2   4  2   
  4   3   5  1   
  5   4   6  1   
  6   4  20  1   
  7   5   6  2   
  8   5   7  1   
  9   6  21  1   
 10   7   8  2   
 11   7   9  am  
 12   9  10  1   
 13   9  22  1   
 14  10  11  1   
 15  10  12  2   
 16  11  13  1   
 17  11  14  1   
 18  12  15  1   
 19  12  16  1   
 20  13  15  2   
 21  14  17  1   
 22  14  23  1   
 23  14  24  1   
 24  15  25  1   
 25  16  26  1   
 26  16  27  1   
 27  16  28  1   
 28  17  18  1   
 29  17  29  1   
 30  17  30  1   
 31  18  19  1   
 32  18  31  1   
 33  18  32  1   
 34  19  33  1   
 35  19  34  1   
 36  19  35  1   
@<TRIPOS>SUBSTRUCTURE
  1 ****   9 GROUP 4 **** **** 0

# MOE 2024.06 (io_trps.svl 2023.06)
