@<TRIPOS>MOLECULE
NONAME
52 53 1 0 0 
SMALL
USER_CHARGES


@<TRIPOS>ATOM
  1 O        0.3730    -0.4920    -0.6180 O.2   1 <1>  -0.5700 
  2 C        1.3700    -0.9160    -0.0780 C.2   1 <1>   0.5690 
  3 N        2.4480    -0.1130     0.1910 N.am  1 <1>  -0.6600 
  4 C        1.3500    -2.4060     0.3100 C.3   1 <1>   0.4040 
  5 C        3.7560    -0.5500     0.7790 C.3   1 <1>   0.1400 
  6 C        2.4200     1.3560    -0.1170 C.3   1 <1>   0.1400 
  7 N       -0.0530    -2.9620     0.4350 N.4   1 <1>  -0.9590 
  8 C        4.9460     0.0010    -0.0350 C.3   1 <1>   0.2000 
  9 C        3.6910     1.7990    -0.8690 C.3   1 <1>   0.2000 
 10 C       -0.0810    -4.4450     0.3200 C.3   1 <1>   0.3430 
 11 C       -0.7290    -2.4410     1.6660 C.3   1 <1>   0.2630 
 12 O        4.8270     1.3820    -0.1730 O.3   1 <1>  -0.5600 
 13 C        6.2830    -0.2610     0.6540 C.3   1 <1>  -0.2400 
 14 C        3.7810     3.3170    -0.9970 C.3   1 <1>  -0.2400 
 15 C       -1.5000    -4.9320     0.0260 C.3   1 <1>  -0.1600 
 16 C       -1.4990    -6.4490    -0.2120 C.3   1 <1>  -0.1600 
 17 C       -2.8820    -6.9960    -0.5780 C.3   1 <1>   0.2000 
 18 O       -2.7540    -8.3540    -0.7940 O.3   1 <1>  -0.5600 
 19 C       -3.9340    -6.8880     0.5170 C.3   1 <1>  -0.1600 
 20 C       -3.9800    -8.9950    -0.6320 C.3   1 <1>   0.1200 
 21 C       -4.8420    -8.0690     0.2240 C.3   1 <1>  -0.1600 
 22 H        1.8770    -2.5350     1.2380 H     1 <1>   0.0800 
 23 H        1.8790    -2.9430    -0.4580 H     1 <1>   0.0800 
 24 H        3.8280    -0.1790     1.7870 H     1 <1>   0.0800 
 25 H        3.8290    -1.6210     0.8120 H     1 <1>   0.0800 
 26 H        1.5590     1.6050    -0.7130 H     1 <1>   0.0800 
 27 H        2.3490     1.9070     0.8050 H     1 <1>   0.0800 
 28 H       -0.5570    -2.5500    -0.3730 H     1 <1>   0.4500 
 29 H        4.9600    -0.4360    -1.0190 H     1 <1>   0.0800 
 30 H        3.7110     1.3560    -1.8500 H     1 <1>   0.0800 
 31 H        0.5610    -4.7560    -0.4890 H     1 <1>   0.0800 
 32 H        0.2800    -4.8970     1.2300 H     1 <1>   0.0800 
 33 H       -0.2360    -2.8060     2.5520 H     1 <1>   0.0800 
 34 H       -1.7600    -2.7550     1.6900 H     1 <1>   0.0800 
 35 H       -0.7060    -1.3620     1.6730 H     1 <1>   0.0800 
 36 H        6.3040     0.2060     1.6230 H     1 <1>   0.0800 
 37 H        7.0820     0.1390     0.0560 H     1 <1>   0.0800 
 38 H        6.4440    -1.3160     0.7720 H     1 <1>   0.0800 
 39 H        3.8010     3.7750    -0.0250 H     1 <1>   0.0800 
 40 H        2.9350     3.6940    -1.5420 H     1 <1>   0.0800 
 41 H        4.6760     3.5830    -1.5310 H     1 <1>   0.0800 
 42 H       -2.1480    -4.7090     0.8540 H     1 <1>   0.0800 
 43 H       -1.8760    -4.4420    -0.8560 H     1 <1>   0.0800 
 44 H       -1.1490    -6.9590     0.6690 H     1 <1>   0.0800 
 45 H       -0.8310    -6.6840    -1.0230 H     1 <1>   0.0800 
 46 H       -3.2440    -6.5580    -1.4940 H     1 <1>   0.0800 
 47 H       -3.4750    -7.0110     1.4820 H     1 <1>   0.0800 
 48 H       -4.4580    -5.9490     0.4850 H     1 <1>   0.0800 
 49 H       -4.4130    -9.1490    -1.6050 H     1 <1>   0.0800 
 50 H       -3.8050    -9.9430    -0.1520 H     1 <1>   0.0800 
 51 H       -5.7050    -7.7620    -0.3400 H     1 <1>   0.0800 
 52 H       -5.1680    -8.5590     1.1240 H     1 <1>   0.0800 
@<TRIPOS>BOND
  1   1   2  2   
  2   2   3  am  
  3   2   4  1   
  4   3   5  1   
  5   3   6  1   
  6   4   7  1   
  7   4  22  1   
  8   4  23  1   
  9   5   8  1   
 10   5  24  1   
 11   5  25  1   
 12   6   9  1   
 13   6  26  1   
 14   6  27  1   
 15   7  10  1   
 16   7  11  1   
 17   7  28  1   
 18   8  12  1   
 19   8  13  1   
 20   8  29  1   
 21   9  12  1   
 22   9  14  1   
 23   9  30  1   
 24  10  15  1   
 25  10  31  1   
 26  10  32  1   
 27  11  33  1   
 28  11  34  1   
 29  11  35  1   
 30  13  36  1   
 31  13  37  1   
 32  13  38  1   
 33  14  39  1   
 34  14  40  1   
 35  14  41  1   
 36  15  16  1   
 37  15  42  1   
 38  15  43  1   
 39  16  17  1   
 40  16  44  1   
 41  16  45  1   
 42  17  18  1   
 43  17  19  1   
 44  17  46  1   
 45  18  20  1   
 46  19  21  1   
 47  19  47  1   
 48  19  48  1   
 49  20  21  1   
 50  20  49  1   
 51  20  50  1   
 52  21  51  1   
 53  21  52  1   
@<TRIPOS>SUBSTRUCTURE
  1 ****   7 GROUP 4 **** **** 0

# MOE 2024.06 (io_trps.svl 2023.06)
