@<TRIPOS>MOLECULE
NONAME
62 65 1 0 0 
SMALL
USER_CHARGES


@<TRIPOS>ATOM
  1 O       -1.5860    -0.0050     0.1220 O.3   1 <1>  -0.3630 
  2 C       -2.0490     1.2670     0.0030 C.ar  1 <1>   0.0830 
  3 C       -0.4930    -0.3520     0.9450 C.3   1 <1>   0.2640 
  4 C       -3.1410     1.4810    -0.8390 C.ar  1 <1>  -0.1440 
  5 C       -1.4870     2.3370     0.6940 C.ar  1 <1>  -0.1500 
  6 C       -0.3770    -1.8710     0.9300 C.ar  1 <1>  -0.1440 
  7 C       -3.6650     2.7590    -0.9670 C.ar  1 <1>  -0.1500 
  8 C       -3.7650     0.3440    -1.6290 C.3   1 <1>   0.4870 
  9 C       -2.0190     3.6050     0.5560 C.ar  1 <1>  -0.1500 
 10 C       -0.6920    -2.6170     2.0560 C.ar  1 <1>  -0.1500 
 11 C        0.0880    -2.5220    -0.2040 C.ar  1 <1>  -0.1500 
 12 C       -3.1070     3.8160    -0.2710 C.ar  1 <1>  -0.1500 
 13 N       -4.1540    -0.7070    -0.6560 N.4   1 <1>  -0.9590 
 14 C       -0.5230    -3.9910     2.0570 C.ar  1 <1>  -0.1500 
 15 C        0.2550    -3.8960    -0.2060 C.ar  1 <1>  -0.1500 
 16 C       -3.4900    -2.0170    -0.9680 C.3   1 <1>   0.3430 
 17 C       -5.6220    -0.8360    -0.4710 C.3   1 <1>   0.3430 
 18 C       -0.0430    -4.6320     0.9270 C.ar  1 <1>  -0.1500 
 19 C       -3.7420    -3.0730     0.1450 C.3   1 <1>   0.4230 
 20 C       -5.8910    -1.8250     0.6720 C.3   1 <1>  -0.1600 
 21 N       -3.0100    -4.3930    -0.0320 N.4   1 <1>  -0.9590 
 22 C       -5.2560    -3.2330     0.4740 C.3   1 <1>   0.0000 
 23 C       -3.5210    -5.4960     0.8470 C.3   1 <1>   0.3430 
 24 C       -2.9120    -4.8830    -1.4460 C.3   1 <1>   0.2630 
 25 C       -5.3850    -4.0210     1.8090 C.3   1 <1>  -0.1600 
 26 C       -6.0520    -4.0050    -0.6190 C.3   1 <1>   0.1200 
 27 C       -4.1800    -4.9380     2.1110 C.3   1 <1>  -0.1600 
 28 O       -5.8230    -3.4860    -1.8850 O.3   1 <1>  -0.6800 
 29 H        0.3970     0.1080     0.5480 H     1 <1>   0.0800 
 30 H       -0.6780     0.0100     1.9420 H     1 <1>   0.0800 
 31 H       -0.6390     2.2150     1.3420 H     1 <1>   0.1500 
 32 H       -4.5070     2.9540    -1.6110 H     1 <1>   0.1500 
 33 H       -3.0380    -0.0350    -2.3290 H     1 <1>   0.0800 
 34 H       -4.6230     0.6940    -2.1780 H     1 <1>   0.0800 
 35 H       -1.5860     4.4350     1.0910 H     1 <1>   0.1500 
 36 H       -1.0430    -2.1300     2.9520 H     1 <1>   0.1500 
 37 H        0.3500    -1.9540    -1.0830 H     1 <1>   0.1500 
 38 H       -3.5160     4.8080    -0.3740 H     1 <1>   0.1500 
 39 H       -3.7380    -0.3450     0.2180 H     1 <1>   0.4500 
 40 H       -0.7370    -4.5590     2.9480 H     1 <1>   0.1500 
 41 H        0.6480    -4.3890    -1.0820 H     1 <1>   0.1500 
 42 H       -3.8620    -2.3860    -1.9080 H     1 <1>   0.0800 
 43 H       -2.4280    -1.8640    -1.0600 H     1 <1>   0.0800 
 44 H       -6.0500     0.1240    -0.2270 H     1 <1>   0.0800 
 45 H       -6.0810    -1.1900    -1.3810 H     1 <1>   0.0800 
 46 H        0.1220    -5.6980     0.9380 H     1 <1>   0.1500 
 47 H       -3.3150    -2.6310     1.0310 H     1 <1>   0.0800 
 48 H       -5.5220    -1.3740     1.5770 H     1 <1>   0.0800 
 49 H       -6.9560    -1.9230     0.7920 H     1 <1>   0.0800 
 50 H       -2.0360    -4.2100     0.2900 H     1 <1>   0.4500 
 51 H       -4.2510    -6.0810     0.3110 H     1 <1>   0.0800 
 52 H       -2.7090    -6.1530     1.1190 H     1 <1>   0.0800 
 53 H       -3.8930    -5.0480    -1.8590 H     1 <1>   0.0800 
 54 H       -2.3650    -5.8120    -1.4810 H     1 <1>   0.0800 
 55 H       -2.3930    -4.1660    -2.0610 H     1 <1>   0.0800 
 56 H       -5.4870    -3.3500     2.6460 H     1 <1>   0.0800 
 57 H       -6.2850    -4.6140     1.7980 H     1 <1>   0.0800 
 58 H       -7.1100    -3.9430    -0.4230 H     1 <1>   0.0800 
 59 H       -5.7820    -5.0460    -0.6410 H     1 <1>   0.0800 
 60 H       -4.5080    -5.7580     2.7270 H     1 <1>   0.0800 
 61 H       -3.4410    -4.4000     2.6790 H     1 <1>   0.0800 
 62 H       -6.4600    -3.8710    -2.5310 H     1 <1>   0.4000 
@<TRIPOS>BOND
  1   1   2  1   
  2   1   3  1   
  3   2   4  ar  
  4   2   5  ar  
  5   3   6  1   
  6   3  29  1   
  7   3  30  1   
  8   4   7  ar  
  9   4   8  1   
 10   5   9  ar  
 11   5  31  1   
 12   6  10  ar  
 13   6  11  ar  
 14   7  12  ar  
 15   7  32  1   
 16   8  13  1   
 17   8  33  1   
 18   8  34  1   
 19   9  12  ar  
 20   9  35  1   
 21  10  14  ar  
 22  10  36  1   
 23  11  15  ar  
 24  11  37  1   
 25  12  38  1   
 26  13  16  1   
 27  13  17  1   
 28  13  39  1   
 29  14  18  ar  
 30  14  40  1   
 31  15  18  ar  
 32  15  41  1   
 33  16  19  1   
 34  16  42  1   
 35  16  43  1   
 36  17  20  1   
 37  17  44  1   
 38  17  45  1   
 39  18  46  1   
 40  19  21  1   
 41  19  22  1   
 42  19  47  1   
 43  20  22  1   
 44  20  48  1   
 45  20  49  1   
 46  21  23  1   
 47  21  24  1   
 48  21  50  1   
 49  22  25  1   
 50  22  26  1   
 51  23  27  1   
 52  23  51  1   
 53  23  52  1   
 54  24  53  1   
 55  24  54  1   
 56  24  55  1   
 57  25  27  1   
 58  25  56  1   
 59  25  57  1   
 60  26  28  1   
 61  26  58  1   
 62  26  59  1   
 63  27  60  1   
 64  27  61  1   
 65  28  62  1   
@<TRIPOS>SUBSTRUCTURE
  1 ****  16 GROUP 4 **** **** 0

# MOE 2024.06 (io_trps.svl 2023.06)
