@<TRIPOS>MOLECULE
NONAME
51 53 1 0 0 
SMALL
USER_CHARGES


@<TRIPOS>ATOM
  1 O        0.1090     0.5630    -1.1500 O.3   1 <1>  -0.3630 
  2 C        0.0460     1.8050    -0.6760 C.ar  1 <1>   0.3920 
  3 C       -1.0280    -0.2660    -1.3080 C.3   1 <1>   0.0400 
  4 N       -1.1380     2.3050    -0.3280 N.ar  1 <1>  -0.6200 
  5 C        1.2260     2.5100    -0.5710 C.ar  1 <1>  -0.1500 
  6 C       -1.1270     3.5340     0.1220 C.ar  1 <1>   0.7710 
  7 C        1.2050     3.8000    -0.0820 C.ar  1 <1>   0.4610 
  8 N       -0.0090     4.2730     0.2380 N.ar  1 <1>  -0.1790 
  9 N       -2.3060     4.0510     0.4730 N.pl3 1 <1>  -0.9000 
 10 N        2.3040     4.5980     0.0760 N.pl3 1 <1>  -0.8380 
 11 C        2.3950     5.8620     0.8690 C.3   1 <1>   0.4330 
 12 C        3.6680     4.2080    -0.3910 C.3   1 <1>   0.2090 
 13 C        1.3000     6.8680     0.5040 C.ar  1 <1>  -0.1430 
 14 C        3.7900     6.4060     0.5850 C.3   1 <1>  -0.1600 
 15 C        4.6290     5.1690     0.2950 C.3   1 <1>  -0.1600 
 16 C        0.5830     7.5110     1.5020 C.ar  1 <1>  -0.1500 
 17 C        1.0120     7.1630    -0.8210 C.ar  1 <1>  -0.1500 
 18 C       -0.3890     8.4440     1.1830 C.ar  1 <1>  -0.1500 
 19 C        0.0400     8.0940    -1.1430 C.ar  1 <1>  -0.1500 
 20 C       -0.6580     8.7550    -0.1420 C.ar  1 <1>  -0.1430 
 21 C       -1.6850     9.8220    -0.4970 C.3   1 <1>   0.4860 
 22 N       -1.0930    11.1700    -0.2540 N.4   1 <1>  -0.9590 
 23 C       -2.1270    12.2470    -0.3490 C.3   1 <1>   0.2630 
 24 C        0.0530    11.4520    -1.1760 C.3   1 <1>   0.2630 
 25 H       -0.7050    -1.2110    -1.7070 H     1 <1>   0.0800 
 26 H       -1.7130     0.2070    -1.9910 H     1 <1>   0.0800 
 27 H       -1.4930    -0.4100    -0.3490 H     1 <1>   0.0800 
 28 H        2.1380     2.0340    -0.8730 H     1 <1>   0.1500 
 29 H       -0.0820     5.2500     0.4920 H     1 <1>   0.4570 
 30 H       -2.4930     4.9410     0.9330 H     1 <1>   0.4000 
 31 H       -3.1320     3.4520     0.3680 H     1 <1>   0.4000 
 32 H        2.3350     5.6070     1.9150 H     1 <1>   0.0800 
 33 H        3.7270     4.3280    -1.4610 H     1 <1>   0.0800 
 34 H        3.9060     3.1900    -0.1290 H     1 <1>   0.0800 
 35 H        4.1730     6.9720     1.4170 H     1 <1>   0.0800 
 36 H        3.7700     7.0400    -0.2830 H     1 <1>   0.0800 
 37 H        5.4840     5.3880    -0.3220 H     1 <1>   0.0800 
 38 H        4.9710     4.7290     1.2160 H     1 <1>   0.0800 
 39 H        0.7880     7.3040     2.5420 H     1 <1>   0.1500 
 40 H        1.5580     6.6740    -1.6130 H     1 <1>   0.1500 
 41 H       -0.9230     8.9320     1.9830 H     1 <1>   0.1500 
 42 H       -0.1540     8.3040    -2.1830 H     1 <1>   0.1500 
 43 H       -2.5610     9.6890     0.1180 H     1 <1>   0.0800 
 44 H       -1.9780     9.7260    -1.5300 H     1 <1>   0.0800 
 45 H       -0.7170    11.1560     0.7060 H     1 <1>   0.4500 
 46 H       -2.5440    12.2820    -1.3430 H     1 <1>   0.0800 
 47 H       -1.6880    13.2070    -0.1280 H     1 <1>   0.0800 
 48 H       -2.9240    12.0680     0.3540 H     1 <1>   0.0800 
 49 H       -0.2780    11.4530    -2.2020 H     1 <1>   0.0800 
 50 H        0.8210    10.7030    -1.0610 H     1 <1>   0.0800 
 51 H        0.4850    12.4150    -0.9530 H     1 <1>   0.0800 
@<TRIPOS>BOND
  1   1   2  1   
  2   1   3  1   
  3   2   4  ar  
  4   2   5  ar  
  5   3  25  1   
  6   3  26  1   
  7   3  27  1   
  8   4   6  ar  
  9   5   7  ar  
 10   5  28  1   
 11   6   8  ar  
 12   6   9  1   
 13   7   8  ar  
 14   7  10  1   
 15   8  29  1   
 16   9  30  1   
 17   9  31  1   
 18  10  11  1   
 19  10  12  1   
 20  11  13  1   
 21  11  14  1   
 22  11  32  1   
 23  12  15  1   
 24  12  33  1   
 25  12  34  1   
 26  13  16  ar  
 27  13  17  ar  
 28  14  15  1   
 29  14  35  1   
 30  14  36  1   
 31  15  37  1   
 32  15  38  1   
 33  16  18  ar  
 34  16  39  1   
 35  17  19  ar  
 36  17  40  1   
 37  18  20  ar  
 38  18  41  1   
 39  19  20  ar  
 40  19  42  1   
 41  20  21  1   
 42  21  22  1   
 43  21  43  1   
 44  21  44  1   
 45  22  23  1   
 46  22  24  1   
 47  22  45  1   
 48  23  46  1   
 49  23  47  1   
 50  23  48  1   
 51  24  49  1   
 52  24  50  1   
 53  24  51  1   
@<TRIPOS>SUBSTRUCTURE
  1 ****  13 GROUP 4 **** **** 0

# MOE 2024.06 (io_trps.svl 2023.06)
