@<TRIPOS>MOLECULE
NONAME
56 59 1 0 0 
SMALL
USER_CHARGES


@<TRIPOS>ATOM
  1 O       -0.3930     0.2420     0.7930 O.2   1 <1>  -0.5700 
  2 C       -1.4450     0.7910     0.5690 C.2   1 <1>   0.5690 
  3 N       -2.6270     0.1200     0.3780 N.am  1 <1>  -0.5470 
  4 C       -1.4320     2.3300     0.4940 C.3   1 <1>   0.4040 
  5 C       -2.8940    -1.2590     0.3570 C.ar  1 <1>   0.1170 
  6 N       -0.0570     2.9360     0.3160 N.4   1 <1>  -0.9590 
  7 C       -1.9270    -2.2230     0.0850 C.ar  1 <1>  -0.1500 
  8 C       -4.1960    -1.6830     0.6020 C.ar  1 <1>  -0.1500 
  9 C        0.0630     4.3970     0.6060 C.3   1 <1>   0.4230 
 10 C        0.6300     2.5270    -0.9350 C.3   1 <1>   0.3430 
 11 C       -2.2510    -3.5680     0.0640 C.ar  1 <1>  -0.1500 
 12 C       -4.5240    -3.0270     0.5800 C.ar  1 <1>  -0.1500 
 13 C        1.5020     4.9220     0.3450 C.3   1 <1>  -0.0800 
 14 C       -1.0200     5.1950    -0.1470 C.3   1 <1>  -0.1600 
 15 C        2.1380     2.7710    -0.8110 C.3   1 <1>  -0.1600 
 16 C       -3.5500    -3.9720     0.3110 C.ar  1 <1>  -0.1500 
 17 C        2.5330     3.7670     0.3000 C.3   1 <1>   0.4240 
 18 C        1.5840     5.8350    -0.9030 C.3   1 <1>  -0.1600 
 19 C       -0.7150     6.6980    -0.1210 C.3   1 <1>  -0.1600 
 20 O        2.4340     3.0760     1.4940 O.3   1 <1>  -0.6800 
 21 C        3.9920     4.2570     0.2510 C.ar  1 <1>  -0.1440 
 22 C        0.6230     7.0320    -0.8010 C.3   1 <1>  -0.1600 
 23 C        4.8830     3.9080    -0.7620 C.ar  1 <1>  -0.1500 
 24 C        4.4600     5.0820     1.2710 C.ar  1 <1>  -0.1500 
 25 C        6.1850     4.3790    -0.7590 C.ar  1 <1>  -0.1500 
 26 C        5.7600     5.5540     1.2750 C.ar  1 <1>  -0.1500 
 27 C        6.6250     5.2040     0.2570 C.ar  1 <1>  -0.1500 
 28 H       -3.4750     0.6800     0.2860 H     1 <1>   0.3700 
 29 H       -1.8610     2.7010     1.4080 H     1 <1>   0.0800 
 30 H       -2.0640     2.6380    -0.3210 H     1 <1>   0.0800 
 31 H        0.5380     2.4880     1.0460 H     1 <1>   0.4500 
 32 H       -0.9110    -1.9380    -0.1160 H     1 <1>   0.1500 
 33 H       -4.9660    -0.9660     0.8160 H     1 <1>   0.1500 
 34 H       -0.1180     4.5330     1.6610 H     1 <1>   0.0800 
 35 H        0.4610     1.4790    -1.1320 H     1 <1>   0.0800 
 36 H        0.2370     3.0950    -1.7620 H     1 <1>   0.0800 
 37 H       -1.4910    -4.3010    -0.1450 H     1 <1>   0.1500 
 38 H       -5.5350    -3.3410     0.7730 H     1 <1>   0.1500 
 39 H        1.7480     5.5520     1.1810 H     1 <1>   0.0800 
 40 H       -1.0790     4.8790    -1.1740 H     1 <1>   0.0800 
 41 H       -1.9780     5.0380     0.3160 H     1 <1>   0.0800 
 42 H        2.4540     3.1470    -1.7660 H     1 <1>   0.0800 
 43 H        2.6470     1.8350    -0.6580 H     1 <1>   0.0800 
 44 H       -3.8020    -5.0190     0.2950 H     1 <1>   0.1500 
 45 H        2.5860     6.2110    -1.0280 H     1 <1>   0.0800 
 46 H        1.3400     5.2770    -1.7890 H     1 <1>   0.0800 
 47 H       -1.5070     7.2440    -0.6070 H     1 <1>   0.0800 
 48 H       -0.6810     7.0320     0.9030 H     1 <1>   0.0800 
 49 H        3.3440     2.8180     1.7560 H     1 <1>   0.4000 
 50 H        1.0990     7.8270    -0.2510 H     1 <1>   0.0800 
 51 H        0.4380     7.4060    -1.7940 H     1 <1>   0.0800 
 52 H        4.6040     3.2640    -1.5740 H     1 <1>   0.1500 
 53 H        3.8170     5.3690     2.0850 H     1 <1>   0.1500 
 54 H        6.8600     4.1020    -1.5510 H     1 <1>   0.1500 
 55 H        6.1010     6.1930     2.0720 H     1 <1>   0.1500 
 56 H        7.6370     5.5700     0.2570 H     1 <1>   0.1500 
@<TRIPOS>BOND
  1   1   2  2   
  2   2   3  am  
  3   2   4  1   
  4   3   5  1   
  5   3  28  1   
  6   4   6  1   
  7   4  29  1   
  8   4  30  1   
  9   5   7  ar  
 10   5   8  ar  
 11   6   9  1   
 12   6  10  1   
 13   6  31  1   
 14   7  11  ar  
 15   7  32  1   
 16   8  12  ar  
 17   8  33  1   
 18   9  13  1   
 19   9  14  1   
 20   9  34  1   
 21  10  15  1   
 22  10  35  1   
 23  10  36  1   
 24  11  16  ar  
 25  11  37  1   
 26  12  16  ar  
 27  12  38  1   
 28  13  17  1   
 29  13  18  1   
 30  13  39  1   
 31  14  19  1   
 32  14  40  1   
 33  14  41  1   
 34  15  17  1   
 35  15  42  1   
 36  15  43  1   
 37  16  44  1   
 38  17  20  1   
 39  17  21  1   
 40  18  22  1   
 41  18  45  1   
 42  18  46  1   
 43  19  22  1   
 44  19  47  1   
 45  19  48  1   
 46  20  49  1   
 47  21  23  ar  
 48  21  24  ar  
 49  22  50  1   
 50  22  51  1   
 51  23  25  ar  
 52  23  52  1   
 53  24  26  ar  
 54  24  53  1   
 55  25  27  ar  
 56  25  54  1   
 57  26  27  ar  
 58  26  55  1   
 59  27  56  1   
@<TRIPOS>SUBSTRUCTURE
  1 ****   6 GROUP 4 **** **** 0

# MOE 2024.06 (io_trps.svl 2023.06)
