@<TRIPOS>MOLECULE
NONAME
50 52 1 0 0 
SMALL
USER_CHARGES


@<TRIPOS>ATOM
  1 O        1.1460     0.5090     0.0940 O.2   1 <1>  -0.5700 
  2 C        1.8540    -0.3010    -0.4810 C.2   1 <1>   0.5440 
  3 N        2.9240     0.1620    -1.2220 N.am  1 <1>  -0.6600 
  4 C        1.5690    -1.7140    -0.3580 C.ar  1 <1>   0.0860 
  5 C        4.1020    -0.7020    -1.5590 C.3   1 <1>   0.1400 
  6 C        3.0450     1.6120    -1.5680 C.3   1 <1>   0.1400 
  7 C        1.5170    -2.3370     0.9010 C.ar  1 <1>   0.1000 
  8 C        1.3430    -2.4970    -1.4900 C.ar  1 <1>  -0.1500 
  9 C        4.8610    -1.2050    -0.3130 C.3   1 <1>   0.2000 
 10 C        3.8870     2.3550    -0.5330 C.3   1 <1>   0.1200 
 11 N        1.7150    -1.6150     2.0670 N.pl3 1 <1>  -0.9000 
 12 C        1.2670    -3.7020     0.9920 C.ar  1 <1>  -0.1500 
 13 C        1.0970    -3.8500    -1.3820 C.ar  1 <1>   0.0830 
 14 O        5.5340    -0.1670     0.3210 O.3   1 <1>  -0.5600 
 15 C        5.9600    -2.2090    -0.6290 C.3   1 <1>  -0.1600 
 16 O        3.8940     3.7310    -0.8530 O.3   1 <1>  -0.3630 
 17 C        1.0570    -4.4630    -0.1400 C.ar  1 <1>  -0.1500 
 18 O        0.8950    -4.5710    -2.4980 O.3   1 <1>  -0.5330 
 19 C        6.5170    -0.6910     1.1520 C.3   1 <1>   0.1200 
 20 C        6.9490    -2.0080     0.5110 C.3   1 <1>  -0.1600 
 21 C        4.5730     4.6160    -0.0810 C.ar  1 <1>   0.0830 
 22 C        4.4830     5.9530    -0.4380 C.ar  1 <1>  -0.1500 
 23 C        5.3360     4.2530     1.0260 C.ar  1 <1>  -0.1500 
 24 C        5.1440     6.9210     0.2970 C.ar  1 <1>  -0.1500 
 25 C        5.9970     5.2230     1.7600 C.ar  1 <1>  -0.1500 
 26 C        5.9010     6.5560     1.3970 C.ar  1 <1>  -0.1500 
 27 H        4.7880    -0.1600    -2.1860 H     1 <1>   0.0800 
 28 H        3.7590    -1.5510    -2.1210 H     1 <1>   0.0800 
 29 H        2.0640     2.0530    -1.6000 H     1 <1>   0.0800 
 30 H        3.4930     1.7130    -2.5410 H     1 <1>   0.0800 
 31 H        1.3590    -2.0410    -2.4630 H     1 <1>   0.1500 
 32 H        4.1800    -1.6330     0.4020 H     1 <1>   0.0800 
 33 H        4.9020     2.0060    -0.5570 H     1 <1>   0.0800 
 34 H        3.4610     2.2340     0.4470 H     1 <1>   0.0800 
 35 H        1.2300    -1.9380     2.9070 H     1 <1>   0.4000 
 36 H        1.6070    -0.5930     1.9480 H     1 <1>   0.4000 
 37 H        1.2400    -4.1650     1.9620 H     1 <1>   0.1500 
 38 H        6.4240    -1.9640    -1.5680 H     1 <1>   0.0800 
 39 H        5.5770    -3.2140    -0.6710 H     1 <1>   0.0800 
 40 H        0.8660    -5.5170    -0.0540 H     1 <1>   0.1500 
 41 H        0.6830    -5.5040    -2.3120 H     1 <1>   0.4500 
 42 H        6.0810    -0.8530     2.1230 H     1 <1>   0.0800 
 43 H        7.3250     0.0170     1.2200 H     1 <1>   0.0800 
 44 H        7.9590    -1.9460     0.1480 H     1 <1>   0.0800 
 45 H        6.8820    -2.8030     1.2330 H     1 <1>   0.0800 
 46 H        3.8910     6.2260    -1.2920 H     1 <1>   0.1500 
 47 H        5.4280     3.2270     1.3290 H     1 <1>   0.1500 
 48 H        5.0680     7.9560     0.0130 H     1 <1>   0.1500 
 49 H        6.5860     4.9410     2.6150 H     1 <1>   0.1500 
 50 H        6.4150     7.3080     1.9690 H     1 <1>   0.1500 
@<TRIPOS>BOND
  1   1   2  2   
  2   2   3  am  
  3   2   4  1   
  4   3   5  1   
  5   3   6  1   
  6   4   7  ar  
  7   4   8  ar  
  8   5   9  1   
  9   5  27  1   
 10   5  28  1   
 11   6  10  1   
 12   6  29  1   
 13   6  30  1   
 14   7  11  1   
 15   7  12  ar  
 16   8  13  ar  
 17   8  31  1   
 18   9  14  1   
 19   9  15  1   
 20   9  32  1   
 21  10  16  1   
 22  10  33  1   
 23  10  34  1   
 24  11  35  1   
 25  11  36  1   
 26  12  17  ar  
 27  12  37  1   
 28  13  17  ar  
 29  13  18  1   
 30  14  19  1   
 31  15  20  1   
 32  15  38  1   
 33  15  39  1   
 34  16  21  1   
 35  17  40  1   
 36  18  41  1   
 37  19  20  1   
 38  19  42  1   
 39  19  43  1   
 40  20  44  1   
 41  20  45  1   
 42  21  22  ar  
 43  21  23  ar  
 44  22  24  ar  
 45  22  46  1   
 46  23  25  ar  
 47  23  47  1   
 48  24  26  ar  
 49  24  48  1   
 50  25  26  ar  
 51  25  49  1   
 52  26  50  1   
@<TRIPOS>SUBSTRUCTURE
  1 ****   3 GROUP 4 **** **** 0

# MOE 2024.06 (io_trps.svl 2023.06)
