@<TRIPOS>MOLECULE
NONAME
56 59 1 0 0 
SMALL
USER_CHARGES


@<TRIPOS>ATOM
  1 O       -0.6320    -0.8880    -0.1410 O.2   1 <1>  -0.5700 
  2 C       -1.3830    -0.2580    -0.8610 C.2   1 <1>   0.7160 
  3 N       -1.9280    -0.8920    -1.9310 N.am  1 <1>  -0.7300 
  4 C       -1.7200     1.1040    -0.5820 C.2   1 <1>  -0.0860 
  5 C       -1.9990    -2.3590    -2.0550 C.3   1 <1>   0.3200 
  6 C       -2.8820     1.7650    -1.0040 C.2   1 <1>   0.3720 
  7 C       -1.0630     2.0570     0.1360 C.2   1 <1>   0.0870 
  8 C       -3.2480    -2.8250    -1.3400 C.2   1 <1>  -0.0400 
  9 N       -2.9040     2.9800    -0.5800 N.2   1 <1>  -0.4100 
 10 N       -3.9130     1.1990    -1.7750 N.pl3 1 <1>  -0.8210 
 11 O       -1.8060     3.1330     0.1060 O.3   1 <1>  -0.0190 
 12 C        0.1940     2.0870     0.8430 C.ar  1 <1>   0.0530 
 13 O       -4.4070    -2.7490    -1.9340 O.3   1 <1>  -0.0190 
 14 C       -3.4450    -3.3130    -0.1070 C.2   1 <1>  -0.1500 
 15 C       -4.6720     2.1500    -2.6560 C.3   1 <1>   0.2090 
 16 C       -4.8630     0.3300    -1.0020 C.3   1 <1>   0.2090 
 17 C        0.3280     2.8260     2.0200 C.ar  1 <1>  -0.1500 
 18 C        1.3220     1.4070     0.3830 C.ar  1 <1>  -0.1500 
 19 N       -5.3740    -3.1430    -1.1580 N.2   1 <1>  -0.4100 
 20 C       -4.8250    -3.4890    -0.0480 C.2   1 <1>   0.1080 
 21 C       -5.8240     2.8580    -1.9110 C.3   1 <1>   0.1200 
 22 C       -5.9730     1.1490    -0.3220 C.3   1 <1>   0.1200 
 23 C        1.5260     2.8790     2.7080 C.ar  1 <1>  -0.1500 
 24 C        2.5220     1.4550     1.0670 C.ar  1 <1>  -0.1500 
 25 C       -5.5910    -4.0010     1.1590 C.3   1 <1>   0.0210 
 26 O       -6.6510     1.9330    -1.2620 O.3   1 <1>  -0.5600 
 27 C        2.6270     2.1920     2.2330 C.ar  1 <1>  -0.1500 
 28 C       -6.2360    -2.8580     1.9660 C.3   1 <1>  -0.0800 
 29 C       -5.1850    -1.9130     2.5700 C.3   1 <1>  -0.2400 
 30 C       -7.1180    -3.4260     3.0850 C.3   1 <1>  -0.2400 
 31 H       -2.7130    -0.3810    -2.3610 H     1 <1>   0.3700 
 32 H       -1.1300    -2.8090    -1.6060 H     1 <1>   0.0800 
 33 H       -2.0350    -2.6410    -3.0930 H     1 <1>   0.0800 
 34 H       -2.7340    -3.5090     0.6760 H     1 <1>   0.1500 
 35 H       -5.0820     1.6040    -3.4870 H     1 <1>   0.0800 
 36 H       -4.0000     2.8900    -3.0530 H     1 <1>   0.0800 
 37 H       -4.3270    -0.2310    -0.2560 H     1 <1>   0.0800 
 38 H       -5.3240    -0.3730    -1.6730 H     1 <1>   0.0800 
 39 H       -0.5220     3.3650     2.4000 H     1 <1>   0.1500 
 40 H        1.2610     0.8330    -0.5230 H     1 <1>   0.1500 
 41 H       -6.4310     3.4070    -2.6080 H     1 <1>   0.0800 
 42 H       -5.4380     3.5450    -1.1790 H     1 <1>   0.0800 
 43 H       -5.5600     1.7930     0.4350 H     1 <1>   0.0800 
 44 H       -6.6900     0.4900     0.1340 H     1 <1>   0.0800 
 45 H        1.6020     3.4550     3.6140 H     1 <1>   0.1500 
 46 H        3.3760     0.9170     0.6920 H     1 <1>   0.1500 
 47 H       -4.9290    -4.5680     1.7880 H     1 <1>   0.0800 
 48 H       -6.3590    -4.6660     0.8060 H     1 <1>   0.0800 
 49 H        3.5610     2.2290     2.7660 H     1 <1>   0.1500 
 50 H       -6.8640    -2.2890     1.3000 H     1 <1>   0.0800 
 51 H       -4.5260    -2.4500     3.2300 H     1 <1>   0.0800 
 52 H       -5.6670    -1.1310     3.1310 H     1 <1>   0.0800 
 53 H       -4.5960    -1.4520     1.7990 H     1 <1>   0.0800 
 54 H       -6.5300    -4.0030     3.7780 H     1 <1>   0.0800 
 55 H       -7.8850    -4.0590     2.6740 H     1 <1>   0.0800 
 56 H       -7.5970    -2.6280     3.6250 H     1 <1>   0.0800 
@<TRIPOS>BOND
  1   1   2  2   
  2   2   3  am  
  3   2   4  1   
  4   3   5  1   
  5   3  31  1   
  6   4   6  1   
  7   4   7  2   
  8   5   8  1   
  9   5  32  1   
 10   5  33  1   
 11   6   9  2   
 12   6  10  1   
 13   7  11  1   
 14   7  12  1   
 15   8  13  1   
 16   8  14  2   
 17   9  11  1   
 18  10  15  1   
 19  10  16  1   
 20  12  17  ar  
 21  12  18  ar  
 22  13  19  1   
 23  14  20  1   
 24  14  34  1   
 25  15  21  1   
 26  15  35  1   
 27  15  36  1   
 28  16  22  1   
 29  16  37  1   
 30  16  38  1   
 31  17  23  ar  
 32  17  39  1   
 33  18  24  ar  
 34  18  40  1   
 35  19  20  2   
 36  20  25  1   
 37  21  26  1   
 38  21  41  1   
 39  21  42  1   
 40  22  26  1   
 41  22  43  1   
 42  22  44  1   
 43  23  27  ar  
 44  23  45  1   
 45  24  27  ar  
 46  24  46  1   
 47  25  28  1   
 48  25  47  1   
 49  25  48  1   
 50  27  49  1   
 51  28  29  1   
 52  28  30  1   
 53  28  50  1   
 54  29  51  1   
 55  29  52  1   
 56  29  53  1   
 57  30  54  1   
 58  30  55  1   
 59  30  56  1   
@<TRIPOS>SUBSTRUCTURE
  1 ****   4 GROUP 4 **** **** 0

# MOE 2024.06 (io_trps.svl 2023.06)
