@<TRIPOS>MOLECULE
NONAME
41 43 1 0 0 
SMALL
USER_CHARGES


@<TRIPOS>ATOM
  1 S       -0.1230    -0.2140    -0.9470 S.o2  1 <1>   1.4470 
  2 O        0.4200    -1.4780    -1.4040 O.2   1 <1>  -0.6500 
  3 O       -1.0010     0.4810    -1.8670 O.2   1 <1>  -0.6500 
  4 N       -0.9460    -0.5100     0.5150 N.am  1 <1>  -0.8490 
  5 C        1.2890     0.8060    -0.4540 C.ar  1 <1>  -0.0090 
  6 C       -1.0610    -1.9140     0.9390 C.3   1 <1>   0.1960 
  7 C       -2.1800     0.2630     0.7400 C.3   1 <1>   0.1960 
  8 C        1.1000     2.1390    -0.0310 C.ar  1 <1>   0.3100 
  9 C        2.5620     0.2780    -0.4720 C.ar  1 <1>  -0.1500 
 10 C       -2.1450    -2.6840     0.1690 C.3   1 <1>  -0.1860 
 11 C       -3.4610    -0.5530     0.5090 C.3   1 <1>  -0.1600 
 12 N       -0.1470     2.6840     0.0100 N.ar  1 <1>  -0.6200 
 13 C        2.2330     2.8990     0.3500 C.ar  1 <1>   0.0000 
 14 C        3.6820     1.0230    -0.0950 C.ar  1 <1>  -0.1430 
 15 C       -2.6480    -3.7520     1.1220 C.2   1 <1>   0.9060 
 16 C       -3.2120    -1.7390    -0.4180 C.3   1 <1>   0.2000 
 17 C       -0.2800     3.9160     0.3930 C.ar  1 <1>   0.1600 
 18 C        3.5120     2.3150     0.3090 C.ar  1 <1>  -0.1500 
 19 C        2.0490     4.2300     0.7630 C.ar  1 <1>  -0.1500 
 20 C        5.0520     0.3720    -0.1450 C.3   1 <1>  -0.0960 
 21 O       -1.8390    -4.5940     1.5220 O.co2 1 <1>  -0.9000 
 22 O       -3.8230    -3.7420     1.5140 O.co2 1 <1>  -0.9000 
 23 O       -4.4060    -2.4000    -0.6000 O.3   1 <1>  -0.6800 
 24 C        0.7870     4.7340     0.7810 C.ar  1 <1>  -0.1500 
 25 H       -0.1160    -2.4230     0.8460 H     1 <1>   0.0800 
 26 H       -1.3110    -1.9180     1.9880 H     1 <1>   0.0800 
 27 H       -2.1780     0.6180     1.7560 H     1 <1>   0.0800 
 28 H       -2.1990     1.1320     0.1070 H     1 <1>   0.0800 
 29 H        2.7130    -0.7420    -0.7850 H     1 <1>   0.1500 
 30 H       -1.6760    -3.1980    -0.6470 H     1 <1>   0.0800 
 31 H       -4.2170     0.0860     0.0920 H     1 <1>   0.0800 
 32 H       -3.8150    -0.9190     1.4570 H     1 <1>   0.0800 
 33 H       -2.8960    -1.3770    -1.3820 H     1 <1>   0.0800 
 34 H       -1.2710     4.3360     0.4140 H     1 <1>   0.1500 
 35 H        4.3560     2.9130     0.6040 H     1 <1>   0.1500 
 36 H        2.8990     4.8220     1.0530 H     1 <1>   0.1500 
 37 H        5.8180     1.0620     0.1600 H     1 <1>   0.0800 
 38 H        5.2670     0.0450    -1.1470 H     1 <1>   0.0800 
 39 H        5.0780    -0.4800     0.5110 H     1 <1>   0.0800 
 40 H       -4.5020    -2.9970     0.2040 H     1 <1>   0.4000 
 41 H        0.5870     5.7460     1.0850 H     1 <1>   0.1500 
@<TRIPOS>BOND
  1   1   2  2   
  2   1   3  2   
  3   1   4  am  
  4   1   5  1   
  5   4   6  1   
  6   4   7  1   
  7   5   8  ar  
  8   5   9  ar  
  9   6  10  1   
 10   6  25  1   
 11   6  26  1   
 12   7  11  1   
 13   7  27  1   
 14   7  28  1   
 15   8  12  ar  
 16   8  13  ar  
 17   9  14  ar  
 18   9  29  1   
 19  10  15  1   
 20  10  16  1   
 21  10  30  1   
 22  11  16  1   
 23  11  31  1   
 24  11  32  1   
 25  12  17  ar  
 26  13  18  ar  
 27  13  19  ar  
 28  14  18  ar  
 29  14  20  1   
 30  15  21  ar  
 31  15  22  ar  
 32  16  23  1   
 33  16  33  1   
 34  17  24  ar  
 35  17  34  1   
 36  18  35  1   
 37  19  24  ar  
 38  19  36  1   
 39  20  37  1   
 40  20  38  1   
 41  20  39  1   
 42  23  40  1   
 43  24  41  1   
@<TRIPOS>SUBSTRUCTURE
  1 ****   4 GROUP 4 **** **** 0

# MOE 2024.06 (io_trps.svl 2023.06)
