@<TRIPOS>MOLECULE
NONAME
47 48 1 0 0 
SMALL
USER_CHARGES


@<TRIPOS>ATOM
  1 S       -0.8210    -0.3560     0.9400 S.o2  1 <1>   1.4470 
  2 O       -1.5830    -0.5630     2.1510 O.2   1 <1>  -0.6500 
  3 O        0.2440    -1.2650     0.5840 O.2   1 <1>  -0.6500 
  4 N       -1.8920    -0.4690    -0.3490 N.am  1 <1>  -0.9140 
  5 C       -0.2480     1.3620     0.8500 C.ar  1 <1>  -0.0090 
  6 C       -2.9750    -1.4300    -0.1930 C.3   1 <1>   0.1960 
  7 C        1.0830     1.6690     0.5900 C.ar  1 <1>  -0.1500 
  8 C       -1.1320     2.4180     1.0310 C.ar  1 <1>  -0.1500 
  9 C       -2.4610    -2.8650    -0.3190 C.3   1 <1>  -0.1600 
 10 C        1.5160     2.9820     0.5150 C.ar  1 <1>  -0.1500 
 11 C       -0.7060     3.7330     0.9580 C.ar  1 <1>  -0.1500 
 12 C       -3.6260    -3.8490    -0.2720 C.3   1 <1>   0.2090 
 13 C        0.6220     4.0220     0.7000 C.ar  1 <1>  -0.1430 
 14 N       -3.1120    -5.2080    -0.5200 N.pl3 1 <1>  -0.8690 
 15 C        1.0920     5.4630     0.6170 C.3   1 <1>  -0.0970 
 16 C       -3.9850    -6.2870    -0.5970 C.ar  1 <1>   0.4100 
 17 N       -5.1870    -6.0430    -1.0890 N.ar  1 <1>  -0.6200 
 18 C       -3.5610    -7.5820    -0.1460 C.ar  1 <1>   0.4100 
 19 C       -5.9450    -7.1320    -1.1200 C.ar  1 <1>   0.1600 
 20 N       -4.3410    -8.6500    -0.1840 N.ar  1 <1>  -0.6200 
 21 N       -2.2650    -7.7780     0.3580 N.pl3 1 <1>  -0.8380 
 22 C       -5.5400    -8.3810    -0.6860 C.ar  1 <1>   0.1600 
 23 C       -2.1020    -8.7340     1.4870 C.3   1 <1>   0.1290 
 24 C       -1.2010    -7.8970    -0.6730 C.3   1 <1>   0.1290 
 25 H       -1.3090    -0.7810    -1.1230 H     1 <1>   0.4200 
 26 H       -3.6980    -1.2500    -0.9710 H     1 <1>   0.0800 
 27 H       -3.4720    -1.2850     0.7530 H     1 <1>   0.0800 
 28 H        1.7930     0.8720     0.4450 H     1 <1>   0.1500 
 29 H       -2.1680     2.2060     1.2330 H     1 <1>   0.1500 
 30 H       -1.7880    -3.0910     0.4890 H     1 <1>   0.0800 
 31 H       -1.9490    -2.9830    -1.2580 H     1 <1>   0.0800 
 32 H        2.5520     3.1890     0.3120 H     1 <1>   0.1500 
 33 H       -1.4150     4.5310     1.1020 H     1 <1>   0.1500 
 34 H       -4.3470    -3.6000    -1.0340 H     1 <1>   0.0800 
 35 H       -4.1120    -3.8180     0.6890 H     1 <1>   0.0800 
 36 H       -2.3180    -5.4690     0.0780 H     1 <1>   0.4000 
 37 H        2.1210     5.5420     0.9200 H     1 <1>   0.0800 
 38 H        0.5010     6.0890     1.2610 H     1 <1>   0.0800 
 39 H        1.0000     5.8190    -0.3930 H     1 <1>   0.0800 
 40 H       -6.9390    -7.0160    -1.5120 H     1 <1>   0.1500 
 41 H       -6.2300    -9.2030    -0.7520 H     1 <1>   0.1500 
 42 H       -2.9160    -8.6200     2.1810 H     1 <1>   0.0800 
 43 H       -1.1770    -8.5420     2.0010 H     1 <1>   0.0800 
 44 H       -2.1030    -9.7450     1.1160 H     1 <1>   0.0800 
 45 H       -1.4020    -7.2290    -1.4930 H     1 <1>   0.0800 
 46 H       -1.1680    -8.9050    -1.0490 H     1 <1>   0.0800 
 47 H       -0.2470    -7.6430    -0.2450 H     1 <1>   0.0800 
@<TRIPOS>BOND
  1   1   2  2   
  2   1   3  2   
  3   1   4  am  
  4   1   5  1   
  5   4   6  1   
  6   4  25  1   
  7   5   7  ar  
  8   5   8  ar  
  9   6   9  1   
 10   6  26  1   
 11   6  27  1   
 12   7  10  ar  
 13   7  28  1   
 14   8  11  ar  
 15   8  29  1   
 16   9  12  1   
 17   9  30  1   
 18   9  31  1   
 19  10  13  ar  
 20  10  32  1   
 21  11  13  ar  
 22  11  33  1   
 23  12  14  1   
 24  12  34  1   
 25  12  35  1   
 26  13  15  1   
 27  14  16  1   
 28  14  36  1   
 29  15  37  1   
 30  15  38  1   
 31  15  39  1   
 32  16  17  ar  
 33  16  18  ar  
 34  17  19  ar  
 35  18  20  ar  
 36  18  21  1   
 37  19  22  ar  
 38  19  40  1   
 39  20  22  ar  
 40  21  23  1   
 41  21  24  1   
 42  22  41  1   
 43  23  42  1   
 44  23  43  1   
 45  23  44  1   
 46  24  45  1   
 47  24  46  1   
 48  24  47  1   
@<TRIPOS>SUBSTRUCTURE
  1 ****   9 GROUP 4 **** **** 0

# MOE 2024.06 (io_trps.svl 2023.06)
