@<TRIPOS>MOLECULE
NONAME
51 52 1 0 0 
SMALL
USER_CHARGES


@<TRIPOS>ATOM
  1 CL       2.2910     1.2280     3.3470 Cl    1 <1>  -0.1770 
  2 C        2.4170     1.9980     1.7870 C.ar  1 <1>   0.1770 
  3 C        2.5160     3.3750     1.7200 C.ar  1 <1>  -0.1500 
  4 C        2.4180     1.2200     0.6450 C.ar  1 <1>  -0.1500 
  5 C        2.6180     3.9950     0.4820 C.ar  1 <1>  -0.1440 
  6 C        2.5200     1.8370    -0.5900 C.ar  1 <1>  -0.1500 
  7 C        2.6190     3.2170    -0.6690 C.ar  1 <1>  -0.1500 
  8 C        2.7350     5.5040     0.3880 C.3   1 <1>   0.2840 
  9 N        4.1690     5.8440     0.3870 N.am  1 <1>  -0.7300 
 10 C        4.6650     7.0290    -0.0280 C.2   1 <1>   0.5690 
 11 O        3.9530     7.9210    -0.4140 O.2   1 <1>  -0.5700 
 12 C        6.1600     7.2470    -0.0050 C.3   1 <1>  -0.0990 
 13 C        6.4990     8.4950    -0.8220 C.3   1 <1>   0.3430 
 14 N        7.9450     8.8680    -0.7090 N.4   1 <1>  -0.9590 
 15 C        8.1650    10.2810    -1.1910 C.3   1 <1>   0.3430 
 16 C        8.8230     7.9210    -1.4510 C.3   1 <1>   0.3430 
 17 C        7.4820    11.3630    -0.3310 C.3   1 <1>   0.2000 
 18 C       10.2520     8.0390    -0.9340 C.3   1 <1>  -0.2400 
 19 O        7.9240    12.5850    -0.8290 O.3   1 <1>  -0.5600 
 20 C        7.8450    11.2730     1.1640 C.3   1 <1>  -0.1600 
 21 C        7.3300    13.7150    -0.2580 C.3   1 <1>   0.1200 
 22 C        7.2790    12.4700     1.9370 C.3   1 <1>  -0.1600 
 23 C        7.6760    13.7730     1.2340 C.3   1 <1>  -0.1600 
 24 H        2.5110     3.9470     2.6310 H     1 <1>   0.1500 
 25 H        2.3400     0.1510     0.7250 H     1 <1>   0.1500 
 26 H        2.5200     1.2430    -1.4890 H     1 <1>   0.1500 
 27 H        2.6980     3.6850    -1.6360 H     1 <1>   0.1500 
 28 H        2.2540     5.9730     1.2290 H     1 <1>   0.0800 
 29 H        2.2710     5.8650    -0.5150 H     1 <1>   0.0800 
 30 H        4.7670     5.0810     0.7130 H     1 <1>   0.3700 
 31 H        6.6390     6.3800    -0.4170 H     1 <1>   0.0800 
 32 H        6.4600     7.3790     1.0180 H     1 <1>   0.0800 
 33 H        5.8880     9.3050    -0.4540 H     1 <1>   0.0800 
 34 H        6.2330     8.3360    -1.8550 H     1 <1>   0.0800 
 35 H        8.2180     8.8400     0.2820 H     1 <1>   0.4500 
 36 H        7.8100    10.3770    -2.2040 H     1 <1>   0.0800 
 37 H        9.2200    10.4970    -1.1880 H     1 <1>   0.0800 
 38 H        8.7890     8.1290    -2.5090 H     1 <1>   0.0800 
 39 H        8.4870     6.9080    -1.2980 H     1 <1>   0.0800 
 40 H        6.4150    11.3250    -0.4680 H     1 <1>   0.0800 
 41 H       10.6710     9.0070    -1.1410 H     1 <1>   0.0800 
 42 H       10.8650     7.3080    -1.4300 H     1 <1>   0.0800 
 43 H       10.2960     7.8430     0.1230 H     1 <1>   0.0800 
 44 H        8.9160    11.2580     1.2700 H     1 <1>   0.0800 
 45 H        7.4520    10.3700     1.5940 H     1 <1>   0.0800 
 46 H        6.2650    13.6650    -0.4110 H     1 <1>   0.0800 
 47 H        7.7150    14.5830    -0.7660 H     1 <1>   0.0800 
 48 H        7.6480    12.4720     2.9490 H     1 <1>   0.0800 
 49 H        6.2050    12.4010     1.9740 H     1 <1>   0.0800 
 50 H        7.1660    14.6040     1.6890 H     1 <1>   0.0800 
 51 H        8.7340    13.9410     1.3380 H     1 <1>   0.0800 
@<TRIPOS>BOND
  1   1   2  1   
  2   2   3  ar  
  3   2   4  ar  
  4   3   5  ar  
  5   3  24  1   
  6   4   6  ar  
  7   4  25  1   
  8   5   7  ar  
  9   5   8  1   
 10   6   7  ar  
 11   6  26  1   
 12   7  27  1   
 13   8   9  1   
 14   8  28  1   
 15   8  29  1   
 16   9  10  am  
 17   9  30  1   
 18  10  11  2   
 19  10  12  1   
 20  12  13  1   
 21  12  31  1   
 22  12  32  1   
 23  13  14  1   
 24  13  33  1   
 25  13  34  1   
 26  14  15  1   
 27  14  16  1   
 28  14  35  1   
 29  15  17  1   
 30  15  36  1   
 31  15  37  1   
 32  16  18  1   
 33  16  38  1   
 34  16  39  1   
 35  17  19  1   
 36  17  20  1   
 37  17  40  1   
 38  18  41  1   
 39  18  42  1   
 40  18  43  1   
 41  19  21  1   
 42  20  22  1   
 43  20  44  1   
 44  20  45  1   
 45  21  23  1   
 46  21  46  1   
 47  21  47  1   
 48  22  23  1   
 49  22  48  1   
 50  22  49  1   
 51  23  50  1   
 52  23  51  1   
@<TRIPOS>SUBSTRUCTURE
  1 ****  12 GROUP 4 **** **** 0

# MOE 2024.06 (io_trps.svl 2023.06)
