@<TRIPOS>MOLECULE
NONAME
41 44 1 0 0 
SMALL
USER_CHARGES


@<TRIPOS>ATOM
  1 O        0.2900     1.4180    -0.9940 O.2   1 <1>  -0.5700 
  2 C       -0.3270     2.0560    -0.1600 C.2   1 <1>   0.7160 
  3 N       -1.6950     1.8960    -0.0830 N.am  1 <1>  -0.6600 
  4 C        0.3970     2.9590     0.7020 C.2   1 <1>  -0.0860 
  5 C       -2.6120     2.9150     0.5180 C.3   1 <1>   0.1400 
  6 C       -2.3640     0.7490    -0.7740 C.3   1 <1>   0.1400 
  7 C        1.5390     3.6680     0.3200 C.2   1 <1>   0.1390 
  8 C        0.2230     3.3370     2.0020 C.2   1 <1>  -0.3020 
  9 C       -3.5900     3.4850    -0.5330 C.3   1 <1>   0.1440 
 10 C       -3.8770     0.9660    -0.9350 C.3   1 <1>  -0.1600 
 11 N        2.0130     4.4200     1.2630 N.2   1 <1>  -0.7070 
 12 N        1.1980     4.2070     2.3090 N.pl3 1 <1>   0.3000 
 13 C       -4.6640     4.2430     0.2300 C.ar  1 <1>   0.1660 
 14 C       -4.1730     2.3800    -1.4570 C.3   1 <1>  -0.1600 
 15 C       -2.9220     4.6180    -1.3580 C.3   1 <1>  -0.1600 
 16 N       -5.6500     3.6960     0.9060 N.ar  1 <1>  -0.6200 
 17 C       -4.4770     5.5910     0.1560 C.ar  1 <1>  -0.1430 
 18 C       -3.2600     5.9460    -0.6590 C.3   1 <1>  -0.0170 
 19 C       -6.4580     4.5650     1.4970 C.ar  1 <1>   0.4770 
 20 C       -5.3740     6.3990     0.8090 C.ar  1 <1>   0.1600 
 21 N       -6.3800     5.8890     1.4890 N.ar  1 <1>  -0.6200 
 22 C       -7.6140     3.9810     2.2730 C.3   1 <1>  -0.0970 
 23 H       -2.0650     3.7280     0.9560 H     1 <1>   0.0800 
 24 H       -3.1720     2.4410     1.3060 H     1 <1>   0.0800 
 25 H       -2.1810    -0.1540    -0.2170 H     1 <1>   0.0800 
 26 H       -1.9260     0.6290    -1.7520 H     1 <1>   0.0800 
 27 H        1.9790     3.5930    -0.6620 H     1 <1>   0.1500 
 28 H       -0.5290     3.0230     2.7020 H     1 <1>   0.1500 
 29 H       -4.3690     0.8140     0.0100 H     1 <1>   0.0800 
 30 H       -4.2670     0.2350    -1.6210 H     1 <1>   0.0800 
 31 H        1.3460     4.6670     3.2170 H     1 <1>   0.2700 
 32 H       -3.7370     2.4560    -2.4380 H     1 <1>   0.0800 
 33 H       -5.2360     2.5130    -1.5680 H     1 <1>   0.0800 
 34 H       -3.3560     4.6530    -2.3420 H     1 <1>   0.0800 
 35 H       -1.8600     4.4760    -1.4640 H     1 <1>   0.0800 
 36 H       -3.4680     6.7260    -1.3710 H     1 <1>   0.0800 
 37 H       -2.4590     6.2480    -0.0060 H     1 <1>   0.0800 
 38 H       -5.2700     7.4700     0.7780 H     1 <1>   0.1500 
 39 H       -7.4590     2.9320     2.4460 H     1 <1>   0.0800 
 40 H       -8.5200     4.1160     1.7130 H     1 <1>   0.0800 
 41 H       -7.7060     4.4820     3.2180 H     1 <1>   0.0800 
@<TRIPOS>BOND
  1   1   2  2   
  2   2   3  am  
  3   2   4  1   
  4   3   5  1   
  5   3   6  1   
  6   4   7  1   
  7   4   8  2   
  8   5   9  1   
  9   5  23  1   
 10   5  24  1   
 11   6  10  1   
 12   6  25  1   
 13   6  26  1   
 14   7  11  2   
 15   7  27  1   
 16   8  12  1   
 17   8  28  1   
 18   9  13  1   
 19   9  14  1   
 20   9  15  1   
 21  10  14  1   
 22  10  29  1   
 23  10  30  1   
 24  11  12  1   
 25  12  31  1   
 26  13  16  ar  
 27  13  17  ar  
 28  14  32  1   
 29  14  33  1   
 30  15  18  1   
 31  15  34  1   
 32  15  35  1   
 33  16  19  ar  
 34  17  18  1   
 35  17  20  ar  
 36  18  36  1   
 37  18  37  1   
 38  19  21  ar  
 39  19  22  1   
 40  20  21  ar  
 41  20  38  1   
 42  22  39  1   
 43  22  40  1   
 44  22  41  1   
@<TRIPOS>SUBSTRUCTURE
  1 ****   5 GROUP 4 **** **** 0

# MOE 2024.06 (io_trps.svl 2023.06)
