@<TRIPOS>MOLECULE
NONAME
48 50 1 0 0 
SMALL
USER_CHARGES


@<TRIPOS>ATOM
  1 O       -2.6670     0.9500    -2.2050 O.2   1 <1>  -0.5700 
  2 C       -2.2700     1.0760    -1.0640 C.2   1 <1>   0.5440 
  3 N       -2.1590    -0.0430    -0.2900 N.am  1 <1>  -0.7300 
  4 C       -1.9650     2.3840    -0.5130 C.ar  1 <1>   0.0860 
  5 C       -2.4620    -1.4210    -0.7320 C.3   1 <1>   0.2200 
  6 C       -0.7500     2.6980     0.1090 C.ar  1 <1>  -0.1440 
  7 C       -2.9300     3.3860    -0.5930 C.ar  1 <1>  -0.1500 
  8 C       -3.8170    -1.8320    -0.1830 C.3   1 <1>  -0.0800 
  9 C       -1.5290    -2.4030    -0.0320 C.3   1 <1>   0.1200 
 10 C       -0.5530     3.9590     0.6450 C.ar  1 <1>  -0.1500 
 11 C        0.3880     1.6880     0.2010 C.3   1 <1>  -0.0970 
 12 C       -2.7330     4.6490    -0.0620 C.ar  1 <1>  -0.1430 
 13 C       -3.4590    -2.3090     1.2290 C.3   1 <1>   0.1200 
 14 C       -4.4560    -2.9460    -1.0340 C.3   1 <1>  -0.0170 
 15 O       -2.1110    -2.6860     1.2070 O.3   1 <1>  -0.5600 
 16 C       -1.5310     4.9380     0.5710 C.ar  1 <1>  -0.1430 
 17 C       -3.8380     5.6880    -0.1870 C.3   1 <1>  -0.0970 
 18 C       -5.8290    -3.3310    -0.5040 C.ar  1 <1>  -0.1430 
 19 C       -1.2600     6.3080     1.1770 C.3   1 <1>  -0.0970 
 20 C       -6.9300    -2.5210    -0.6930 C.ar  1 <1>  -0.1500 
 21 C       -6.0470    -4.5040     0.1900 C.ar  1 <1>  -0.1500 
 22 C       -8.1610    -2.9100    -0.1900 C.ar  1 <1>   0.1600 
 23 C       -7.3190    -4.7990     0.6520 C.ar  1 <1>   0.1600 
 24 N       -8.3810    -4.0290     0.4800 N.ar  1 <1>  -0.6200 
 25 H       -1.9260     0.0540     0.7000 H     1 <1>   0.3700 
 26 H       -2.3970    -1.4930    -1.8050 H     1 <1>   0.0800 
 27 H       -3.8560     3.1530    -1.0880 H     1 <1>   0.1500 
 28 H       -4.4910    -0.9940    -0.1480 H     1 <1>   0.0800 
 29 H       -0.5410    -2.0030     0.1150 H     1 <1>   0.0800 
 30 H       -1.4690    -3.3260    -0.5810 H     1 <1>   0.0800 
 31 H        0.3810     4.1880     1.1270 H     1 <1>   0.1500 
 32 H        1.3240     2.1830     0.3890 H     1 <1>   0.0800 
 33 H        0.4830     1.1430    -0.7210 H     1 <1>   0.0800 
 34 H        0.2040     0.9940     1.0010 H     1 <1>   0.0800 
 35 H       -4.0510    -3.1440     1.5580 H     1 <1>   0.0800 
 36 H       -3.5570    -1.5030     1.9350 H     1 <1>   0.0800 
 37 H       -3.8200    -3.8130    -1.0540 H     1 <1>   0.0800 
 38 H       -4.5650    -2.5990    -2.0470 H     1 <1>   0.0800 
 39 H       -4.6840     5.2900    -0.7170 H     1 <1>   0.0800 
 40 H       -3.4770     6.5450    -0.7260 H     1 <1>   0.0800 
 41 H       -4.1650     5.9980     0.7890 H     1 <1>   0.0800 
 42 H       -0.2880     6.3430     1.6340 H     1 <1>   0.0800 
 43 H       -1.9950     6.5300     1.9290 H     1 <1>   0.0800 
 44 H       -1.3000     7.0620     0.4120 H     1 <1>   0.0800 
 45 H       -6.8430    -1.5920    -1.2270 H     1 <1>   0.1500 
 46 H       -5.2420    -5.1910     0.3770 H     1 <1>   0.1500 
 47 H       -9.0080    -2.2650    -0.3470 H     1 <1>   0.1500 
 48 H       -7.4700    -5.7180     1.1920 H     1 <1>   0.1500 
@<TRIPOS>BOND
  1   1   2  2   
  2   2   3  am  
  3   2   4  1   
  4   3   5  1   
  5   3  25  1   
  6   4   6  ar  
  7   4   7  ar  
  8   5   8  1   
  9   5   9  1   
 10   5  26  1   
 11   6  10  ar  
 12   6  11  1   
 13   7  12  ar  
 14   7  27  1   
 15   8  13  1   
 16   8  14  1   
 17   8  28  1   
 18   9  15  1   
 19   9  29  1   
 20   9  30  1   
 21  10  16  ar  
 22  10  31  1   
 23  11  32  1   
 24  11  33  1   
 25  11  34  1   
 26  12  16  ar  
 27  12  17  1   
 28  13  15  1   
 29  13  35  1   
 30  13  36  1   
 31  14  18  1   
 32  14  37  1   
 33  14  38  1   
 34  16  19  1   
 35  17  39  1   
 36  17  40  1   
 37  17  41  1   
 38  18  20  ar  
 39  18  21  ar  
 40  19  42  1   
 41  19  43  1   
 42  19  44  1   
 43  20  22  ar  
 44  20  45  1   
 45  21  23  ar  
 46  21  46  1   
 47  22  24  ar  
 48  22  47  1   
 49  23  24  ar  
 50  23  48  1   
@<TRIPOS>SUBSTRUCTURE
  1 ****   3 GROUP 4 **** **** 0

# MOE 2024.06 (io_trps.svl 2023.06)
