@<TRIPOS>MOLECULE
NONAME
54 56 1 0 0 
SMALL
USER_CHARGES


@<TRIPOS>ATOM
  1 O       -0.8920    -3.1880    -1.7300 O.co2 1 <1>  -0.9000 
  2 C       -0.4250    -3.5940    -0.6540 C.2   1 <1>   1.0330 
  3 O       -0.2000    -4.8180    -0.5500 O.co2 1 <1>  -0.9000 
  4 C       -0.2010    -2.6880     0.4280 C.2   1 <1>  -0.2330 
  5 C       -1.0790    -2.2230     1.4270 C.2   1 <1>   0.3720 
  6 C        0.9750    -2.0720     0.7110 C.2   1 <1>   0.0870 
  7 N       -0.4490    -1.4230     2.2220 N.2   1 <1>  -0.4100 
  8 N       -2.4510    -2.5260     1.6590 N.pl3 1 <1>  -0.8210 
  9 O        0.7750    -1.3440     1.7790 O.3   1 <1>  -0.0190 
 10 C        2.2760    -2.0850     0.0860 C.ar  1 <1>   0.0530 
 11 C       -3.2740    -3.0560     0.5390 C.3   1 <1>   0.2090 
 12 C       -3.1920    -1.5800     2.5420 C.3   1 <1>   0.1290 
 13 C        3.4330    -1.8930     0.8430 C.ar  1 <1>  -0.1500 
 14 C        2.4390    -2.2780    -1.2870 C.ar  1 <1>  -0.1500 
 15 C       -3.1470    -4.5840     0.5390 C.3   1 <1>  -0.0800 
 16 C        4.6890    -1.8970     0.2640 C.ar  1 <1>  -0.1500 
 17 C        3.6910    -2.2850    -1.8730 C.ar  1 <1>  -0.1500 
 18 C       -3.3810    -5.2050    -0.8400 C.3   1 <1>  -0.1600 
 19 C       -3.9690    -5.3540     1.5720 C.3   1 <1>  -0.1600 
 20 C        4.8210    -2.0940    -1.0990 C.ar  1 <1>  -0.1500 
 21 C       -2.8040    -6.6120    -0.8090 C.3   1 <1>   0.3430 
 22 C       -3.4740    -6.8070     1.5800 C.3   1 <1>   0.3430 
 23 N       -3.5540    -7.4220     0.2130 N.4   1 <1>  -0.9590 
 24 C       -3.0380    -8.8260     0.2670 C.3   1 <1>   0.3430 
 25 C       -3.2510    -9.5950    -1.0440 C.3   1 <1>   0.1200 
 26 O       -3.0050   -10.9370    -0.7850 O.3   1 <1>  -0.5600 
 27 C       -3.1090   -11.7650    -1.9010 C.3   1 <1>   0.0400 
 28 H       -2.9130    -2.6410    -0.3880 H     1 <1>   0.0800 
 29 H       -4.3060    -2.7690     0.6420 H     1 <1>   0.0800 
 30 H       -2.6860    -1.4900     3.4880 H     1 <1>   0.0800 
 31 H       -4.1890    -1.9390     2.7250 H     1 <1>   0.0800 
 32 H       -3.2380    -0.6110     2.0770 H     1 <1>   0.0800 
 33 H        3.3410    -1.7430     1.9040 H     1 <1>   0.1500 
 34 H        1.5720    -2.4210    -1.9090 H     1 <1>   0.1500 
 35 H       -2.1300    -4.7820     0.8150 H     1 <1>   0.0800 
 36 H        5.5630    -1.7490     0.8740 H     1 <1>   0.1500 
 37 H        3.7800    -2.4410    -2.9340 H     1 <1>   0.1500 
 38 H       -2.8560    -4.6510    -1.5970 H     1 <1>   0.0800 
 39 H       -4.4220    -5.2110    -1.1050 H     1 <1>   0.0800 
 40 H       -5.0200    -5.3050     1.3520 H     1 <1>   0.0800 
 41 H       -3.8060    -4.9250     2.5450 H     1 <1>   0.0800 
 42 H        5.7950    -2.1010    -1.5540 H     1 <1>   0.1500 
 43 H       -1.7560    -6.5550    -0.5520 H     1 <1>   0.0800 
 44 H       -2.8890    -7.0540    -1.7870 H     1 <1>   0.0800 
 45 H       -4.0570    -7.3820     2.2810 H     1 <1>   0.0800 
 46 H       -2.4470    -6.8140     1.9100 H     1 <1>   0.0800 
 47 H       -4.5410    -7.4280    -0.0650 H     1 <1>   0.4500 
 48 H       -3.5490    -9.3600     1.0500 H     1 <1>   0.0800 
 49 H       -1.9840    -8.8150     0.4960 H     1 <1>   0.0800 
 50 H       -2.5620    -9.2590    -1.8000 H     1 <1>   0.0800 
 51 H       -4.2670    -9.5000    -1.3830 H     1 <1>   0.0800 
 52 H       -2.9020   -12.7740    -1.5890 H     1 <1>   0.0800 
 53 H       -2.3870   -11.4630    -2.6410 H     1 <1>   0.0800 
 54 H       -4.1070   -11.7090    -2.2990 H     1 <1>   0.0800 
@<TRIPOS>BOND
  1   1   2  ar  
  2   2   3  ar  
  3   2   4  1   
  4   4   5  1   
  5   4   6  2   
  6   5   7  2   
  7   5   8  1   
  8   6   9  1   
  9   6  10  1   
 10   7   9  1   
 11   8  11  1   
 12   8  12  1   
 13  10  13  ar  
 14  10  14  ar  
 15  11  15  1   
 16  11  28  1   
 17  11  29  1   
 18  12  30  1   
 19  12  31  1   
 20  12  32  1   
 21  13  16  ar  
 22  13  33  1   
 23  14  17  ar  
 24  14  34  1   
 25  15  18  1   
 26  15  19  1   
 27  15  35  1   
 28  16  20  ar  
 29  16  36  1   
 30  17  20  ar  
 31  17  37  1   
 32  18  21  1   
 33  18  38  1   
 34  18  39  1   
 35  19  22  1   
 36  19  40  1   
 37  19  41  1   
 38  20  42  1   
 39  21  23  1   
 40  21  43  1   
 41  21  44  1   
 42  22  23  1   
 43  22  45  1   
 44  22  46  1   
 45  23  24  1   
 46  23  47  1   
 47  24  25  1   
 48  24  48  1   
 49  24  49  1   
 50  25  26  1   
 51  25  50  1   
 52  25  51  1   
 53  26  27  1   
 54  27  52  1   
 55  27  53  1   
 56  27  54  1   
@<TRIPOS>SUBSTRUCTURE
  1 ****   3 GROUP 4 **** **** 0

# MOE 2024.06 (io_trps.svl 2023.06)
