@<TRIPOS>MOLECULE
NONAME
45 47 1 0 0 
SMALL
USER_CHARGES


@<TRIPOS>ATOM
  1 O        0.9760    -0.3420     0.1410 O.3   1 <1>  -0.6800 
  2 C        1.9070    -0.5200    -0.8790 C.3   1 <1>   0.2000 
  3 C        2.8030    -1.7210    -0.5620 C.3   1 <1>  -0.0800 
  4 C        2.8920     0.6450    -0.8140 C.3   1 <1>   0.3430 
  5 C        3.8850    -1.1650     0.3740 C.3   1 <1>   0.3430 
  6 C        2.1010    -2.9640     0.0170 C.3   1 <1>   0.0210 
  7 N        3.7330     0.3200     0.3730 N.4   1 <1>  -0.9590 
  8 C        3.0770    -4.1140     0.1870 C.2   1 <1>   0.1080 
  9 C        4.9980     1.0740     0.5630 C.3   1 <1>   0.4230 
 10 N        4.1910    -4.0100     0.8460 N.2   1 <1>  -0.7070 
 11 C        2.8910    -5.3910    -0.3320 C.2   1 <1>  -0.1500 
 12 C        4.6800     2.5420     0.8690 C.3   1 <1>  -0.1600 
 13 C        5.9370     0.9550    -0.6500 C.3   1 <1>  -0.1600 
 14 N        4.7460    -5.2390     0.7710 N.pl3 1 <1>   0.3000 
 15 C        3.9780    -6.0880     0.0580 C.2   1 <1>  -0.3320 
 16 C        5.9700     3.3430     1.1060 C.3   1 <1>  -0.1600 
 17 C        7.2310     1.7470    -0.4120 C.3   1 <1>  -0.1600 
 18 C        4.3330    -7.5400    -0.2060 C.3   1 <1>  -0.0600 
 19 C        6.9300     3.2150    -0.0840 C.3   1 <1>  -0.1600 
 20 H        0.2090    -0.9440     0.0350 H     1 <1>   0.4000 
 21 H        1.3950    -0.5860    -1.8250 H     1 <1>   0.0800 
 22 H        3.2970    -2.0170    -1.4710 H     1 <1>   0.0800 
 23 H        2.3800     1.5870    -0.7040 H     1 <1>   0.0800 
 24 H        3.4940     0.6580    -1.7060 H     1 <1>   0.0800 
 25 H        4.8570    -1.4660     0.0210 H     1 <1>   0.0800 
 26 H        3.7520    -1.5520     1.3720 H     1 <1>   0.0800 
 27 H        1.3080    -3.2740    -0.6400 H     1 <1>   0.0800 
 28 H        1.6730    -2.7450     0.9790 H     1 <1>   0.0800 
 29 H        3.1190     0.5220     1.1770 H     1 <1>   0.4500 
 30 H        5.5130     0.6670     1.4190 H     1 <1>   0.0800 
 31 H        2.0530    -5.7300    -0.9140 H     1 <1>   0.1500 
 32 H        4.1510     2.9880     0.0460 H     1 <1>   0.0800 
 33 H        4.0660     2.6070     1.7500 H     1 <1>   0.0800 
 34 H        6.1960    -0.0740    -0.8250 H     1 <1>   0.0800 
 35 H        5.4640     1.3470    -1.5320 H     1 <1>   0.0800 
 36 H        5.6420    -5.4710     1.2180 H     1 <1>   0.2700 
 37 H        5.7280     4.3810     1.2620 H     1 <1>   0.0800 
 38 H        6.4590     2.9860     1.9980 H     1 <1>   0.0800 
 39 H        7.7830     1.3060     0.4010 H     1 <1>   0.0800 
 40 H        7.8530     1.6970    -1.2910 H     1 <1>   0.0800 
 41 H        3.5640    -8.0080    -0.7940 H     1 <1>   0.0800 
 42 H        4.4270    -8.0750     0.7220 H     1 <1>   0.0800 
 43 H        5.2620    -7.6050    -0.7450 H     1 <1>   0.0800 
 44 H        7.8510     3.7280     0.1420 H     1 <1>   0.0800 
 45 H        6.4980     3.6940    -0.9460 H     1 <1>   0.0800 
@<TRIPOS>BOND
  1   1   2  1   
  2   1  20  1   
  3   2   3  1   
  4   2   4  1   
  5   2  21  1   
  6   3   5  1   
  7   3   6  1   
  8   3  22  1   
  9   4   7  1   
 10   4  23  1   
 11   4  24  1   
 12   5   7  1   
 13   5  25  1   
 14   5  26  1   
 15   6   8  1   
 16   6  27  1   
 17   6  28  1   
 18   7   9  1   
 19   7  29  1   
 20   8  10  2   
 21   8  11  1   
 22   9  12  1   
 23   9  13  1   
 24   9  30  1   
 25  10  14  1   
 26  11  15  2   
 27  11  31  1   
 28  12  16  1   
 29  12  32  1   
 30  12  33  1   
 31  13  17  1   
 32  13  34  1   
 33  13  35  1   
 34  14  15  1   
 35  14  36  1   
 36  15  18  1   
 37  16  19  1   
 38  16  37  1   
 39  16  38  1   
 40  17  19  1   
 41  17  39  1   
 42  17  40  1   
 43  18  41  1   
 44  18  42  1   
 45  18  43  1   
 46  19  44  1   
 47  19  45  1   
@<TRIPOS>SUBSTRUCTURE
  1 ****   5 GROUP 4 **** **** 0

# MOE 2024.06 (io_trps.svl 2023.06)
