@<TRIPOS>MOLECULE
NONAME
49 50 1 0 0 
SMALL
USER_CHARGES


@<TRIPOS>ATOM
  1 O       -1.1110     5.6790    -0.6300 O.co2 1 <1>  -0.9000 
  2 C       -0.1880     4.8740    -0.4740 C.2   1 <1>   0.9060 
  3 O        0.9770     5.2350    -0.6890 O.co2 1 <1>  -0.9000 
  4 C       -0.4380     3.5280     0.2150 C.3   1 <1>  -0.1060 
  5 C       -1.8640     3.3400     0.8190 C.3   1 <1>   0.2000 
  6 C        0.5510     3.5210     1.3850 C.3   1 <1>   0.3430 
  7 C       -0.1760     2.3310    -0.7470 C.3   1 <1>  -0.1600 
  8 O       -2.8120     3.8740    -0.0210 O.3   1 <1>  -0.6800 
  9 C       -2.0670     3.9420     2.2170 C.3   1 <1>  -0.1600 
 10 N        0.3080     4.6180     2.4090 N.4   1 <1>  -0.9590 
 11 C        1.2330     2.2470    -1.3620 C.3   1 <1>  -0.1600 
 12 C       -1.1180     5.1060     2.4440 C.3   1 <1>   0.3430 
 13 C        1.3480     5.6990     2.1990 C.3   1 <1>   0.3430 
 14 C        1.3760     0.9870    -2.2210 C.3   1 <1>  -0.2400 
 15 C        0.8400     7.0990     1.8470 C.3   1 <1>  -0.0990 
 16 C        2.0010     7.8270     1.2300 C.2   1 <1>   0.5690 
 17 O        2.6690     8.5300     1.9450 O.2   1 <1>  -0.5700 
 18 N        2.2550     7.5820    -0.0870 N.am  1 <1>  -0.5470 
 19 C        3.2760     8.0170    -0.9470 C.ar  1 <1>   0.1170 
 20 C        3.4980     7.3370    -2.1460 C.ar  1 <1>   0.1600 
 21 C        4.0890     9.1040    -0.6690 C.ar  1 <1>  -0.1500 
 22 N        4.4290     7.6330    -3.0430 N.ar  1 <1>  -0.6200 
 23 C        5.0610     9.4300    -1.5890 C.ar  1 <1>  -0.1500 
 24 C        5.1880     8.6730    -2.7420 C.ar  1 <1>   0.1600 
 25 H       -2.0980     2.2910     0.8900 H     1 <1>   0.0800 
 26 H        1.5500     3.6070     0.9900 H     1 <1>   0.0800 
 27 H        0.4770     2.5630     1.8730 H     1 <1>   0.0800 
 28 H       -0.3660     1.4090    -0.2250 H     1 <1>   0.0800 
 29 H       -0.8900     2.3900    -1.5530 H     1 <1>   0.0800 
 30 H       -2.4200     4.7120    -0.4160 H     1 <1>   0.4000 
 31 H       -3.0860     4.2700     2.3320 H     1 <1>   0.0800 
 32 H       -1.8850     3.1930     2.9660 H     1 <1>   0.0800 
 33 H        0.5030     4.2020     3.3260 H     1 <1>   0.4500 
 34 H        1.4120     3.1060    -1.9880 H     1 <1>   0.0800 
 35 H        1.9870     2.2310    -0.5970 H     1 <1>   0.0800 
 36 H       -1.3260     5.5830     3.3880 H     1 <1>   0.0800 
 37 H       -1.2970     5.8210     1.6580 H     1 <1>   0.0800 
 38 H        1.9640     5.7800     3.0800 H     1 <1>   0.0800 
 39 H        2.0010     5.3890     1.3970 H     1 <1>   0.0800 
 40 H        0.6510     0.9920    -3.0170 H     1 <1>   0.0800 
 41 H        1.2340     0.1020    -1.6270 H     1 <1>   0.0800 
 42 H        2.3590     0.9520    -2.6580 H     1 <1>   0.0800 
 43 H        0.5110     7.6200     2.7260 H     1 <1>   0.0800 
 44 H        0.0570     7.0960     1.1160 H     1 <1>   0.0800 
 45 H        1.6500     6.8390    -0.5010 H     1 <1>   0.3700 
 46 H        2.8600     6.4960    -2.3640 H     1 <1>   0.1500 
 47 H        3.9680     9.6790     0.2310 H     1 <1>   0.1500 
 48 H        5.7160    10.2630    -1.4150 H     1 <1>   0.1500 
 49 H        5.9530     8.9370    -3.4520 H     1 <1>   0.1500 
@<TRIPOS>BOND
  1   1   2  ar  
  2   2   3  ar  
  3   2   4  1   
  4   4   5  1   
  5   4   6  1   
  6   4   7  1   
  7   5   8  1   
  8   5   9  1   
  9   5  25  1   
 10   6  10  1   
 11   6  26  1   
 12   6  27  1   
 13   7  11  1   
 14   7  28  1   
 15   7  29  1   
 16   8  30  1   
 17   9  12  1   
 18   9  31  1   
 19   9  32  1   
 20  10  12  1   
 21  10  13  1   
 22  10  33  1   
 23  11  14  1   
 24  11  34  1   
 25  11  35  1   
 26  12  36  1   
 27  12  37  1   
 28  13  15  1   
 29  13  38  1   
 30  13  39  1   
 31  14  40  1   
 32  14  41  1   
 33  14  42  1   
 34  15  16  1   
 35  15  43  1   
 36  15  44  1   
 37  16  17  2   
 38  16  18  am  
 39  18  19  1   
 40  18  45  1   
 41  19  20  ar  
 42  19  21  ar  
 43  20  22  ar  
 44  20  46  1   
 45  21  23  ar  
 46  21  47  1   
 47  22  24  ar  
 48  23  24  ar  
 49  23  48  1   
 50  24  49  1   
@<TRIPOS>SUBSTRUCTURE
  1 ****   3 GROUP 4 **** **** 0

# MOE 2024.06 (io_trps.svl 2023.06)
