@<TRIPOS>MOLECULE
NONAME
51 53 1 0 0 
SMALL
USER_CHARGES


@<TRIPOS>ATOM
  1 S       -0.2840     0.2530     1.4380 S.3   1 <1>   0.1810 
  2 N       -1.0140    -0.3380     0.0290 N.2   1 <1>  -0.2210 
  3 C        1.2740    -0.3320     0.9780 C.2   1 <1>  -0.1400 
  4 N       -0.1710    -0.9240    -0.6990 N.2   1 <1>  -0.2270 
  5 C        1.1190    -0.9450    -0.2020 C.2   1 <1>   0.0460 
  6 C        2.4230    -0.0470     1.9190 C.3   1 <1>   0.3200 
  7 C        2.1720    -1.6460    -1.0590 C.3   1 <1>   0.1010 
  8 N        2.7280     1.3850     1.8100 N.am  1 <1>  -0.7300 
  9 C        2.6920    -2.9100    -0.3650 C.3   1 <1>  -0.2400 
 10 C        3.3290    -0.7110    -1.4280 C.3   1 <1>  -0.2400 
 11 C        3.8840     1.9060     1.3290 C.2   1 <1>   0.7160 
 12 O        4.8800     1.2080     1.3460 O.2   1 <1>  -0.5700 
 13 C        3.8960     3.2340     0.7950 C.2   1 <1>  -0.0860 
 14 C        2.7660     3.9640     0.3990 C.2   1 <1>   0.3720 
 15 C        4.9250     4.0810     0.5170 C.2   1 <1>   0.0870 
 16 N        3.0960     5.1160    -0.0670 N.2   1 <1>  -0.4100 
 17 N        1.4350     3.5160     0.4650 N.pl3 1 <1>  -0.8210 
 18 O        4.3980     5.1670     0.0100 O.3   1 <1>  -0.0190 
 19 C        6.3560     4.0000     0.6780 C.ar  1 <1>   0.0530 
 20 C        0.4600     4.5640     0.8830 C.3   1 <1>   0.1290 
 21 C        0.9910     2.8450    -0.7900 C.3   1 <1>   0.1290 
 22 C        7.2090     4.5420    -0.2860 C.ar  1 <1>  -0.1500 
 23 C        6.9380     3.3980     1.7960 C.ar  1 <1>  -0.1500 
 24 C        8.5880     4.4930    -0.1700 C.ar  1 <1>   0.0820 
 25 C        8.3110     3.3300     1.9420 C.ar  1 <1>  -0.1500 
 26 O        9.2810     5.0650    -1.1970 O.3   1 <1>  -0.3630 
 27 C        9.1230     3.8740     0.9660 C.ar  1 <1>   0.1900 
 28 C       10.6900     5.0790    -1.2610 C.3   1 <1>   0.0400 
 29 F       10.4130     3.7810     1.1630 F     1 <1>  -0.1900 
 30 H        3.2840    -0.6360     1.6550 H     1 <1>   0.0800 
 31 H        2.1450    -0.2840     2.9310 H     1 <1>   0.0800 
 32 H        1.7000    -1.9500    -1.9780 H     1 <1>   0.0800 
 33 H        1.9090     1.9840     1.6250 H     1 <1>   0.3700 
 34 H        3.2110    -2.6670     0.5440 H     1 <1>   0.0800 
 35 H        3.3680    -3.4380    -1.0150 H     1 <1>   0.0800 
 36 H        1.8690    -3.5610    -0.1290 H     1 <1>   0.0800 
 37 H        3.8970    -0.4300    -0.5610 H     1 <1>   0.0800 
 38 H        2.9490     0.1790    -1.8970 H     1 <1>   0.0800 
 39 H        3.9920    -1.1990    -2.1200 H     1 <1>   0.0800 
 40 H        0.8330     5.0870     1.7480 H     1 <1>   0.0800 
 41 H       -0.4830     4.1110     1.1340 H     1 <1>   0.0800 
 42 H        0.3120     5.2750     0.0870 H     1 <1>   0.0800 
 43 H        1.6510     2.0280    -1.0240 H     1 <1>   0.0800 
 44 H        1.0030     3.5460    -1.6080 H     1 <1>   0.0800 
 45 H       -0.0060     2.4560    -0.6740 H     1 <1>   0.0800 
 46 H        6.7860     5.0150    -1.1540 H     1 <1>   0.1500 
 47 H        6.3080     2.9770     2.5590 H     1 <1>   0.1500 
 48 H        8.7490     2.8600     2.8040 H     1 <1>   0.1500 
 49 H       10.9780     5.5700    -2.1730 H     1 <1>   0.0800 
 50 H       11.0510     4.0660    -1.2640 H     1 <1>   0.0800 
 51 H       11.0740     5.6240    -0.4170 H     1 <1>   0.0800 
@<TRIPOS>BOND
  1   1   2  1   
  2   1   3  1   
  3   2   4  2   
  4   3   5  2   
  5   3   6  1   
  6   4   5  1   
  7   5   7  1   
  8   6   8  1   
  9   6  30  1   
 10   6  31  1   
 11   7   9  1   
 12   7  10  1   
 13   7  32  1   
 14   8  11  am  
 15   8  33  1   
 16   9  34  1   
 17   9  35  1   
 18   9  36  1   
 19  10  37  1   
 20  10  38  1   
 21  10  39  1   
 22  11  12  2   
 23  11  13  1   
 24  13  14  1   
 25  13  15  2   
 26  14  16  2   
 27  14  17  1   
 28  15  18  1   
 29  15  19  1   
 30  16  18  1   
 31  17  20  1   
 32  17  21  1   
 33  19  22  ar  
 34  19  23  ar  
 35  20  40  1   
 36  20  41  1   
 37  20  42  1   
 38  21  43  1   
 39  21  44  1   
 40  21  45  1   
 41  22  24  ar  
 42  22  46  1   
 43  23  25  ar  
 44  23  47  1   
 45  24  26  1   
 46  24  27  ar  
 47  25  27  ar  
 48  25  48  1   
 49  26  28  1   
 50  27  29  1   
 51  28  49  1   
 52  28  50  1   
 53  28  51  1   
@<TRIPOS>SUBSTRUCTURE
  1 ****  13 GROUP 4 **** **** 0

# MOE 2024.06 (io_trps.svl 2023.06)
