@<TRIPOS>MOLECULE
NONAME
54 56 1 0 0 
SMALL
USER_CHARGES


@<TRIPOS>ATOM
  1 S        0.3500     0.0050     1.0630 S.o2  1 <1>   1.3330 
  2 O       -0.4250    -0.9040     1.8690 O.2   1 <1>  -0.6500 
  3 O        1.6470     0.4650     1.5080 O.2   1 <1>  -0.6500 
  4 N        0.5520    -0.6730    -0.4790 N.am  1 <1>  -0.8490 
  5 C       -0.6130     1.4830     0.7270 C.3   1 <1>  -0.0550 
  6 C        1.7100    -1.5760    -0.5250 C.3   1 <1>   0.1160 
  7 C       -0.6340    -1.4090    -0.9400 C.3   1 <1>   0.1160 
  8 C        0.0760     2.4540    -0.2640 C.3   1 <1>  -0.0800 
  9 C       -0.7120     3.7150    -0.6090 C.3   1 <1>   0.2000 
 10 C        1.4500     2.9600     0.2040 C.3   1 <1>   0.3430 
 11 O       -1.3730     4.1970     0.5150 O.3   1 <1>  -0.6800 
 12 C        0.3750     4.7070    -1.0260 C.3   1 <1>   0.3430 
 13 N        1.5280     4.4220    -0.1140 N.4   1 <1>  -0.9590 
 14 C        2.8650     4.8710    -0.6030 C.3   1 <1>   0.4230 
 15 C        3.9250     4.5250     0.4570 C.3   1 <1>  -0.1600 
 16 C        2.8190     6.3810    -0.8990 C.3   1 <1>  -0.1600 
 17 C        5.2810     5.1500     0.1330 C.3   1 <1>   0.1400 
 18 C        4.2070     6.9580    -1.1880 C.3   1 <1>   0.1400 
 19 N        5.0900     6.6050    -0.0560 N.am  1 <1>  -0.6600 
 20 C        5.3080     7.4820     0.9890 C.2   1 <1>   0.7150 
 21 O        5.2240     7.0400     2.1210 O.2   1 <1>  -0.5700 
 22 C        5.5850     8.8770     0.7490 C.2   1 <1>  -0.0450 
 23 S        5.1690    10.0540     2.0000 S.3   1 <1>  -0.0800 
 24 C        6.1340     9.5420    -0.3020 C.2   1 <1>  -0.1500 
 25 C        5.7500    11.3950     1.0380 C.2   1 <1>  -0.1100 
 26 C        6.2240    10.9560    -0.1410 C.2   1 <1>  -0.1500 
 27 H       -1.5670     1.1970     0.3270 H     1 <1>   0.0800 
 28 H       -0.7990     1.9810     1.6580 H     1 <1>   0.0800 
 29 H        1.8270    -1.9860    -1.5140 H     1 <1>   0.0800 
 30 H        1.5850    -2.3830     0.1780 H     1 <1>   0.0800 
 31 H        2.6110    -1.0410    -0.2760 H     1 <1>   0.0800 
 32 H       -0.4800    -1.7700    -1.9440 H     1 <1>   0.0800 
 33 H       -1.4990    -0.7690    -0.9420 H     1 <1>   0.0800 
 34 H       -0.8310    -2.2510    -0.2960 H     1 <1>   0.0800 
 35 H        0.2440     1.9200    -1.1840 H     1 <1>   0.0800 
 36 H       -1.4430     3.5610    -1.3860 H     1 <1>   0.0800 
 37 H        2.2260     2.4090    -0.3050 H     1 <1>   0.0800 
 38 H        1.5720     2.8100     1.2660 H     1 <1>   0.0800 
 39 H       -0.8210     4.2080     1.3200 H     1 <1>   0.4000 
 40 H        0.0280     5.7240    -0.9440 H     1 <1>   0.0800 
 41 H        0.6610     4.5060    -2.0450 H     1 <1>   0.0800 
 42 H        1.3600     4.9390     0.7600 H     1 <1>   0.4500 
 43 H        3.1120     4.3510    -1.5150 H     1 <1>   0.0800 
 44 H        3.6190     4.8870     1.4230 H     1 <1>   0.0800 
 45 H        4.0650     3.4610     0.5230 H     1 <1>   0.0800 
 46 H        2.2000     6.5760    -1.7550 H     1 <1>   0.0800 
 47 H        2.4110     6.9100    -0.0550 H     1 <1>   0.0800 
 48 H        5.6970     4.7230    -0.7640 H     1 <1>   0.0800 
 49 H        5.9740     4.9690     0.9400 H     1 <1>   0.0800 
 50 H        4.1380     8.0280    -1.2990 H     1 <1>   0.0800 
 51 H        4.6130     6.5510    -2.0990 H     1 <1>   0.0800 
 52 H        6.4930     9.0730    -1.2010 H     1 <1>   0.1500 
 53 H        5.6770    12.3810     1.4620 H     1 <1>   0.1500 
 54 H        6.6410    11.5790    -0.9130 H     1 <1>   0.1500 
@<TRIPOS>BOND
  1   1   2  2   
  2   1   3  2   
  3   1   4  am  
  4   1   5  1   
  5   4   6  1   
  6   4   7  1   
  7   5   8  1   
  8   5  27  1   
  9   5  28  1   
 10   6  29  1   
 11   6  30  1   
 12   6  31  1   
 13   7  32  1   
 14   7  33  1   
 15   7  34  1   
 16   8   9  1   
 17   8  10  1   
 18   8  35  1   
 19   9  11  1   
 20   9  12  1   
 21   9  36  1   
 22  10  13  1   
 23  10  37  1   
 24  10  38  1   
 25  11  39  1   
 26  12  13  1   
 27  12  40  1   
 28  12  41  1   
 29  13  14  1   
 30  13  42  1   
 31  14  15  1   
 32  14  16  1   
 33  14  43  1   
 34  15  17  1   
 35  15  44  1   
 36  15  45  1   
 37  16  18  1   
 38  16  46  1   
 39  16  47  1   
 40  17  19  1   
 41  17  48  1   
 42  17  49  1   
 43  18  19  1   
 44  18  50  1   
 45  18  51  1   
 46  19  20  am  
 47  20  21  2   
 48  20  22  1   
 49  22  23  1   
 50  22  24  2   
 51  23  25  1   
 52  24  26  1   
 53  24  52  1   
 54  25  26  2   
 55  25  53  1   
 56  26  54  1   
@<TRIPOS>SUBSTRUCTURE
  1 ****  14 GROUP 4 **** **** 0

# MOE 2024.06 (io_trps.svl 2023.06)
