@<TRIPOS>MOLECULE
NONAME
52 55 1 0 0 
SMALL
USER_CHARGES


@<TRIPOS>ATOM
  1 O        0.4550    -0.1150    -1.6300 O.3   1 <1>  -0.6800 
  2 C        1.7670    -0.4350    -1.3130 C.3   1 <1>   0.2000 
  3 C        1.7310    -1.4840    -0.1930 C.3   1 <1>  -0.0800 
  4 C        2.4120     0.8170    -0.6990 C.3   1 <1>   0.3430 
  5 C        1.7270    -0.6200     1.0690 C.3   1 <1>   0.3430 
  6 C        2.9180    -2.4820    -0.2470 C.3   1 <1>   0.0210 
  7 N        2.6440     0.4890     0.7360 N.4   1 <1>  -0.9590 
  8 C        4.2690    -1.9350     0.2000 C.2   1 <1>   0.1080 
  9 C        2.7180     1.6470     1.6430 C.3   1 <1>   0.5240 
 10 N        4.8630    -0.9300    -0.3690 N.2   1 <1>  -0.7070 
 11 C        5.0030    -2.4330     1.2710 C.2   1 <1>  -0.1500 
 12 C        4.1300     2.1640     1.5030 C.2   1 <1>  -0.1810 
 13 N        6.0240    -0.7800     0.3100 N.pl3 1 <1>   0.3000 
 14 C        6.1140    -1.6680     1.3200 C.2   1 <1>  -0.3320 
 15 C        5.2360     1.6210     2.1440 C.2   1 <1>   0.1390 
 16 C        4.6350     3.1630     0.7470 C.2   1 <1>  -0.3020 
 17 C        7.2920    -1.7310     2.2760 C.3   1 <1>  -0.0600 
 18 N        6.3360     2.2000     1.7920 N.2   1 <1>  -0.7070 
 19 N        5.9820     3.1880     0.9260 N.pl3 1 <1>   0.5930 
 20 C        6.9180     4.0600     0.2990 C.ar  1 <1>  -0.0230 
 21 C        6.7200     4.5150    -1.0030 C.ar  1 <1>  -0.1500 
 22 C        8.0570     4.4780     0.9810 C.ar  1 <1>  -0.1500 
 23 C        7.6270     5.3680    -1.6090 C.ar  1 <1>  -0.1430 
 24 C        8.9660     5.3310     0.3820 C.ar  1 <1>  -0.1500 
 25 C        8.7500     5.7770    -0.9090 C.ar  1 <1>  -0.1500 
 26 C        7.3980     5.8590    -3.0270 C.3   1 <1>  -0.0970 
 27 H        0.0560    -0.7890    -2.2200 H     1 <1>   0.4000 
 28 H        2.2730    -0.7580    -2.2080 H     1 <1>   0.0800 
 29 H        0.8240    -2.0600    -0.2450 H     1 <1>   0.0800 
 30 H        1.7470     1.6570    -0.8060 H     1 <1>   0.0800 
 31 H        3.3530     1.0290    -1.1810 H     1 <1>   0.0800 
 32 H        2.0620    -1.1720     1.9330 H     1 <1>   0.0800 
 33 H        0.7340    -0.2360     1.2400 H     1 <1>   0.0800 
 34 H        3.0230    -2.8640    -1.2470 H     1 <1>   0.0800 
 35 H        2.6820    -3.3240     0.3800 H     1 <1>   0.0800 
 36 H        3.5970     0.0670     0.7110 H     1 <1>   0.4500 
 37 H        1.9980     2.3980     1.3640 H     1 <1>   0.0800 
 38 H        2.5420     1.3440     2.6620 H     1 <1>   0.0800 
 39 H        4.7330    -3.2570     1.9080 H     1 <1>   0.1500 
 40 H        6.7230    -0.0540     0.0900 H     1 <1>   0.2700 
 41 H        5.2040     0.7990     2.8430 H     1 <1>   0.1500 
 42 H        4.1410     3.8560     0.0910 H     1 <1>   0.1500 
 43 H        7.1330    -2.4950     3.0160 H     1 <1>   0.0800 
 44 H        7.4210    -0.7880     2.7770 H     1 <1>   0.0800 
 45 H        8.1940    -1.9630     1.7370 H     1 <1>   0.0800 
 46 H        5.8530     4.2000    -1.5550 H     1 <1>   0.1500 
 47 H        8.2350     4.1340     1.9860 H     1 <1>   0.1500 
 48 H        9.8420     5.6480     0.9200 H     1 <1>   0.1500 
 49 H        9.4620     6.4420    -1.3670 H     1 <1>   0.1500 
 50 H        8.3360     5.9510    -3.5460 H     1 <1>   0.0800 
 51 H        6.9180     6.8210    -3.0070 H     1 <1>   0.0800 
 52 H        6.7770     5.1720    -3.5730 H     1 <1>   0.0800 
@<TRIPOS>BOND
  1   1   2  1   
  2   1  27  1   
  3   2   3  1   
  4   2   4  1   
  5   2  28  1   
  6   3   5  1   
  7   3   6  1   
  8   3  29  1   
  9   4   7  1   
 10   4  30  1   
 11   4  31  1   
 12   5   7  1   
 13   5  32  1   
 14   5  33  1   
 15   6   8  1   
 16   6  34  1   
 17   6  35  1   
 18   7   9  1   
 19   7  36  1   
 20   8  10  2   
 21   8  11  1   
 22   9  12  1   
 23   9  37  1   
 24   9  38  1   
 25  10  13  1   
 26  11  14  2   
 27  11  39  1   
 28  12  15  1   
 29  12  16  2   
 30  13  14  1   
 31  13  40  1   
 32  14  17  1   
 33  15  18  2   
 34  15  41  1   
 35  16  19  1   
 36  16  42  1   
 37  17  43  1   
 38  17  44  1   
 39  17  45  1   
 40  18  19  1   
 41  19  20  1   
 42  20  21  ar  
 43  20  22  ar  
 44  21  23  ar  
 45  21  46  1   
 46  22  24  ar  
 47  22  47  1   
 48  23  25  ar  
 49  23  26  1   
 50  24  25  ar  
 51  24  48  1   
 52  25  49  1   
 53  26  50  1   
 54  26  51  1   
 55  26  52  1   
@<TRIPOS>SUBSTRUCTURE
  1 ****  12 GROUP 4 **** **** 0

# MOE 2024.06 (io_trps.svl 2023.06)
