@<TRIPOS>MOLECULE
NONAME
54 58 1 0 0 
SMALL
USER_CHARGES


@<TRIPOS>ATOM
  1 O       -1.1020     1.1630    -0.1850 O.2   1 <1>  -0.5700 
  2 C       -1.8110     2.1930    -0.2570 C.2   1 <1>   0.5410 
  3 C       -3.2350     2.1670    -0.3600 C.2   1 <1>   0.0140 
  4 C       -1.1350     3.4310    -0.2340 C.2   1 <1>  -0.1360 
  5 C       -4.0020     0.9600    -0.3810 C.2   1 <1>   0.2710 
  6 C       -3.8750     3.4230    -0.4430 C.2   1 <1>  -0.1500 
  7 C       -1.8020     4.6200    -0.3140 C.2   1 <1>  -0.1500 
  8 N       -5.3350     1.0130    -0.4270 N.2   1 <1>  -0.6210 
  9 N       -3.3810    -0.2520    -0.3540 N.pl3 1 <1>  -0.6000 
 10 C       -3.1930     4.6140    -0.4210 C.2   1 <1>  -0.1500 
 11 C       -6.0320    -0.1170    -0.4450 C.2   1 <1>   0.4860 
 12 C       -4.0350    -1.4290    -0.3890 C.2   1 <1>  -0.0380 
 13 N       -7.4000    -0.0210    -0.4640 N.pl3 1 <1>  -0.7880 
 14 C       -5.3870    -1.3710    -0.4400 C.2   1 <1>  -0.1360 
 15 C       -3.2180    -2.7030    -0.3740 C.3   1 <1>  -0.1020 
 16 C       -8.1090     1.2720    -0.7360 C.3   1 <1>   0.2090 
 17 C       -8.3060    -1.1480    -0.0860 C.3   1 <1>   0.2090 
 18 C       -8.8600     1.7690     0.5200 C.3   1 <1>   0.1440 
 19 C       -9.6740    -0.6550     0.4210 C.3   1 <1>  -0.1600 
 20 C       -9.8590     2.8150     0.0580 C.ar  1 <1>   0.1670 
 21 C       -9.5250     0.6000     1.2970 C.3   1 <1>  -0.1600 
 22 C       -7.9340     2.5990     1.4480 C.3   1 <1>  -0.1600 
 23 N      -10.9960     2.5710    -0.5570 N.ar  1 <1>  -0.6200 
 24 C       -9.4290     4.0780     0.3420 C.ar  1 <1>  -0.1430 
 25 C       -8.0900     4.0710     1.0350 C.3   1 <1>  -0.0170 
 26 C      -11.6940     3.6540    -0.8680 C.ar  1 <1>   0.4770 
 27 C      -10.2320     5.1270    -0.0290 C.ar  1 <1>   0.1600 
 28 N      -11.3800     4.9230    -0.6420 N.ar  1 <1>  -0.6200 
 29 C      -13.0060     3.4120    -1.5740 C.3   1 <1>  -0.0970 
 30 H       -0.0640     3.3970    -0.1510 H     1 <1>   0.1500 
 31 H       -4.9470     3.4490    -0.5300 H     1 <1>   0.1500 
 32 H       -1.2750     5.5600    -0.2960 H     1 <1>   0.1500 
 33 H       -2.3490    -0.2220    -0.3060 H     1 <1>   0.4000 
 34 H       -3.7200     5.5510    -0.4880 H     1 <1>   0.1500 
 35 H       -5.9700    -2.2650    -0.4830 H     1 <1>   0.1500 
 36 H       -2.5640    -2.7270    -1.2260 H     1 <1>   0.0800 
 37 H       -3.8600    -3.5650    -0.4070 H     1 <1>   0.0800 
 38 H       -2.6260    -2.7460     0.5220 H     1 <1>   0.0800 
 39 H       -8.8180     1.1020    -1.5280 H     1 <1>   0.0800 
 40 H       -7.4340     2.0320    -1.0880 H     1 <1>   0.0800 
 41 H       -7.8390    -1.7150     0.7010 H     1 <1>   0.0800 
 42 H       -8.4450    -1.7960    -0.9350 H     1 <1>   0.0800 
 43 H      -10.1470    -1.4410     0.9830 H     1 <1>   0.0800 
 44 H      -10.3100    -0.4350    -0.4190 H     1 <1>   0.0800 
 45 H      -10.4850     0.9060     1.6740 H     1 <1>   0.0800 
 46 H       -8.9110     0.3340     2.1400 H     1 <1>   0.0800 
 47 H       -6.9100     2.2710     1.4010 H     1 <1>   0.0800 
 48 H       -8.2700     2.5080     2.4660 H     1 <1>   0.0800 
 49 H       -7.3190     4.3540     0.3390 H     1 <1>   0.0800 
 50 H       -8.0740     4.7260     1.8880 H     1 <1>   0.0800 
 51 H       -9.9350     6.1410     0.1740 H     1 <1>   0.1500 
 52 H      -13.4360     2.4850    -1.2450 H     1 <1>   0.0800 
 53 H      -12.8340     3.3660    -2.6330 H     1 <1>   0.0800 
 54 H      -13.6930     4.2100    -1.3610 H     1 <1>   0.0800 
@<TRIPOS>BOND
  1   1   2  2   
  2   2   3  1   
  3   2   4  1   
  4   3   5  2   
  5   3   6  1   
  6   4   7  2   
  7   4  30  1   
  8   5   8  1   
  9   5   9  1   
 10   6  10  2   
 11   6  31  1   
 12   7  10  1   
 13   7  32  1   
 14   8  11  2   
 15   9  12  1   
 16   9  33  1   
 17  10  34  1   
 18  11  13  1   
 19  11  14  1   
 20  12  14  2   
 21  12  15  1   
 22  13  16  1   
 23  13  17  1   
 24  14  35  1   
 25  15  36  1   
 26  15  37  1   
 27  15  38  1   
 28  16  18  1   
 29  16  39  1   
 30  16  40  1   
 31  17  19  1   
 32  17  41  1   
 33  17  42  1   
 34  18  20  1   
 35  18  21  1   
 36  18  22  1   
 37  19  21  1   
 38  19  43  1   
 39  19  44  1   
 40  20  23  ar  
 41  20  24  ar  
 42  21  45  1   
 43  21  46  1   
 44  22  25  1   
 45  22  47  1   
 46  22  48  1   
 47  23  26  ar  
 48  24  25  1   
 49  24  27  ar  
 50  25  49  1   
 51  25  50  1   
 52  26  28  ar  
 53  26  29  1   
 54  27  28  ar  
 55  27  51  1   
 56  29  52  1   
 57  29  53  1   
 58  29  54  1   
@<TRIPOS>SUBSTRUCTURE
  1 ****   8 GROUP 4 **** **** 0

# MOE 2024.06 (io_trps.svl 2023.06)
