@<TRIPOS>MOLECULE
NONAME
49 52 1 0 0 
SMALL
USER_CHARGES


@<TRIPOS>ATOM
  1 O        2.1840    -1.4390     2.5910 O.2   1 <1>  -0.5700 
  2 C        1.9760    -1.5240     1.4020 C.2   1 <1>   0.4230 
  3 C        2.1100    -0.3920     0.4950 C.ar  1 <1>   0.3960 
  4 C        1.5650    -2.8960     0.8540 C.3   1 <1>  -0.0190 
  5 N        1.9160    -0.5630    -0.8250 N.ar  1 <1>  -0.6200 
  6 C        2.4420     0.8630     1.0130 C.ar  1 <1>  -0.1500 
  7 C        0.7820    -3.7060     1.9010 C.3   1 <1>   0.1100 
  8 C        2.7940    -3.6930     0.3770 C.3   1 <1>  -0.1600 
  9 C        2.0520     0.4970    -1.6010 C.ar  1 <1>   0.1600 
 10 C        2.5800     1.9620     0.1950 C.ar  1 <1>  -0.1500 
 11 N        0.3740    -5.0080     1.3460 N.3   1 <1>  -0.8100 
 12 C        2.3720    -5.0930    -0.0880 C.3   1 <1>  -0.1600 
 13 C        2.3770     1.7630    -1.1510 C.ar  1 <1>  -0.1500 
 14 C        1.5490    -5.8170     0.9820 C.3   1 <1>   0.1100 
 15 C       -0.4890    -5.7380     2.3190 C.3   1 <1>   0.1710 
 16 C       -1.0750    -7.0770     1.8370 C.2   1 <1>   0.5690 
 17 O       -0.8080    -8.0540     2.4980 O.2   1 <1>  -0.5700 
 18 N       -1.8820    -7.1280     0.7140 N.am  1 <1>  -0.4770 
 19 C       -2.5760    -8.2180     0.1720 C.ar  1 <1>   0.1170 
 20 C       -2.1080    -5.9420    -0.1600 C.3   1 <1>   0.1400 
 21 C       -3.2920    -7.8550    -0.9490 C.ar  1 <1>  -0.1430 
 22 C       -2.6230    -9.5380     0.6060 C.ar  1 <1>  -0.1500 
 23 C       -3.1050    -6.3890    -1.2400 C.3   1 <1>  -0.0170 
 24 C       -4.0550    -8.7680    -1.6530 C.ar  1 <1>  -0.1500 
 25 C       -3.3830   -10.4640    -0.0890 C.ar  1 <1>  -0.1500 
 26 C       -4.0970   -10.0820    -1.2160 C.ar  1 <1>  -0.1500 
 27 H        0.9020    -2.7510     0.0210 H     1 <1>   0.0800 
 28 H        2.5940     0.9700     2.0730 H     1 <1>   0.1500 
 29 H       -0.0910    -3.1470     2.1920 H     1 <1>   0.0800 
 30 H        1.3920    -3.8580     2.7770 H     1 <1>   0.0800 
 31 H        3.4950    -3.7830     1.1890 H     1 <1>   0.0800 
 32 H        3.2790    -3.1720    -0.4310 H     1 <1>   0.0800 
 33 H        1.8950     0.3520    -2.6570 H     1 <1>   0.1500 
 34 H        2.8360     2.9310     0.5900 H     1 <1>   0.1500 
 35 H        3.2460    -5.6760    -0.3190 H     1 <1>   0.0800 
 36 H        1.7810    -5.0170    -0.9840 H     1 <1>   0.0800 
 37 H        2.4690     2.5780    -1.8470 H     1 <1>   0.1500 
 38 H        1.2330    -6.7700     0.5900 H     1 <1>   0.0800 
 39 H        2.1570    -5.9950     1.8540 H     1 <1>   0.0800 
 40 H       -1.3160    -5.1080     2.5920 H     1 <1>   0.0800 
 41 H        0.0760    -5.9280     3.2150 H     1 <1>   0.0800 
 42 H       -1.1780    -5.6510    -0.6170 H     1 <1>   0.0800 
 43 H       -2.5030    -5.1230     0.4130 H     1 <1>   0.0800 
 44 H       -2.0730    -9.8430     1.4760 H     1 <1>   0.1500 
 45 H       -2.6990    -6.2350    -2.2230 H     1 <1>   0.0800 
 46 H       -4.0350    -5.8590    -1.1420 H     1 <1>   0.0800 
 47 H       -4.6070    -8.4650    -2.5250 H     1 <1>   0.1500 
 48 H       -3.4180   -11.4850     0.2480 H     1 <1>   0.1500 
 49 H       -4.6850   -10.8080    -1.7500 H     1 <1>   0.1500 
@<TRIPOS>BOND
  1   1   2  2   
  2   2   3  1   
  3   2   4  1   
  4   3   5  ar  
  5   3   6  ar  
  6   4   7  1   
  7   4   8  1   
  8   4  27  1   
  9   5   9  ar  
 10   6  10  ar  
 11   6  28  1   
 12   7  11  1   
 13   7  29  1   
 14   7  30  1   
 15   8  12  1   
 16   8  31  1   
 17   8  32  1   
 18   9  13  ar  
 19   9  33  1   
 20  10  13  ar  
 21  10  34  1   
 22  11  14  1   
 23  11  15  1   
 24  12  14  1   
 25  12  35  1   
 26  12  36  1   
 27  13  37  1   
 28  14  38  1   
 29  14  39  1   
 30  15  16  1   
 31  15  40  1   
 32  15  41  1   
 33  16  17  2   
 34  16  18  am  
 35  18  19  1   
 36  18  20  1   
 37  19  21  ar  
 38  19  22  ar  
 39  20  23  1   
 40  20  42  1   
 41  20  43  1   
 42  21  23  1   
 43  21  24  ar  
 44  22  25  ar  
 45  22  44  1   
 46  23  45  1   
 47  23  46  1   
 48  24  26  ar  
 49  24  47  1   
 50  25  26  ar  
 51  25  48  1   
 52  26  49  1   
@<TRIPOS>SUBSTRUCTURE
  1 ****  11 GROUP 4 **** **** 0

# MOE 2024.06 (io_trps.svl 2023.06)
