@<TRIPOS>MOLECULE
NONAME
40 42 1 0 0 
SMALL
USER_CHARGES


@<TRIPOS>ATOM
  1 F        3.1540    -0.4670     3.0390 F     1 <1>  -0.1900 
  2 C        2.8630    -0.9200     1.8510 C.ar  1 <1>   0.1900 
  3 C        2.6820    -0.0150     0.8250 C.ar  1 <1>  -0.1500 
  4 C        2.7450    -2.2850     1.6690 C.ar  1 <1>  -0.1500 
  5 C        2.3780    -0.5400    -0.4150 C.ar  1 <1>   0.1900 
  6 C        2.4250    -2.8010     0.4120 C.ar  1 <1>   0.0860 
  7 F        2.1980     0.2790    -1.4150 F     1 <1>  -0.1900 
  8 C        2.2530    -1.8980    -0.6380 C.ar  1 <1>  -0.1500 
  9 C        2.2800    -4.2300     0.2120 C.2   1 <1>   0.5440 
 10 O        3.2150    -4.9550     0.4940 O.2   1 <1>  -0.5700 
 11 N        1.1160    -4.7900    -0.2780 N.am  1 <1>  -0.6600 
 12 C       -0.1860    -4.0560    -0.2560 C.3   1 <1>   0.2200 
 13 C        1.1080    -6.2320    -0.6780 C.3   1 <1>   0.0600 
 14 C       -1.3130    -4.7980     0.4610 C.3   1 <1>  -0.1600 
 15 C       -0.7410    -3.7770    -1.6490 C.3   1 <1>  -0.1600 
 16 C       -2.5950    -4.1420    -0.0680 C.3   1 <1>  -0.0800 
 17 C       -2.2320    -3.5000    -1.4200 C.3   1 <1>  -0.0800 
 18 C       -3.1170    -3.0080     0.8250 C.3   1 <1>  -0.1600 
 19 C       -2.5630    -2.0050    -1.2920 C.3   1 <1>  -0.1600 
 20 C       -3.5640    -1.9300    -0.1500 C.3   1 <1>   0.2000 
 21 O       -3.5110    -0.6920     0.4500 O.3   1 <1>  -0.6800 
 22 H        2.7770     1.0440     0.9830 H     1 <1>   0.1500 
 23 H        2.9030    -2.9550     2.4970 H     1 <1>   0.1500 
 24 H        2.0280    -2.2590    -1.6250 H     1 <1>   0.1500 
 25 H       -0.0670    -3.1120     0.2470 H     1 <1>   0.0800 
 26 H        0.3860    -6.4120    -1.4530 H     1 <1>   0.0800 
 27 H        0.8730    -6.8410     0.1770 H     1 <1>   0.0800 
 28 H        2.0780    -6.5200    -1.0460 H     1 <1>   0.0800 
 29 H       -1.3310    -5.8340     0.1780 H     1 <1>   0.0800 
 30 H       -1.2220    -4.7250     1.5300 H     1 <1>   0.0800 
 31 H       -0.2420    -2.9530    -2.1260 H     1 <1>   0.0800 
 32 H       -0.6460    -4.6490    -2.2690 H     1 <1>   0.0800 
 33 H       -3.3700    -4.8790    -0.2040 H     1 <1>   0.0800 
 34 H       -2.8240    -3.9360    -2.2080 H     1 <1>   0.0800 
 35 H       -2.3250    -2.6290     1.4480 H     1 <1>   0.0800 
 36 H       -3.9340    -3.3380     1.4420 H     1 <1>   0.0800 
 37 H       -2.9830    -1.6170    -2.2030 H     1 <1>   0.0800 
 38 H       -1.6790    -1.4480    -1.0370 H     1 <1>   0.0800 
 39 H       -4.5680    -2.1120    -0.4980 H     1 <1>   0.0800 
 40 H       -2.6080    -0.5140     0.7690 H     1 <1>   0.4000 
@<TRIPOS>BOND
  1   1   2  1   
  2   2   3  ar  
  3   2   4  ar  
  4   3   5  ar  
  5   3  22  1   
  6   4   6  ar  
  7   4  23  1   
  8   5   7  1   
  9   5   8  ar  
 10   6   8  ar  
 11   6   9  1   
 12   8  24  1   
 13   9  10  2   
 14   9  11  am  
 15  11  12  1   
 16  11  13  1   
 17  12  14  1   
 18  12  15  1   
 19  12  25  1   
 20  13  26  1   
 21  13  27  1   
 22  13  28  1   
 23  14  16  1   
 24  14  29  1   
 25  14  30  1   
 26  15  17  1   
 27  15  31  1   
 28  15  32  1   
 29  16  17  1   
 30  16  18  1   
 31  16  33  1   
 32  17  19  1   
 33  17  34  1   
 34  18  20  1   
 35  18  35  1   
 36  18  36  1   
 37  19  20  1   
 38  19  37  1   
 39  19  38  1   
 40  20  21  1   
 41  20  39  1   
 42  21  40  1   
@<TRIPOS>SUBSTRUCTURE
  1 ****  12 GROUP 4 **** **** 0

# MOE 2024.06 (io_trps.svl 2023.06)
