@<TRIPOS>MOLECULE
NONAME
49 51 1 0 0 
SMALL
USER_CHARGES


@<TRIPOS>ATOM
  1 S        1.7850     0.8140    -0.5880 S.3   1 <1>  -0.4600 
  2 C        0.6030     1.5920     0.5770 C.3   1 <1>   0.1310 
  3 C        1.5490    -0.9660    -0.3230 C.3   1 <1>   0.1650 
  4 C        0.8100     3.0990     0.6400 C.2   1 <1>   0.5690 
  5 C        0.1230    -1.3410    -0.7320 C.3   1 <1>  -0.1950 
  6 O        0.5130     3.6970     1.6470 O.2   1 <1>  -0.5700 
  7 N        1.3440     3.7420    -0.4310 N.am  1 <1>  -0.7300 
  8 C       -1.0050    -1.3520     0.2520 C.3   1 <1>  -0.2000 
  9 C       -0.4670    -2.6430    -0.2920 C.3   1 <1>  -0.2000 
 10 C        1.6390     5.1850    -0.4860 C.3   1 <1>   0.1400 
 11 C        2.9210     5.4690     0.3090 C.3   1 <1>  -0.0800 
 12 C        3.2780     6.9540     0.3470 C.3   1 <1>   0.3430 
 13 C        4.1610     4.7610    -0.2440 C.3   1 <1>  -0.1600 
 14 N        4.7220     7.0400    -0.0160 N.4   1 <1>  -0.9590 
 15 C        5.3050     5.6820     0.1300 C.3   1 <1>   0.3430 
 16 C        5.4710     8.0780     0.7410 C.3   1 <1>   0.4860 
 17 C        6.8680     8.1700     0.1610 C.ar  1 <1>  -0.1440 
 18 C        7.0850     8.8370    -1.0380 C.ar  1 <1>  -0.1500 
 19 C        7.9390     7.5850     0.8200 C.ar  1 <1>  -0.1500 
 20 C        8.3580     8.9040    -1.5750 C.ar  1 <1>  -0.1500 
 21 C        9.2120     7.6540     0.2810 C.ar  1 <1>  -0.1500 
 22 C        9.4200     8.3110    -0.9180 C.ar  1 <1>  -0.1500 
 23 H        0.7640     1.1530     1.5440 H     1 <1>   0.0800 
 24 H       -0.3890     1.3720     0.2310 H     1 <1>   0.0800 
 25 H        1.7410    -1.1740     0.7150 H     1 <1>   0.0800 
 26 H        2.2730    -1.4720    -0.9380 H     1 <1>   0.0800 
 27 H       -0.0970    -1.0380    -1.7430 H     1 <1>   0.1000 
 28 H        1.6460     3.1580    -1.2200 H     1 <1>   0.3700 
 29 H       -1.9780    -1.0220    -0.0710 H     1 <1>   0.1000 
 30 H       -0.8170    -1.1230     1.2870 H     1 <1>   0.1000 
 31 H        0.0940    -3.2830     0.3680 H     1 <1>   0.1000 
 32 H       -1.0700    -3.2000    -0.9890 H     1 <1>   0.1000 
 33 H        0.8120     5.7240    -0.0530 H     1 <1>   0.0800 
 34 H        1.7440     5.4890    -1.5140 H     1 <1>   0.0800 
 35 H        2.7610     5.1600     1.3280 H     1 <1>   0.0800 
 36 H        3.1070     7.3370     1.3400 H     1 <1>   0.0800 
 37 H        2.6800     7.5130    -0.3550 H     1 <1>   0.0800 
 38 H        4.1130     4.6740    -1.3160 H     1 <1>   0.0800 
 39 H        4.2870     3.7790     0.1780 H     1 <1>   0.0800 
 40 H        4.8020     7.2820    -1.0110 H     1 <1>   0.4500 
 41 H        6.1650     5.5440    -0.5070 H     1 <1>   0.0800 
 42 H        5.5860     5.5090     1.1560 H     1 <1>   0.0800 
 43 H        5.5210     7.8170     1.7860 H     1 <1>   0.0800 
 44 H        4.9820     9.0340     0.6480 H     1 <1>   0.0800 
 45 H        6.2760     9.3140    -1.5650 H     1 <1>   0.1500 
 46 H        7.8030     7.0720     1.7580 H     1 <1>   0.1500 
 47 H        8.5280     9.4220    -2.5050 H     1 <1>   0.1500 
 48 H       10.0440     7.2000     0.7920 H     1 <1>   0.1500 
 49 H       10.4110     8.3660    -1.3370 H     1 <1>   0.1500 
@<TRIPOS>BOND
  1   1   2  1   
  2   1   3  1   
  3   2   4  1   
  4   2  23  1   
  5   2  24  1   
  6   3   5  1   
  7   3  25  1   
  8   3  26  1   
  9   4   6  2   
 10   4   7  am  
 11   5   8  1   
 12   5   9  1   
 13   5  27  1   
 14   7  10  1   
 15   7  28  1   
 16   8   9  1   
 17   8  29  1   
 18   8  30  1   
 19   9  31  1   
 20   9  32  1   
 21  10  11  1   
 22  10  33  1   
 23  10  34  1   
 24  11  12  1   
 25  11  13  1   
 26  11  35  1   
 27  12  14  1   
 28  12  36  1   
 29  12  37  1   
 30  13  15  1   
 31  13  38  1   
 32  13  39  1   
 33  14  15  1   
 34  14  16  1   
 35  14  40  1   
 36  15  41  1   
 37  15  42  1   
 38  16  17  1   
 39  16  43  1   
 40  16  44  1   
 41  17  18  ar  
 42  17  19  ar  
 43  18  20  ar  
 44  18  45  1   
 45  19  21  ar  
 46  19  46  1   
 47  20  22  ar  
 48  20  47  1   
 49  21  22  ar  
 50  21  48  1   
 51  22  49  1   
@<TRIPOS>SUBSTRUCTURE
  1 ****  13 GROUP 4 **** **** 0

# MOE 2024.06 (io_trps.svl 2023.06)
