@<TRIPOS>MOLECULE
NONAME
54 57 1 0 0 
SMALL
USER_CHARGES


@<TRIPOS>ATOM
  1 O        0.0900     1.0470     3.1390 O.2   1 <1>  -0.5700 
  2 C       -0.7900     1.4610     2.4060 C.2   1 <1>   0.5440 
  3 N       -1.4330     0.5780     1.5560 N.am  1 <1>  -0.6600 
  4 C       -1.1400     2.8630     2.4870 C.ar  1 <1>   0.0860 
  5 C       -2.4930     1.0330     0.6050 C.3   1 <1>   0.2200 
  6 C       -1.0650    -0.8730     1.5470 C.3   1 <1>   0.0600 
  7 C       -0.7890     3.8060     1.5090 C.ar  1 <1>   0.0820 
  8 C       -1.8800     3.3150     3.5800 C.ar  1 <1>  -0.1500 
  9 C       -3.7680     0.1940     0.6390 C.3   1 <1>  -0.1600 
 10 C       -2.0550     0.9940    -0.8570 C.3   1 <1>  -0.1600 
 11 O       -0.0670     3.4840     0.4160 O.3   1 <1>  -0.3620 
 12 C       -1.2040     5.1240     1.6130 C.ar  1 <1>  -0.1500 
 13 C       -2.2820     4.6330     3.6900 C.ar  1 <1>  -0.1500 
 14 C       -4.4660     0.5170    -0.6880 C.3   1 <1>  -0.0800 
 15 C       -3.3680     1.0050    -1.6510 C.3   1 <1>  -0.0800 
 16 C        1.2500     2.9880     0.5670 C.3   1 <1>   0.2630 
 17 C       -1.9480     5.5410     2.7010 C.ar  1 <1>  -0.1500 
 18 C       -5.4850     1.6600    -0.5780 C.3   1 <1>  -0.1600 
 19 C       -3.7840     2.4110    -2.1090 C.3   1 <1>  -0.1600 
 20 C        1.4600     1.8440    -0.4130 C.ar  1 <1>  -0.1440 
 21 C       -5.2790     2.4790    -1.8430 C.3   1 <1>   0.2000 
 22 C        1.3730     2.0650    -1.7800 C.ar  1 <1>  -0.1500 
 23 C        1.7370     0.5680     0.0510 C.ar  1 <1>  -0.1500 
 24 O       -5.6660     3.7840    -1.6300 O.3   1 <1>  -0.6800 
 25 C        1.5600     1.0230    -2.6710 C.ar  1 <1>  -0.1500 
 26 C        1.9250    -0.4760    -0.8380 C.ar  1 <1>  -0.1500 
 27 C        1.8370    -0.2490    -2.2000 C.ar  1 <1>  -0.1500 
 28 H       -2.7790     2.0460     0.8260 H     1 <1>   0.0800 
 29 H       -1.0300    -1.2520     0.5430 H     1 <1>   0.0800 
 30 H       -1.7890    -1.4310     2.1130 H     1 <1>   0.0800 
 31 H       -0.0970    -1.0270     1.9910 H     1 <1>   0.0800 
 32 H       -2.1420     2.6100     4.3500 H     1 <1>   0.1500 
 33 H       -3.5340    -0.8540     0.6450 H     1 <1>   0.0800 
 34 H       -4.3760     0.4280     1.4940 H     1 <1>   0.0800 
 35 H       -1.4220     1.8250    -1.1050 H     1 <1>   0.0800 
 36 H       -1.5270     0.0840    -1.0710 H     1 <1>   0.0800 
 37 H       -0.9390     5.8220     0.8390 H     1 <1>   0.1500 
 38 H       -2.8540     4.9540     4.5440 H     1 <1>   0.1500 
 39 H       -4.9480    -0.3600    -1.0890 H     1 <1>   0.0800 
 40 H       -3.2990     0.3500    -2.5030 H     1 <1>   0.0800 
 41 H        1.9290     3.7930     0.3510 H     1 <1>   0.0800 
 42 H        1.4090     2.6670     1.5810 H     1 <1>   0.0800 
 43 H       -2.2630     6.5680     2.7810 H     1 <1>   0.1500 
 44 H       -5.2720     2.2660     0.2850 H     1 <1>   0.0800 
 45 H       -6.4910     1.2850    -0.5160 H     1 <1>   0.0800 
 46 H       -3.5670     2.5640    -3.1510 H     1 <1>   0.0800 
 47 H       -3.2760     3.1580    -1.5230 H     1 <1>   0.0800 
 48 H       -5.8420     2.0720    -2.6670 H     1 <1>   0.0800 
 49 H        1.1540     3.0510    -2.1500 H     1 <1>   0.1500 
 50 H        1.8010     0.3820     1.1110 H     1 <1>   0.1500 
 51 H       -5.1350     4.1690    -0.9090 H     1 <1>   0.4000 
 52 H        1.4900     1.2020    -3.7290 H     1 <1>   0.1500 
 53 H        2.1400    -1.4630    -0.4680 H     1 <1>   0.1500 
 54 H        1.9830    -1.0600    -2.8920 H     1 <1>   0.1500 
@<TRIPOS>BOND
  1   1   2  2   
  2   2   3  am  
  3   2   4  1   
  4   3   5  1   
  5   3   6  1   
  6   4   7  ar  
  7   4   8  ar  
  8   5   9  1   
  9   5  10  1   
 10   5  28  1   
 11   6  29  1   
 12   6  30  1   
 13   6  31  1   
 14   7  11  1   
 15   7  12  ar  
 16   8  13  ar  
 17   8  32  1   
 18   9  14  1   
 19   9  33  1   
 20   9  34  1   
 21  10  15  1   
 22  10  35  1   
 23  10  36  1   
 24  11  16  1   
 25  12  17  ar  
 26  12  37  1   
 27  13  17  ar  
 28  13  38  1   
 29  14  15  1   
 30  14  18  1   
 31  14  39  1   
 32  15  19  1   
 33  15  40  1   
 34  16  20  1   
 35  16  41  1   
 36  16  42  1   
 37  17  43  1   
 38  18  21  1   
 39  18  44  1   
 40  18  45  1   
 41  19  21  1   
 42  19  46  1   
 43  19  47  1   
 44  20  22  ar  
 45  20  23  ar  
 46  21  24  1   
 47  21  48  1   
 48  22  25  ar  
 49  22  49  1   
 50  23  26  ar  
 51  23  50  1   
 52  24  51  1   
 53  25  27  ar  
 54  25  52  1   
 55  26  27  ar  
 56  26  53  1   
 57  27  54  1   
@<TRIPOS>SUBSTRUCTURE
  1 ****   5 GROUP 4 **** **** 0

# MOE 2024.06 (io_trps.svl 2023.06)
