@<TRIPOS>MOLECULE
NONAME
48 50 1 0 0 
SMALL
USER_CHARGES


@<TRIPOS>ATOM
  1 F        0.6050    -0.7190    -1.5100 F     1 <1>  -0.3400 
  2 C        1.2760    -1.7240    -0.9620 C.3   1 <1>   0.8800 
  3 F        2.3650    -1.8780    -1.7000 F     1 <1>  -0.3400 
  4 O        0.5040    -2.8970    -1.0750 O.3   1 <1>  -0.3630 
  5 C       -0.4500    -3.1790    -0.1550 C.ar  1 <1>   0.0830 
  6 C       -0.8280    -4.5050    -0.0360 C.ar  1 <1>  -0.1500 
  7 C       -1.0500    -2.2180     0.6530 C.ar  1 <1>  -0.1500 
  8 C       -1.7940    -4.9140     0.8810 C.ar  1 <1>   0.0860 
  9 C       -2.0050    -2.6020     1.5770 C.ar  1 <1>  -0.1500 
 10 C       -2.1780    -6.3110     0.9930 C.2   1 <1>   0.5440 
 11 C       -2.3670    -3.9320     1.6900 C.ar  1 <1>  -0.1500 
 12 O       -1.3410    -7.1880     0.8690 O.2   1 <1>  -0.5700 
 13 N       -3.4810    -6.6940     1.2180 N.am  1 <1>  -0.6600 
 14 C       -3.7900    -8.0830     1.6620 C.3   1 <1>   0.1400 
 15 C       -4.6280    -6.0270     0.5380 C.3   1 <1>   0.1400 
 16 C       -4.1220    -8.9370     0.4160 C.3   1 <1>   0.4230 
 17 C       -5.0270    -6.8660    -0.6860 C.3   1 <1>  -0.1600 
 18 N       -4.3380   -10.3970     0.7010 N.4   1 <1>  -0.9590 
 19 C       -5.3480    -8.3430    -0.3130 C.3   1 <1>  -0.1060 
 20 C       -4.5310   -11.1820    -0.5440 C.3   1 <1>   0.3430 
 21 C       -3.3360   -11.0130     1.6110 C.3   1 <1>   0.2630 
 22 C       -6.5630    -8.4130     0.6340 C.2   1 <1>   0.9060 
 23 C       -5.6170    -9.1390    -1.6120 C.3   1 <1>  -0.1600 
 24 C       -5.7270   -10.6470    -1.3350 C.3   1 <1>  -0.1600 
 25 O       -6.6420    -9.3540     1.4410 O.co2 1 <1>  -0.9000 
 26 O       -7.4220    -7.5340     0.5860 O.co2 1 <1>  -0.9000 
 27 H        1.5480    -1.4890     0.0520 H     1 <1>   0.0800 
 28 H       -0.3600    -5.2410    -0.6660 H     1 <1>   0.1500 
 29 H       -0.8030    -1.1740     0.5760 H     1 <1>   0.1500 
 30 H       -2.4720    -1.8640     2.2080 H     1 <1>   0.1500 
 31 H       -3.1070    -4.2200     2.4170 H     1 <1>   0.1500 
 32 H       -2.9360    -8.4820     2.1770 H     1 <1>   0.0800 
 33 H       -4.6190    -8.0600     2.3480 H     1 <1>   0.0800 
 34 H       -5.4580    -5.9480     1.2230 H     1 <1>   0.0800 
 35 H       -4.3650    -5.0340     0.2200 H     1 <1>   0.0800 
 36 H       -3.2730    -8.8540    -0.2410 H     1 <1>   0.0800 
 37 H       -5.8910    -6.4150    -1.1440 H     1 <1>   0.0800 
 38 H       -4.2260    -6.8260    -1.4040 H     1 <1>   0.0800 
 39 H       -5.2790   -10.3650     1.1810 H     1 <1>   0.4500 
 40 H       -3.6420   -11.1200    -1.1490 H     1 <1>   0.0800 
 41 H       -4.7070   -12.2160    -0.2980 H     1 <1>   0.0800 
 42 H       -2.3490   -10.9330     1.1870 H     1 <1>   0.0800 
 43 H       -3.5700   -12.0530     1.7690 H     1 <1>   0.0800 
 44 H       -3.3480   -10.5160     2.5670 H     1 <1>   0.0800 
 45 H       -6.5320    -8.7890    -2.0610 H     1 <1>   0.0800 
 46 H       -4.8190    -8.9690    -2.3140 H     1 <1>   0.0800 
 47 H       -5.7990   -11.1760    -2.2680 H     1 <1>   0.0800 
 48 H       -6.6300   -10.8510    -0.7850 H     1 <1>   0.0800 
@<TRIPOS>BOND
  1   1   2  1   
  2   2   3  1   
  3   2   4  1   
  4   2  27  1   
  5   4   5  1   
  6   5   6  ar  
  7   5   7  ar  
  8   6   8  ar  
  9   6  28  1   
 10   7   9  ar  
 11   7  29  1   
 12   8  10  1   
 13   8  11  ar  
 14   9  11  ar  
 15   9  30  1   
 16  10  12  2   
 17  10  13  am  
 18  11  31  1   
 19  13  14  1   
 20  13  15  1   
 21  14  16  1   
 22  14  32  1   
 23  14  33  1   
 24  15  17  1   
 25  15  34  1   
 26  15  35  1   
 27  16  18  1   
 28  16  19  1   
 29  16  36  1   
 30  17  19  1   
 31  17  37  1   
 32  17  38  1   
 33  18  20  1   
 34  18  21  1   
 35  18  39  1   
 36  19  22  1   
 37  19  23  1   
 38  20  24  1   
 39  20  40  1   
 40  20  41  1   
 41  21  42  1   
 42  21  43  1   
 43  21  44  1   
 44  22  25  ar  
 45  22  26  ar  
 46  23  24  1   
 47  23  45  1   
 48  23  46  1   
 49  24  47  1   
 50  24  48  1   
@<TRIPOS>SUBSTRUCTURE
  1 ****  10 GROUP 4 **** **** 0

# MOE 2024.06 (io_trps.svl 2023.06)
