@<TRIPOS>MOLECULE
NONAME
40 43 1 0 0 
SMALL
USER_CHARGES


@<TRIPOS>ATOM
  1 F       -1.2080    -1.6070     0.9210 F     1 <1>  -0.1900 
  2 C       -1.8360    -2.7550     0.9200 C.ar  1 <1>   0.1900 
  3 C       -1.1370    -3.8950     0.6040 C.ar  1 <1>  -0.1500 
  4 C       -3.1970    -2.7530     1.2450 C.ar  1 <1>  -0.1500 
  5 C       -1.8360    -5.1000     0.6120 C.ar  1 <1>   0.2270 
  6 C       -3.8850    -3.9470     1.2540 C.ar  1 <1>  -0.1500 
  7 N       -1.3950    -6.3590     0.3360 N.2   1 <1>  -0.5650 
  8 C       -3.1830    -5.1120     0.9350 C.ar  1 <1>  -0.1520 
  9 C       -2.4430    -7.0970     0.4950 C.2   1 <1>   0.0060 
 10 N       -3.5560    -6.4130     0.8570 N.pl3 1 <1>   0.0330 
 11 C       -2.5080    -8.5990     0.3050 C.3   1 <1>   0.0200 
 12 C       -2.5100    -8.9610    -1.1880 C.3   1 <1>  -0.0990 
 13 C       -2.9820   -10.3890    -1.3840 C.2   1 <1>   0.5690 
 14 O       -2.1590   -11.2160    -1.7060 O.2   1 <1>  -0.5700 
 15 N       -4.2790   -10.7360    -1.1390 N.am  1 <1>  -0.6600 
 16 C       -5.4390    -9.7960    -1.2100 C.3   1 <1>   0.2350 
 17 C       -4.4990   -11.7280    -0.0540 C.3   1 <1>   0.2350 
 18 C       -6.2130    -9.9710     0.0810 C.3   1 <1>  -0.2420 
 19 C       -5.5970   -11.1410     0.8170 C.3   1 <1>  -0.2420 
 20 C       -6.7460    -8.6290     0.5840 C.2   1 <1>   0.9470 
 21 C       -7.0240   -11.2090     0.3570 C.3   1 <1>  -0.2000 
 22 C       -5.2280   -11.1960     2.2970 C.2   1 <1>   0.9470 
 23 O       -7.9660    -8.4380     0.6340 O.co2 1 <1>  -0.9000 
 24 O       -5.9500    -7.6960     0.7620 O.co2 1 <1>  -0.9000 
 25 O       -4.1820   -10.6490     2.6710 O.co2 1 <1>  -0.9000 
 26 O       -5.9000   -11.9040     3.0580 O.co2 1 <1>  -0.9000 
 27 H       -0.0950    -3.8850     0.3560 H     1 <1>   0.1500 
 28 H       -3.6840    -1.8250     1.4820 H     1 <1>   0.1500 
 29 H       -4.9330    -4.0080     1.4950 H     1 <1>   0.1500 
 30 H       -4.5030    -6.8210     0.9960 H     1 <1>   0.2700 
 31 H       -1.6720    -9.0650     0.7950 H     1 <1>   0.0800 
 32 H       -3.4010    -8.9640     0.7830 H     1 <1>   0.0800 
 33 H       -1.5120    -8.8580    -1.5710 H     1 <1>   0.0800 
 34 H       -3.1330    -8.2860    -1.7400 H     1 <1>   0.0800 
 35 H       -5.1220    -8.7770    -1.3190 H     1 <1>   0.0800 
 36 H       -6.0660   -10.0530    -2.0450 H     1 <1>   0.0800 
 37 H       -4.8080   -12.6710    -0.4680 H     1 <1>   0.0800 
 38 H       -3.5930   -11.8700     0.5140 H     1 <1>   0.0800 
 39 H       -7.2970   -11.8500    -0.4600 H     1 <1>   0.1000 
 40 H       -7.7910   -11.1540     1.1120 H     1 <1>   0.1000 
@<TRIPOS>BOND
  1   1   2  1   
  2   2   3  ar  
  3   2   4  ar  
  4   3   5  ar  
  5   3  27  1   
  6   4   6  ar  
  7   4  28  1   
  8   5   7  1   
  9   5   8  ar  
 10   6   8  ar  
 11   6  29  1   
 12   7   9  2   
 13   8  10  1   
 14   9  10  1   
 15   9  11  1   
 16  10  30  1   
 17  11  12  1   
 18  11  31  1   
 19  11  32  1   
 20  12  13  1   
 21  12  33  1   
 22  12  34  1   
 23  13  14  2   
 24  13  15  am  
 25  15  16  1   
 26  15  17  1   
 27  16  18  1   
 28  16  35  1   
 29  16  36  1   
 30  17  19  1   
 31  17  37  1   
 32  17  38  1   
 33  18  19  1   
 34  18  20  1   
 35  18  21  1   
 36  19  21  1   
 37  19  22  1   
 38  20  23  ar  
 39  20  24  ar  
 40  21  39  1   
 41  21  40  1   
 42  22  25  ar  
 43  22  26  ar  
@<TRIPOS>SUBSTRUCTURE
  1 ****  11 GROUP 4 **** **** 0

# MOE 2024.06 (io_trps.svl 2023.06)
