@<TRIPOS>MOLECULE
NONAME
46 48 1 0 0 
SMALL
USER_CHARGES


@<TRIPOS>ATOM
  1 N       -0.4910    -0.3000     0.6980 N.2   1 <1>  -0.3380 
  2 N        0.4010    -1.2090     0.3040 N.2   1 <1>  -0.3380 
  3 C       -1.6460    -0.6970     0.2950 C.2   1 <1>   0.0070 
  4 C       -0.2490    -2.1220    -0.3230 C.2   1 <1>   0.0360 
  5 N       -1.5580    -1.8620    -0.3570 N.pl3 1 <1>   0.0480 
  6 C       -2.9240     0.0830     0.5430 C.3   1 <1>  -0.0600 
  7 C       -2.6230    -2.7140    -0.9080 C.3   1 <1>   0.0960 
  8 C       -3.0920    -3.6670     0.2010 C.3   1 <1>   0.3430 
  9 N       -4.1160    -4.6700    -0.2640 N.4   1 <1>  -0.9590 
 10 C       -5.4190    -4.0320    -0.6320 C.3   1 <1>   0.3430 
 11 C       -4.2980    -5.7160     0.7890 C.3   1 <1>   0.3430 
 12 C       -6.3900    -5.0960    -1.1580 C.3   1 <1>  -0.1600 
 13 C       -5.2680    -6.8000     0.3000 C.3   1 <1>  -0.1600 
 14 C       -6.6360    -6.2360    -0.1450 C.3   1 <1>   0.0000 
 15 C       -7.4960    -7.3590    -0.7710 C.3   1 <1>   0.3430 
 16 C       -7.4670    -5.7510     1.0640 C.3   1 <1>  -0.1600 
 17 N       -8.8040    -7.3380    -0.0620 N.4   1 <1>  -0.9590 
 18 C       -8.5360    -6.8110     1.2940 C.3   1 <1>   0.3430 
 19 C       -9.4820    -8.6730    -0.0410 C.3   1 <1>   0.2630 
 20 H        0.2050    -2.9910    -0.7630 H     1 <1>   0.1500 
 21 H       -2.6920     0.9890     1.0750 H     1 <1>   0.0800 
 22 H       -3.6100    -0.4900     1.1360 H     1 <1>   0.0800 
 23 H       -3.3830     0.3520    -0.3910 H     1 <1>   0.0800 
 24 H       -2.2210    -3.2650    -1.7380 H     1 <1>   0.0800 
 25 H       -3.4240    -2.0850    -1.2480 H     1 <1>   0.0800 
 26 H       -3.4990    -3.0860     1.0140 H     1 <1>   0.0800 
 27 H       -2.2280    -4.1940     0.5740 H     1 <1>   0.0800 
 28 H       -3.7440    -5.1470    -1.0990 H     1 <1>   0.4500 
 29 H       -5.2650    -3.2850    -1.3950 H     1 <1>   0.0800 
 30 H       -5.8460    -3.5480     0.2320 H     1 <1>   0.0800 
 31 H       -4.6840    -5.2630     1.6890 H     1 <1>   0.0800 
 32 H       -3.3470    -6.1690     1.0270 H     1 <1>   0.0800 
 33 H       -5.9890    -5.4970    -2.0740 H     1 <1>   0.0800 
 34 H       -7.3210    -4.6180    -1.4110 H     1 <1>   0.0800 
 35 H       -5.4050    -7.5180     1.0910 H     1 <1>   0.0800 
 36 H       -4.8020    -7.3240    -0.5180 H     1 <1>   0.0800 
 37 H       -7.0150    -8.3110    -0.6110 H     1 <1>   0.0800 
 38 H       -7.6310    -7.2140    -1.8310 H     1 <1>   0.0800 
 39 H       -7.9680    -4.8230     0.8490 H     1 <1>   0.0800 
 40 H       -6.8880    -5.6110     1.9600 H     1 <1>   0.0800 
 41 H       -9.4240    -6.6680    -0.5420 H     1 <1>   0.4500 
 42 H       -9.4240    -6.3990     1.7470 H     1 <1>   0.0800 
 43 H       -8.1440    -7.5960     1.9220 H     1 <1>   0.0800 
 44 H       -8.8660    -9.4010     0.4620 H     1 <1>   0.0800 
 45 H       -9.6690    -9.0150    -1.0460 H     1 <1>   0.0800 
 46 H      -10.4260    -8.6050     0.4770 H     1 <1>   0.0800 
@<TRIPOS>BOND
  1   1   2  1   
  2   1   3  2   
  3   2   4  2   
  4   3   5  1   
  5   3   6  1   
  6   4   5  1   
  7   4  20  1   
  8   5   7  1   
  9   6  21  1   
 10   6  22  1   
 11   6  23  1   
 12   7   8  1   
 13   7  24  1   
 14   7  25  1   
 15   8   9  1   
 16   8  26  1   
 17   8  27  1   
 18   9  10  1   
 19   9  11  1   
 20   9  28  1   
 21  10  12  1   
 22  10  29  1   
 23  10  30  1   
 24  11  13  1   
 25  11  31  1   
 26  11  32  1   
 27  12  14  1   
 28  12  33  1   
 29  12  34  1   
 30  13  14  1   
 31  13  35  1   
 32  13  36  1   
 33  14  15  1   
 34  14  16  1   
 35  15  17  1   
 36  15  37  1   
 37  15  38  1   
 38  16  18  1   
 39  16  39  1   
 40  16  40  1   
 41  17  18  1   
 42  17  19  1   
 43  17  41  1   
 44  18  42  1   
 45  18  43  1   
 46  19  44  1   
 47  19  45  1   
 48  19  46  1   
@<TRIPOS>SUBSTRUCTURE
  1 ****   9 GROUP 4 **** **** 0

# MOE 2024.06 (io_trps.svl 2023.06)
