@<TRIPOS>MOLECULE
NONAME
55 57 1 0 0 
SMALL
USER_CHARGES


@<TRIPOS>ATOM
  1 O        0.4130     2.2100    -1.6480 O.2   1 <1>  -0.5700 
  2 C       -0.1860     3.2600    -1.6040 C.2   1 <1>   0.5690 
  3 N       -0.8150     3.7320    -0.4860 N.am  1 <1>  -0.5090 
  4 C       -0.2420     4.1290    -2.8550 C.3   1 <1>   0.1810 
  5 C       -1.5380     5.0420    -0.5350 C.3   1 <1>   0.3640 
  6 C       -0.6790     3.0890     0.8420 C.3   1 <1>   0.0490 
  7 O       -0.0410     5.4770    -2.5190 O.3   1 <1>  -0.5600 
  8 C       -3.0420     4.8440    -0.7590 C.ar  1 <1>  -0.1440 
  9 C       -0.9870     6.0320    -1.6050 C.3   1 <1>   0.2610 
 10 C       -1.1460     1.6770     1.0020 C.3   1 <1>  -0.2000 
 11 C       -1.8960     2.7880     1.6620 C.3   1 <1>  -0.2000 
 12 C       -3.9080     5.8290    -0.3020 C.ar  1 <1>  -0.1500 
 13 C       -3.5770     3.7330    -1.4030 C.ar  1 <1>  -0.1500 
 14 C       -0.3840     7.2370    -0.8810 C.2   1 <1>   0.5690 
 15 C       -5.2750     5.7160    -0.4850 C.ar  1 <1>  -0.1500 
 16 C       -4.9430     3.6180    -1.5870 C.ar  1 <1>  -0.1500 
 17 O       -1.0980     7.9150    -0.1790 O.2   1 <1>  -0.5700 
 18 N        0.9430     7.4960    -1.0150 N.am  1 <1>  -0.7300 
 19 C       -5.8010     4.6040    -1.1330 C.ar  1 <1>   0.0830 
 20 C        1.7140     8.5260    -0.2790 C.3   1 <1>   0.1400 
 21 O       -7.1260     4.4130    -1.3550 O.3   1 <1>  -0.3630 
 22 C        2.7420     7.9040     0.6960 C.3   1 <1>   0.0000 
 23 C       -8.0840     5.3540    -0.9230 C.3   1 <1>   0.0400 
 24 C        3.4580     9.0810     1.4000 C.3   1 <1>   0.1200 
 25 C        3.7610     7.0450    -0.0830 C.3   1 <1>  -0.2400 
 26 C        2.0230     7.0160     1.7350 C.3   1 <1>  -0.2400 
 27 O        4.4130     8.6320     2.3000 O.3   1 <1>  -0.6800 
 28 H       -1.1950     4.0270    -3.3420 H     1 <1>   0.0800 
 29 H        0.5380     3.8360    -3.5340 H     1 <1>   0.0800 
 30 H       -1.4290     5.4960     0.4350 H     1 <1>   0.0800 
 31 H        0.2280     3.3780     1.3480 H     1 <1>   0.1000 
 32 H       -1.8060     6.4010    -2.1950 H     1 <1>   0.0800 
 33 H       -1.5790     1.1840     0.1500 H     1 <1>   0.1000 
 34 H       -0.5650     1.0110     1.6140 H     1 <1>   0.1000 
 35 H       -1.8340     2.8690     2.7330 H     1 <1>   0.1000 
 36 H       -2.8790     3.0130     1.2900 H     1 <1>   0.1000 
 37 H       -3.5210     6.7010     0.2020 H     1 <1>   0.1500 
 38 H       -2.9460     2.9400    -1.7630 H     1 <1>   0.1500 
 39 H       -5.9090     6.5000    -0.1180 H     1 <1>   0.1500 
 40 H       -5.3540     2.7580    -2.0830 H     1 <1>   0.1500 
 41 H        1.4770     6.8820    -1.6390 H     1 <1>   0.3700 
 42 H        2.2220     9.1500    -0.9950 H     1 <1>   0.0800 
 43 H        1.0310     9.1520     0.2720 H     1 <1>   0.0800 
 44 H       -9.0560     4.9930    -1.2050 H     1 <1>   0.0800 
 45 H       -7.8900     6.2960    -1.4040 H     1 <1>   0.0800 
 46 H       -8.0240     5.4460     0.1470 H     1 <1>   0.0800 
 47 H        2.7510     9.6830     1.9450 H     1 <1>   0.0800 
 48 H        3.9610     9.7050     0.6810 H     1 <1>   0.0800 
 49 H        3.2790     6.2160    -0.5680 H     1 <1>   0.0800 
 50 H        4.5080     6.6480     0.5810 H     1 <1>   0.0800 
 51 H        4.2610     7.6380    -0.8290 H     1 <1>   0.0800 
 52 H        1.5080     6.2040     1.2530 H     1 <1>   0.0800 
 53 H        1.3000     7.5910     2.2860 H     1 <1>   0.0800 
 54 H        2.7230     6.5860     2.4290 H     1 <1>   0.0800 
 55 H        4.0110     8.0000     2.9260 H     1 <1>   0.4000 
@<TRIPOS>BOND
  1   1   2  2   
  2   2   3  am  
  3   2   4  1   
  4   3   5  1   
  5   3   6  1   
  6   4   7  1   
  7   4  28  1   
  8   4  29  1   
  9   5   8  1   
 10   5   9  1   
 11   5  30  1   
 12   6  10  1   
 13   6  11  1   
 14   6  31  1   
 15   7   9  1   
 16   8  12  ar  
 17   8  13  ar  
 18   9  14  1   
 19   9  32  1   
 20  10  11  1   
 21  10  33  1   
 22  10  34  1   
 23  11  35  1   
 24  11  36  1   
 25  12  15  ar  
 26  12  37  1   
 27  13  16  ar  
 28  13  38  1   
 29  14  17  2   
 30  14  18  am  
 31  15  19  ar  
 32  15  39  1   
 33  16  19  ar  
 34  16  40  1   
 35  18  20  1   
 36  18  41  1   
 37  19  21  1   
 38  20  22  1   
 39  20  42  1   
 40  20  43  1   
 41  21  23  1   
 42  22  24  1   
 43  22  25  1   
 44  22  26  1   
 45  23  44  1   
 46  23  45  1   
 47  23  46  1   
 48  24  27  1   
 49  24  47  1   
 50  24  48  1   
 51  25  49  1   
 52  25  50  1   
 53  25  51  1   
 54  26  52  1   
 55  26  53  1   
 56  26  54  1   
 57  27  55  1   
@<TRIPOS>SUBSTRUCTURE
  1 ****   5 GROUP 4 **** **** 0

# MOE 2024.06 (io_trps.svl 2023.06)
