@<TRIPOS>MOLECULE
NONAME
27 26 1 0 0 
SMALL
USER_CHARGES


@<TRIPOS>ATOM
  1 O       -1.8560    -2.4320    -0.1070 O.2   1 <1>  -0.5700 
  2 C       -1.7760    -1.2470     0.1030 C.2   1 <1>   0.5690 
  3 N       -0.6620    -0.7360     0.6620 N.am  1 <1>  -0.8000 
  4 C       -2.9420    -0.2950    -0.2690 C.3   1 <1>   0.2510 
  5 N       -2.7860     1.0690     0.2840 N.3   1 <1>  -0.9900 
  6 C       -4.2980    -0.8570     0.1920 C.3   1 <1>  -0.1600 
  7 C       -5.5080    -0.0050    -0.2350 C.3   1 <1>  -0.1600 
  8 C       -6.8210    -0.6870     0.1450 C.3   1 <1>   0.2090 
  9 N       -7.9360     0.1820    -0.2600 N.pl3 1 <1>  -0.8190 
 10 C       -9.1960    -0.2040     0.1500 C.2   1 <1>   0.4400 
 11 N      -10.1840    -0.1290    -0.6390 N.2   1 <1>  -0.5030 
 12 N      -11.4220    -0.5340    -0.1670 N.pl3 1 <1>  -0.5690 
 13 H        0.1350    -1.3300     0.8870 H     1 <1>   0.3700 
 14 H       -0.5640     0.2750     0.7830 H     1 <1>   0.3700 
 15 H       -2.9470    -0.2240    -1.3430 H     1 <1>   0.0800 
 16 H       -2.9070     1.0130     1.3020 H     1 <1>   0.3600 
 17 H       -3.5540     1.6500    -0.0700 H     1 <1>   0.3600 
 18 H       -4.4070    -1.8410    -0.2330 H     1 <1>   0.0800 
 19 H       -4.2850    -0.9750     1.2620 H     1 <1>   0.0800 
 20 H       -5.4820     0.1420    -1.3000 H     1 <1>   0.0800 
 21 H       -5.4710     0.9550     0.2490 H     1 <1>   0.0800 
 22 H       -6.8570    -0.8480     1.2100 H     1 <1>   0.0800 
 23 H       -6.9060    -1.6390    -0.3540 H     1 <1>   0.0800 
 24 H       -7.9700     0.3430    -1.2710 H     1 <1>   0.4000 
 25 H       -9.2890    -0.5780     1.1560 H     1 <1>   0.0600 
 26 H      -11.6440    -0.1890     0.7750 H     1 <1>   0.3110 
 27 H      -12.1880    -0.3000    -0.8110 H     1 <1>   0.3110 
@<TRIPOS>BOND
  1   1   2  2   
  2   2   3  am  
  3   2   4  1   
  4   3  13  1   
  5   3  14  1   
  6   4   5  1   
  7   4   6  1   
  8   4  15  1   
  9   5  16  1   
 10   5  17  1   
 11   6   7  1   
 12   6  18  1   
 13   6  19  1   
 14   7   8  1   
 15   7  20  1   
 16   7  21  1   
 17   8   9  1   
 18   8  22  1   
 19   8  23  1   
 20   9  10  1   
 21   9  24  1   
 22  10  11  2   
 23  10  25  1   
 24  11  12  1   
 25  12  26  1   
 26  12  27  1   
@<TRIPOS>SUBSTRUCTURE
  1 ****   7 GROUP 4 **** **** 0

# MOE 2024.06 (io_trps.svl 2023.06)
