@<TRIPOS>MOLECULE
NONAME
53 55 1 0 0 
SMALL
USER_CHARGES


@<TRIPOS>ATOM
  1 O        1.4750    -0.4620     2.2770 O.2   1 <1>  -0.5700 
  2 C        2.1680    -1.1730     1.5730 C.2   1 <1>   0.5440 
  3 N        3.4590    -0.7670     1.2950 N.am  1 <1>  -0.6600 
  4 C        1.6340    -2.4280     1.0690 C.ar  1 <1>   0.0860 
  5 C        4.3780    -1.4430     0.3200 C.3   1 <1>   0.1400 
  6 C        4.0850     0.3540     2.0470 C.3   1 <1>   0.1400 
  7 C        0.5750    -2.5090     0.1530 C.ar  1 <1>  -0.1440 
  8 C        2.2020    -3.6230     1.5150 C.ar  1 <1>  -0.1500 
  9 C        4.6850    -0.5860    -0.9190 C.3   1 <1>   0.1400 
 10 C        3.8320     1.7000     1.3590 C.3   1 <1>  -0.1600 
 11 C        0.1430    -3.7450    -0.3030 C.ar  1 <1>  -0.1500 
 12 C       -0.1390    -1.2630    -0.3640 C.3   1 <1>  -0.0160 
 13 C        1.7650    -4.8510     1.0590 C.ar  1 <1>  -0.1500 
 14 N        5.1450     0.7970    -0.5730 N.am  1 <1>  -0.6600 
 15 C        4.0370     1.7060    -0.1620 C.3   1 <1>   0.1400 
 16 C        0.7340    -4.9130     0.1430 C.ar  1 <1>  -0.1500 
 17 C        0.6330    -0.6240    -1.5190 C.3   1 <1>  -0.2400 
 18 C        6.4800     1.1200    -0.6110 C.2   1 <1>   0.5690 
 19 O        7.3110     0.2830    -0.8790 O.2   1 <1>  -0.5700 
 20 C        6.9580     2.5500    -0.3200 C.3   1 <1>  -0.0190 
 21 C        6.9520     3.4110    -1.5930 C.3   1 <1>  -0.1600 
 22 C        8.3640     2.6070     0.3070 C.3   1 <1>  -0.1600 
 23 C        7.4900     4.8170    -1.3020 C.3   1 <1>   0.1200 
 24 C        8.8180     4.0580     0.4910 C.3   1 <1>   0.1200 
 25 O        8.7590     4.7230    -0.7340 O.3   1 <1>  -0.5600 
 26 H        3.9550    -2.3720    -0.0160 H     1 <1>   0.0800 
 27 H        5.3050    -1.6770     0.8140 H     1 <1>   0.0800 
 28 H        5.1450     0.1820     2.1230 H     1 <1>   0.0800 
 29 H        3.6900     0.3840     3.0490 H     1 <1>   0.0800 
 30 H        3.0010    -3.5780     2.2340 H     1 <1>   0.1500 
 31 H        3.8090    -0.5280    -1.5380 H     1 <1>   0.0800 
 32 H        5.4390    -1.0870    -1.5020 H     1 <1>   0.0800 
 33 H        4.4740     2.4340     1.8090 H     1 <1>   0.0800 
 34 H        2.8220     2.0050     1.5670 H     1 <1>   0.0800 
 35 H       -0.6650    -3.8080    -1.0120 H     1 <1>   0.1500 
 36 H       -0.2690    -0.5470     0.4280 H     1 <1>   0.0800 
 37 H       -1.1250    -1.5270    -0.7060 H     1 <1>   0.0800 
 38 H        2.2220    -5.7570     1.4180 H     1 <1>   0.1500 
 39 H        4.2220     2.7070    -0.5070 H     1 <1>   0.0800 
 40 H        3.1260     1.3780    -0.6310 H     1 <1>   0.0800 
 41 H        0.3870    -5.8650    -0.2190 H     1 <1>   0.1500 
 42 H        1.5890    -0.2820    -1.1730 H     1 <1>   0.0800 
 43 H        0.0870     0.2180    -1.9060 H     1 <1>   0.0800 
 44 H        0.7800    -1.3370    -2.3100 H     1 <1>   0.0800 
 45 H        6.2910     2.9960     0.3910 H     1 <1>   0.0800 
 46 H        5.9560     3.4830    -1.9890 H     1 <1>   0.0800 
 47 H        7.5710     2.9520    -2.3450 H     1 <1>   0.0800 
 48 H        9.0740     2.1050    -0.3280 H     1 <1>   0.0800 
 49 H        8.3620     2.1030     1.2570 H     1 <1>   0.0800 
 50 H        6.8480     5.3510    -0.6220 H     1 <1>   0.0800 
 51 H        7.5820     5.3810    -2.2140 H     1 <1>   0.0800 
 52 H        9.8380     4.0930     0.8330 H     1 <1>   0.0800 
 53 H        8.1940     4.5810     1.1960 H     1 <1>   0.0800 
@<TRIPOS>BOND
  1   1   2  2   
  2   2   3  am  
  3   2   4  1   
  4   3   5  1   
  5   3   6  1   
  6   4   7  ar  
  7   4   8  ar  
  8   5   9  1   
  9   5  26  1   
 10   5  27  1   
 11   6  10  1   
 12   6  28  1   
 13   6  29  1   
 14   7  11  ar  
 15   7  12  1   
 16   8  13  ar  
 17   8  30  1   
 18   9  14  1   
 19   9  31  1   
 20   9  32  1   
 21  10  15  1   
 22  10  33  1   
 23  10  34  1   
 24  11  16  ar  
 25  11  35  1   
 26  12  17  1   
 27  12  36  1   
 28  12  37  1   
 29  13  16  ar  
 30  13  38  1   
 31  14  15  1   
 32  14  18  am  
 33  15  39  1   
 34  15  40  1   
 35  16  41  1   
 36  17  42  1   
 37  17  43  1   
 38  17  44  1   
 39  18  19  2   
 40  18  20  1   
 41  20  21  1   
 42  20  22  1   
 43  20  45  1   
 44  21  23  1   
 45  21  46  1   
 46  21  47  1   
 47  22  24  1   
 48  22  48  1   
 49  22  49  1   
 50  23  25  1   
 51  23  50  1   
 52  23  51  1   
 53  24  25  1   
 54  24  52  1   
 55  24  53  1   
@<TRIPOS>SUBSTRUCTURE
  1 ****   9 GROUP 4 **** **** 0

# MOE 2024.06 (io_trps.svl 2023.06)
