@<TRIPOS>MOLECULE
NONAME
52 55 1 0 0 
SMALL
USER_CHARGES


@<TRIPOS>ATOM
  1 O       -3.2640     0.8130    -1.4140 O.2   1 <1>  -0.5700 
  2 C       -2.2720     0.9850    -0.7310 C.2   1 <1>   0.7160 
  3 N       -1.4180    -0.0680    -0.5920 N.am  1 <1>  -0.7300 
  4 C       -1.9830     2.2140    -0.0510 C.2   1 <1>  -0.0860 
  5 C       -1.5630    -1.4060    -1.1920 C.3   1 <1>   0.2200 
  6 C       -2.8500     3.2760     0.2520 C.2   1 <1>   0.3720 
  7 C       -0.8040     2.6250     0.4910 C.2   1 <1>   0.0870 
  8 C       -2.0560    -2.4130    -0.1500 C.3   1 <1>  -0.0800 
  9 C       -0.1680    -1.9190    -1.5300 C.3   1 <1>  -0.1600 
 10 N       -2.2370     4.2030     0.9040 N.2   1 <1>  -0.4100 
 11 N       -4.2070     3.3570    -0.0760 N.pl3 1 <1>  -0.8210 
 12 O       -1.0080     3.7900     1.0420 O.3   1 <1>  -0.0190 
 13 C        0.4970     2.0160     0.5420 C.ar  1 <1>   0.0530 
 14 C       -0.8120    -2.7380     0.6930 C.3   1 <1>  -0.1600 
 15 C       -3.2710    -1.9340     0.6600 C.3   1 <1>   0.1200 
 16 C        0.3970    -2.4800    -0.2180 C.3   1 <1>  -0.1600 
 17 C       -5.1030     2.4090     0.6500 C.3   1 <1>   0.2090 
 18 C       -4.8080     4.7240    -0.1170 C.3   1 <1>   0.2090 
 19 C        1.1670     1.6430    -0.6220 C.ar  1 <1>  -0.1500 
 20 C        1.1170     1.7580     1.7620 C.ar  1 <1>  -0.1500 
 21 O       -3.6560    -2.9260     1.5480 O.3   1 <1>  -0.6800 
 22 C       -6.5240     2.4560     0.0640 C.3   1 <1>   0.1200 
 23 C       -6.2480     4.6680    -0.6580 C.3   1 <1>   0.1200 
 24 C        2.4000     1.0190    -0.5700 C.ar  1 <1>  -0.1500 
 25 C        2.3500     1.1350     1.8210 C.ar  1 <1>  -0.1500 
 26 O       -7.0290     3.7640     0.0780 O.3   1 <1>  -0.5600 
 27 C        2.9930     0.7610     0.6530 C.ar  1 <1>  -0.1500 
 28 H       -0.5900     0.0400    -0.0020 H     1 <1>   0.3700 
 29 H       -2.2040    -1.3670    -2.0580 H     1 <1>   0.0800 
 30 H       -2.3390    -3.3000    -0.6900 H     1 <1>   0.0800 
 31 H       -0.2640    -2.7230    -2.2390 H     1 <1>   0.0800 
 32 H        0.4570    -1.1570    -1.9610 H     1 <1>   0.0800 
 33 H       -0.7650    -2.0840     1.5470 H     1 <1>   0.0800 
 34 H       -0.8380    -3.7560     1.0430 H     1 <1>   0.0800 
 35 H       -4.1020    -1.7120     0.0120 H     1 <1>   0.0800 
 36 H       -3.0320    -1.0580     1.2380 H     1 <1>   0.0800 
 37 H        0.9510    -3.3850    -0.3980 H     1 <1>   0.0800 
 38 H        1.0510    -1.7590     0.2430 H     1 <1>   0.0800 
 39 H       -4.7230     1.4070     0.5720 H     1 <1>   0.0800 
 40 H       -5.1380     2.6730     1.6930 H     1 <1>   0.0800 
 41 H       -4.8140     5.1490     0.8720 H     1 <1>   0.0800 
 42 H       -4.2110     5.3560    -0.7510 H     1 <1>   0.0800 
 43 H        0.7140     1.8450    -1.5780 H     1 <1>   0.1500 
 44 H        0.6230     2.0500     2.6730 H     1 <1>   0.1500 
 45 H       -3.8940    -3.7420     1.0680 H     1 <1>   0.4000 
 46 H       -7.1870     1.8420     0.6470 H     1 <1>   0.0800 
 47 H       -6.5190     2.0970    -0.9500 H     1 <1>   0.0800 
 48 H       -6.2460     4.3600    -1.6890 H     1 <1>   0.0800 
 49 H       -6.7100     5.6360    -0.5850 H     1 <1>   0.0800 
 50 H        2.9020     0.7370    -1.4800 H     1 <1>   0.1500 
 51 H        2.8130     0.9420     2.7730 H     1 <1>   0.1500 
 52 H        3.9530     0.2760     0.6970 H     1 <1>   0.1500 
@<TRIPOS>BOND
  1   1   2  2   
  2   2   3  am  
  3   2   4  1   
  4   3   5  1   
  5   3  28  1   
  6   4   6  1   
  7   4   7  2   
  8   5   8  1   
  9   5   9  1   
 10   5  29  1   
 11   6  10  2   
 12   6  11  1   
 13   7  12  1   
 14   7  13  1   
 15   8  14  1   
 16   8  15  1   
 17   8  30  1   
 18   9  16  1   
 19   9  31  1   
 20   9  32  1   
 21  10  12  1   
 22  11  17  1   
 23  11  18  1   
 24  13  19  ar  
 25  13  20  ar  
 26  14  16  1   
 27  14  33  1   
 28  14  34  1   
 29  15  21  1   
 30  15  35  1   
 31  15  36  1   
 32  16  37  1   
 33  16  38  1   
 34  17  22  1   
 35  17  39  1   
 36  17  40  1   
 37  18  23  1   
 38  18  41  1   
 39  18  42  1   
 40  19  24  ar  
 41  19  43  1   
 42  20  25  ar  
 43  20  44  1   
 44  21  45  1   
 45  22  26  1   
 46  22  46  1   
 47  22  47  1   
 48  23  26  1   
 49  23  48  1   
 50  23  49  1   
 51  24  27  ar  
 52  24  50  1   
 53  25  27  ar  
 54  25  51  1   
 55  27  52  1   
@<TRIPOS>SUBSTRUCTURE
  1 ****   2 GROUP 4 **** **** 0

# MOE 2024.06 (io_trps.svl 2023.06)
