@<TRIPOS>MOLECULE
NONAME
35 35 1 0 0 
SMALL
USER_CHARGES


@<TRIPOS>ATOM
  1 F       -1.0840     0.9620     1.2340 F     1 <1>  -0.1900 
  2 C       -1.7340     1.8290     0.4920 C.ar  1 <1>   0.1900 
  3 C       -1.0380     2.8420    -0.1630 C.ar  1 <1>   0.1000 
  4 C       -3.1050     1.7060     0.3780 C.ar  1 <1>   0.1600 
  5 N        0.3410     3.0490    -0.1120 N.pl3 1 <1>  -0.8380 
  6 C       -1.8370     3.6820    -0.9190 C.ar  1 <1>  -0.1500 
  7 N       -3.8660     2.5190    -0.3480 N.ar  1 <1>  -0.6200 
  8 C        0.9610     3.2480     1.2600 C.3   1 <1>   0.2700 
  9 C        1.1650     2.2060    -1.0200 C.3   1 <1>   0.1290 
 10 C       -3.2060     3.4850    -0.9770 C.ar  1 <1>   0.1600 
 11 C        1.9290     4.4340     1.3380 C.2   1 <1>   0.5690 
 12 O        2.6600     4.5430     2.2950 O.2   1 <1>  -0.5700 
 13 N        1.9310     5.3290     0.3170 N.am  1 <1>  -0.7300 
 14 C        2.7450     6.5550     0.2180 C.3   1 <1>   0.1400 
 15 C        1.8240     7.7390    -0.0700 C.3   1 <1>  -0.1600 
 16 C        2.6190     9.0460    -0.1850 C.3   1 <1>  -0.1600 
 17 C        1.6920    10.2300    -0.4750 C.3   1 <1>  -0.2400 
 18 H       -3.5960     0.9070     0.9040 H     1 <1>   0.1500 
 19 H       -1.3820     4.4900    -1.4590 H     1 <1>   0.1500 
 20 H        1.4870     2.3580     1.5530 H     1 <1>   0.0800 
 21 H        0.1830     3.4180     1.9820 H     1 <1>   0.0800 
 22 H        0.6670     2.0930    -1.9680 H     1 <1>   0.0800 
 23 H        1.3110     1.2310    -0.5870 H     1 <1>   0.0800 
 24 H        2.1230     2.6690    -1.1840 H     1 <1>   0.0800 
 25 H       -3.7960     4.1600    -1.5740 H     1 <1>   0.1500 
 26 H        1.2850     5.1220    -0.4520 H     1 <1>   0.3700 
 27 H        3.4650     6.4390    -0.5740 H     1 <1>   0.0800 
 28 H        3.2760     6.7140     1.1430 H     1 <1>   0.0800 
 29 H        1.1080     7.8280     0.7290 H     1 <1>   0.0800 
 30 H        1.2950     7.5630    -0.9900 H     1 <1>   0.0800 
 31 H        3.3440     8.9630    -0.9760 H     1 <1>   0.0800 
 32 H        3.1480     9.2290     0.7360 H     1 <1>   0.0800 
 33 H        1.1670    10.0800    -1.4020 H     1 <1>   0.0800 
 34 H        2.2650    11.1360    -0.5500 H     1 <1>   0.0800 
 35 H        0.9720    10.3470     0.3170 H     1 <1>   0.0800 
@<TRIPOS>BOND
  1   1   2  1   
  2   2   3  ar  
  3   2   4  ar  
  4   3   5  1   
  5   3   6  ar  
  6   4   7  ar  
  7   4  18  1   
  8   5   8  1   
  9   5   9  1   
 10   6  10  ar  
 11   6  19  1   
 12   7  10  ar  
 13   8  11  1   
 14   8  20  1   
 15   8  21  1   
 16   9  22  1   
 17   9  23  1   
 18   9  24  1   
 19  10  25  1   
 20  11  12  2   
 21  11  13  am  
 22  13  14  1   
 23  13  26  1   
 24  14  15  1   
 25  14  27  1   
 26  14  28  1   
 27  15  16  1   
 28  15  29  1   
 29  15  30  1   
 30  16  17  1   
 31  16  31  1   
 32  16  32  1   
 33  17  33  1   
 34  17  34  1   
 35  17  35  1   
@<TRIPOS>SUBSTRUCTURE
  1 ****   5 GROUP 4 **** **** 0

# MOE 2024.06 (io_trps.svl 2023.06)
