@<TRIPOS>MOLECULE
NONAME
53 55 1 0 0 
SMALL
USER_CHARGES


@<TRIPOS>ATOM
  1 O        1.0610     0.3960     1.1540 O.2   1 <1>  -0.5700 
  2 C        1.3900    -0.7340     0.8750 C.2   1 <1>   0.5690 
  3 N        2.2490    -0.9880    -0.1690 N.am  1 <1>  -0.6600 
  4 C        0.8310    -1.8540     1.7450 C.3   1 <1>   0.0440 
  5 C        2.7080     0.1270    -1.0580 C.3   1 <1>   0.1400 
  6 C        2.7090    -2.3500    -0.5620 C.3   1 <1>   0.0600 
  7 C       -0.3670    -2.5620     1.1080 C.ar  1 <1>  -0.1440 
  8 C        3.8190     0.9720    -0.4130 C.3   1 <1>   0.2000 
  9 C       -0.3120    -3.8890     0.6860 C.ar  1 <1>   0.0820 
 10 C       -1.5480    -1.8520     0.9590 C.ar  1 <1>  -0.1500 
 11 O        4.2380     1.9120    -1.3630 O.3   1 <1>  -0.5600 
 12 C        5.0430     0.1490     0.0320 C.3   1 <1>  -0.1600 
 13 O        0.8650    -4.5510     0.8110 O.3   1 <1>  -0.3630 
 14 C       -1.4460    -4.4930     0.1490 C.ar  1 <1>  -0.1500 
 15 C       -2.6690    -2.4510     0.4120 C.ar  1 <1>  -0.1500 
 16 C        5.1360     2.8650    -0.8840 C.3   1 <1>   0.1200 
 17 C        6.1620     1.0610     0.5510 C.3   1 <1>  -0.1600 
 18 C        1.1780    -5.6550    -0.0120 C.3   1 <1>   0.2640 
 19 C       -2.6190    -3.7740     0.0110 C.ar  1 <1>  -0.1500 
 20 C        6.4380     2.1720    -0.4690 C.3   1 <1>  -0.1600 
 21 C        2.6910    -5.7330    -0.1490 C.ar  1 <1>  -0.1440 
 22 C        3.2830    -5.7250    -1.4040 C.ar  1 <1>  -0.1500 
 23 C        3.4930    -5.7980     0.9800 C.ar  1 <1>  -0.1500 
 24 C        4.6610    -5.7790    -1.5260 C.ar  1 <1>  -0.1500 
 25 C        4.8710    -5.8520     0.8590 C.ar  1 <1>  -0.1500 
 26 C        5.4560    -5.8420    -0.3950 C.ar  1 <1>  -0.1500 
 27 H        0.5070    -1.4190     2.6720 H     1 <1>   0.0800 
 28 H        1.6150    -2.5400     1.9970 H     1 <1>   0.0800 
 29 H        1.8710     0.7690    -1.2680 H     1 <1>   0.0800 
 30 H        3.0630    -0.2730    -1.9900 H     1 <1>   0.0800 
 31 H        2.9730    -2.9250     0.3070 H     1 <1>   0.0800 
 32 H        3.5780    -2.2890    -1.1930 H     1 <1>   0.0800 
 33 H        1.9240    -2.8550    -1.0960 H     1 <1>   0.0800 
 34 H        3.4030     1.5080     0.4230 H     1 <1>   0.0800 
 35 H       -1.5980    -0.8210     1.2710 H     1 <1>   0.1500 
 36 H        5.3990    -0.4270    -0.8040 H     1 <1>   0.0800 
 37 H        4.7550    -0.5360     0.8080 H     1 <1>   0.0800 
 38 H       -1.4360    -5.5220    -0.1580 H     1 <1>   0.1500 
 39 H       -3.5780    -1.8870     0.3010 H     1 <1>   0.1500 
 40 H        4.6820     3.3790    -0.0530 H     1 <1>   0.0800 
 41 H        5.3190     3.5710    -1.6750 H     1 <1>   0.0800 
 42 H        7.0550     0.4890     0.7290 H     1 <1>   0.0800 
 43 H        5.8530     1.5030     1.4820 H     1 <1>   0.0800 
 44 H        0.7270    -5.5060    -0.9770 H     1 <1>   0.0800 
 45 H        0.7840    -6.5430     0.4480 H     1 <1>   0.0800 
 46 H       -3.4940    -4.2410    -0.4070 H     1 <1>   0.1500 
 47 H        7.1140     2.8950    -0.0490 H     1 <1>   0.0800 
 48 H        6.9020     1.7560    -1.3460 H     1 <1>   0.0800 
 49 H        2.6790    -5.6750    -2.2920 H     1 <1>   0.1500 
 50 H        3.0440    -5.8010     1.9590 H     1 <1>   0.1500 
 51 H        5.1160    -5.7730    -2.5020 H     1 <1>   0.1500 
 52 H        5.4870    -5.9010     1.7400 H     1 <1>   0.1500 
 53 H        6.5270    -5.8840    -0.4900 H     1 <1>   0.1500 
@<TRIPOS>BOND
  1   1   2  2   
  2   2   3  am  
  3   2   4  1   
  4   3   5  1   
  5   3   6  1   
  6   4   7  1   
  7   4  27  1   
  8   4  28  1   
  9   5   8  1   
 10   5  29  1   
 11   5  30  1   
 12   6  31  1   
 13   6  32  1   
 14   6  33  1   
 15   7   9  ar  
 16   7  10  ar  
 17   8  11  1   
 18   8  12  1   
 19   8  34  1   
 20   9  13  1   
 21   9  14  ar  
 22  10  15  ar  
 23  10  35  1   
 24  11  16  1   
 25  12  17  1   
 26  12  36  1   
 27  12  37  1   
 28  13  18  1   
 29  14  19  ar  
 30  14  38  1   
 31  15  19  ar  
 32  15  39  1   
 33  16  20  1   
 34  16  40  1   
 35  16  41  1   
 36  17  20  1   
 37  17  42  1   
 38  17  43  1   
 39  18  21  1   
 40  18  44  1   
 41  18  45  1   
 42  19  46  1   
 43  20  47  1   
 44  20  48  1   
 45  21  22  ar  
 46  21  23  ar  
 47  22  24  ar  
 48  22  49  1   
 49  23  25  ar  
 50  23  50  1   
 51  24  26  ar  
 52  24  51  1   
 53  25  26  ar  
 54  25  52  1   
 55  26  53  1   
@<TRIPOS>SUBSTRUCTURE
  1 ****   6 GROUP 4 **** **** 0

# MOE 2024.06 (io_trps.svl 2023.06)
