@<TRIPOS>MOLECULE
NONAME
47 50 1 0 0 
SMALL
USER_CHARGES


@<TRIPOS>ATOM
  1 S       -0.7000    -0.5750    -0.5870 S.3   1 <1>  -0.0800 
  2 C       -1.4120     0.4200     0.6640 C.2   1 <1>   0.1980 
  3 C       -2.2840    -1.1850    -0.9600 C.2   1 <1>  -0.1100 
  4 N       -2.6730     0.2980     0.7790 N.2   1 <1>  -0.5650 
  5 C       -0.4830     1.3020     1.4630 C.3   1 <1>  -0.0600 
  6 C       -3.1790    -0.6110    -0.1380 C.2   1 <1>   0.0460 
  7 C       -4.6790    -0.8430    -0.1020 C.3   1 <1>   0.0820 
  8 C       -5.0880    -2.1120    -0.8230 C.2   1 <1>   0.5690 
  9 O       -5.7580    -2.0390    -1.8250 O.2   1 <1>  -0.5700 
 10 N       -4.7050    -3.3130    -0.3170 N.am  1 <1>  -0.7300 
 11 C       -5.0510    -4.6210    -0.9130 C.3   1 <1>   0.2200 
 12 C       -6.2800    -5.1740    -0.2150 C.3   1 <1>  -0.0800 
 13 C       -3.9910    -5.6580    -0.5540 C.3   1 <1>   0.1200 
 14 C       -5.6730    -5.8570     1.0130 C.3   1 <1>   0.1200 
 15 C       -7.0440    -6.1630    -1.1180 C.3   1 <1>  -0.0160 
 16 O       -4.3440    -6.1610     0.7000 O.3   1 <1>  -0.5600 
 17 C       -8.3420    -6.6260    -0.4640 C.ar  1 <1>  -0.1440 
 18 C       -9.4900    -5.8000    -0.3940 C.ar  1 <1>   0.0000 
 19 C       -8.4290    -7.8730     0.0810 C.ar  1 <1>  -0.1500 
 20 C      -10.6360    -6.3220     0.2550 C.ar  1 <1>   0.3100 
 21 C       -9.5700    -4.4920    -0.9280 C.ar  1 <1>  -0.1500 
 22 C       -9.6150    -8.2940     0.6940 C.ar  1 <1>   0.1600 
 23 N      -10.6820    -7.5670     0.7920 N.ar  1 <1>  -0.6200 
 24 C      -11.7860    -5.5220     0.3510 C.ar  1 <1>  -0.1500 
 25 C      -10.7070    -3.7400    -0.8190 C.ar  1 <1>  -0.1500 
 26 C      -11.8310    -4.2570    -0.1710 C.ar  1 <1>  -0.1500 
 27 H       -2.3740    -1.9040    -1.7540 H     1 <1>   0.1500 
 28 H       -1.0460     1.8550     2.1920 H     1 <1>   0.0800 
 29 H        0.0160     1.9930     0.8090 H     1 <1>   0.0800 
 30 H        0.2480     0.6980     1.9680 H     1 <1>   0.0800 
 31 H       -5.1750     0.0000    -0.5460 H     1 <1>   0.0800 
 32 H       -5.0000    -0.9160     0.9200 H     1 <1>   0.0800 
 33 H       -4.1630    -3.3650     0.5500 H     1 <1>   0.3700 
 34 H       -5.1770    -4.5200    -1.9790 H     1 <1>   0.0800 
 35 H       -6.9440    -4.3820     0.0820 H     1 <1>   0.0800 
 36 H       -3.0000    -5.2420    -0.5120 H     1 <1>   0.0800 
 37 H       -4.0120    -6.4780    -1.2500 H     1 <1>   0.0800 
 38 H       -6.1840    -6.7620     1.2910 H     1 <1>   0.0800 
 39 H       -5.6610    -5.1830     1.8530 H     1 <1>   0.0800 
 40 H       -6.4230    -7.0160    -1.3300 H     1 <1>   0.0800 
 41 H       -7.2730    -5.7010    -2.0620 H     1 <1>   0.0800 
 42 H       -7.6010    -8.5580     0.0600 H     1 <1>   0.1500 
 43 H       -8.7210    -4.0710    -1.4360 H     1 <1>   0.1500 
 44 H       -9.6390    -9.2860     1.1130 H     1 <1>   0.1500 
 45 H      -12.6380    -5.9420     0.8520 H     1 <1>   0.1500 
 46 H      -10.7520    -2.7450    -1.2300 H     1 <1>   0.1500 
 47 H      -12.7200    -3.6560    -0.0900 H     1 <1>   0.1500 
@<TRIPOS>BOND
  1   1   2  1   
  2   1   3  1   
  3   2   4  2   
  4   2   5  1   
  5   3   6  2   
  6   3  27  1   
  7   4   6  1   
  8   5  28  1   
  9   5  29  1   
 10   5  30  1   
 11   6   7  1   
 12   7   8  1   
 13   7  31  1   
 14   7  32  1   
 15   8   9  2   
 16   8  10  am  
 17  10  11  1   
 18  10  33  1   
 19  11  12  1   
 20  11  13  1   
 21  11  34  1   
 22  12  14  1   
 23  12  15  1   
 24  12  35  1   
 25  13  16  1   
 26  13  36  1   
 27  13  37  1   
 28  14  16  1   
 29  14  38  1   
 30  14  39  1   
 31  15  17  1   
 32  15  40  1   
 33  15  41  1   
 34  17  18  ar  
 35  17  19  ar  
 36  18  20  ar  
 37  18  21  ar  
 38  19  22  ar  
 39  19  42  1   
 40  20  23  ar  
 41  20  24  ar  
 42  21  25  ar  
 43  21  43  1   
 44  22  23  ar  
 45  22  44  1   
 46  24  26  ar  
 47  24  45  1   
 48  25  26  ar  
 49  25  46  1   
 50  26  47  1   
@<TRIPOS>SUBSTRUCTURE
  1 ****  12 GROUP 4 **** **** 0

# MOE 2024.06 (io_trps.svl 2023.06)
