@<TRIPOS>MOLECULE
NONAME
48 50 1 0 0 
SMALL
USER_CHARGES


@<TRIPOS>ATOM
  1 O       -1.1460    -0.0180    -1.5280 O.2   1 <1>  -0.5700 
  2 C       -1.5350     0.5000    -0.5000 C.2   1 <1>   0.7150 
  3 N       -1.8900    -0.3050     0.5340 N.am  1 <1>  -0.7300 
  4 C       -1.6480     1.9210    -0.3440 C.2   1 <1>  -0.2370 
  5 C       -1.8020    -1.7820     0.5640 C.3   1 <1>   0.2200 
  6 N       -1.2980     2.8470    -1.2760 N.pl3 1 <1>   0.3140 
  7 C       -2.1070     2.6450     0.7160 C.2   1 <1>  -0.1500 
  8 C       -3.1820    -2.4190     0.4530 C.3   1 <1>  -0.0800 
  9 C       -1.4100    -2.2160     1.9690 C.3   1 <1>   0.1200 
 10 N       -1.5170     4.1000    -0.8520 N.2   1 <1>  -0.7070 
 11 C       -0.7370     2.6200    -2.6180 C.3   1 <1>   0.0160 
 12 C       -2.0020     3.9730     0.3450 C.2   1 <1>   0.1080 
 13 C       -3.6920    -2.3960     1.8990 C.3   1 <1>   0.1200 
 14 C       -4.1410    -1.7790    -0.5680 C.3   1 <1>  -0.0160 
 15 O       -2.5860    -2.1270     2.7130 O.3   1 <1>  -0.5600 
 16 C       -2.3950     5.1690     1.2030 C.3   1 <1>   0.1010 
 17 C       -5.4440    -2.5600    -0.6470 C.ar  1 <1>  -0.1430 
 18 C       -1.5840     5.2020     2.5040 C.3   1 <1>  -0.2400 
 19 C       -3.8990     5.1540     1.5040 C.3   1 <1>  -0.2400 
 20 C       -5.5510    -3.7200    -1.3870 C.ar  1 <1>  -0.1500 
 21 C       -6.5850    -2.1530     0.0150 C.ar  1 <1>  -0.1500 
 22 C       -6.7560    -4.4020    -1.4230 C.ar  1 <1>   0.1600 
 23 C       -7.7420    -2.9090    -0.0860 C.ar  1 <1>   0.1600 
 24 N       -7.8540    -4.0250    -0.7870 N.ar  1 <1>  -0.6200 
 25 H       -2.2290     0.1150     1.4000 H     1 <1>   0.3700 
 26 H       -1.1140    -2.1420    -0.1830 H     1 <1>   0.0800 
 27 H       -2.4800     2.2920     1.6600 H     1 <1>   0.1500 
 28 H       -3.0440    -3.4510     0.1800 H     1 <1>   0.0800 
 29 H       -0.6530    -1.5890     2.4060 H     1 <1>   0.0800 
 30 H       -1.0880    -3.2430     1.9780 H     1 <1>   0.0800 
 31 H        0.1860     2.0790    -2.5280 H     1 <1>   0.0800 
 32 H       -0.5550     3.5670    -3.0920 H     1 <1>   0.0800 
 33 H       -1.4360     2.0520    -3.2020 H     1 <1>   0.0800 
 34 H       -4.1180    -3.3420     2.1860 H     1 <1>   0.0800 
 35 H       -4.4100    -1.6100     2.0570 H     1 <1>   0.0800 
 36 H       -3.6740    -1.7660    -1.5380 H     1 <1>   0.0800 
 37 H       -4.3530    -0.7600    -0.2990 H     1 <1>   0.0800 
 38 H       -2.1710     6.0610     0.6430 H     1 <1>   0.0800 
 39 H       -1.7940     4.3370     3.1060 H     1 <1>   0.0800 
 40 H       -1.8200     6.0860     3.0680 H     1 <1>   0.0800 
 41 H       -0.5330     5.2140     2.2730 H     1 <1>   0.0800 
 42 H       -4.1630     4.2850     2.0790 H     1 <1>   0.0800 
 43 H       -4.4510     5.1380     0.5810 H     1 <1>   0.0800 
 44 H       -4.1780     6.0350     2.0540 H     1 <1>   0.0800 
 45 H       -4.7090    -4.1000    -1.9360 H     1 <1>   0.1500 
 46 H       -6.5880    -1.2570     0.6080 H     1 <1>   0.1500 
 47 H       -6.8200    -5.3050    -2.0050 H     1 <1>   0.1500 
 48 H       -8.6220    -2.5770     0.4370 H     1 <1>   0.1500 
@<TRIPOS>BOND
  1   1   2  2   
  2   2   3  am  
  3   2   4  1   
  4   3   5  1   
  5   3  25  1   
  6   4   6  1   
  7   4   7  2   
  8   5   8  1   
  9   5   9  1   
 10   5  26  1   
 11   6  10  1   
 12   6  11  1   
 13   7  12  1   
 14   7  27  1   
 15   8  13  1   
 16   8  14  1   
 17   8  28  1   
 18   9  15  1   
 19   9  29  1   
 20   9  30  1   
 21  10  12  2   
 22  11  31  1   
 23  11  32  1   
 24  11  33  1   
 25  12  16  1   
 26  13  15  1   
 27  13  34  1   
 28  13  35  1   
 29  14  17  1   
 30  14  36  1   
 31  14  37  1   
 32  16  18  1   
 33  16  19  1   
 34  16  38  1   
 35  17  20  ar  
 36  17  21  ar  
 37  18  39  1   
 38  18  40  1   
 39  18  41  1   
 40  19  42  1   
 41  19  43  1   
 42  19  44  1   
 43  20  22  ar  
 44  20  45  1   
 45  21  23  ar  
 46  21  46  1   
 47  22  24  ar  
 48  22  47  1   
 49  23  24  ar  
 50  23  48  1   
@<TRIPOS>SUBSTRUCTURE
  1 ****   3 GROUP 4 **** **** 0

# MOE 2024.06 (io_trps.svl 2023.06)
