@<TRIPOS>MOLECULE
NONAME
47 48 1 0 0 
SMALL
USER_CHARGES


@<TRIPOS>ATOM
  1 O       -0.7670    -0.4010    -0.9870 O.2   1 <1>  -0.5700 
  2 C       -1.6390     0.1750    -0.3910 C.2   1 <1>   0.4230 
  3 C       -2.9710    -0.3490    -0.2800 C.ar  1 <1>   0.0860 
  4 C       -1.2470     1.4620     0.3070 C.3   1 <1>  -0.1790 
  5 C       -4.1570     0.3710    -0.4040 C.ar  1 <1>   0.1660 
  6 C       -3.1400    -1.7000    -0.0250 C.ar  1 <1>   0.1600 
  7 N       -5.3310    -0.1760    -0.2250 N.ar  1 <1>  -0.6200 
  8 C       -4.1900     1.8420    -0.7830 C.3   1 <1>  -0.0960 
  9 N       -4.3050    -2.2690     0.1470 N.ar  1 <1>  -0.6200 
 10 C       -5.3720    -1.4790     0.0560 C.ar  1 <1>   0.7200 
 11 N       -6.6080    -2.0480     0.2490 N.pl3 1 <1>  -0.8380 
 12 C       -6.7860    -3.5140     0.4640 C.3   1 <1>   0.2090 
 13 C       -7.8680    -1.2540     0.1600 C.3   1 <1>   0.1290 
 14 C       -6.8790    -4.2370    -0.8800 C.3   1 <1>  -0.0170 
 15 C       -7.1880    -5.7110    -0.6690 C.ar  1 <1>  -0.1440 
 16 C       -6.1680    -6.5990    -0.3710 C.ar  1 <1>  -0.1500 
 17 C       -8.4850    -6.1820    -0.7660 C.ar  1 <1>  -0.1500 
 18 C       -6.4230    -7.9460    -0.1700 C.ar  1 <1>   0.0820 
 19 C       -8.7620    -7.5220    -0.5590 C.ar  1 <1>  -0.1500 
 20 O       -5.3250    -8.7060     0.1030 O.3   1 <1>  -0.3630 
 21 C       -7.7430    -8.4220    -0.2510 C.ar  1 <1>   0.0820 
 22 C       -5.2290   -10.0320    -0.3670 C.3   1 <1>   0.0400 
 23 O       -8.0090    -9.7390    -0.0100 O.3   1 <1>  -0.3630 
 24 C       -9.3270   -10.2250     0.1220 C.3   1 <1>   0.0400 
 25 H       -1.9420     1.7020     1.0900 H     1 <1>   0.0800 
 26 H       -1.2060     2.2660    -0.4040 H     1 <1>   0.0800 
 27 H       -0.2710     1.3450     0.7440 H     1 <1>   0.0800 
 28 H       -2.2640    -2.3230     0.0430 H     1 <1>   0.1500 
 29 H       -3.4030     2.0810    -1.4740 H     1 <1>   0.0800 
 30 H       -4.1000     2.4520     0.0970 H     1 <1>   0.0800 
 31 H       -5.1260     2.0760    -1.2600 H     1 <1>   0.0800 
 32 H       -7.6800    -3.6930     1.0340 H     1 <1>   0.0800 
 33 H       -5.9620    -3.9120     1.0320 H     1 <1>   0.0800 
 34 H       -7.7220    -0.2700     0.5700 H     1 <1>   0.0800 
 35 H       -8.6570    -1.7330     0.7120 H     1 <1>   0.0800 
 36 H       -8.1620    -1.1610    -0.8710 H     1 <1>   0.0800 
 37 H       -5.9450    -4.1350    -1.4030 H     1 <1>   0.0800 
 38 H       -7.6500    -3.7860    -1.4780 H     1 <1>   0.0800 
 39 H       -5.1540    -6.2510    -0.2920 H     1 <1>   0.1500 
 40 H       -9.2890    -5.5060    -1.0010 H     1 <1>   0.1500 
 41 H       -9.7820    -7.8410    -0.6440 H     1 <1>   0.1500 
 42 H       -4.1890   -10.3030    -0.3930 H     1 <1>   0.0800 
 43 H       -5.6500   -10.0860    -1.3560 H     1 <1>   0.0800 
 44 H       -5.7570   -10.6780     0.3100 H     1 <1>   0.0800 
 45 H       -9.2740   -11.2640     0.3920 H     1 <1>   0.0800 
 46 H       -9.8350   -10.1180    -0.8200 H     1 <1>   0.0800 
 47 H       -9.8270    -9.6720     0.8980 H     1 <1>   0.0800 
@<TRIPOS>BOND
  1   1   2  2   
  2   2   3  1   
  3   2   4  1   
  4   3   5  ar  
  5   3   6  ar  
  6   4  25  1   
  7   4  26  1   
  8   4  27  1   
  9   5   7  ar  
 10   5   8  1   
 11   6   9  ar  
 12   6  28  1   
 13   7  10  ar  
 14   8  29  1   
 15   8  30  1   
 16   8  31  1   
 17   9  10  ar  
 18  10  11  1   
 19  11  12  1   
 20  11  13  1   
 21  12  14  1   
 22  12  32  1   
 23  12  33  1   
 24  13  34  1   
 25  13  35  1   
 26  13  36  1   
 27  14  15  1   
 28  14  37  1   
 29  14  38  1   
 30  15  16  ar  
 31  15  17  ar  
 32  16  18  ar  
 33  16  39  1   
 34  17  19  ar  
 35  17  40  1   
 36  18  20  1   
 37  18  21  ar  
 38  19  21  ar  
 39  19  41  1   
 40  20  22  1   
 41  21  23  1   
 42  22  42  1   
 43  22  43  1   
 44  22  44  1   
 45  23  24  1   
 46  24  45  1   
 47  24  46  1   
 48  24  47  1   
@<TRIPOS>SUBSTRUCTURE
  1 ****  12 GROUP 4 **** **** 0

# MOE 2024.06 (io_trps.svl 2023.06)
