@<TRIPOS>MOLECULE
NONAME
43 46 1 0 0 
SMALL
USER_CHARGES


@<TRIPOS>ATOM
  1 S        0.0460     0.3800     1.2410 S.3   1 <1>  -0.0800 
  2 C        1.0250    -0.9120     0.5770 C.2   1 <1>  -0.0450 
  3 C        0.9220     1.5350     0.2730 C.2   1 <1>   0.1980 
  4 C        1.9030    -0.3400    -0.2810 C.2   1 <1>   0.0460 
  5 C        0.8090    -2.2680     1.0130 C.2   1 <1>   0.7150 
  6 N        1.8310     1.0260    -0.4520 N.2   1 <1>  -0.5650 
  7 C        0.5250     2.9880     0.3880 C.3   1 <1>  -0.0600 
  8 C        2.9710    -1.0550    -1.0820 C.3   1 <1>  -0.0590 
  9 O        1.7700    -2.9640     1.2900 O.2   1 <1>  -0.5700 
 10 N       -0.4520    -2.8210     1.1070 N.am  1 <1>  -0.6600 
 11 C       -1.6180    -2.3550     0.3080 C.3   1 <1>   0.1400 
 12 C       -0.7120    -4.0540     1.9010 C.3   1 <1>   0.1400 
 13 C       -2.0540    -3.4720    -0.6420 C.3   1 <1>  -0.1600 
 14 C       -1.1400    -5.1820     0.9620 C.3   1 <1>  -0.1600 
 15 C       -2.3480    -4.7790     0.1090 C.3   1 <1>   0.4610 
 16 O       -3.4120    -4.5590     1.0180 O.3   1 <1>  -0.5600 
 17 C       -2.7140    -5.9030    -0.8630 C.2   1 <1>  -0.1810 
 18 C       -4.7330    -4.5760     0.5280 C.3   1 <1>   0.1200 
 19 C       -3.9530    -6.4120    -0.8920 C.2   1 <1>  -0.1400 
 20 C       -1.8330    -6.5220    -1.8120 C.2   1 <1>  -0.1500 
 21 C       -5.1020    -5.9600    -0.0320 C.3   1 <1>   0.0200 
 22 S       -4.1050    -7.6950    -2.0730 S.3   1 <1>  -0.0800 
 23 C       -2.4210    -7.4960    -2.5340 C.2   1 <1>  -0.1100 
 24 H       -0.5020     3.1100     0.0980 H     1 <1>   0.0800 
 25 H        1.1440     3.5840    -0.2570 H     1 <1>   0.0800 
 26 H        0.6520     3.3210     1.4010 H     1 <1>   0.0800 
 27 H        2.9410    -2.1150    -0.9110 H     1 <1>   0.0800 
 28 H        3.9390    -0.6860    -0.7970 H     1 <1>   0.0800 
 29 H        2.8230    -0.8670    -2.1300 H     1 <1>   0.0800 
 30 H       -1.3660    -1.4840    -0.2700 H     1 <1>   0.0800 
 31 H       -2.4240    -2.1000     0.9760 H     1 <1>   0.0800 
 32 H       -1.4940    -3.8540     2.6150 H     1 <1>   0.0800 
 33 H        0.1670    -4.3490     2.4490 H     1 <1>   0.0800 
 34 H       -1.2630    -3.6450    -1.3490 H     1 <1>   0.0800 
 35 H       -2.9150    -3.1660    -1.2040 H     1 <1>   0.0800 
 36 H       -1.3870    -6.0590     1.5310 H     1 <1>   0.0800 
 37 H       -0.3090    -5.4280     0.3290 H     1 <1>   0.0800 
 38 H       -4.8230    -3.8270    -0.2380 H     1 <1>   0.0800 
 39 H       -5.3890    -4.3190     1.3400 H     1 <1>   0.0800 
 40 H       -0.8080    -6.2120    -1.9090 H     1 <1>   0.1500 
 41 H       -6.0030    -5.8900    -0.6140 H     1 <1>   0.0800 
 42 H       -5.2580    -6.6580     0.7700 H     1 <1>   0.0800 
 43 H       -2.0440    -8.1400    -3.3080 H     1 <1>   0.1500 
@<TRIPOS>BOND
  1   1   2  1   
  2   1   3  1   
  3   2   4  2   
  4   2   5  1   
  5   3   6  2   
  6   3   7  1   
  7   4   6  1   
  8   4   8  1   
  9   5   9  2   
 10   5  10  am  
 11   7  24  1   
 12   7  25  1   
 13   7  26  1   
 14   8  27  1   
 15   8  28  1   
 16   8  29  1   
 17  10  11  1   
 18  10  12  1   
 19  11  13  1   
 20  11  30  1   
 21  11  31  1   
 22  12  14  1   
 23  12  32  1   
 24  12  33  1   
 25  13  15  1   
 26  13  34  1   
 27  13  35  1   
 28  14  15  1   
 29  14  36  1   
 30  14  37  1   
 31  15  16  1   
 32  15  17  1   
 33  16  18  1   
 34  17  19  2   
 35  17  20  1   
 36  18  21  1   
 37  18  38  1   
 38  18  39  1   
 39  19  21  1   
 40  19  22  1   
 41  20  23  2   
 42  20  40  1   
 43  21  41  1   
 44  21  42  1   
 45  22  23  1   
 46  23  43  1   
@<TRIPOS>SUBSTRUCTURE
  1 ****  11 GROUP 4 **** **** 0

# MOE 2024.06 (io_trps.svl 2023.06)
