@<TRIPOS>MOLECULE
NONAME
47 49 1 0 0 
SMALL
USER_CHARGES


@<TRIPOS>ATOM
  1 F        1.6130    -2.5430     1.8560 F     1 <1>  -0.1900 
  2 C        2.0150    -2.3780     0.6230 C.ar  1 <1>   0.1900 
  3 C        1.1260    -2.5880    -0.4230 C.ar  1 <1>  -0.1440 
  4 C        3.3290    -2.0000     0.4180 C.ar  1 <1>  -0.1500 
  5 C        1.5960    -2.4090    -1.7160 C.ar  1 <1>  -0.1500 
  6 C       -0.3190    -3.0060    -0.1820 C.3   1 <1>  -0.0160 
  7 C        3.7780    -1.8260    -0.8790 C.ar  1 <1>  -0.1500 
  8 C        2.9110    -2.0310    -1.9410 C.ar  1 <1>  -0.1500 
  9 C       -0.4250    -4.5310    -0.0710 C.3   1 <1>  -0.1600 
 10 C       -1.8640    -4.9710     0.1820 C.3   1 <1>   0.2090 
 11 N       -1.9080    -6.4470     0.2440 N.pl3 1 <1>  -0.8690 
 12 C       -3.0860    -7.1270     0.4450 C.ar  1 <1>   0.4100 
 13 N       -4.2180    -6.4430     0.3410 N.ar  1 <1>  -0.6200 
 14 C       -3.0400    -8.4810     0.7430 C.ar  1 <1>  -0.1500 
 15 C       -5.3270    -7.1270     0.5540 C.ar  1 <1>   0.1600 
 16 C       -4.1980    -9.2060     0.9480 C.ar  1 <1>   0.0860 
 17 C       -5.3740    -8.4720     0.8540 C.ar  1 <1>  -0.1500 
 18 C       -4.1780   -10.6240     1.2470 C.2   1 <1>   0.5440 
 19 O       -3.4190   -11.0360     2.1030 O.2   1 <1>  -0.5700 
 20 N       -4.9870   -11.5200     0.5810 N.am  1 <1>  -0.6600 
 21 C       -5.1500   -12.9330     1.0410 C.3   1 <1>   0.1400 
 22 C       -5.5470   -11.2810    -0.7840 C.3   1 <1>   0.1400 
 23 C       -4.6840   -13.9130    -0.0470 C.3   1 <1>   0.1200 
 24 C       -5.0660   -12.3640    -1.7650 C.3   1 <1>   0.1200 
 25 O       -5.3280   -13.6430    -1.2610 O.3   1 <1>  -0.5600 
 26 H        3.9830    -1.8480     1.2580 H     1 <1>   0.1500 
 27 H        0.9400    -2.5650    -2.5550 H     1 <1>   0.1500 
 28 H       -0.9340    -2.6580    -0.9940 H     1 <1>   0.0800 
 29 H       -0.6850    -2.5460     0.7200 H     1 <1>   0.0800 
 30 H        4.7970    -1.5320    -1.0630 H     1 <1>   0.1500 
 31 H        3.2620    -1.8950    -2.9500 H     1 <1>   0.1500 
 32 H        0.1980    -4.8680     0.7390 H     1 <1>   0.0800 
 33 H       -0.0750    -4.9760    -0.9860 H     1 <1>   0.0800 
 34 H       -2.5040    -4.6310    -0.6160 H     1 <1>   0.0800 
 35 H       -2.2260    -4.5630     1.1110 H     1 <1>   0.0800 
 36 H       -1.0840    -6.8620     0.6800 H     1 <1>   0.4000 
 37 H       -2.0900    -8.9740     0.8130 H     1 <1>   0.1500 
 38 H       -6.2520    -6.5780     0.4840 H     1 <1>   0.1500 
 39 H       -6.3190    -8.9580     1.0210 H     1 <1>   0.1500 
 40 H       -6.1870   -13.1160     1.2590 H     1 <1>   0.0800 
 41 H       -4.5890   -13.1100     1.9430 H     1 <1>   0.0800 
 42 H       -5.2450   -10.3190    -1.1580 H     1 <1>   0.0800 
 43 H       -6.6210   -11.3020    -0.7350 H     1 <1>   0.0800 
 44 H       -4.9240   -14.9230     0.2360 H     1 <1>   0.0800 
 45 H       -3.6200   -13.8370    -0.1920 H     1 <1>   0.0800 
 46 H       -4.0070   -12.2730    -1.9400 H     1 <1>   0.0800 
 47 H       -5.5800   -12.2700    -2.7040 H     1 <1>   0.0800 
@<TRIPOS>BOND
  1   1   2  1   
  2   2   3  ar  
  3   2   4  ar  
  4   3   5  ar  
  5   3   6  1   
  6   4   7  ar  
  7   4  26  1   
  8   5   8  ar  
  9   5  27  1   
 10   6   9  1   
 11   6  28  1   
 12   6  29  1   
 13   7   8  ar  
 14   7  30  1   
 15   8  31  1   
 16   9  10  1   
 17   9  32  1   
 18   9  33  1   
 19  10  11  1   
 20  10  34  1   
 21  10  35  1   
 22  11  12  1   
 23  11  36  1   
 24  12  13  ar  
 25  12  14  ar  
 26  13  15  ar  
 27  14  16  ar  
 28  14  37  1   
 29  15  17  ar  
 30  15  38  1   
 31  16  17  ar  
 32  16  18  1   
 33  17  39  1   
 34  18  19  2   
 35  18  20  am  
 36  20  21  1   
 37  20  22  1   
 38  21  23  1   
 39  21  40  1   
 40  21  41  1   
 41  22  24  1   
 42  22  42  1   
 43  22  43  1   
 44  23  25  1   
 45  23  44  1   
 46  23  45  1   
 47  24  25  1   
 48  24  46  1   
 49  24  47  1   
@<TRIPOS>SUBSTRUCTURE
  1 ****  11 GROUP 4 **** **** 0

# MOE 2024.06 (io_trps.svl 2023.06)
