@<TRIPOS>MOLECULE
NONAME
49 52 1 0 0 
SMALL
USER_CHARGES


@<TRIPOS>ATOM
  1 O        0.4250     1.6030    -0.2680 O.2   1 <1>  -0.5700 
  2 C        0.0340     2.6840    -0.6410 C.2   1 <1>   0.5690 
  3 N       -0.9640     3.3880    -0.0210 N.am  1 <1>  -0.5090 
  4 C        0.6950     3.3080    -1.8630 C.3   1 <1>   0.1810 
  5 C       -1.4060     4.7210    -0.5480 C.3   1 <1>   0.3640 
  6 C       -1.4770     3.0070     1.3200 C.3   1 <1>   0.0490 
  7 O        0.8140     4.6980    -1.7060 O.3   1 <1>  -0.5600 
  8 C       -2.7790     4.5940    -1.2080 C.ar  1 <1>  -0.1440 
  9 C       -0.4230     5.3830    -1.5600 C.3   1 <1>   0.2610 
 10 C       -2.0900     1.6530     1.4950 C.3   1 <1>  -0.2000 
 11 C       -2.9490     2.8730     1.5700 C.3   1 <1>  -0.2000 
 12 C       -3.7120     5.6090    -1.0420 C.ar  1 <1>   0.1600 
 13 C       -3.1300     3.4980    -1.9780 C.ar  1 <1>  -0.1500 
 14 C       -0.1780     6.8420    -1.1590 C.2   1 <1>   0.5690 
 15 N       -4.9280     5.6160    -1.5620 N.ar  1 <1>  -0.6200 
 16 C       -4.3940     3.4920    -2.5280 C.ar  1 <1>  -0.1500 
 17 O       -1.1200     7.5460    -0.8820 O.2   1 <1>  -0.5700 
 18 N        1.0970     7.3130    -1.1100 N.am  1 <1>  -0.7300 
 19 C       -5.2410     4.5590    -2.2920 C.ar  1 <1>   0.1600 
 20 C        1.4980     8.6980    -0.7760 C.3   1 <1>   0.1400 
 21 C        1.9020     8.7810     0.6960 C.3   1 <1>  -0.0170 
 22 C        2.3590    10.1890     1.0380 C.ar  1 <1>  -0.1440 
 23 C        1.4580    11.1930     1.3310 C.ar  1 <1>  -0.1500 
 24 C        3.6940    10.5390     1.0700 C.ar  1 <1>  -0.1500 
 25 C        1.9230    12.4630     1.6320 C.ar  1 <1>   0.1600 
 26 C        4.0530    11.8400     1.3840 C.ar  1 <1>   0.1600 
 27 N        3.1990    12.8110     1.6650 N.ar  1 <1>  -0.6200 
 28 H        0.1210     3.1010    -2.7480 H     1 <1>   0.0800 
 29 H        1.6840     2.9040    -1.9810 H     1 <1>   0.0800 
 30 H       -1.5060     5.3730     0.3030 H     1 <1>   0.0800 
 31 H       -0.8510     3.3760     2.1160 H     1 <1>   0.1000 
 32 H       -0.8820     5.4000    -2.5320 H     1 <1>   0.0800 
 33 H       -2.1650     1.0100     0.6360 H     1 <1>   0.1000 
 34 H       -1.8840     1.1100     2.4000 H     1 <1>   0.1000 
 35 H       -3.3390     3.1540     2.5320 H     1 <1>   0.1000 
 36 H       -3.6660     3.0160     0.7820 H     1 <1>   0.1000 
 37 H       -3.4490     6.4710    -0.4490 H     1 <1>   0.1500 
 38 H       -2.4610     2.6720    -2.1430 H     1 <1>   0.1500 
 39 H       -4.7230     2.6660    -3.1330 H     1 <1>   0.1500 
 40 H        1.8460     6.6460    -1.3290 H     1 <1>   0.3700 
 41 H       -6.2270     4.5430    -2.7250 H     1 <1>   0.1500 
 42 H        2.3220     8.9930    -1.4030 H     1 <1>   0.0800 
 43 H        0.6760     9.3680    -0.9620 H     1 <1>   0.0800 
 44 H        1.0590     8.5200     1.3110 H     1 <1>   0.0800 
 45 H        2.6970     8.0840     0.8940 H     1 <1>   0.0800 
 46 H        0.4000    11.0010     1.3270 H     1 <1>   0.1500 
 47 H        4.4590     9.8170     0.8550 H     1 <1>   0.1500 
 48 H        1.2050    13.2330     1.8590 H     1 <1>   0.1500 
 49 H        5.0980    12.0950     1.4050 H     1 <1>   0.1500 
@<TRIPOS>BOND
  1   1   2  2   
  2   2   3  am  
  3   2   4  1   
  4   3   5  1   
  5   3   6  1   
  6   4   7  1   
  7   4  28  1   
  8   4  29  1   
  9   5   8  1   
 10   5   9  1   
 11   5  30  1   
 12   6  10  1   
 13   6  11  1   
 14   6  31  1   
 15   7   9  1   
 16   8  12  ar  
 17   8  13  ar  
 18   9  14  1   
 19   9  32  1   
 20  10  11  1   
 21  10  33  1   
 22  10  34  1   
 23  11  35  1   
 24  11  36  1   
 25  12  15  ar  
 26  12  37  1   
 27  13  16  ar  
 28  13  38  1   
 29  14  17  2   
 30  14  18  am  
 31  15  19  ar  
 32  16  19  ar  
 33  16  39  1   
 34  18  20  1   
 35  18  40  1   
 36  19  41  1   
 37  20  21  1   
 38  20  42  1   
 39  20  43  1   
 40  21  22  1   
 41  21  44  1   
 42  21  45  1   
 43  22  23  ar  
 44  22  24  ar  
 45  23  25  ar  
 46  23  46  1   
 47  24  26  ar  
 48  24  47  1   
 49  25  27  ar  
 50  25  48  1   
 51  26  27  ar  
 52  26  49  1   
@<TRIPOS>SUBSTRUCTURE
  1 ****  14 GROUP 4 **** **** 0

# MOE 2024.06 (io_trps.svl 2023.06)
