@<TRIPOS>MOLECULE
NONAME
48 50 1 0 0 
SMALL
USER_CHARGES


@<TRIPOS>ATOM
  1 O       -3.0160     0.9610    -1.5400 O.2   1 <1>  -0.5700 
  2 C       -2.3730     0.8250    -0.5280 C.2   1 <1>   0.5690 
  3 N       -2.0850    -0.3990    -0.0270 N.am  1 <1>  -0.7300 
  4 C       -1.8790     2.0480     0.2060 C.3   1 <1>  -0.0990 
  5 C       -2.5300    -1.6720    -0.6350 C.3   1 <1>   0.2200 
  6 C       -0.9520     2.8610    -0.6910 C.3   1 <1>   0.1200 
  7 C       -3.8310    -2.1050     0.0180 C.3   1 <1>  -0.0800 
  8 C       -1.5880    -2.8010    -0.2350 C.3   1 <1>   0.1200 
  9 O       -0.4380     3.9060     0.0670 O.3   1 <1>  -0.5600 
 10 C       -3.3390    -2.8460     1.2650 C.3   1 <1>   0.1200 
 11 C       -4.6560    -3.0100    -0.9180 C.3   1 <1>  -0.0160 
 12 O       -2.0200    -3.2420     1.0180 O.3   1 <1>  -0.5600 
 13 C        0.3960     4.7580    -0.6430 C.3   1 <1>   0.1200 
 14 C       -6.0120    -3.3550    -0.3100 C.ar  1 <1>  -0.1440 
 15 C        0.8810     5.8330     0.3210 C.3   1 <1>  -0.2400 
 16 C       -7.0790    -2.4250    -0.2670 C.ar  1 <1>   0.0000 
 17 C       -6.2340    -4.5930     0.2160 C.ar  1 <1>  -0.1500 
 18 C       -8.2900    -2.8420     0.3370 C.ar  1 <1>   0.3100 
 19 C       -7.0180    -1.1100    -0.7870 C.ar  1 <1>  -0.1500 
 20 C       -7.4740    -4.9070     0.7850 C.ar  1 <1>   0.1600 
 21 N       -8.4710    -4.0830     0.8570 N.ar  1 <1>  -0.6200 
 22 C       -9.3620    -1.9380     0.4060 C.ar  1 <1>  -0.1500 
 23 C       -8.0820    -0.2540    -0.7040 C.ar  1 <1>  -0.1500 
 24 C       -9.2700    -0.6700    -0.1000 C.ar  1 <1>  -0.1500 
 25 H       -1.6040    -0.5000     0.8700 H     1 <1>   0.3700 
 26 H       -2.7250     2.6490     0.4820 H     1 <1>   0.0800 
 27 H       -1.3510     1.7550     1.0930 H     1 <1>   0.0800 
 28 H       -2.6060    -1.5630    -1.7050 H     1 <1>   0.0800 
 29 H       -1.4970     3.2650    -1.5280 H     1 <1>   0.0800 
 30 H       -0.1350     2.2540    -1.0420 H     1 <1>   0.0800 
 31 H       -4.4250    -1.2520     0.2960 H     1 <1>   0.0800 
 32 H       -0.5610    -2.4850    -0.1740 H     1 <1>   0.0800 
 33 H       -1.6740    -3.6270    -0.9180 H     1 <1>   0.0800 
 34 H       -3.9280    -3.7150     1.4990 H     1 <1>   0.0800 
 35 H       -3.3240    -2.1870     2.1150 H     1 <1>   0.0800 
 36 H       -4.1110    -3.9160    -1.1190 H     1 <1>   0.0800 
 37 H       -4.8090    -2.5220    -1.8640 H     1 <1>   0.0800 
 38 H        1.2270     4.1910    -1.0300 H     1 <1>   0.0800 
 39 H       -0.1620     5.1980    -1.4530 H     1 <1>   0.0800 
 40 H        1.4230     5.3820     1.1330 H     1 <1>   0.0800 
 41 H        0.0430     6.3820     0.7110 H     1 <1>   0.0800 
 42 H        1.5330     6.5160    -0.1920 H     1 <1>   0.0800 
 43 H       -5.4730    -5.3530     0.2120 H     1 <1>   0.1500 
 44 H       -6.1160    -0.7660    -1.2600 H     1 <1>   0.1500 
 45 H       -7.6060    -5.8960     1.1900 H     1 <1>   0.1500 
 46 H      -10.2670    -2.2810     0.8740 H     1 <1>   0.1500 
 47 H       -8.0180     0.7440    -1.1030 H     1 <1>   0.1500 
 48 H      -10.1010     0.0120    -0.0400 H     1 <1>   0.1500 
@<TRIPOS>BOND
  1   1   2  2   
  2   2   3  am  
  3   2   4  1   
  4   3   5  1   
  5   3  25  1   
  6   4   6  1   
  7   4  26  1   
  8   4  27  1   
  9   5   7  1   
 10   5   8  1   
 11   5  28  1   
 12   6   9  1   
 13   6  29  1   
 14   6  30  1   
 15   7  10  1   
 16   7  11  1   
 17   7  31  1   
 18   8  12  1   
 19   8  32  1   
 20   8  33  1   
 21   9  13  1   
 22  10  12  1   
 23  10  34  1   
 24  10  35  1   
 25  11  14  1   
 26  11  36  1   
 27  11  37  1   
 28  13  15  1   
 29  13  38  1   
 30  13  39  1   
 31  14  16  ar  
 32  14  17  ar  
 33  15  40  1   
 34  15  41  1   
 35  15  42  1   
 36  16  18  ar  
 37  16  19  ar  
 38  17  20  ar  
 39  17  43  1   
 40  18  21  ar  
 41  18  22  ar  
 42  19  23  ar  
 43  19  44  1   
 44  20  21  ar  
 45  20  45  1   
 46  22  24  ar  
 47  22  46  1   
 48  23  24  ar  
 49  23  47  1   
 50  24  48  1   
@<TRIPOS>SUBSTRUCTURE
  1 ****   7 GROUP 4 **** **** 0

# MOE 2024.06 (io_trps.svl 2023.06)
