@<TRIPOS>MOLECULE
NONAME
41 43 1 0 0 
SMALL
USER_CHARGES


@<TRIPOS>ATOM
  1 O       -0.1250    -0.1450    -0.7500 O.2   1 <1>  -0.5700 
  2 C        0.8610    -0.7240    -0.3300 C.2   1 <1>   0.7150 
  3 N        1.9710    -0.0140     0.0570 N.am  1 <1>  -0.4940 
  4 C        0.9190    -2.1680    -0.2390 C.2   1 <1>   0.0550 
  5 C        2.2230     1.3790     0.0880 C.2   1 <1>  -0.0880 
  6 O        2.0620    -2.7310     0.1920 O.3   1 <1>  -0.2800 
  7 C        0.0150    -3.1490    -0.5150 C.2   1 <1>  -0.1810 
  8 N        3.4010     1.9470    -0.2860 N.pl3 1 <1>   0.3140 
  9 C        1.4200     2.4000     0.4770 C.2   1 <1>  -0.1810 
 10 C        1.9040    -4.0510     0.1960 C.ar  1 <1>   0.1400 
 11 C        0.6360    -4.3810    -0.2390 C.ar  1 <1>   0.0000 
 12 C       -1.4130    -3.0530    -1.0270 C.3   1 <1>  -0.0590 
 13 N        3.3740     3.2910    -0.1490 N.2   1 <1>  -0.7070 
 14 C        4.5880     1.2620    -0.8400 C.3   1 <1>   0.0960 
 15 C        2.1870     3.5470     0.3040 C.2   1 <1>   0.1390 
 16 C       -0.0020     2.3660     1.0040 C.3   1 <1>  -0.0590 
 17 C        2.8310    -5.0150     0.5700 C.ar  1 <1>  -0.1500 
 18 C        0.2700    -5.7260    -0.3080 C.ar  1 <1>  -0.1500 
 19 C        5.4780     0.7000     0.2760 C.3   1 <1>  -0.2400 
 20 C        2.4660    -6.3460     0.5010 C.ar  1 <1>  -0.1430 
 21 C        1.1840    -6.6930     0.0610 C.ar  1 <1>  -0.1500 
 22 C        3.4370    -7.4430     0.8960 C.3   1 <1>  -0.0970 
 23 H        2.7390    -0.6260     0.3330 H     1 <1>   0.3700 
 24 H       -1.7130    -2.0310    -1.1680 H     1 <1>   0.0800 
 25 H       -2.0840    -3.5090    -0.3220 H     1 <1>   0.0800 
 26 H       -1.4980    -3.5640    -1.9680 H     1 <1>   0.0800 
 27 H        5.1400     1.9750    -1.4240 H     1 <1>   0.0800 
 28 H        4.2560     0.4750    -1.4910 H     1 <1>   0.0800 
 29 H        1.8430     4.5450     0.5200 H     1 <1>   0.1500 
 30 H       -0.2020     1.4210     1.4750 H     1 <1>   0.0800 
 31 H       -0.6920     2.4990     0.1910 H     1 <1>   0.0800 
 32 H       -0.1520     3.1480     1.7260 H     1 <1>   0.0800 
 33 H        3.8040    -4.7080     0.9030 H     1 <1>   0.1500 
 34 H       -0.7150    -5.9920    -0.6460 H     1 <1>   0.1500 
 35 H        5.8150     1.5010     0.9130 H     1 <1>   0.0800 
 36 H        6.3400     0.2210    -0.1520 H     1 <1>   0.0800 
 37 H        4.9410    -0.0200     0.8670 H     1 <1>   0.0800 
 38 H        0.9090    -7.7320     0.0100 H     1 <1>   0.1500 
 39 H        4.3770    -7.0290     1.2140 H     1 <1>   0.0800 
 40 H        3.6160    -8.0930     0.0580 H     1 <1>   0.0800 
 41 H        3.0270    -8.0210     1.7040 H     1 <1>   0.0800 
@<TRIPOS>BOND
  1   1   2  2   
  2   2   3  am  
  3   2   4  1   
  4   3   5  1   
  5   3  23  1   
  6   4   6  1   
  7   4   7  2   
  8   5   8  1   
  9   5   9  2   
 10   6  10  1   
 11   7  11  1   
 12   7  12  1   
 13   8  13  1   
 14   8  14  1   
 15   9  15  1   
 16   9  16  1   
 17  10  11  ar  
 18  10  17  ar  
 19  11  18  ar  
 20  12  24  1   
 21  12  25  1   
 22  12  26  1   
 23  13  15  2   
 24  14  19  1   
 25  14  27  1   
 26  14  28  1   
 27  15  29  1   
 28  16  30  1   
 29  16  31  1   
 30  16  32  1   
 31  17  20  ar  
 32  17  33  1   
 33  18  21  ar  
 34  18  34  1   
 35  19  35  1   
 36  19  36  1   
 37  19  37  1   
 38  20  21  ar  
 39  20  22  1   
 40  21  38  1   
 41  22  39  1   
 42  22  40  1   
 43  22  41  1   
@<TRIPOS>SUBSTRUCTURE
  1 ****   4 GROUP 4 **** **** 0

# MOE 2024.06 (io_trps.svl 2023.06)
