@<TRIPOS>MOLECULE
NONAME
40 41 1 0 0 
SMALL
USER_CHARGES


@<TRIPOS>ATOM
  1 F       -1.8280     3.6480    -2.0830 F     1 <1>  -0.1900 
  2 C       -2.0840     2.7350    -1.1850 C.ar  1 <1>   0.1900 
  3 C       -1.2870     2.6590    -0.0540 C.ar  1 <1>  -0.1440 
  4 C       -3.1560     1.8910    -1.4000 C.ar  1 <1>  -0.1500 
  5 C       -1.5890     1.6880     0.8920 C.ar  1 <1>  -0.1500 
  6 C       -0.1190     3.6080     0.1450 C.3   1 <1>   0.4870 
  7 C       -3.4450     0.9310    -0.4460 C.ar  1 <1>  -0.1500 
  8 C       -2.6630     0.8330     0.6950 C.ar  1 <1>  -0.1500 
  9 N       -0.5950     5.0160     0.2820 N.4   1 <1>  -0.9590 
 10 C        0.5510     5.9500     0.4740 C.3   1 <1>   0.5230 
 11 C       -1.7120     5.1950     1.2450 C.3   1 <1>   0.3430 
 12 C        1.2930     6.1140    -0.8450 C.2   1 <1>   0.0070 
 13 C       -2.4170     6.5190     0.9740 C.3   1 <1>  -0.2400 
 14 N        0.8320     5.6720    -1.9750 N.2   1 <1>  -0.5650 
 15 N        2.4900     6.7460    -0.9560 N.pl3 1 <1>   0.0480 
 16 C        1.7700     6.0300    -2.8710 C.2   1 <1>   0.0770 
 17 C        2.7840     6.6830    -2.2670 C.2   1 <1>  -0.3020 
 18 C        3.3310     7.3920     0.0780 C.3   1 <1>   0.0960 
 19 C        2.8030     8.7910     0.4110 C.3   1 <1>  -0.2400 
 20 H       -3.7490     1.9830    -2.2930 H     1 <1>   0.1500 
 21 H       -0.9980     1.5810     1.7860 H     1 <1>   0.1500 
 22 H        0.5430     3.5300    -0.7040 H     1 <1>   0.0800 
 23 H        0.4280     3.3180     1.0270 H     1 <1>   0.0800 
 24 H       -4.2760     0.2600    -0.5900 H     1 <1>   0.1500 
 25 H       -2.8930     0.0800     1.4310 H     1 <1>   0.1500 
 26 H       -0.9290     5.2420    -0.6740 H     1 <1>   0.4500 
 27 H        1.2160     5.5750     1.2330 H     1 <1>   0.0800 
 28 H        0.1920     6.9180     0.7790 H     1 <1>   0.0800 
 29 H       -1.3450     5.1640     2.2580 H     1 <1>   0.0800 
 30 H       -2.4310     4.4000     1.1240 H     1 <1>   0.0800 
 31 H       -1.7870     7.3610     1.1890 H     1 <1>   0.0800 
 32 H       -3.2830     6.5900     1.6090 H     1 <1>   0.0800 
 33 H       -2.7540     6.5660    -0.0470 H     1 <1>   0.0800 
 34 H        1.6660     5.7980    -3.9190 H     1 <1>   0.1500 
 35 H        3.6770     7.0990    -2.6980 H     1 <1>   0.1500 
 36 H        4.3380     7.4670    -0.2970 H     1 <1>   0.0800 
 37 H        3.3490     6.7770     0.9600 H     1 <1>   0.0800 
 38 H        2.8030     9.4070    -0.4720 H     1 <1>   0.0800 
 39 H        3.4430     9.2550     1.1410 H     1 <1>   0.0800 
 40 H        1.8080     8.7480     0.8120 H     1 <1>   0.0800 
@<TRIPOS>BOND
  1   1   2  1   
  2   2   3  ar  
  3   2   4  ar  
  4   3   5  ar  
  5   3   6  1   
  6   4   7  ar  
  7   4  20  1   
  8   5   8  ar  
  9   5  21  1   
 10   6   9  1   
 11   6  22  1   
 12   6  23  1   
 13   7   8  ar  
 14   7  24  1   
 15   8  25  1   
 16   9  10  1   
 17   9  11  1   
 18   9  26  1   
 19  10  12  1   
 20  10  27  1   
 21  10  28  1   
 22  11  13  1   
 23  11  29  1   
 24  11  30  1   
 25  12  14  2   
 26  12  15  1   
 27  13  31  1   
 28  13  32  1   
 29  13  33  1   
 30  14  16  1   
 31  15  17  1   
 32  15  18  1   
 33  16  17  2   
 34  16  34  1   
 35  17  35  1   
 36  18  19  1   
 37  18  36  1   
 38  18  37  1   
 39  19  38  1   
 40  19  39  1   
 41  19  40  1   
@<TRIPOS>SUBSTRUCTURE
  1 ****   9 GROUP 4 **** **** 0

# MOE 2024.06 (io_trps.svl 2023.06)
