@<TRIPOS>MOLECULE
NONAME
49 50 1 0 0 
SMALL
USER_CHARGES


@<TRIPOS>ATOM
  1 O        0.3590     0.1770     0.3360 O.2   1 <1>  -0.5700 
  2 C        1.2040    -0.4790    -0.2410 C.2   1 <1>   0.5440 
  3 N        2.3090     0.1380    -0.7680 N.am  1 <1>  -0.4930 
  4 C        1.0420    -1.9120    -0.3930 C.ar  1 <1>   0.0860 
  5 C        2.6960     1.5000    -0.7020 C.2   1 <1>   0.0630 
  6 C        2.1310    -2.7870    -0.3580 C.ar  1 <1>  -0.1500 
  7 C       -0.2210    -2.4710    -0.5830 C.ar  1 <1>  -0.1500 
  8 C        2.0820     2.5730    -0.0520 C.2   1 <1>   0.1390 
  9 C        3.7900     2.0390    -1.2800 C.2   1 <1>  -0.3020 
 10 C        1.9640    -4.1500    -0.5220 C.ar  1 <1>  -0.1500 
 11 C       -0.3910    -3.8340    -0.7460 C.ar  1 <1>  -0.1500 
 12 N        2.7370     3.6870    -0.2070 N.2   1 <1>  -0.7070 
 13 N        3.7960     3.3550    -0.9720 N.pl3 1 <1>   0.3140 
 14 C        0.7020    -4.6830    -0.7190 C.ar  1 <1>  -0.1430 
 15 C        4.8010     4.3500    -1.3730 C.3   1 <1>   0.1570 
 16 C        0.5130    -6.1820    -0.8900 C.3   1 <1>  -0.0170 
 17 C        5.7650     4.6010    -0.2360 C.2   1 <1>   0.5690 
 18 C        0.3300    -6.8500     0.4840 C.3   1 <1>  -0.1600 
 19 O        6.9460     4.6460    -0.4870 O.2   1 <1>  -0.5700 
 20 N        5.2850     4.7810     1.0250 N.am  1 <1>  -0.7300 
 21 C        0.0370    -8.3600     0.4430 C.3   1 <1>   0.2800 
 22 C        6.0930     5.0370     2.2410 C.3   1 <1>   0.0600 
 23 O       -1.0950    -8.5610    -0.3030 O.3   1 <1>  -0.6800 
 24 C       -0.2590    -8.8960     1.8410 C.3   1 <1>  -0.2400 
 25 C        1.1490    -9.1720    -0.2190 C.3   1 <1>  -0.2400 
 26 H        2.9220    -0.4510    -1.3260 H     1 <1>   0.3700 
 27 H        3.1200    -2.4020    -0.1900 H     1 <1>   0.1500 
 28 H       -1.0790    -1.8220    -0.6020 H     1 <1>   0.1500 
 29 H        1.1690     2.4910     0.5150 H     1 <1>   0.1500 
 30 H        4.5510     1.5720    -1.8760 H     1 <1>   0.1500 
 31 H        2.8220    -4.8000    -0.4890 H     1 <1>   0.1500 
 32 H       -1.3810    -4.2310    -0.8930 H     1 <1>   0.1500 
 33 H        4.3010     5.2650    -1.6250 H     1 <1>   0.0800 
 34 H        5.3350     3.9900    -2.2300 H     1 <1>   0.0800 
 35 H        1.3700    -6.5910    -1.3940 H     1 <1>   0.0800 
 36 H       -0.3470    -6.3650    -1.5100 H     1 <1>   0.0800 
 37 H       -0.4690    -6.3540     1.0060 H     1 <1>   0.0800 
 38 H        1.2240    -6.6910     1.0610 H     1 <1>   0.0800 
 39 H        4.2720     4.6370     1.1660 H     1 <1>   0.3700 
 40 H        7.1340     5.1400     1.9830 H     1 <1>   0.0800 
 41 H        5.9840     4.2160     2.9280 H     1 <1>   0.0800 
 42 H        5.7600     5.9440     2.7140 H     1 <1>   0.0800 
 43 H       -1.8540    -8.1460     0.1450 H     1 <1>   0.4000 
 44 H       -1.0640    -8.3510     2.3010 H     1 <1>   0.0800 
 45 H        0.6120    -8.7960     2.4630 H     1 <1>   0.0800 
 46 H       -0.5200    -9.9390     1.7960 H     1 <1>   0.0800 
 47 H        1.2710    -8.8910    -1.2490 H     1 <1>   0.0800 
 48 H        0.9160   -10.2210    -0.1790 H     1 <1>   0.0800 
 49 H        2.0800    -9.0130     0.2940 H     1 <1>   0.0800 
@<TRIPOS>BOND
  1   1   2  2   
  2   2   3  am  
  3   2   4  1   
  4   3   5  1   
  5   3  26  1   
  6   4   6  ar  
  7   4   7  ar  
  8   5   8  1   
  9   5   9  2   
 10   6  10  ar  
 11   6  27  1   
 12   7  11  ar  
 13   7  28  1   
 14   8  12  2   
 15   8  29  1   
 16   9  13  1   
 17   9  30  1   
 18  10  14  ar  
 19  10  31  1   
 20  11  14  ar  
 21  11  32  1   
 22  12  13  1   
 23  13  15  1   
 24  14  16  1   
 25  15  17  1   
 26  15  33  1   
 27  15  34  1   
 28  16  18  1   
 29  16  35  1   
 30  16  36  1   
 31  17  19  2   
 32  17  20  am  
 33  18  21  1   
 34  18  37  1   
 35  18  38  1   
 36  20  22  1   
 37  20  39  1   
 38  21  23  1   
 39  21  24  1   
 40  21  25  1   
 41  22  40  1   
 42  22  41  1   
 43  22  42  1   
 44  23  43  1   
 45  24  44  1   
 46  24  45  1   
 47  24  46  1   
 48  25  47  1   
 49  25  48  1   
 50  25  49  1   
@<TRIPOS>SUBSTRUCTURE
  1 ****   2 GROUP 4 **** **** 0

# MOE 2024.06 (io_trps.svl 2023.06)
