@<TRIPOS>MOLECULE
NONAME
45 47 1 0 0 
SMALL
USER_CHARGES


@<TRIPOS>ATOM
  1 F       -2.7410    -1.7000     2.4490 F     1 <1>  -0.1900 
  2 C       -3.5960    -1.1400     1.6370 C.ar  1 <1>   0.1900 
  3 C       -3.3860    -1.2410     0.2770 C.ar  1 <1>  -0.1500 
  4 C       -4.6780    -0.4710     2.1690 C.ar  1 <1>  -0.1500 
  5 C       -4.2940    -0.6550    -0.5950 C.ar  1 <1>  -0.1440 
  6 C       -5.5790     0.1160     1.2980 C.ar  1 <1>  -0.1500 
  7 C       -5.3960     0.0300    -0.0770 C.ar  1 <1>  -0.1430 
  8 C       -4.0650    -0.8020    -2.1010 C.3   1 <1>   0.0440 
  9 C       -6.4240     0.6940    -0.9850 C.3   1 <1>  -0.0960 
 10 C       -4.9470    -1.8890    -2.6860 C.2   1 <1>   0.5690 
 11 O       -5.6490    -1.6410    -3.6360 O.2   1 <1>  -0.5700 
 12 N       -4.9460    -3.1110    -2.0970 N.am  1 <1>  -0.7300 
 13 C       -5.8870    -4.2120    -2.3980 C.3   1 <1>   0.2200 
 14 C       -6.9230    -4.3530    -1.2880 C.3   1 <1>  -0.0800 
 15 C       -5.1490    -5.5360    -2.2600 C.3   1 <1>   0.1200 
 16 C       -6.1920    -5.2030    -0.2430 C.3   1 <1>   0.1200 
 17 C       -7.5010    -3.0360    -0.7340 C.3   1 <1>  -0.0170 
 18 O       -5.0930    -5.7820    -0.8870 O.3   1 <1>  -0.5600 
 19 C       -8.5140    -3.2950     0.3680 C.ar  1 <1>  -0.1430 
 20 C       -9.7990    -3.7190     0.0960 C.ar  1 <1>  -0.1500 
 21 C       -8.1990    -3.1160     1.7000 C.ar  1 <1>  -0.1500 
 22 C      -10.6800    -3.9440     1.1410 C.ar  1 <1>   0.1600 
 23 C       -9.1550    -3.3700     2.6690 C.ar  1 <1>   0.1600 
 24 N      -10.3890    -3.7810     2.4210 N.ar  1 <1>  -0.6200 
 25 H       -2.5230    -1.7740    -0.0800 H     1 <1>   0.1500 
 26 H       -4.8080    -0.4110     3.2340 H     1 <1>   0.1500 
 27 H       -6.4270     0.6430     1.7010 H     1 <1>   0.1500 
 28 H       -3.0410    -1.0540    -2.3010 H     1 <1>   0.0800 
 29 H       -4.2670     0.1270    -2.6010 H     1 <1>   0.0800 
 30 H       -7.2380     1.1040    -0.4140 H     1 <1>   0.0800 
 31 H       -6.8340    -0.0180    -1.6780 H     1 <1>   0.0800 
 32 H       -5.9660     1.4940    -1.5380 H     1 <1>   0.0800 
 33 H       -4.3900    -3.2690    -1.2530 H     1 <1>   0.3700 
 34 H       -6.3280    -4.0840    -3.3730 H     1 <1>   0.0800 
 35 H       -7.7370    -4.9440    -1.6690 H     1 <1>   0.0800 
 36 H       -4.1540    -5.5040    -2.6660 H     1 <1>   0.0800 
 37 H       -5.7080    -6.3350    -2.7160 H     1 <1>   0.0800 
 38 H       -6.8220    -5.9840     0.1490 H     1 <1>   0.0800 
 39 H       -5.8140    -4.6020     0.5660 H     1 <1>   0.0800 
 40 H       -7.9690    -2.4860    -1.5320 H     1 <1>   0.0800 
 41 H       -6.7150    -2.4220    -0.3360 H     1 <1>   0.0800 
 42 H      -10.1220    -3.8760    -0.9170 H     1 <1>   0.1500 
 43 H       -7.2200    -2.7820     1.9930 H     1 <1>   0.1500 
 44 H      -11.6790    -4.2740     0.9100 H     1 <1>   0.1500 
 45 H       -8.8920    -3.2260     3.7020 H     1 <1>   0.1500 
@<TRIPOS>BOND
  1   1   2  1   
  2   2   3  ar  
  3   2   4  ar  
  4   3   5  ar  
  5   3  25  1   
  6   4   6  ar  
  7   4  26  1   
  8   5   7  ar  
  9   5   8  1   
 10   6   7  ar  
 11   6  27  1   
 12   7   9  1   
 13   8  10  1   
 14   8  28  1   
 15   8  29  1   
 16   9  30  1   
 17   9  31  1   
 18   9  32  1   
 19  10  11  2   
 20  10  12  am  
 21  12  13  1   
 22  12  33  1   
 23  13  14  1   
 24  13  15  1   
 25  13  34  1   
 26  14  16  1   
 27  14  17  1   
 28  14  35  1   
 29  15  18  1   
 30  15  36  1   
 31  15  37  1   
 32  16  18  1   
 33  16  38  1   
 34  16  39  1   
 35  17  19  1   
 36  17  40  1   
 37  17  41  1   
 38  19  20  ar  
 39  19  21  ar  
 40  20  22  ar  
 41  20  42  1   
 42  21  23  ar  
 43  21  43  1   
 44  22  24  ar  
 45  22  44  1   
 46  23  24  ar  
 47  23  45  1   
@<TRIPOS>SUBSTRUCTURE
  1 ****  17 GROUP 4 **** **** 0

# MOE 2024.06 (io_trps.svl 2023.06)
