@<TRIPOS>MOLECULE
NONAME
47 49 1 0 0 
SMALL
USER_CHARGES


@<TRIPOS>ATOM
  1 S        0.0460    -0.3460     1.8740 S.o2  1 <1>   1.4470 
  2 O       -0.5600    -1.4950     2.5150 O.2   1 <1>  -0.6500 
  3 O        0.3290     0.8240     2.6780 O.2   1 <1>  -0.6500 
  4 N       -1.0300     0.1540     0.6620 N.am  1 <1>  -0.8490 
  5 C        1.5160    -0.8860     0.9550 C.ar  1 <1>  -0.0090 
  6 C       -2.3710     0.3840     1.2190 C.3   1 <1>   0.1960 
  7 C       -0.5610     1.3600    -0.0330 C.3   1 <1>   0.1960 
  8 C        2.5430     0.0000     0.6550 C.ar  1 <1>  -0.1500 
  9 C        1.6290    -2.1950     0.4960 C.ar  1 <1>  -0.1500 
 10 C       -3.4090     0.6450     0.1110 C.3   1 <1>   0.0000 
 11 C       -1.4890     1.7000    -1.2030 C.3   1 <1>  -0.1600 
 12 C        3.6640    -0.3610    -0.0970 C.ar  1 <1>  -0.1790 
 13 C        2.7320    -2.5980    -0.2330 C.ar  1 <1>  -0.1500 
 14 C       -4.8070     0.8430     0.7240 C.3   1 <1>   0.2000 
 15 C       -2.9480     1.8550    -0.7450 C.3   1 <1>  -0.1600 
 16 C       -3.6430    -0.5940    -0.7730 C.3   1 <1>  -0.1600 
 17 C        3.7330    -1.6900    -0.5210 C.ar  1 <1>   0.0820 
 18 C        4.6940     0.6100    -0.4300 C.2   1 <1>   0.9790 
 19 O       -4.9820     2.1380     1.2150 O.3   1 <1>  -0.5600 
 20 C       -5.7950     0.5260    -0.4020 C.3   1 <1>  -0.1600 
 21 C       -5.0590    -0.4410    -1.3410 C.3   1 <1>  -0.1600 
 22 O        4.7950    -2.0890    -1.2260 O.3   1 <1>  -0.5320 
 23 O        4.5520     1.8090    -0.1440 O.co2 1 <1>  -0.9000 
 24 O        5.7290     0.2510    -1.0320 O.co2 1 <1>  -0.9000 
 25 C       -6.0910     2.3110     2.0400 C.3   1 <1>   0.0400 
 26 H       -2.6810    -0.4790     1.7840 H     1 <1>   0.0800 
 27 H       -2.3440     1.2250     1.8930 H     1 <1>   0.0800 
 28 H       -0.5220     2.1900     0.6550 H     1 <1>   0.0800 
 29 H        0.4300     1.2010    -0.4230 H     1 <1>   0.0800 
 30 H        2.4810     1.0180     1.0070 H     1 <1>   0.1500 
 31 H        0.8450    -2.9000     0.7120 H     1 <1>   0.1500 
 32 H       -1.1580     2.6170    -1.6560 H     1 <1>   0.0800 
 33 H       -1.4060     0.9280    -1.9470 H     1 <1>   0.0800 
 34 H        2.8270    -3.6090    -0.5830 H     1 <1>   0.1500 
 35 H       -4.9410     0.1410     1.5310 H     1 <1>   0.0800 
 36 H       -3.5890     1.9880    -1.5990 H     1 <1>   0.0800 
 37 H       -3.0110     2.7520    -0.1540 H     1 <1>   0.0800 
 38 H       -2.9080    -0.7060    -1.5490 H     1 <1>   0.0800 
 39 H       -3.6110    -1.4790    -0.1600 H     1 <1>   0.0800 
 40 H       -6.6900     0.0780    -0.0110 H     1 <1>   0.0800 
 41 H       -6.0420     1.4270    -0.9370 H     1 <1>   0.0800 
 42 H       -5.5550    -1.3950    -1.3910 H     1 <1>   0.0800 
 43 H       -5.0150    -0.0200    -2.3310 H     1 <1>   0.0800 
 44 H        5.4110    -1.2920    -1.3190 H     1 <1>   0.4500 
 45 H       -6.1030     3.3340     2.3710 H     1 <1>   0.0800 
 46 H       -6.0080     1.6560     2.8900 H     1 <1>   0.0800 
 47 H       -6.9880     2.1010     1.4850 H     1 <1>   0.0800 
@<TRIPOS>BOND
  1   1   2  2   
  2   1   3  2   
  3   1   4  am  
  4   1   5  1   
  5   4   6  1   
  6   4   7  1   
  7   5   8  ar  
  8   5   9  ar  
  9   6  10  1   
 10   6  26  1   
 11   6  27  1   
 12   7  11  1   
 13   7  28  1   
 14   7  29  1   
 15   8  12  ar  
 16   8  30  1   
 17   9  13  ar  
 18   9  31  1   
 19  10  14  1   
 20  10  15  1   
 21  10  16  1   
 22  11  15  1   
 23  11  32  1   
 24  11  33  1   
 25  12  17  ar  
 26  12  18  1   
 27  13  17  ar  
 28  13  34  1   
 29  14  19  1   
 30  14  20  1   
 31  14  35  1   
 32  15  36  1   
 33  15  37  1   
 34  16  21  1   
 35  16  38  1   
 36  16  39  1   
 37  17  22  1   
 38  18  23  ar  
 39  18  24  ar  
 40  19  25  1   
 41  20  21  1   
 42  20  40  1   
 43  20  41  1   
 44  21  42  1   
 45  21  43  1   
 46  22  44  1   
 47  25  45  1   
 48  25  46  1   
 49  25  47  1   
@<TRIPOS>SUBSTRUCTURE
  1 ****   4 GROUP 4 **** **** 0

# MOE 2024.06 (io_trps.svl 2023.06)
