@<TRIPOS>MOLECULE
NONAME
48 52 1 0 0 
SMALL
USER_CHARGES


@<TRIPOS>ATOM
  1 O        0.6960    -0.3970     1.8750 O.3   1 <1>  -0.0190 
  2 N        0.9690     0.8260     1.5350 N.2   1 <1>  -0.4100 
  3 C        1.0630    -1.1040     0.8350 C.2   1 <1>   0.2980 
  4 C        1.4620     0.7870     0.3620 C.2   1 <1>   0.4300 
  5 N        1.5460    -0.4370    -0.1390 N.2   1 <1>  -0.5650 
  6 C        0.8920    -2.6190     0.8810 C.3   1 <1>   0.2900 
  7 C        1.9260     1.9920    -0.4420 C.3   1 <1>  -0.0140 
  8 N       -0.5270    -3.0420     0.9120 N.3   1 <1>  -0.8100 
  9 C        3.3870     2.3160    -0.5430 C.3   1 <1>  -0.2000 
 10 C        2.4710     3.2220     0.2230 C.3   1 <1>  -0.2000 
 11 C       -1.2830    -2.5860    -0.2620 C.3   1 <1>   0.1100 
 12 C       -0.6780    -4.5060     0.9550 C.3   1 <1>   0.1100 
 13 C       -2.4980    -3.5050    -0.2990 C.3   1 <1>   0.2000 
 14 C       -1.9200    -4.8580     0.1120 C.3   1 <1>  -0.0800 
 15 O       -3.3610    -3.0940     0.6980 O.3   1 <1>  -0.6800 
 16 C       -1.5620    -5.7020    -1.1260 C.3   1 <1>  -0.0170 
 17 C       -0.9730    -7.0500    -0.7440 C.ar  1 <1>   0.1670 
 18 N        0.3150    -7.1910    -0.8350 N.ar  1 <1>  -0.6200 
 19 C       -1.8380    -8.0670    -0.3110 C.ar  1 <1>  -0.1500 
 20 C        0.8440    -8.3940    -0.4910 C.ar  1 <1>   0.3100 
 21 C       -1.3340    -9.2810     0.0430 C.ar  1 <1>  -0.1500 
 22 C        0.0550    -9.4740    -0.0400 C.ar  1 <1>   0.0000 
 23 C        2.2340    -8.5750    -0.5840 C.ar  1 <1>  -0.1500 
 24 C        0.6850   -10.6870     0.3030 C.ar  1 <1>  -0.1500 
 25 C        2.8270    -9.7620    -0.2460 C.ar  1 <1>  -0.1500 
 26 C        2.0430   -10.8290     0.2030 C.ar  1 <1>  -0.1500 
 27 H        1.3880    -2.9890     1.7600 H     1 <1>   0.0800 
 28 H        1.3760    -3.0450     0.0190 H     1 <1>   0.0800 
 29 H        1.3280     2.1300    -1.3250 H     1 <1>   0.1000 
 30 H        4.0850     1.7050     0.0010 H     1 <1>   0.1000 
 31 H        3.7740     2.6430    -1.4920 H     1 <1>   0.1000 
 32 H        2.2190     4.1820    -0.1910 H     1 <1>   0.1000 
 33 H        2.5360     3.2380     1.2970 H     1 <1>   0.1000 
 34 H       -1.5660    -1.5500    -0.1770 H     1 <1>   0.0800 
 35 H       -0.6990    -2.7250    -1.1570 H     1 <1>   0.0800 
 36 H        0.2010    -4.9890     0.5610 H     1 <1>   0.0800 
 37 H       -0.8120    -4.8230     1.9750 H     1 <1>   0.0800 
 38 H       -3.0230    -3.5040    -1.2380 H     1 <1>   0.0800 
 39 H       -2.6300    -5.4070     0.7050 H     1 <1>   0.0800 
 40 H       -2.8020    -2.8830     1.4770 H     1 <1>   0.4000 
 41 H       -0.8570    -5.1720    -1.7420 H     1 <1>   0.0800 
 42 H       -2.4460    -5.8670    -1.7160 H     1 <1>   0.0800 
 43 H       -2.8940    -7.8730    -0.2630 H     1 <1>   0.1500 
 44 H       -1.9650   -10.0840     0.3810 H     1 <1>   0.1500 
 45 H        2.8190    -7.7440    -0.9320 H     1 <1>   0.1500 
 46 H        0.0760   -11.5040     0.6460 H     1 <1>   0.1500 
 47 H        3.8940    -9.8880    -0.3210 H     1 <1>   0.1500 
 48 H        2.5220   -11.7570     0.4650 H     1 <1>   0.1500 
@<TRIPOS>BOND
  1   1   2  1   
  2   1   3  1   
  3   2   4  2   
  4   3   5  2   
  5   3   6  1   
  6   4   5  1   
  7   4   7  1   
  8   6   8  1   
  9   6  27  1   
 10   6  28  1   
 11   7   9  1   
 12   7  10  1   
 13   7  29  1   
 14   8  11  1   
 15   8  12  1   
 16   9  10  1   
 17   9  30  1   
 18   9  31  1   
 19  10  32  1   
 20  10  33  1   
 21  11  13  1   
 22  11  34  1   
 23  11  35  1   
 24  12  14  1   
 25  12  36  1   
 26  12  37  1   
 27  13  14  1   
 28  13  15  1   
 29  13  38  1   
 30  14  16  1   
 31  14  39  1   
 32  15  40  1   
 33  16  17  1   
 34  16  41  1   
 35  16  42  1   
 36  17  18  ar  
 37  17  19  ar  
 38  18  20  ar  
 39  19  21  ar  
 40  19  43  1   
 41  20  22  ar  
 42  20  23  ar  
 43  21  22  ar  
 44  21  44  1   
 45  22  24  ar  
 46  23  25  ar  
 47  23  45  1   
 48  24  26  ar  
 49  24  46  1   
 50  25  26  ar  
 51  25  47  1   
 52  26  48  1   
@<TRIPOS>SUBSTRUCTURE
  1 ****  12 GROUP 4 **** **** 0

# MOE 2024.06 (io_trps.svl 2023.06)
