@<TRIPOS>MOLECULE
NONAME
51 53 1 0 0 
SMALL
USER_CHARGES


@<TRIPOS>ATOM
  1 F        1.1380    -0.9510     0.6720 F     1 <1>  -0.1900 
  2 C        0.9470    -2.2040     0.3560 C.ar  1 <1>   0.1900 
  3 C        0.8630    -3.1390     1.3660 C.ar  1 <1>  -0.1500 
  4 C        0.8420    -2.5410    -0.9810 C.ar  1 <1>  -0.1500 
  5 C        0.6620    -4.4680     1.0160 C.ar  1 <1>   0.0830 
  6 C        0.6380    -3.8690    -1.3190 C.ar  1 <1>  -0.1500 
  7 O        0.5850    -5.4470     1.9450 O.3   1 <1>  -0.3630 
  8 C        0.5390    -4.8320    -0.3210 C.ar  1 <1>  -0.1440 
  9 C       -0.1520    -5.2110     3.1280 C.3   1 <1>   0.0400 
 10 C        0.2870    -6.2910    -0.6510 C.3   1 <1>   0.4870 
 11 N       -1.1450    -6.6090    -0.4670 N.4   1 <1>  -0.9590 
 12 C       -1.4210    -8.0900    -0.4970 C.3   1 <1>   0.3430 
 13 C       -2.0850    -5.8200    -1.3030 C.3   1 <1>   0.3430 
 14 C       -2.9220    -8.4290    -0.6910 C.3   1 <1>   0.2000 
 15 C       -3.5300    -5.9870    -0.8020 C.3   1 <1>  -0.1600 
 16 O       -3.1840    -8.5270    -2.0610 O.3   1 <1>  -0.6800 
 17 C       -3.8040    -7.3330    -0.0580 C.3   1 <1>  -0.1060 
 18 C       -3.3270    -7.2940     1.3990 C.2   1 <1>   0.9060 
 19 C       -5.3100    -7.7020    -0.1060 C.3   1 <1>  -0.0170 
 20 O       -3.4520    -8.3120     2.0790 O.co2 1 <1>  -0.9000 
 21 O       -2.6280    -6.3470     1.7860 O.co2 1 <1>  -0.9000 
 22 C       -6.2220    -6.5790     0.3770 C.ar  1 <1>  -0.1430 
 23 C       -6.3580    -6.3240     1.7330 C.ar  1 <1>  -0.1500 
 24 C       -6.9290    -5.8030    -0.5310 C.ar  1 <1>  -0.1500 
 25 C       -7.1830    -5.3040     2.1750 C.ar  1 <1>  -0.1500 
 26 C       -7.7560    -4.7840    -0.0900 C.ar  1 <1>  -0.1500 
 27 C       -7.8820    -4.5330     1.2640 C.ar  1 <1>  -0.1500 
 28 H        0.9610    -2.8340     2.3900 H     1 <1>   0.1500 
 29 H        0.9200    -1.7770    -1.7340 H     1 <1>   0.1500 
 30 H        0.5550    -4.1410    -2.3580 H     1 <1>   0.1500 
 31 H       -0.4080    -6.1630     3.5600 H     1 <1>   0.0800 
 32 H       -1.0580    -4.6830     2.8830 H     1 <1>   0.0800 
 33 H        0.4480    -4.6420     3.8130 H     1 <1>   0.0800 
 34 H        0.8790    -6.9020     0.0110 H     1 <1>   0.0800 
 35 H        0.5830    -6.4960    -1.6660 H     1 <1>   0.0800 
 36 H       -1.3960    -6.3200     0.5180 H     1 <1>   0.4500 
 37 H       -0.8590    -8.5670    -1.2810 H     1 <1>   0.0800 
 38 H       -1.1070    -8.5070     0.4470 H     1 <1>   0.0800 
 39 H       -1.8240    -4.7750    -1.2790 H     1 <1>   0.0800 
 40 H       -2.0240    -6.1690    -2.3210 H     1 <1>   0.0800 
 41 H       -3.1270    -9.3920    -0.2500 H     1 <1>   0.0800 
 42 H       -3.7750    -5.1630    -0.1530 H     1 <1>   0.0800 
 43 H       -4.1740    -5.9030    -1.6580 H     1 <1>   0.0800 
 44 H       -4.0980    -8.8450    -2.1990 H     1 <1>   0.4000 
 45 H       -5.5930    -7.9580    -1.1100 H     1 <1>   0.0800 
 46 H       -5.4880    -8.5740     0.5010 H     1 <1>   0.0800 
 47 H       -5.8180    -6.9180     2.4520 H     1 <1>   0.1500 
 48 H       -6.8410    -5.9880    -1.5860 H     1 <1>   0.1500 
 49 H       -7.2740    -5.1150     3.2300 H     1 <1>   0.1500 
 50 H       -8.3000    -4.1870    -0.8000 H     1 <1>   0.1500 
 51 H       -8.5220    -3.7410     1.6100 H     1 <1>   0.1500 
@<TRIPOS>BOND
  1   1   2  1   
  2   2   3  ar  
  3   2   4  ar  
  4   3   5  ar  
  5   3  28  1   
  6   4   6  ar  
  7   4  29  1   
  8   5   7  1   
  9   5   8  ar  
 10   6   8  ar  
 11   6  30  1   
 12   7   9  1   
 13   8  10  1   
 14   9  31  1   
 15   9  32  1   
 16   9  33  1   
 17  10  11  1   
 18  10  34  1   
 19  10  35  1   
 20  11  12  1   
 21  11  13  1   
 22  11  36  1   
 23  12  14  1   
 24  12  37  1   
 25  12  38  1   
 26  13  15  1   
 27  13  39  1   
 28  13  40  1   
 29  14  16  1   
 30  14  17  1   
 31  14  41  1   
 32  15  17  1   
 33  15  42  1   
 34  15  43  1   
 35  16  44  1   
 36  17  18  1   
 37  17  19  1   
 38  18  20  ar  
 39  18  21  ar  
 40  19  22  1   
 41  19  45  1   
 42  19  46  1   
 43  22  23  ar  
 44  22  24  ar  
 45  23  25  ar  
 46  23  47  1   
 47  24  26  ar  
 48  24  48  1   
 49  25  27  ar  
 50  25  49  1   
 51  26  27  ar  
 52  26  50  1   
 53  27  51  1   
@<TRIPOS>SUBSTRUCTURE
  1 ****  15 GROUP 4 **** **** 0

# MOE 2024.06 (io_trps.svl 2023.06)
