@<TRIPOS>MOLECULE
NONAME
51 54 1 0 0 
SMALL
USER_CHARGES


@<TRIPOS>ATOM
  1 O       -0.4940    -1.4970    -1.8580 O.2   1 <1>  -0.5700 
  2 C        0.3400    -2.0970    -1.2310 C.2   1 <1>   0.5690 
  3 N        0.0200    -2.8170    -0.1350 N.am  1 <1>  -0.7300 
  4 C        1.7980    -2.0580    -1.6390 C.3   1 <1>  -0.0990 
  5 C        1.0160    -3.5610     0.6610 C.3   1 <1>   0.1400 
  6 C        2.4360    -3.4580    -1.5330 C.3   1 <1>  -0.0800 
  7 C        2.0080    -4.2670    -0.2840 C.3   1 <1>  -0.0800 
  8 C        3.9680    -3.4210    -1.5100 C.3   1 <1>  -0.1600 
  9 C        3.3090    -4.6780     0.4170 C.3   1 <1>  -0.1600 
 10 C        4.3740    -4.6350    -0.6750 C.3   1 <1>   0.2200 
 11 N        5.7450    -4.5690    -0.0990 N.am  1 <1>  -0.6600 
 12 C        6.7310    -3.8470    -0.7320 C.2   1 <1>   0.5440 
 13 C        6.1620    -5.8180     0.5960 C.3   1 <1>   0.0600 
 14 O        7.4430    -4.4400    -1.5230 O.2   1 <1>  -0.5700 
 15 C        6.9260    -2.4310    -0.4680 C.ar  1 <1>   0.0860 
 16 C        6.3940    -1.8090     0.6640 C.ar  1 <1>  -0.1500 
 17 C        7.6570    -1.6230    -1.3400 C.ar  1 <1>  -0.1500 
 18 C        6.5690    -0.4590     0.9020 C.ar  1 <1>  -0.1500 
 19 C        7.8340    -0.2740    -1.1040 C.ar  1 <1>  -0.1500 
 20 C        7.2890     0.3410     0.0190 C.ar  1 <1>   0.1170 
 21 N        7.4490     1.7180     0.2500 N.am  1 <1>  -0.4770 
 22 C        8.5220     2.5090    -0.0570 C.2   1 <1>   0.5690 
 23 C        6.3640     2.5230     0.8500 C.3   1 <1>   0.1400 
 24 O        9.5680     2.1580    -0.5440 O.2   1 <1>  -0.5700 
 25 C        8.2610     3.9500     0.2930 C.3   1 <1>  -0.0990 
 26 C        6.7570     3.9810     0.5880 C.3   1 <1>  -0.1600 
 27 H       -0.9590    -2.8210     0.1590 H     1 <1>   0.3700 
 28 H        1.8810    -1.6880    -2.6440 H     1 <1>   0.0800 
 29 H        2.2940    -1.3660    -0.9840 H     1 <1>   0.0800 
 30 H        1.5360    -2.8610     1.2930 H     1 <1>   0.0800 
 31 H        0.5210    -4.2850     1.2850 H     1 <1>   0.0800 
 32 H        2.1250    -4.0230    -2.3970 H     1 <1>   0.0800 
 33 H        1.5270    -5.1660    -0.6360 H     1 <1>   0.0800 
 34 H        4.2890    -2.5200    -1.0220 H     1 <1>   0.0800 
 35 H        4.3830    -3.4650    -2.5020 H     1 <1>   0.0800 
 36 H        3.2260    -5.6570     0.8540 H     1 <1>   0.0800 
 37 H        3.5630    -3.9610     1.1780 H     1 <1>   0.0800 
 38 H        4.2900    -5.5180    -1.2890 H     1 <1>   0.0800 
 39 H        5.6150    -5.9310     1.5150 H     1 <1>   0.0800 
 40 H        7.2140    -5.7800     0.8230 H     1 <1>   0.0800 
 41 H        5.9810    -6.6690    -0.0380 H     1 <1>   0.0800 
 42 H        5.8360    -2.4000     1.3690 H     1 <1>   0.1500 
 43 H        8.0940    -2.0690    -2.2170 H     1 <1>   0.1500 
 44 H        6.1480    -0.0260     1.7900 H     1 <1>   0.1500 
 45 H        8.4050     0.3120    -1.8030 H     1 <1>   0.1500 
 46 H        5.4170     2.2830     0.3960 H     1 <1>   0.0800 
 47 H        6.3240     2.3300     1.9080 H     1 <1>   0.0800 
 48 H        8.8350     4.2040     1.1650 H     1 <1>   0.0800 
 49 H        8.5260     4.5960    -0.5240 H     1 <1>   0.0800 
 50 H        6.2260     4.3340    -0.2800 H     1 <1>   0.0800 
 51 H        6.5180     4.6160     1.4230 H     1 <1>   0.0800 
@<TRIPOS>BOND
  1   1   2  2   
  2   2   3  am  
  3   2   4  1   
  4   3   5  1   
  5   3  27  1   
  6   4   6  1   
  7   4  28  1   
  8   4  29  1   
  9   5   7  1   
 10   5  30  1   
 11   5  31  1   
 12   6   7  1   
 13   6   8  1   
 14   6  32  1   
 15   7   9  1   
 16   7  33  1   
 17   8  10  1   
 18   8  34  1   
 19   8  35  1   
 20   9  10  1   
 21   9  36  1   
 22   9  37  1   
 23  10  11  1   
 24  10  38  1   
 25  11  12  am  
 26  11  13  1   
 27  12  14  2   
 28  12  15  1   
 29  13  39  1   
 30  13  40  1   
 31  13  41  1   
 32  15  16  ar  
 33  15  17  ar  
 34  16  18  ar  
 35  16  42  1   
 36  17  19  ar  
 37  17  43  1   
 38  18  20  ar  
 39  18  44  1   
 40  19  20  ar  
 41  19  45  1   
 42  20  21  1   
 43  21  22  am  
 44  21  23  1   
 45  22  24  2   
 46  22  25  1   
 47  23  26  1   
 48  23  46  1   
 49  23  47  1   
 50  25  26  1   
 51  25  48  1   
 52  25  49  1   
 53  26  50  1   
 54  26  51  1   
@<TRIPOS>SUBSTRUCTURE
  1 ****  16 GROUP 4 **** **** 0

# MOE 2024.06 (io_trps.svl 2023.06)
