@<TRIPOS>MOLECULE
NONAME
41 43 1 0 0 
SMALL
USER_CHARGES


@<TRIPOS>ATOM
  1 F       -0.9280    -0.9700     1.6600 F     1 <1>  -0.1900 
  2 C       -1.9880    -1.3910     1.0060 C.ar  1 <1>   0.1900 
  3 C       -2.8230    -0.5530     0.2760 C.ar  1 <1>   0.3920 
  4 C       -2.2830    -2.7270     1.0480 C.ar  1 <1>   0.1600 
  5 O       -2.6750     0.7850     0.1330 O.3   1 <1>  -0.3630 
  6 N       -3.8680    -1.0410    -0.3540 N.ar  1 <1>  -0.6200 
  7 N       -3.3270    -3.2220     0.4200 N.ar  1 <1>  -0.6200 
  8 C       -1.6090     1.5370     0.6700 C.3   1 <1>   0.0400 
  9 C       -4.0790    -2.3520    -0.2570 C.ar  1 <1>   0.7200 
 10 N       -5.1800    -2.8590    -0.9160 N.pl3 1 <1>  -0.8380 
 11 C       -5.4050    -4.3220    -1.1110 C.3   1 <1>   0.2090 
 12 C       -6.3660    -2.0210    -1.2500 C.3   1 <1>   0.2090 
 13 C       -6.5580    -4.7880    -0.2110 C.3   1 <1>  -0.0190 
 14 C       -7.5500    -2.4570    -0.3790 C.3   1 <1>  -0.1600 
 15 C       -6.8110    -6.2850    -0.3860 C.2   1 <1>   0.5940 
 16 C       -7.8330    -3.9650    -0.4930 C.3   1 <1>  -0.1600 
 17 O       -6.6500    -6.7570    -1.4900 O.2   1 <1>  -0.5700 
 18 C       -7.2470    -7.0590     0.7540 C.2   1 <1>   0.1010 
 19 N       -7.5370    -6.5630     1.9410 N.2   1 <1>  -0.5650 
 20 N       -7.4160    -8.4190     0.7310 N.pl3 1 <1>   0.0480 
 21 C       -7.8930    -7.6180     2.6770 C.2   1 <1>   0.0770 
 22 C       -7.8260    -8.7590     1.9590 C.2   1 <1>  -0.3020 
 23 C       -7.2030    -9.3710    -0.3800 C.3   1 <1>   0.0160 
 24 H       -1.6550    -3.3980     1.6060 H     1 <1>   0.1500 
 25 H       -1.7420     2.5610     0.3720 H     1 <1>   0.0800 
 26 H       -0.6810     1.1620     0.2760 H     1 <1>   0.0800 
 27 H       -1.6330     1.4640     1.7420 H     1 <1>   0.0800 
 28 H       -4.5160    -4.8890    -0.8940 H     1 <1>   0.0800 
 29 H       -5.6530    -4.4970    -2.1440 H     1 <1>   0.0800 
 30 H       -6.6050    -2.1550    -2.2910 H     1 <1>   0.0800 
 31 H       -6.1720    -0.9750    -1.0900 H     1 <1>   0.0800 
 32 H       -6.2490    -4.6130     0.8030 H     1 <1>   0.0800 
 33 H       -8.4240    -1.9020    -0.6670 H     1 <1>   0.0800 
 34 H       -7.3280    -2.2090     0.6440 H     1 <1>   0.0800 
 35 H       -8.6030    -4.2410     0.2070 H     1 <1>   0.0800 
 36 H       -8.1870    -4.1860    -1.4860 H     1 <1>   0.0800 
 37 H       -8.1870    -7.5120     3.7090 H     1 <1>   0.1500 
 38 H       -8.0460    -9.7660     2.2620 H     1 <1>   0.1500 
 39 H       -6.1870    -9.2960    -0.7230 H     1 <1>   0.0800 
 40 H       -7.8700    -9.1300    -1.1870 H     1 <1>   0.0800 
 41 H       -7.3940   -10.3730    -0.0430 H     1 <1>   0.0800 
@<TRIPOS>BOND
  1   1   2  1   
  2   2   3  ar  
  3   2   4  ar  
  4   3   5  1   
  5   3   6  ar  
  6   4   7  ar  
  7   4  24  1   
  8   5   8  1   
  9   6   9  ar  
 10   7   9  ar  
 11   8  25  1   
 12   8  26  1   
 13   8  27  1   
 14   9  10  1   
 15  10  11  1   
 16  10  12  1   
 17  11  13  1   
 18  11  28  1   
 19  11  29  1   
 20  12  14  1   
 21  12  30  1   
 22  12  31  1   
 23  13  15  1   
 24  13  16  1   
 25  13  32  1   
 26  14  16  1   
 27  14  33  1   
 28  14  34  1   
 29  15  17  2   
 30  15  18  1   
 31  16  35  1   
 32  16  36  1   
 33  18  19  2   
 34  18  20  1   
 35  19  21  1   
 36  20  22  1   
 37  20  23  1   
 38  21  22  2   
 39  21  37  1   
 40  22  38  1   
 41  23  39  1   
 42  23  40  1   
 43  23  41  1   
@<TRIPOS>SUBSTRUCTURE
  1 ****  11 GROUP 4 **** **** 0

# MOE 2024.06 (io_trps.svl 2023.06)
