@<TRIPOS>MOLECULE
NONAME
48 50 1 0 0 
SMALL
USER_CHARGES


@<TRIPOS>ATOM
  1 O       -0.6010     0.0860     0.1380 O.2   1 <1>  -0.5700 
  2 C       -1.5400     0.7270     0.5670 C.2   1 <1>   0.5440 
  3 N       -2.7320     0.0780     0.8030 N.am  1 <1>  -0.6600 
  4 C       -1.3910     2.1480     0.7950 C.ar  1 <1>   0.0860 
  5 C       -2.8230    -1.4160     0.8320 C.3   1 <1>   0.1400 
  6 C       -4.0690     0.7260     0.6320 C.3   1 <1>   0.1400 
  7 C       -1.9060     2.7480     1.9410 C.ar  1 <1>   0.1600 
  8 C       -0.7350     2.9730    -0.1080 C.ar  1 <1>  -0.1500 
  9 C       -3.6450    -1.9420    -0.3570 C.3   1 <1>   0.3440 
 10 C       -4.8320     0.0920    -0.5550 C.3   1 <1>   0.2000 
 11 N       -1.8560     4.0370     2.2330 N.ar  1 <1>  -0.6200 
 12 C       -0.6540     4.3210     0.1730 C.ar  1 <1>  -0.1440 
 13 O       -4.8940    -1.2990    -0.3990 O.3   1 <1>  -0.5600 
 14 C       -3.8480    -3.4500    -0.2430 C.ar  1 <1>  -0.1430 
 15 C       -6.2750     0.6180    -0.7360 C.3   1 <1>  -0.0800 
 16 C       -1.2310     4.7930     1.3430 C.ar  1 <1>   0.1600 
 17 C        0.0510     5.2670    -0.7840 C.3   1 <1>  -0.0970 
 18 C       -4.9290    -3.9870     0.4440 C.ar  1 <1>  -0.1500 
 19 C       -2.9260    -4.3090    -0.8230 C.ar  1 <1>  -0.1500 
 20 C       -6.3030     2.1200    -1.0590 C.3   1 <1>  -0.2400 
 21 C       -7.1920     0.3320     0.4660 C.3   1 <1>  -0.2400 
 22 C       -5.0850    -5.3580     0.5490 C.ar  1 <1>  -0.1500 
 23 C       -3.0800    -5.6810    -0.7190 C.ar  1 <1>  -0.1500 
 24 C       -4.1600    -6.2060    -0.0320 C.ar  1 <1>  -0.1500 
 25 H       -1.8420    -1.8590     0.8070 H     1 <1>   0.0800 
 26 H       -3.2950    -1.7260     1.7470 H     1 <1>   0.0800 
 27 H       -4.6350     0.6010     1.5370 H     1 <1>   0.0800 
 28 H       -3.9560     1.7790     0.4510 H     1 <1>   0.0800 
 29 H       -2.3940     2.1120     2.6600 H     1 <1>   0.1500 
 30 H       -0.3030     2.5540    -1.0010 H     1 <1>   0.1500 
 31 H       -3.1290    -1.7220    -1.2760 H     1 <1>   0.0800 
 32 H       -4.2870     0.2910    -1.4620 H     1 <1>   0.0800 
 33 H       -6.6830     0.1020    -1.5890 H     1 <1>   0.0800 
 34 H       -1.1730     5.8460     1.5620 H     1 <1>   0.1500 
 35 H        0.8130     4.7450    -1.3370 H     1 <1>   0.0800 
 36 H        0.5180     6.0710    -0.2440 H     1 <1>   0.0800 
 37 H       -0.6580     5.6810    -1.4790 H     1 <1>   0.0800 
 38 H       -5.6550    -3.3340     0.8980 H     1 <1>   0.1500 
 39 H       -2.0800    -3.9150    -1.3590 H     1 <1>   0.1500 
 40 H       -5.9770     2.7080    -0.2200 H     1 <1>   0.0800 
 41 H       -7.3050     2.4230    -1.3100 H     1 <1>   0.0800 
 42 H       -5.6700     2.3350    -1.9020 H     1 <1>   0.0800 
 43 H       -6.8800     0.8780     1.3370 H     1 <1>   0.0800 
 44 H       -7.1870    -0.7190     0.6970 H     1 <1>   0.0800 
 45 H       -8.2040     0.6150     0.2340 H     1 <1>   0.0800 
 46 H       -5.9270    -5.7630     1.0820 H     1 <1>   0.1500 
 47 H       -2.3600    -6.3390    -1.1730 H     1 <1>   0.1500 
 48 H       -4.2810    -7.2720     0.0490 H     1 <1>   0.1500 
@<TRIPOS>BOND
  1   1   2  2   
  2   2   3  am  
  3   2   4  1   
  4   3   5  1   
  5   3   6  1   
  6   4   7  ar  
  7   4   8  ar  
  8   5   9  1   
  9   5  25  1   
 10   5  26  1   
 11   6  10  1   
 12   6  27  1   
 13   6  28  1   
 14   7  11  ar  
 15   7  29  1   
 16   8  12  ar  
 17   8  30  1   
 18   9  13  1   
 19   9  14  1   
 20   9  31  1   
 21  10  13  1   
 22  10  15  1   
 23  10  32  1   
 24  11  16  ar  
 25  12  16  ar  
 26  12  17  1   
 27  14  18  ar  
 28  14  19  ar  
 29  15  20  1   
 30  15  21  1   
 31  15  33  1   
 32  16  34  1   
 33  17  35  1   
 34  17  36  1   
 35  17  37  1   
 36  18  22  ar  
 37  18  38  1   
 38  19  23  ar  
 39  19  39  1   
 40  20  40  1   
 41  20  41  1   
 42  20  42  1   
 43  21  43  1   
 44  21  44  1   
 45  21  45  1   
 46  22  24  ar  
 47  22  46  1   
 48  23  24  ar  
 49  23  47  1   
 50  24  48  1   
@<TRIPOS>SUBSTRUCTURE
  1 ****   3 GROUP 4 **** **** 0

# MOE 2024.06 (io_trps.svl 2023.06)
