@<TRIPOS>MOLECULE
NONAME
49 52 1 0 0 
SMALL
USER_CHARGES


@<TRIPOS>ATOM
  1 O        3.6860    -1.9400    -1.8450 O.2   1 <1>  -0.5700 
  2 C        2.7760    -1.8020    -1.0490 C.2   1 <1>   0.6160 
  3 N        2.5940    -0.5320    -0.5620 N.am  1 <1>  -0.6600 
  4 C        2.0830    -2.9530    -0.5040 C.2   1 <1>  -0.0140 
  5 C        2.9260    -0.3080     0.8870 C.3   1 <1>   0.2200 
  6 C        2.6620     0.6320    -1.5060 C.3   1 <1>   0.1400 
  7 C        0.6860    -2.9010    -0.1140 C.ar  1 <1>   0.0280 
  8 C        2.7650    -4.1190    -0.3060 C.2   1 <1>  -0.1360 
  9 C        2.2770     0.9570     1.4720 C.3   1 <1>   0.1200 
 10 C        4.4660    -0.2850     1.0840 C.3   1 <1>   0.3430 
 11 C        3.6180     1.7610    -1.0770 C.3   1 <1>  -0.0800 
 12 C        0.1430    -3.9990     0.5810 C.ar  1 <1>   0.1170 
 13 C       -0.1780    -1.8350    -0.3960 C.ar  1 <1>  -0.1500 
 14 C        2.1960    -5.2400     0.3450 C.2   1 <1>   0.6160 
 15 O        3.0930     2.0700     1.2620 O.3   1 <1>  -0.5600 
 16 N        5.2180    -0.0500    -0.2030 N.4   1 <1>  -0.9590 
 17 C        3.0040     2.6590     0.0090 C.3   1 <1>   0.1200 
 18 C        5.0660     1.3390    -0.7410 C.3   1 <1>   0.3430 
 19 N        0.9240    -5.1250     0.7990 N.am  1 <1>  -0.5470 
 20 C       -1.1730    -3.9720     1.0300 C.ar  1 <1>  -0.1500 
 21 C       -1.4860    -1.8140     0.0440 C.ar  1 <1>  -0.1430 
 22 O        2.8010    -6.2750     0.5440 O.2   1 <1>  -0.5700 
 23 C        6.6510    -0.4390    -0.0860 C.3   1 <1>   0.2630 
 24 C       -1.9800    -2.8880     0.7710 C.ar  1 <1>  -0.1500 
 25 C       -2.4010    -0.6410    -0.2600 C.3   1 <1>  -0.0970 
 26 H        2.5310    -1.1340     1.4530 H     1 <1>   0.0800 
 27 H        2.9580     0.2840    -2.4820 H     1 <1>   0.0800 
 28 H        1.6690     1.0350    -1.6160 H     1 <1>   0.0800 
 29 H        3.7850    -4.2450    -0.6190 H     1 <1>   0.1500 
 30 H        2.1870     0.8450     2.5390 H     1 <1>   0.0800 
 31 H        1.2930     1.1290     1.0700 H     1 <1>   0.0800 
 32 H        4.7580    -1.2390     1.4910 H     1 <1>   0.0800 
 33 H        4.7280     0.4670     1.8110 H     1 <1>   0.0800 
 34 H        3.6970     2.4060    -1.9340 H     1 <1>   0.0800 
 35 H        0.1680    -1.0050    -0.9800 H     1 <1>   0.1500 
 36 H        4.7610    -0.6780    -0.9020 H     1 <1>   0.4500 
 37 H        1.9720     2.8900    -0.1980 H     1 <1>   0.0800 
 38 H        3.5460     3.5880     0.0640 H     1 <1>   0.0800 
 39 H        5.4800     2.0440    -0.0390 H     1 <1>   0.0800 
 40 H        5.6450     1.4090    -1.6480 H     1 <1>   0.0800 
 41 H        0.5470    -5.9530     1.2590 H     1 <1>   0.3700 
 42 H       -1.5650    -4.8090     1.5790 H     1 <1>   0.1500 
 43 H        7.1520     0.1860     0.6360 H     1 <1>   0.0800 
 44 H        7.1440    -0.3340    -1.0380 H     1 <1>   0.0800 
 45 H        6.7340    -1.4670     0.2280 H     1 <1>   0.0800 
 46 H       -2.9980    -2.8760     1.1220 H     1 <1>   0.1500 
 47 H       -3.2450    -0.9770    -0.8350 H     1 <1>   0.0800 
 48 H       -1.8880     0.1190    -0.8200 H     1 <1>   0.0800 
 49 H       -2.7600    -0.2080     0.6570 H     1 <1>   0.0800 
@<TRIPOS>BOND
  1   1   2  2   
  2   2   3  am  
  3   2   4  1   
  4   3   5  1   
  5   3   6  1   
  6   4   7  1   
  7   4   8  2   
  8   5   9  1   
  9   5  10  1   
 10   5  26  1   
 11   6  11  1   
 12   6  27  1   
 13   6  28  1   
 14   7  12  ar  
 15   7  13  ar  
 16   8  14  1   
 17   8  29  1   
 18   9  15  1   
 19   9  30  1   
 20   9  31  1   
 21  10  16  1   
 22  10  32  1   
 23  10  33  1   
 24  11  17  1   
 25  11  18  1   
 26  11  34  1   
 27  12  19  1   
 28  12  20  ar  
 29  13  21  ar  
 30  13  35  1   
 31  14  19  am  
 32  14  22  2   
 33  15  17  1   
 34  16  18  1   
 35  16  23  1   
 36  16  36  1   
 37  17  37  1   
 38  17  38  1   
 39  18  39  1   
 40  18  40  1   
 41  19  41  1   
 42  20  24  ar  
 43  20  42  1   
 44  21  24  ar  
 45  21  25  1   
 46  23  43  1   
 47  23  44  1   
 48  23  45  1   
 49  24  46  1   
 50  25  47  1   
 51  25  48  1   
 52  25  49  1   
@<TRIPOS>SUBSTRUCTURE
  1 ****   3 GROUP 4 **** **** 0

# MOE 2024.06 (io_trps.svl 2023.06)
