@<TRIPOS>MOLECULE
NONAME
40 41 1 0 0 
SMALL
USER_CHARGES


@<TRIPOS>ATOM
  1 O       -0.0430    -0.0330     0.1250 O.2   1 <1>  -0.5700 
  2 C        1.0860    -0.3480    -0.1730 C.2   1 <1>   0.5690 
  3 N        2.1560     0.5010    -0.1350 N.am  1 <1>  -0.4940 
  4 C        1.3500    -1.7870    -0.6070 C.3   1 <1>   0.1810 
  5 C        2.3370     1.8490     0.2530 C.2   1 <1>  -0.0880 
  6 O        2.7250    -2.0260    -0.7990 O.3   1 <1>  -0.5600 
  7 N        1.4240     2.8580     0.2940 N.pl3 1 <1>   0.3140 
  8 C        3.5280     2.3850     0.6430 C.2   1 <1>  -0.0540 
  9 C        3.0240    -3.3270    -1.1920 C.3   1 <1>   0.0400 
 10 N        1.9860     4.0170     0.7020 N.2   1 <1>  -0.7070 
 11 C        0.0100     2.8480    -0.1000 C.3   1 <1>   0.0160 
 12 C        4.7990     1.7100     0.7740 C.ar  1 <1>   0.0540 
 13 C        3.2290     3.7260     0.9040 C.2   1 <1>   0.1080 
 14 C        5.9230     2.0550     0.0130 C.ar  1 <1>   0.0820 
 15 C        4.9150     0.6640     1.6850 C.ar  1 <1>  -0.1500 
 16 C        4.2240     4.7610     1.3790 C.3   1 <1>  -0.0590 
 17 O        5.7910     3.0700    -0.8840 O.3   1 <1>  -0.3630 
 18 C        7.1190     1.3620     0.1800 C.ar  1 <1>  -0.1500 
 19 C        6.1030    -0.0230     1.8470 C.ar  1 <1>  -0.1500 
 20 C        6.8200     3.4180    -1.7810 C.3   1 <1>   0.0400 
 21 C        7.2080     0.3270     1.0940 C.ar  1 <1>  -0.1500 
 22 H        3.0280     0.0060    -0.3590 H     1 <1>   0.3700 
 23 H        0.8340    -1.9760    -1.5310 H     1 <1>   0.0800 
 24 H        0.9870    -2.4550     0.1540 H     1 <1>   0.0800 
 25 H        4.0910    -3.4040    -1.3110 H     1 <1>   0.0800 
 26 H        2.5390    -3.5370    -2.1300 H     1 <1>   0.0800 
 27 H        2.6940    -4.0140    -0.4310 H     1 <1>   0.0800 
 28 H       -0.1030     2.2850    -1.0060 H     1 <1>   0.0800 
 29 H       -0.3190     3.8580    -0.2590 H     1 <1>   0.0800 
 30 H       -0.5680     2.4010     0.6860 H     1 <1>   0.0800 
 31 H        4.0560     0.3920     2.2730 H     1 <1>   0.1500 
 32 H        5.0030     4.2950     1.9530 H     1 <1>   0.0800 
 33 H        3.7250     5.4890     1.9910 H     1 <1>   0.0800 
 34 H        4.6560     5.2540     0.5290 H     1 <1>   0.0800 
 35 H        7.9940     1.6120    -0.3890 H     1 <1>   0.1500 
 36 H        6.1680    -0.8290     2.5580 H     1 <1>   0.1500 
 37 H        6.4580     4.2090    -2.4120 H     1 <1>   0.0800 
 38 H        7.0670     2.5590    -2.3790 H     1 <1>   0.0800 
 39 H        7.6720     3.7590    -1.2210 H     1 <1>   0.0800 
 40 H        8.1350    -0.2060     1.2190 H     1 <1>   0.1500 
@<TRIPOS>BOND
  1   1   2  2   
  2   2   3  am  
  3   2   4  1   
  4   3   5  1   
  5   3  22  1   
  6   4   6  1   
  7   4  23  1   
  8   4  24  1   
  9   5   7  1   
 10   5   8  2   
 11   6   9  1   
 12   7  10  1   
 13   7  11  1   
 14   8  12  1   
 15   8  13  1   
 16   9  25  1   
 17   9  26  1   
 18   9  27  1   
 19  10  13  2   
 20  11  28  1   
 21  11  29  1   
 22  11  30  1   
 23  12  14  ar  
 24  12  15  ar  
 25  13  16  1   
 26  14  17  1   
 27  14  18  ar  
 28  15  19  ar  
 29  15  31  1   
 30  16  32  1   
 31  16  33  1   
 32  16  34  1   
 33  17  20  1   
 34  18  21  ar  
 35  18  35  1   
 36  19  21  ar  
 37  19  36  1   
 38  20  37  1   
 39  20  38  1   
 40  20  39  1   
 41  21  40  1   
@<TRIPOS>SUBSTRUCTURE
  1 ****   8 GROUP 4 **** **** 0

# MOE 2024.06 (io_trps.svl 2023.06)
