@<TRIPOS>MOLECULE
NONAME
45 46 1 0 0 
SMALL
USER_CHARGES


@<TRIPOS>ATOM
  1 O       -1.1630    -1.7180     0.9170 O.2   1 <1>  -0.5700 
  2 C       -1.8670    -0.9650     0.2970 C.2   1 <1>   0.4230 
  3 C       -3.3020    -1.0240     0.3850 C.ar  1 <1>   0.0860 
  4 C       -1.1610    -0.0120    -0.6470 C.3   1 <1>  -0.1790 
  5 C       -4.1990     0.0400     0.3180 C.ar  1 <1>   0.1660 
  6 C       -3.8960    -2.2640     0.5570 C.ar  1 <1>   0.1600 
  7 N       -5.4940    -0.1370     0.3560 N.ar  1 <1>  -0.6200 
  8 C       -3.7630     1.4940     0.2290 C.3   1 <1>  -0.0960 
  9 N       -5.1910    -2.4660     0.6020 N.ar  1 <1>  -0.6200 
 10 C       -5.9540    -1.3760     0.5090 C.ar  1 <1>   0.7200 
 11 N       -7.3200    -1.5430     0.5670 N.pl3 1 <1>  -0.8380 
 12 C       -7.9370    -2.7470     1.2030 C.3   1 <1>   0.2090 
 13 C       -8.2140    -0.3430     0.4980 C.3   1 <1>   0.1290 
 14 C       -8.5500    -3.7270     0.1690 C.3   1 <1>   0.0000 
 15 C       -7.5440    -4.0140    -0.9560 C.3   1 <1>   0.3430 
 16 C       -8.7620    -5.0980     0.8240 C.3   1 <1>  -0.1600 
 17 C       -9.8780    -3.1960    -0.4040 C.3   1 <1>  -0.2400 
 18 N       -7.0060    -5.3950    -0.7340 N.4   1 <1>  -0.9590 
 19 C       -7.4410    -5.8180     0.6180 C.3   1 <1>   0.3430 
 20 C       -5.5230    -5.4340    -0.8890 C.3   1 <1>   0.2630 
 21 H       -1.7970     0.2600    -1.4680 H     1 <1>   0.0800 
 22 H       -0.2850    -0.4910    -1.0460 H     1 <1>   0.0800 
 23 H       -0.8500     0.8680    -0.1160 H     1 <1>   0.0800 
 24 H       -3.2510    -3.1210     0.6550 H     1 <1>   0.1500 
 25 H       -2.8900     1.6700     0.8300 H     1 <1>   0.0800 
 26 H       -4.5450     2.1350     0.5970 H     1 <1>   0.0800 
 27 H       -3.5650     1.7620    -0.7920 H     1 <1>   0.0800 
 28 H       -8.6990    -2.4320     1.8970 H     1 <1>   0.0800 
 29 H       -7.1930    -3.2570     1.7900 H     1 <1>   0.0800 
 30 H       -8.0430     0.1860    -0.4240 H     1 <1>   0.0800 
 31 H       -7.9950     0.3190     1.3200 H     1 <1>   0.0800 
 32 H       -9.2500    -0.6230     0.5500 H     1 <1>   0.0800 
 33 H       -6.7530    -3.2860    -0.9530 H     1 <1>   0.0800 
 34 H       -8.0390    -3.9650    -1.9120 H     1 <1>   0.0800 
 35 H       -9.5360    -5.6530     0.3230 H     1 <1>   0.0800 
 36 H       -9.0160    -5.0290     1.8680 H     1 <1>   0.0800 
 37 H       -9.7150    -2.2870    -0.9560 H     1 <1>   0.0800 
 38 H      -10.5780    -2.9930     0.3880 H     1 <1>   0.0800 
 39 H      -10.3240    -3.9100    -1.0730 H     1 <1>   0.0800 
 40 H       -7.4460    -6.0160    -1.4260 H     1 <1>   0.4500 
 41 H       -7.5480    -6.8890     0.6890 H     1 <1>   0.0800 
 42 H       -6.7280    -5.4770     1.3530 H     1 <1>   0.0800 
 43 H       -5.0570    -4.7950    -0.1560 H     1 <1>   0.0800 
 44 H       -5.2410    -5.0910    -1.8710 H     1 <1>   0.0800 
 45 H       -5.1570    -6.4380    -0.7540 H     1 <1>   0.0800 
@<TRIPOS>BOND
  1   1   2  2   
  2   2   3  1   
  3   2   4  1   
  4   3   5  ar  
  5   3   6  ar  
  6   4  21  1   
  7   4  22  1   
  8   4  23  1   
  9   5   7  ar  
 10   5   8  1   
 11   6   9  ar  
 12   6  24  1   
 13   7  10  ar  
 14   8  25  1   
 15   8  26  1   
 16   8  27  1   
 17   9  10  ar  
 18  10  11  1   
 19  11  12  1   
 20  11  13  1   
 21  12  14  1   
 22  12  28  1   
 23  12  29  1   
 24  13  30  1   
 25  13  31  1   
 26  13  32  1   
 27  14  15  1   
 28  14  16  1   
 29  14  17  1   
 30  15  18  1   
 31  15  33  1   
 32  15  34  1   
 33  16  19  1   
 34  16  35  1   
 35  16  36  1   
 36  17  37  1   
 37  17  38  1   
 38  17  39  1   
 39  18  19  1   
 40  18  20  1   
 41  18  40  1   
 42  19  41  1   
 43  19  42  1   
 44  20  43  1   
 45  20  44  1   
 46  20  45  1   
@<TRIPOS>SUBSTRUCTURE
  1 ****   9 GROUP 4 **** **** 0

# MOE 2024.06 (io_trps.svl 2023.06)
