@<TRIPOS>MOLECULE
NONAME
49 52 1 0 0 
SMALL
USER_CHARGES


@<TRIPOS>ATOM
  1 F       -3.0270     0.0840     0.7140 F     1 <1>  -0.3400 
  2 C       -2.6490    -0.5910    -0.3700 C.3   1 <1>   1.1640 
  3 F       -1.3230    -0.6850    -0.2870 F     1 <1>  -0.3400 
  4 F       -2.8860     0.2120    -1.4050 F     1 <1>  -0.3400 
  5 C       -3.3550    -1.9690    -0.5070 C.ar  1 <1>   0.1660 
  6 N       -4.6880    -2.0060    -0.4290 N.ar  1 <1>  -0.6200 
  7 C       -2.5920    -3.1170    -0.7080 C.ar  1 <1>  -0.1500 
  8 C       -5.2900    -3.1830    -0.5410 C.ar  1 <1>   0.4100 
  9 C       -3.2090    -4.3440    -0.8350 C.ar  1 <1>  -0.1500 
 10 N       -6.6730    -3.1970    -0.4390 N.pl3 1 <1>  -0.8380 
 11 C       -4.5790    -4.3630    -0.7500 C.ar  1 <1>  -0.1500 
 12 C       -7.4980    -1.9650    -0.6790 C.3   1 <1>   0.2090 
 13 C       -7.3930    -4.3440     0.1910 C.3   1 <1>   0.2090 
 14 C       -8.1440    -1.4310     0.6230 C.3   1 <1>   0.1440 
 15 C       -8.7160    -3.9110     0.8450 C.3   1 <1>  -0.1600 
 16 C       -9.3200    -0.5610     0.2100 C.ar  1 <1>   0.1670 
 17 C       -8.5570    -2.5750     1.5860 C.3   1 <1>  -0.1600 
 18 C       -7.2340    -0.4030     1.3460 C.3   1 <1>  -0.1600 
 19 N      -10.4830    -0.9970    -0.2090 N.ar  1 <1>  -0.6200 
 20 C       -9.0190     0.7650     0.3090 C.ar  1 <1>  -0.1430 
 21 C       -7.6130     0.9850     0.8060 C.3   1 <1>  -0.0170 
 22 C      -11.3680    -0.0490    -0.5270 C.ar  1 <1>   0.7200 
 23 C       -9.9900     1.6670    -0.0430 C.ar  1 <1>   0.1600 
 24 N      -11.1680     1.2720    -0.4630 N.ar  1 <1>  -0.6200 
 25 N      -12.6070    -0.4750    -0.9660 N.pl3 1 <1>  -0.8380 
 26 C      -13.0580    -1.8850    -0.8080 C.3   1 <1>   0.1290 
 27 C      -13.5770     0.4490    -1.6160 C.3   1 <1>   0.1290 
 28 H       -1.5190    -3.0700    -0.7700 H     1 <1>   0.1500 
 29 H       -2.6420    -5.2440    -0.9950 H     1 <1>   0.1500 
 30 H       -5.1110    -5.2880    -0.8540 H     1 <1>   0.1500 
 31 H       -8.2790    -2.2280    -1.3720 H     1 <1>   0.0800 
 32 H       -6.9160    -1.1930    -1.1500 H     1 <1>   0.0800 
 33 H       -6.7580    -4.7730     0.9480 H     1 <1>   0.0800 
 34 H       -7.5880    -5.0960    -0.5540 H     1 <1>   0.0800 
 35 H       -9.0380    -4.6750     1.5290 H     1 <1>   0.0800 
 36 H       -9.4760    -3.8160     0.0880 H     1 <1>   0.0800 
 37 H       -9.4710    -2.3190     2.0920 H     1 <1>   0.0800 
 38 H       -7.7930    -2.7080     2.3320 H     1 <1>   0.0800 
 39 H       -6.1890    -0.6160     1.2180 H     1 <1>   0.0800 
 40 H       -7.4510    -0.4140     2.4000 H     1 <1>   0.0800 
 41 H       -6.9740     1.2590    -0.0150 H     1 <1>   0.0800 
 42 H       -7.5690     1.7360     1.5760 H     1 <1>   0.0800 
 43 H       -9.7980     2.7240     0.0190 H     1 <1>   0.1500 
 44 H      -12.6080    -2.3300     0.0630 H     1 <1>   0.0800 
 45 H      -12.7730    -2.4520    -1.6770 H     1 <1>   0.0800 
 46 H      -14.1270    -1.9230    -0.6920 H     1 <1>   0.0800 
 47 H      -13.0590     1.2390    -2.1320 H     1 <1>   0.0800 
 48 H      -14.2180     0.8810    -0.8680 H     1 <1>   0.0800 
 49 H      -14.1760    -0.0860    -2.3330 H     1 <1>   0.0800 
@<TRIPOS>BOND
  1   1   2  1   
  2   2   3  1   
  3   2   4  1   
  4   2   5  1   
  5   5   6  ar  
  6   5   7  ar  
  7   6   8  ar  
  8   7   9  ar  
  9   7  28  1   
 10   8  10  1   
 11   8  11  ar  
 12   9  11  ar  
 13   9  29  1   
 14  10  12  1   
 15  10  13  1   
 16  11  30  1   
 17  12  14  1   
 18  12  31  1   
 19  12  32  1   
 20  13  15  1   
 21  13  33  1   
 22  13  34  1   
 23  14  16  1   
 24  14  17  1   
 25  14  18  1   
 26  15  17  1   
 27  15  35  1   
 28  15  36  1   
 29  16  19  ar  
 30  16  20  ar  
 31  17  37  1   
 32  17  38  1   
 33  18  21  1   
 34  18  39  1   
 35  18  40  1   
 36  19  22  ar  
 37  20  21  1   
 38  20  23  ar  
 39  21  41  1   
 40  21  42  1   
 41  22  24  ar  
 42  22  25  1   
 43  23  24  ar  
 44  23  43  1   
 45  25  26  1   
 46  25  27  1   
 47  26  44  1   
 48  26  45  1   
 49  26  46  1   
 50  27  47  1   
 51  27  48  1   
 52  27  49  1   
@<TRIPOS>SUBSTRUCTURE
  1 ****  12 GROUP 4 **** **** 0

# MOE 2024.06 (io_trps.svl 2023.06)
