@<TRIPOS>MOLECULE
NONAME
54 58 1 0 0 
SMALL
USER_CHARGES


@<TRIPOS>ATOM
  1 O       -1.2450     0.1660     2.6880 O.2   1 <1>  -0.5700 
  2 C       -1.5120     0.8410     1.7190 C.2   1 <1>   0.5690 
  3 N       -2.0810     0.3160     0.5640 N.am  1 <1>  -0.4770 
  4 C       -1.1820     2.3380     1.8520 C.3   1 <1>   0.1710 
  5 C       -2.2160    -1.0700     0.2760 C.ar  1 <1>   0.1170 
  6 C       -2.6900     1.2210    -0.4520 C.3   1 <1>   0.1400 
  7 N       -0.2990     2.8990     0.7840 N.3   1 <1>  -0.8100 
  8 C       -3.2640    -1.5360    -0.5270 C.ar  1 <1>  -0.1440 
  9 C       -1.3060    -2.0100     0.7570 C.ar  1 <1>  -0.1500 
 10 C       -4.1570     0.8410    -0.6310 C.3   1 <1>  -0.1600 
 11 C       -0.2000     4.3750     0.8790 C.3   1 <1>   0.5130 
 12 C        1.0280     2.2270     0.7850 C.3   1 <1>   0.1100 
 13 C       -3.3970    -2.8890    -0.7950 C.ar  1 <1>  -0.1500 
 14 C       -4.2750    -0.5880    -1.1630 C.3   1 <1>  -0.0160 
 15 C       -1.4430    -3.3580     0.4860 C.ar  1 <1>  -0.1500 
 16 C       -1.5390     4.9980     0.5170 C.ar  1 <1>  -0.1440 
 17 C        0.8670     4.8640    -0.0790 C.2   1 <1>  -0.3320 
 18 C        1.8560     2.5970    -0.4580 C.3   1 <1>   0.0210 
 19 C       -2.4950    -3.8080    -0.2890 C.ar  1 <1>  -0.1440 
 20 C       -2.0620     4.7990    -0.7520 C.ar  1 <1>   0.1600 
 21 C       -2.2590     5.7530     1.4230 C.ar  1 <1>  -0.1500 
 22 N        1.0890     6.1180    -0.5150 N.pl3 1 <1>   0.0330 
 23 C        1.7850     4.0870    -0.6750 C.2   1 <1>   0.0460 
 24 C       -2.6540    -5.2880    -0.5870 C.3   1 <1>  -0.0970 
 25 N       -3.2220     5.2740    -1.1780 N.ar  1 <1>  -0.6200 
 26 C       -3.4680     6.2590     0.9940 C.ar  1 <1>  -0.1500 
 27 C        2.1440     6.0070    -1.3540 C.2   1 <1>   0.0360 
 28 N        2.5950     4.7990    -1.4760 N.2   1 <1>  -0.5650 
 29 C       -3.8960     5.9930    -0.2950 C.ar  1 <1>   0.1600 
 30 H       -0.7130     2.4890     2.8080 H     1 <1>   0.0800 
 31 H       -2.1180     2.8650     1.8720 H     1 <1>   0.0800 
 32 H       -2.1570     1.1160    -1.3820 H     1 <1>   0.0800 
 33 H       -2.6430     2.2500    -0.1570 H     1 <1>   0.0800 
 34 H       -0.4720    -1.6910     1.3540 H     1 <1>   0.1500 
 35 H       -4.6310     1.5240    -1.3120 H     1 <1>   0.0800 
 36 H       -4.6540     0.9180     0.3200 H     1 <1>   0.0800 
 37 H        0.0820     4.6540     1.8810 H     1 <1>   0.0800 
 38 H        0.9050     1.1580     0.7990 H     1 <1>   0.0800 
 39 H        1.5710     2.5130     1.6700 H     1 <1>   0.0800 
 40 H       -4.2100    -3.2320    -1.4100 H     1 <1>   0.1500 
 41 H       -5.2740    -0.9510    -0.9950 H     1 <1>   0.0800 
 42 H       -4.0990    -0.5800    -2.2250 H     1 <1>   0.0800 
 43 H       -0.7250    -4.0540     0.8830 H     1 <1>   0.1500 
 44 H        1.4650     2.0940    -1.3230 H     1 <1>   0.0800 
 45 H        2.8780     2.2960    -0.3200 H     1 <1>   0.0800 
 46 H       -1.4890     4.2110    -1.4530 H     1 <1>   0.1500 
 47 H       -1.9030     5.9410     2.4220 H     1 <1>   0.1500 
 48 H        0.5620     6.9670    -0.2910 H     1 <1>   0.2700 
 49 H       -3.6940    -5.5410    -0.6850 H     1 <1>   0.0800 
 50 H       -2.2350    -5.8780     0.2080 H     1 <1>   0.0800 
 51 H       -2.1480    -5.5290    -1.5040 H     1 <1>   0.0800 
 52 H       -4.0770     6.8540     1.6500 H     1 <1>   0.1500 
 53 H        2.5550     6.8580    -1.8690 H     1 <1>   0.1500 
 54 H       -4.8430     6.3930    -0.6180 H     1 <1>   0.1500 
@<TRIPOS>BOND
  1   1   2  2   
  2   2   3  am  
  3   2   4  1   
  4   3   5  1   
  5   3   6  1   
  6   4   7  1   
  7   4  30  1   
  8   4  31  1   
  9   5   8  ar  
 10   5   9  ar  
 11   6  10  1   
 12   6  32  1   
 13   6  33  1   
 14   7  11  1   
 15   7  12  1   
 16   8  13  ar  
 17   8  14  1   
 18   9  15  ar  
 19   9  34  1   
 20  10  14  1   
 21  10  35  1   
 22  10  36  1   
 23  11  16  1   
 24  11  17  1   
 25  11  37  1   
 26  12  18  1   
 27  12  38  1   
 28  12  39  1   
 29  13  19  ar  
 30  13  40  1   
 31  14  41  1   
 32  14  42  1   
 33  15  19  ar  
 34  15  43  1   
 35  16  20  ar  
 36  16  21  ar  
 37  17  22  1   
 38  17  23  2   
 39  18  23  1   
 40  18  44  1   
 41  18  45  1   
 42  19  24  1   
 43  20  25  ar  
 44  20  46  1   
 45  21  26  ar  
 46  21  47  1   
 47  22  27  1   
 48  22  48  1   
 49  23  28  1   
 50  24  49  1   
 51  24  50  1   
 52  24  51  1   
 53  25  29  ar  
 54  26  29  ar  
 55  26  52  1   
 56  27  28  2   
 57  27  53  1   
 58  29  54  1   
@<TRIPOS>SUBSTRUCTURE
  1 ****   7 GROUP 4 **** **** 0

# MOE 2024.06 (io_trps.svl 2023.06)
