@<TRIPOS>MOLECULE
NONAME
59 62 1 0 0 
SMALL
USER_CHARGES


@<TRIPOS>ATOM
  1 O       -2.5080     5.9400     2.4760 O.2   1 <1>  -0.5700 
  2 C       -2.2730     5.5000     1.3630 C.2   1 <1>   0.7160 
  3 N       -3.1540     4.5890     0.8140 N.am  1 <1>  -0.6600 
  4 C       -1.0790     5.9300     0.6630 C.2   1 <1>  -0.0860 
  5 C       -2.7270     3.6290    -0.2400 C.3   1 <1>   0.1400 
  6 C       -4.4850     4.3620     1.4370 C.3   1 <1>   0.1400 
  7 C       -0.8420     6.1100    -0.6800 C.2   1 <1>  -0.3020 
  8 C        0.1330     6.2810     1.2910 C.2   1 <1>  -0.1500 
  9 C       -3.6060     2.3760    -0.2300 C.3   1 <1>  -0.1600 
 10 C       -5.5180     3.9220     0.3930 C.3   1 <1>  -0.1600 
 11 N        0.4270     6.5320    -0.8850 N.pl3 1 <1>   0.0330 
 12 C        1.0220     6.6350     0.3300 C.2   1 <1>  -0.3020 
 13 C       -5.0880     2.7280    -0.5070 C.3   1 <1>   0.2800 
 14 O       -5.1450     3.2280    -1.8310 O.3   1 <1>  -0.5600 
 15 C       -6.0740     1.5100    -0.3340 C.3   1 <1>   0.2000 
 16 C       -5.2370     2.3120    -2.8810 C.3   1 <1>   0.1200 
 17 O       -5.3890     0.2840    -0.4100 O.3   1 <1>  -0.6800 
 18 C       -7.2050     1.5390    -1.4070 C.3   1 <1>   0.3000 
 19 C       -6.5550     1.5230    -2.8040 C.3   1 <1>  -0.1600 
 20 N       -7.9800     2.7980    -1.3360 N.am  1 <1>  -0.7300 
 21 C       -8.1830     0.3580    -1.2950 C.3   1 <1>  -0.2400 
 22 C       -8.7190     3.2860    -0.3050 C.2   1 <1>   0.7150 
 23 O       -8.9680     2.5750     0.6490 O.2   1 <1>  -0.5700 
 24 C       -9.1190     4.6620    -0.3480 C.2   1 <1>  -0.2370 
 25 N       -9.9940     5.2540     0.5090 N.pl3 1 <1>   0.3140 
 26 C       -8.7290     5.6550    -1.1970 C.2   1 <1>  -0.1500 
 27 N      -10.1630     6.5570     0.2370 N.2   1 <1>  -0.7070 
 28 C      -10.7300     4.6390     1.6250 C.3   1 <1>   0.0160 
 29 C       -9.4020     6.7870    -0.7840 C.2   1 <1>   0.1080 
 30 C       -9.2960     8.1570    -1.4130 C.3   1 <1>  -0.0590 
 31 H       -2.8030     4.1080    -1.2000 H     1 <1>   0.0800 
 32 H       -1.7000     3.3500    -0.0770 H     1 <1>   0.0800 
 33 H       -4.3870     3.6080     2.1990 H     1 <1>   0.0800 
 34 H       -4.8250     5.2680     1.9120 H     1 <1>   0.0800 
 35 H       -1.5350     5.9640    -1.4890 H     1 <1>   0.1500 
 36 H        0.2820     6.2610     2.3580 H     1 <1>   0.1500 
 37 H       -3.5150     1.8950     0.7280 H     1 <1>   0.0800 
 38 H       -3.2340     1.6840    -0.9600 H     1 <1>   0.0800 
 39 H       -5.7530     4.7770    -0.2160 H     1 <1>   0.0800 
 40 H       -6.4050     3.6790     0.9430 H     1 <1>   0.0800 
 41 H        0.8620     6.7500    -1.7890 H     1 <1>   0.2700 
 42 H        2.0420     6.9580     0.4470 H     1 <1>   0.1500 
 43 H       -6.5120     1.5270     0.6480 H     1 <1>   0.0800 
 44 H       -5.1870     2.8660    -3.8030 H     1 <1>   0.0800 
 45 H       -4.3880     1.6540    -2.8390 H     1 <1>   0.0800 
 46 H       -4.9750     0.1850    -1.2860 H     1 <1>   0.4000 
 47 H       -7.2480     1.8940    -3.5390 H     1 <1>   0.0800 
 48 H       -6.3330     0.5100    -3.0900 H     1 <1>   0.0800 
 49 H       -7.5900     3.5070    -1.9550 H     1 <1>   0.3700 
 50 H       -7.6800    -0.5720    -1.4880 H     1 <1>   0.0800 
 51 H       -8.9860     0.4640    -2.0020 H     1 <1>   0.0800 
 52 H       -8.5950     0.2950    -0.3040 H     1 <1>   0.0800 
 53 H       -8.0390     5.6040    -2.0200 H     1 <1>   0.1500 
 54 H      -11.2940     3.8020     1.2590 H     1 <1>   0.0800 
 55 H      -11.3970     5.3640     2.0530 H     1 <1>   0.0800 
 56 H      -10.0310     4.3100     2.3700 H     1 <1>   0.0800 
 57 H       -8.6210     8.1380    -2.2470 H     1 <1>   0.0800 
 58 H       -8.9370     8.8580    -0.6820 H     1 <1>   0.0800 
 59 H      -10.2670     8.4720    -1.7490 H     1 <1>   0.0800 
@<TRIPOS>BOND
  1   1   2  2   
  2   2   3  am  
  3   2   4  1   
  4   3   5  1   
  5   3   6  1   
  6   4   7  2   
  7   4   8  1   
  8   5   9  1   
  9   5  31  1   
 10   5  32  1   
 11   6  10  1   
 12   6  33  1   
 13   6  34  1   
 14   7  11  1   
 15   7  35  1   
 16   8  12  2   
 17   8  36  1   
 18   9  13  1   
 19   9  37  1   
 20   9  38  1   
 21  10  13  1   
 22  10  39  1   
 23  10  40  1   
 24  11  12  1   
 25  11  41  1   
 26  12  42  1   
 27  13  14  1   
 28  13  15  1   
 29  14  16  1   
 30  15  17  1   
 31  15  18  1   
 32  15  43  1   
 33  16  19  1   
 34  16  44  1   
 35  16  45  1   
 36  17  46  1   
 37  18  19  1   
 38  18  20  1   
 39  18  21  1   
 40  19  47  1   
 41  19  48  1   
 42  20  22  am  
 43  20  49  1   
 44  21  50  1   
 45  21  51  1   
 46  21  52  1   
 47  22  23  2   
 48  22  24  1   
 49  24  25  1   
 50  24  26  2   
 51  25  27  1   
 52  25  28  1   
 53  26  29  1   
 54  26  53  1   
 55  27  29  2   
 56  28  54  1   
 57  28  55  1   
 58  28  56  1   
 59  29  30  1   
 60  30  57  1   
 61  30  58  1   
 62  30  59  1   
@<TRIPOS>SUBSTRUCTURE
  1 ****  10 GROUP 4 **** **** 0

# MOE 2024.06 (io_trps.svl 2023.06)
