@<TRIPOS>MOLECULE
NONAME
39 40 1 0 0 
SMALL
USER_CHARGES


@<TRIPOS>ATOM
  1 O        1.9890     0.1100     1.9760 O.3   1 <1>  -0.6800 
  2 C        1.3340    -0.1910     0.7730 C.3   1 <1>   0.1200 
  3 C        2.3600    -0.4510    -0.3530 C.3   1 <1>   0.3430 
  4 N        3.6550    -0.9190     0.2470 N.4   1 <1>  -0.9590 
  5 C        4.8510    -0.1540    -0.1960 C.3   1 <1>   0.4860 
  6 C        3.8600    -2.3980     0.1300 C.3   1 <1>   0.5240 
  7 C        4.6220     1.3390    -0.1050 C.ar  1 <1>  -0.1430 
  8 C        2.6710    -3.1960     0.6560 C.2   1 <1>   0.0460 
  9 C        4.6040     2.1190    -1.2380 C.ar  1 <1>   0.1600 
 10 C        4.4250     1.9820     1.0960 C.ar  1 <1>   0.1600 
 11 N        1.5660    -3.3670    -0.0970 N.2   1 <1>  -0.5650 
 12 C        2.5410    -3.8230     1.8460 C.2   1 <1>  -0.3020 
 13 N        4.3930     3.4130    -1.1910 N.ar  1 <1>  -0.6200 
 14 N        4.2180     3.2760     1.1670 N.ar  1 <1>  -0.6200 
 15 C        0.7930    -4.0960     0.6400 C.2   1 <1>   0.0060 
 16 N        1.3290    -4.4070     1.8400 N.pl3 1 <1>   0.0330 
 17 C        4.2140     3.9250     0.0150 C.ar  1 <1>   0.4770 
 18 C       -0.5800    -4.5720     0.2120 C.3   1 <1>  -0.0600 
 19 C        3.9840     5.4150     0.0870 C.3   1 <1>  -0.0970 
 20 H        1.3380     0.3930     2.6580 H     1 <1>   0.4000 
 21 H        0.6940     0.6330     0.5090 H     1 <1>   0.0800 
 22 H        0.7240    -1.0640     0.9330 H     1 <1>   0.0800 
 23 H        2.5050     0.4710    -0.8890 H     1 <1>   0.0800 
 24 H        1.9670    -1.1740    -1.0490 H     1 <1>   0.0800 
 25 H        3.4830    -0.7160     1.2500 H     1 <1>   0.4500 
 26 H        5.0850    -0.4120    -1.2170 H     1 <1>   0.0800 
 27 H        5.6990    -0.4170     0.4160 H     1 <1>   0.0800 
 28 H        4.7340    -2.6860     0.6900 H     1 <1>   0.0800 
 29 H        4.0160    -2.6690    -0.9010 H     1 <1>   0.0800 
 30 H        4.7610     1.6870    -2.2130 H     1 <1>   0.1500 
 31 H        4.4290     1.4360     2.0250 H     1 <1>   0.1500 
 32 H        3.2180    -3.8970     2.6800 H     1 <1>   0.1500 
 33 H        0.8990    -4.9790     2.5760 H     1 <1>   0.2700 
 34 H       -0.8040    -4.2090    -0.7760 H     1 <1>   0.0800 
 35 H       -1.3290    -4.2070     0.8910 H     1 <1>   0.0800 
 36 H       -0.6100    -5.6460     0.1960 H     1 <1>   0.0800 
 37 H        3.5910     5.7790    -0.8440 H     1 <1>   0.0800 
 38 H        4.9150     5.9080     0.2930 H     1 <1>   0.0800 
 39 H        3.2850     5.6420     0.8710 H     1 <1>   0.0800 
@<TRIPOS>BOND
  1   1   2  1   
  2   1  20  1   
  3   2   3  1   
  4   2  21  1   
  5   2  22  1   
  6   3   4  1   
  7   3  23  1   
  8   3  24  1   
  9   4   5  1   
 10   4   6  1   
 11   4  25  1   
 12   5   7  1   
 13   5  26  1   
 14   5  27  1   
 15   6   8  1   
 16   6  28  1   
 17   6  29  1   
 18   7   9  ar  
 19   7  10  ar  
 20   8  11  1   
 21   8  12  2   
 22   9  13  ar  
 23   9  30  1   
 24  10  14  ar  
 25  10  31  1   
 26  11  15  2   
 27  12  16  1   
 28  12  32  1   
 29  13  17  ar  
 30  14  17  ar  
 31  15  16  1   
 32  15  18  1   
 33  16  33  1   
 34  17  19  1   
 35  18  34  1   
 36  18  35  1   
 37  18  36  1   
 38  19  37  1   
 39  19  38  1   
 40  19  39  1   
@<TRIPOS>SUBSTRUCTURE
  1 ****   4 GROUP 4 **** **** 0

# MOE 2024.06 (io_trps.svl 2023.06)
