@<TRIPOS>MOLECULE
NONAME
47 49 1 0 0 
SMALL
USER_CHARGES


@<TRIPOS>ATOM
  1 O       -0.5660     0.9170     1.7100 O.2   1 <1>  -0.5700 
  2 C       -1.1910     1.1800     0.7080 C.2   1 <1>   0.5690 
  3 N       -1.8650     0.2130     0.0000 N.am  1 <1>  -0.6600 
  4 C       -1.2000     2.6300     0.2400 C.3   1 <1>  -0.0990 
  5 C       -2.5520     0.4550    -1.2990 C.3   1 <1>   0.1400 
  6 C       -1.9350    -1.1870     0.5040 C.3   1 <1>   0.1400 
  7 C       -0.8130     3.6380     1.3380 C.3   1 <1>  -0.0990 
  8 C       -4.0410     0.7140    -1.0520 C.3   1 <1>  -0.1600 
  9 C       -3.3730    -1.5960     0.8470 C.3   1 <1>  -0.1600 
 10 C       -0.8310     5.0580     0.8150 C.2   1 <1>   0.5690 
 11 C       -4.9190    -0.5470    -0.9490 C.3   1 <1>  -0.1600 
 12 C       -4.2550    -1.8170    -0.3920 C.3   1 <1>  -0.1600 
 13 O       -1.8760     5.5480     0.4670 O.2   1 <1>  -0.5700 
 14 N        0.3290     5.7460     0.7490 N.am  1 <1>  -0.7300 
 15 C        0.4380     7.1300     0.2590 C.3   1 <1>   0.3640 
 16 C        1.8680     7.3740    -0.1190 C.ar  1 <1>  -0.1440 
 17 C        0.2510     8.1440     1.4050 C.3   1 <1>   0.1200 
 18 C        2.4210     8.2270     0.8020 C.ar  1 <1>   0.0820 
 19 C        2.6250     6.8840    -1.1670 C.ar  1 <1>  -0.1500 
 20 O        1.5490     8.6190     1.7470 O.3   1 <1>  -0.3620 
 21 C        3.7440     8.6180     0.7210 C.ar  1 <1>  -0.1500 
 22 C        3.9550     7.2710    -1.2650 C.ar  1 <1>  -0.1500 
 23 C        4.5120     8.1310    -0.3260 C.ar  1 <1>  -0.1500 
 24 H       -2.1850     2.8820    -0.1070 H     1 <1>   0.0800 
 25 H       -0.5160     2.7210    -0.5830 H     1 <1>   0.0800 
 26 H       -2.4160    -0.3890    -1.9540 H     1 <1>   0.0800 
 27 H       -2.1170     1.3070    -1.7890 H     1 <1>   0.0800 
 28 H       -1.3330    -1.2900     1.3910 H     1 <1>   0.0800 
 29 H       -1.5250    -1.8520    -0.2360 H     1 <1>   0.0800 
 30 H        0.1660     3.4060     1.7180 H     1 <1>   0.0800 
 31 H       -1.5100     3.5660     2.1520 H     1 <1>   0.0800 
 32 H       -4.4210     1.3140    -1.8600 H     1 <1>   0.0800 
 33 H       -4.1480     1.2980    -0.1540 H     1 <1>   0.0800 
 34 H       -3.8140    -0.8760     1.5140 H     1 <1>   0.0800 
 35 H       -3.3160    -2.5290     1.3790 H     1 <1>   0.0800 
 36 H       -5.2990    -0.7820    -1.9290 H     1 <1>   0.0800 
 37 H       -5.7720    -0.3060    -0.3370 H     1 <1>   0.0800 
 38 H       -5.0400    -2.5070    -0.1330 H     1 <1>   0.0800 
 39 H       -3.6730    -2.2900    -1.1650 H     1 <1>   0.0800 
 40 H        1.2090     5.3480     1.0800 H     1 <1>   0.3700 
 41 H       -0.2480     7.3100    -0.5510 H     1 <1>   0.0800 
 42 H       -0.2070     7.7040     2.2720 H     1 <1>   0.0800 
 43 H       -0.3220     8.9880     1.0670 H     1 <1>   0.0800 
 44 H        2.1930     6.2150    -1.8910 H     1 <1>   0.1500 
 45 H        4.1530     9.2850     1.4570 H     1 <1>   0.1500 
 46 H        4.5610     6.9010    -2.0740 H     1 <1>   0.1500 
 47 H        5.5440     8.4230    -0.4120 H     1 <1>   0.1500 
@<TRIPOS>BOND
  1   1   2  2   
  2   2   3  am  
  3   2   4  1   
  4   3   5  1   
  5   3   6  1   
  6   4   7  1   
  7   4  24  1   
  8   4  25  1   
  9   5   8  1   
 10   5  26  1   
 11   5  27  1   
 12   6   9  1   
 13   6  28  1   
 14   6  29  1   
 15   7  10  1   
 16   7  30  1   
 17   7  31  1   
 18   8  11  1   
 19   8  32  1   
 20   8  33  1   
 21   9  12  1   
 22   9  34  1   
 23   9  35  1   
 24  10  13  2   
 25  10  14  am  
 26  11  12  1   
 27  11  36  1   
 28  11  37  1   
 29  12  38  1   
 30  12  39  1   
 31  14  15  1   
 32  14  40  1   
 33  15  16  1   
 34  15  17  1   
 35  15  41  1   
 36  16  18  ar  
 37  16  19  ar  
 38  17  20  1   
 39  17  42  1   
 40  17  43  1   
 41  18  20  1   
 42  18  21  ar  
 43  19  22  ar  
 44  19  44  1   
 45  21  23  ar  
 46  21  45  1   
 47  22  23  ar  
 48  22  46  1   
 49  23  47  1   
@<TRIPOS>SUBSTRUCTURE
  1 ****   7 GROUP 4 **** **** 0

# MOE 2024.06 (io_trps.svl 2023.06)
