@<TRIPOS>MOLECULE
NONAME
56 58 1 0 0 
SMALL
USER_CHARGES


@<TRIPOS>ATOM
  1 F       -1.4840    -1.2360     0.3780 F     1 <1>  -0.1900 
  2 C       -2.5570    -0.5040     0.2190 C.ar  1 <1>   0.1900 
  3 C       -2.8190     0.1820    -0.9730 C.ar  1 <1>   0.0830 
  4 C       -3.4230    -0.4440     1.2940 C.ar  1 <1>  -0.1500 
  5 O       -2.0440     0.2040    -2.0950 O.3   1 <1>  -0.3630 
  6 C       -3.9870     0.9230    -1.0440 C.ar  1 <1>  -0.1500 
  7 C       -4.5800     0.3060     1.1900 C.ar  1 <1>  -0.1500 
  8 C       -0.8050    -0.4640    -2.1880 C.3   1 <1>   0.0400 
  9 C       -4.8910     0.9960     0.0170 C.ar  1 <1>   0.0530 
 10 C       -6.1120     1.7460    -0.1090 C.2   1 <1>   0.0870 
 11 O       -6.1410     2.9040    -0.7170 O.3   1 <1>  -0.0190 
 12 C       -7.3830     1.4700     0.2740 C.2   1 <1>  -0.0860 
 13 N       -7.3430     3.4200    -0.7650 N.2   1 <1>  -0.4100 
 14 C       -8.1130     2.5760    -0.1670 C.2   1 <1>   0.3720 
 15 C       -7.8930     0.2980     0.9040 C.2   1 <1>   0.7160 
 16 N       -9.5010     2.7470    -0.0120 N.pl3 1 <1>  -0.8210 
 17 O       -7.7880     0.1740     2.1130 O.2   1 <1>  -0.5700 
 18 N       -8.4690    -0.7120     0.1660 N.am  1 <1>  -0.6600 
 19 C      -10.0180     2.5720     1.3770 C.3   1 <1>   0.1290 
 20 C      -10.1030     3.9110    -0.7200 C.3   1 <1>   0.1290 
 21 C       -8.6880    -2.0740     0.7280 C.3   1 <1>   0.1400 
 22 C       -8.7890    -0.5550    -1.2860 C.3   1 <1>   0.1400 
 23 C       -7.7870    -3.1170     0.0130 C.3   1 <1>   0.0000 
 24 C       -8.8240    -1.9110    -2.0070 C.3   1 <1>  -0.1600 
 25 C       -7.6860    -2.8170    -1.5100 C.3   1 <1>  -0.1600 
 26 C       -6.3800    -3.0770     0.6630 C.3   1 <1>  -0.1600 
 27 C       -8.4280    -4.5030     0.2200 C.3   1 <1>  -0.2400 
 28 C       -5.3510    -4.0760     0.1050 C.3   1 <1>  -0.2400 
 29 H       -3.1940    -0.9770     2.1990 H     1 <1>   0.1500 
 30 H       -4.2020     1.4550    -1.9540 H     1 <1>   0.1500 
 31 H       -5.2500     0.3570     2.0310 H     1 <1>   0.1500 
 32 H       -0.3930    -0.2690    -3.1610 H     1 <1>   0.0800 
 33 H       -0.9660    -1.5200    -2.0660 H     1 <1>   0.0800 
 34 H       -0.1440    -0.0830    -1.4300 H     1 <1>   0.0800 
 35 H      -10.3670     1.5610     1.5050 H     1 <1>   0.0800 
 36 H      -10.8340     3.2450     1.5710 H     1 <1>   0.0800 
 37 H       -9.2370     2.7620     2.0940 H     1 <1>   0.0800 
 38 H       -9.7720     3.9290    -1.7450 H     1 <1>   0.0800 
 39 H       -9.8040     4.8280    -0.2420 H     1 <1>   0.0800 
 40 H      -11.1760     3.8350    -0.7100 H     1 <1>   0.0800 
 41 H       -9.7250    -2.3250     0.5870 H     1 <1>   0.0800 
 42 H       -8.5030    -2.0900     1.7880 H     1 <1>   0.0800 
 43 H       -8.0370     0.0580    -1.7540 H     1 <1>   0.0800 
 44 H       -9.7370    -0.0540    -1.3900 H     1 <1>   0.0800 
 45 H       -8.7280    -1.7490    -3.0660 H     1 <1>   0.0800 
 46 H       -9.7740    -2.3870    -1.8390 H     1 <1>   0.0800 
 47 H       -7.6680    -3.7300    -2.0790 H     1 <1>   0.0800 
 48 H       -6.7630    -2.3020    -1.7150 H     1 <1>   0.0800 
 49 H       -6.4740    -3.2480     1.7220 H     1 <1>   0.0800 
 50 H       -5.9790    -2.0860     0.5450 H     1 <1>   0.0800 
 51 H       -9.4260    -4.5200    -0.1800 H     1 <1>   0.0800 
 52 H       -8.4760    -4.7430     1.2670 H     1 <1>   0.0800 
 53 H       -7.8630    -5.2710    -0.2780 H     1 <1>   0.0800 
 54 H       -5.6500    -5.0890     0.3030 H     1 <1>   0.0800 
 55 H       -4.4000    -3.9120     0.5800 H     1 <1>   0.0800 
 56 H       -5.2210    -3.9510    -0.9540 H     1 <1>   0.0800 
@<TRIPOS>BOND
  1   1   2  1   
  2   2   3  ar  
  3   2   4  ar  
  4   3   5  1   
  5   3   6  ar  
  6   4   7  ar  
  7   4  29  1   
  8   5   8  1   
  9   6   9  ar  
 10   6  30  1   
 11   7   9  ar  
 12   7  31  1   
 13   8  32  1   
 14   8  33  1   
 15   8  34  1   
 16   9  10  1   
 17  10  11  1   
 18  10  12  2   
 19  11  13  1   
 20  12  14  1   
 21  12  15  1   
 22  13  14  2   
 23  14  16  1   
 24  15  17  2   
 25  15  18  am  
 26  16  19  1   
 27  16  20  1   
 28  18  21  1   
 29  18  22  1   
 30  19  35  1   
 31  19  36  1   
 32  19  37  1   
 33  20  38  1   
 34  20  39  1   
 35  20  40  1   
 36  21  23  1   
 37  21  41  1   
 38  21  42  1   
 39  22  24  1   
 40  22  43  1   
 41  22  44  1   
 42  23  25  1   
 43  23  26  1   
 44  23  27  1   
 45  24  25  1   
 46  24  45  1   
 47  24  46  1   
 48  25  47  1   
 49  25  48  1   
 50  26  28  1   
 51  26  49  1   
 52  26  50  1   
 53  27  51  1   
 54  27  52  1   
 55  27  53  1   
 56  28  54  1   
 57  28  55  1   
 58  28  56  1   
@<TRIPOS>SUBSTRUCTURE
  1 ****   9 GROUP 4 **** **** 0

# MOE 2024.06 (io_trps.svl 2023.06)
