@<TRIPOS>MOLECULE
NONAME
33 34 1 0 0 
SMALL
USER_CHARGES


@<TRIPOS>ATOM
  1 S       -0.3790     0.3160    -0.5810 S.3   1 <1>  -0.0800 
  2 C       -1.3440    -0.6910     0.4470 C.2   1 <1>   0.4420 
  3 C       -0.4050     1.5040     0.6810 C.2   1 <1>   0.1980 
  4 N       -1.6030    -0.1300     1.5710 N.2   1 <1>  -0.3380 
  5 N       -1.6980    -1.9250    -0.0580 N.am  1 <1>  -0.4940 
  6 N       -1.0650     1.1200     1.6980 N.2   1 <1>  -0.3380 
  7 C        0.3200     2.8320     0.4650 C.3   1 <1>   0.3800 
  8 C       -2.4450    -2.9070     0.5250 C.2   1 <1>   0.5690 
  9 O       -0.1320     3.4650    -0.6980 O.3   1 <1>  -0.5600 
 10 C        1.8290     2.6520     0.3160 C.3   1 <1>  -0.2400 
 11 O       -2.9270    -2.8200     1.6230 O.2   1 <1>  -0.5700 
 12 C       -2.6720    -4.1760    -0.2740 C.3   1 <1>  -0.0990 
 13 C       -1.4270     3.9790    -0.6210 C.3   1 <1>   0.0400 
 14 C       -3.4960    -5.2110     0.5070 C.3   1 <1>   0.0960 
 15 N       -3.6860    -6.4260    -0.3050 N.pl3 1 <1>   0.0480 
 16 C       -4.6590    -6.7030    -1.1740 C.2   1 <1>   0.0360 
 17 C       -2.9110    -7.5080    -0.3810 C.2   1 <1>   0.0360 
 18 N       -4.4880    -7.8500    -1.7340 N.2   1 <1>  -0.3380 
 19 N       -3.3670    -8.3660    -1.2250 N.2   1 <1>  -0.3380 
 20 H       -1.3480    -2.1110    -0.9930 H     1 <1>   0.3700 
 21 H        0.1250     3.4820     1.3010 H     1 <1>   0.0800 
 22 H        2.0540     2.0560    -0.5500 H     1 <1>   0.0800 
 23 H        2.2240     2.1620     1.1870 H     1 <1>   0.0800 
 24 H        2.3020     3.6120     0.2180 H     1 <1>   0.0800 
 25 H       -1.7150    -4.5970    -0.5220 H     1 <1>   0.0800 
 26 H       -3.1900    -3.9190    -1.1800 H     1 <1>   0.0800 
 27 H       -1.6520     4.4590    -1.5580 H     1 <1>   0.0800 
 28 H       -1.4800     4.7010     0.1760 H     1 <1>   0.0800 
 29 H       -2.1270     3.1780    -0.4520 H     1 <1>   0.0800 
 30 H       -4.4600    -4.8060     0.7610 H     1 <1>   0.0800 
 31 H       -2.9920    -5.4770     1.4200 H     1 <1>   0.0800 
 32 H       -5.4810    -6.0400    -1.3750 H     1 <1>   0.1500 
 33 H       -2.0140    -7.6360     0.1980 H     1 <1>   0.1500 
@<TRIPOS>BOND
  1   1   2  1   
  2   1   3  1   
  3   2   4  2   
  4   2   5  1   
  5   3   6  2   
  6   3   7  1   
  7   4   6  1   
  8   5   8  am  
  9   5  20  1   
 10   7   9  1   
 11   7  10  1   
 12   7  21  1   
 13   8  11  2   
 14   8  12  1   
 15   9  13  1   
 16  10  22  1   
 17  10  23  1   
 18  10  24  1   
 19  12  14  1   
 20  12  25  1   
 21  12  26  1   
 22  13  27  1   
 23  13  28  1   
 24  13  29  1   
 25  14  15  1   
 26  14  30  1   
 27  14  31  1   
 28  15  16  1   
 29  15  17  1   
 30  16  18  2   
 31  16  32  1   
 32  17  19  2   
 33  17  33  1   
 34  18  19  1   
@<TRIPOS>SUBSTRUCTURE
  1 ****   5 GROUP 4 **** **** 0

# MOE 2024.06 (io_trps.svl 2023.06)
