@<TRIPOS>MOLECULE
NONAME
47 49 1 0 0 
SMALL
USER_CHARGES


@<TRIPOS>ATOM
  1 O       -0.0420     0.7940    -0.0990 O.2   1 <1>  -0.5700 
  2 C       -0.1090     2.0000    -0.0800 C.2   1 <1>   0.5690 
  3 N       -1.2730     2.6660     0.2000 N.am  1 <1>  -0.6600 
  4 C        1.1570     2.7920    -0.4130 C.3   1 <1>   0.1810 
  5 C       -1.3340     4.1660     0.2150 C.3   1 <1>   0.3640 
  6 C       -2.5150     1.9520     0.6190 C.3   1 <1>   0.0600 
  7 O        1.1200     4.1230     0.0440 O.3   1 <1>  -0.5600 
  8 C       -2.5470     4.6320    -0.6060 C.ar  1 <1>  -0.1430 
  9 C       -0.0440     4.8300    -0.3340 C.3   1 <1>   0.2610 
 10 C       -3.5650     5.4250    -0.0730 C.ar  1 <1>  -0.1430 
 11 C       -2.6320     4.2380    -1.9380 C.ar  1 <1>  -0.1500 
 12 C        0.0620     6.2950     0.1050 C.2   1 <1>   0.5690 
 13 C       -4.6170     5.8240    -0.8850 C.ar  1 <1>  -0.1500 
 14 C       -3.5840     5.8800     1.3810 C.3   1 <1>  -0.0960 
 15 C       -3.6860     4.6380    -2.7370 C.ar  1 <1>  -0.1500 
 16 O       -0.3140     6.6350     1.2040 O.2   1 <1>  -0.5700 
 17 N        0.6050     7.2080    -0.7500 N.am  1 <1>  -0.7300 
 18 C       -4.6800     5.4370    -2.2100 C.ar  1 <1>  -0.1500 
 19 C        0.7200     8.6610    -0.4600 C.3   1 <1>   0.1400 
 20 C        1.8350     8.9160     0.5540 C.3   1 <1>   0.0960 
 21 N        1.9440    10.3600     0.8080 N.pl3 1 <1>   0.3140 
 22 N        2.4090    11.2100    -0.1270 N.2   1 <1>  -0.7070 
 23 C        1.6020    11.0130     1.9360 C.2   1 <1>  -0.3020 
 24 C        2.3560    12.3800     0.4330 C.2   1 <1>   0.1390 
 25 C        1.8570    12.3220     1.7280 C.2   1 <1>  -0.1500 
 26 H        1.3040     2.8000    -1.4770 H     1 <1>   0.0800 
 27 H        2.0020     2.3150     0.0490 H     1 <1>   0.0800 
 28 H       -1.4430     4.4610     1.2420 H     1 <1>   0.0800 
 29 H       -2.8850     2.3680     1.5390 H     1 <1>   0.0800 
 30 H       -2.3190     0.9040     0.7710 H     1 <1>   0.0800 
 31 H       -3.2700     2.0520    -0.1420 H     1 <1>   0.0800 
 32 H       -0.0790     4.8190    -1.4070 H     1 <1>   0.0800 
 33 H       -1.8750     3.6030    -2.3650 H     1 <1>   0.1500 
 34 H       -5.4040     6.4410    -0.4880 H     1 <1>   0.1500 
 35 H       -4.5310     6.3190     1.6340 H     1 <1>   0.0800 
 36 H       -2.8230     6.6180     1.5510 H     1 <1>   0.0800 
 37 H       -3.4250     5.0470     2.0420 H     1 <1>   0.0800 
 38 H       -3.7350     4.3260    -3.7660 H     1 <1>   0.1500 
 39 H        1.0070     6.9020    -1.6390 H     1 <1>   0.3700 
 40 H       -5.5030     5.7540    -2.8260 H     1 <1>   0.1500 
 41 H        0.9270     9.1920    -1.3740 H     1 <1>   0.0800 
 42 H       -0.2160     9.0130    -0.0580 H     1 <1>   0.0800 
 43 H        2.7750     8.5710     0.1670 H     1 <1>   0.0800 
 44 H        1.6210     8.4160     1.4800 H     1 <1>   0.0800 
 45 H        1.2050    10.5200     2.8040 H     1 <1>   0.1500 
 46 H        2.6650    13.2870    -0.0600 H     1 <1>   0.1500 
 47 H        1.7170    13.1550     2.3930 H     1 <1>   0.1500 
@<TRIPOS>BOND
  1   1   2  2   
  2   2   3  am  
  3   2   4  1   
  4   3   5  1   
  5   3   6  1   
  6   4   7  1   
  7   4  26  1   
  8   4  27  1   
  9   5   8  1   
 10   5   9  1   
 11   5  28  1   
 12   6  29  1   
 13   6  30  1   
 14   6  31  1   
 15   7   9  1   
 16   8  10  ar  
 17   8  11  ar  
 18   9  12  1   
 19   9  32  1   
 20  10  13  ar  
 21  10  14  1   
 22  11  15  ar  
 23  11  33  1   
 24  12  16  2   
 25  12  17  am  
 26  13  18  ar  
 27  13  34  1   
 28  14  35  1   
 29  14  36  1   
 30  14  37  1   
 31  15  18  ar  
 32  15  38  1   
 33  17  19  1   
 34  17  39  1   
 35  18  40  1   
 36  19  20  1   
 37  19  41  1   
 38  19  42  1   
 39  20  21  1   
 40  20  43  1   
 41  20  44  1   
 42  21  22  1   
 43  21  23  1   
 44  22  24  2   
 45  23  25  2   
 46  23  45  1   
 47  24  25  1   
 48  24  46  1   
 49  25  47  1   
@<TRIPOS>SUBSTRUCTURE
  1 ****  12 GROUP 4 **** **** 0

# MOE 2024.06 (io_trps.svl 2023.06)
