@<TRIPOS>MOLECULE
NONAME
44 46 1 0 0 
SMALL
USER_CHARGES


@<TRIPOS>ATOM
  1 O       -0.4660     0.2770     1.6260 O.2   1 <1>  -0.5700 
  2 C       -1.4390     0.8560     1.1680 C.2   1 <1>   0.5440 
  3 N       -2.6720     0.2430     1.3410 N.am  1 <1>  -0.6600 
  4 C       -1.2570     2.1390     0.4860 C.ar  1 <1>   0.3960 
  5 C       -2.7970    -1.2440     1.3160 C.3   1 <1>   0.1400 
  6 C       -3.9800     0.9130     1.0560 C.3   1 <1>   0.1400 
  7 N       -2.0160     2.4490    -0.5690 N.ar  1 <1>  -0.6200 
  8 C       -0.2780     3.0100     0.9700 C.ar  1 <1>   0.1600 
  9 C       -3.4800    -1.7000     0.0110 C.3   1 <1>   0.3440 
 10 C       -4.5770     0.3710    -0.2620 C.3   1 <1>   0.2000 
 11 C       -1.7830     3.6720    -1.0490 C.ar  1 <1>   0.1390 
 12 N       -0.0050     4.2260     0.4910 N.ar  1 <1>  -0.6200 
 13 O       -4.7020    -1.0280    -0.1590 O.3   1 <1>  -0.5600 
 14 C       -3.7220    -3.2080     0.0300 C.ar  1 <1>  -0.1440 
 15 C       -5.9610     0.9700    -0.6020 C.3   1 <1>  -0.0800 
 16 O       -2.5050     4.0510    -1.9950 O.3   1 <1>  -0.8290 
 17 C       -0.7850     4.5230    -0.5210 C.ar  1 <1>   0.1600 
 18 C       -4.8750    -3.7490     0.5820 C.ar  1 <1>  -0.1500 
 19 C       -2.7660    -4.0620    -0.5020 C.ar  1 <1>  -0.1500 
 20 C       -6.5480     0.3400    -1.8760 C.3   1 <1>  -0.2400 
 21 C       -5.8790     2.4940    -0.8020 C.3   1 <1>  -0.2400 
 22 C       -5.0690    -5.1190     0.6040 C.ar  1 <1>  -0.1500 
 23 C       -2.9580    -5.4320    -0.4810 C.ar  1 <1>  -0.1500 
 24 C       -4.1100    -5.9620     0.0730 C.ar  1 <1>  -0.1500 
 25 H       -1.8290    -1.7070     1.3870 H     1 <1>   0.0800 
 26 H       -3.3820    -1.5680     2.1580 H     1 <1>   0.0800 
 27 H       -4.6630     0.7120     1.8600 H     1 <1>   0.0800 
 28 H       -3.8540     1.9790     1.0030 H     1 <1>   0.0800 
 29 H        0.3130     2.6840     1.8060 H     1 <1>   0.1500 
 30 H       -2.8510    -1.4510    -0.8270 H     1 <1>   0.0800 
 31 H       -3.9020     0.5920    -1.0730 H     1 <1>   0.0800 
 32 H       -6.6290     0.7710     0.2180 H     1 <1>   0.0800 
 33 H       -0.6830     5.4760    -1.0030 H     1 <1>   0.1500 
 34 H       -5.6280    -3.0970     0.9930 H     1 <1>   0.1500 
 35 H       -1.8660    -3.6620    -0.9350 H     1 <1>   0.1500 
 36 H       -5.8900     0.5090    -2.7110 H     1 <1>   0.0800 
 37 H       -7.5080     0.7680    -2.1010 H     1 <1>   0.0800 
 38 H       -6.6740    -0.7210    -1.7500 H     1 <1>   0.0800 
 39 H       -5.1260     2.7380    -1.5360 H     1 <1>   0.0800 
 40 H       -5.6210     2.9950     0.1130 H     1 <1>   0.0800 
 41 H       -6.8220     2.8860    -1.1380 H     1 <1>   0.0800 
 42 H       -5.9680    -5.5260     1.0330 H     1 <1>   0.1500 
 43 H       -2.2110    -6.0860    -0.8960 H     1 <1>   0.1500 
 44 H       -4.2600    -7.0270     0.0890 H     1 <1>   0.1500 
@<TRIPOS>BOND
  1   1   2  2   
  2   2   3  am  
  3   2   4  1   
  4   3   5  1   
  5   3   6  1   
  6   4   7  ar  
  7   4   8  ar  
  8   5   9  1   
  9   5  25  1   
 10   5  26  1   
 11   6  10  1   
 12   6  27  1   
 13   6  28  1   
 14   7  11  ar  
 15   8  12  ar  
 16   8  29  1   
 17   9  13  1   
 18   9  14  1   
 19   9  30  1   
 20  10  13  1   
 21  10  15  1   
 22  10  31  1   
 23  11  16  1   
 24  11  17  ar  
 25  12  17  ar  
 26  14  18  ar  
 27  14  19  ar  
 28  15  20  1   
 29  15  21  1   
 30  15  32  1   
 31  17  33  1   
 32  18  22  ar  
 33  18  34  1   
 34  19  23  ar  
 35  19  35  1   
 36  20  36  1   
 37  20  37  1   
 38  20  38  1   
 39  21  39  1   
 40  21  40  1   
 41  21  41  1   
 42  22  24  ar  
 43  22  42  1   
 44  23  24  ar  
 45  23  43  1   
 46  24  44  1   
@<TRIPOS>SUBSTRUCTURE
  1 ****   3 GROUP 4 **** **** 0

# MOE 2024.06 (io_trps.svl 2023.06)
