@<TRIPOS>MOLECULE
NONAME
48 50 1 0 0 
SMALL
USER_CHARGES


@<TRIPOS>ATOM
  1 O       -1.3930     0.0990    -1.6690 O.2   1 <1>  -0.5700 
  2 C       -1.7430     0.7060    -0.6750 C.2   1 <1>   0.7160 
  3 N       -2.3070     0.0020     0.3430 N.am  1 <1>  -0.7300 
  4 C       -1.5950     2.1370    -0.5430 C.2   1 <1>  -0.0860 
  5 C       -2.5520    -1.4560     0.3540 C.3   1 <1>   0.2200 
  6 C       -1.0590     3.0410    -1.4710 C.2   1 <1>   0.1080 
  7 C       -1.9390     2.9450     0.5010 C.2   1 <1>  -0.3020 
  8 C       -4.0120    -1.7170     0.0250 C.3   1 <1>  -0.0800 
  9 C       -2.4600    -1.9760     1.7840 C.3   1 <1>   0.1200 
 10 N       -1.0720     4.2630    -1.0480 N.2   1 <1>  -0.7070 
 11 C       -0.5070     2.6900    -2.8370 C.3   1 <1>  -0.0590 
 12 N       -1.6180     4.2050     0.1750 N.pl3 1 <1>   0.3140 
 13 C       -4.6900    -1.5560     1.3910 C.3   1 <1>   0.1200 
 14 C       -4.2130    -3.1240    -0.5680 C.3   1 <1>  -0.0170 
 15 O       -3.6990    -1.7050     2.3670 O.3   1 <1>  -0.5600 
 16 C       -1.8080     5.4150     0.9980 C.3   1 <1>   0.0960 
 17 C       -5.6710    -3.3740    -0.9230 C.ar  1 <1>  -0.1430 
 18 C       -3.2380     5.9560     0.8530 C.3   1 <1>  -0.1600 
 19 C       -6.2580    -2.7880    -2.0270 C.ar  1 <1>  -0.1500 
 20 C       -6.4820    -4.1950    -0.1670 C.ar  1 <1>  -0.1500 
 21 C       -3.4480     7.2120     1.7070 C.3   1 <1>  -0.2400 
 22 C       -7.5900    -3.0410    -2.3100 C.ar  1 <1>   0.1600 
 23 C       -7.8040    -4.3820    -0.5370 C.ar  1 <1>   0.1600 
 24 N       -8.3780    -3.8220    -1.5890 N.ar  1 <1>  -0.6200 
 25 H       -2.6580     0.5060     1.1580 H     1 <1>   0.3700 
 26 H       -1.8660    -1.9580    -0.3090 H     1 <1>   0.0800 
 27 H       -2.3870     2.6890     1.4410 H     1 <1>   0.1500 
 28 H       -4.3860    -0.9920    -0.6770 H     1 <1>   0.0800 
 29 H       -1.6790    -1.5000     2.3510 H     1 <1>   0.0800 
 30 H       -2.3190    -3.0420     1.7940 H     1 <1>   0.0800 
 31 H        0.3130     2.0030    -2.7330 H     1 <1>   0.0800 
 32 H       -0.1580     3.5770    -3.3330 H     1 <1>   0.0800 
 33 H       -1.2750     2.2350    -3.4350 H     1 <1>   0.0800 
 34 H       -5.4640    -2.2830     1.5660 H     1 <1>   0.0800 
 35 H       -5.1020    -0.5670     1.4970 H     1 <1>   0.0800 
 36 H       -3.8770    -3.8740     0.1260 H     1 <1>   0.0800 
 37 H       -3.6220    -3.2210    -1.4620 H     1 <1>   0.0800 
 38 H       -1.6020     5.1660     2.0220 H     1 <1>   0.0800 
 39 H       -1.0990     6.1540     0.6740 H     1 <1>   0.0800 
 40 H       -3.4190     6.1970    -0.1810 H     1 <1>   0.0800 
 41 H       -3.9420     5.2010     1.1560 H     1 <1>   0.0800 
 42 H       -5.6920    -2.1390    -2.6700 H     1 <1>   0.1500 
 43 H       -6.1020    -4.6920     0.7070 H     1 <1>   0.1500 
 44 H       -2.7670     7.9890     1.4070 H     1 <1>   0.0800 
 45 H       -3.2900     6.9930     2.7490 H     1 <1>   0.0800 
 46 H       -4.4540     7.5750     1.5840 H     1 <1>   0.0800 
 47 H       -8.0300    -2.5750    -3.1750 H     1 <1>   0.1500 
 48 H       -8.4220    -5.0250     0.0660 H     1 <1>   0.1500 
@<TRIPOS>BOND
  1   1   2  2   
  2   2   3  am  
  3   2   4  1   
  4   3   5  1   
  5   3  25  1   
  6   4   6  1   
  7   4   7  2   
  8   5   8  1   
  9   5   9  1   
 10   5  26  1   
 11   6  10  2   
 12   6  11  1   
 13   7  12  1   
 14   7  27  1   
 15   8  13  1   
 16   8  14  1   
 17   8  28  1   
 18   9  15  1   
 19   9  29  1   
 20   9  30  1   
 21  10  12  1   
 22  11  31  1   
 23  11  32  1   
 24  11  33  1   
 25  12  16  1   
 26  13  15  1   
 27  13  34  1   
 28  13  35  1   
 29  14  17  1   
 30  14  36  1   
 31  14  37  1   
 32  16  18  1   
 33  16  38  1   
 34  16  39  1   
 35  17  19  ar  
 36  17  20  ar  
 37  18  21  1   
 38  18  40  1   
 39  18  41  1   
 40  19  22  ar  
 41  19  42  1   
 42  20  23  ar  
 43  20  43  1   
 44  21  44  1   
 45  21  45  1   
 46  21  46  1   
 47  22  24  ar  
 48  22  47  1   
 49  23  24  ar  
 50  23  48  1   
@<TRIPOS>SUBSTRUCTURE
  1 ****   3 GROUP 4 **** **** 0

# MOE 2024.06 (io_trps.svl 2023.06)
