@<TRIPOS>MOLECULE
NONAME
47 50 1 0 0 
SMALL
USER_CHARGES


@<TRIPOS>ATOM
  1 O       -0.4840     0.8290     0.5940 O.2   1 <1>  -0.5700 
  2 C       -0.3620     2.0230     0.6890 C.2   1 <1>   0.5690 
  3 N       -1.4490     2.8190     0.7910 N.am  1 <1>  -0.7300 
  4 C        1.0330     2.6570     0.6610 C.3   1 <1>   0.1810 
  5 C       -1.3750     4.2960     0.9150 C.3   1 <1>   0.3640 
  6 O        1.0460     3.9880     1.1340 O.3   1 <1>  -0.5600 
  7 C       -2.4160     4.9240    -0.0050 C.ar  1 <1>  -0.1440 
  8 C        0.0440     4.8220     0.5760 C.3   1 <1>   0.2610 
  9 C       -3.1580     6.0110     0.4380 C.ar  1 <1>   0.1600 
 10 C       -2.6420     4.4490    -1.2850 C.ar  1 <1>  -0.1500 
 11 C        0.2280     6.2700     1.0420 C.2   1 <1>   0.5690 
 12 N       -4.0820     6.6380    -0.2720 N.ar  1 <1>  -0.6200 
 13 C       -3.6010     5.0930    -2.0370 C.ar  1 <1>  -0.1500 
 14 O       -0.4340     6.6960     1.9630 O.2   1 <1>  -0.5700 
 15 N        1.1320     7.0630     0.4000 N.am  1 <1>  -0.5100 
 16 C       -4.2830     6.1650    -1.4900 C.ar  1 <1>   0.1600 
 17 C        2.4260     6.6940    -0.2600 C.3   1 <1>   0.2250 
 18 C        1.7350     8.3410     0.8910 C.3   1 <1>   0.2250 
 19 C        3.1160     7.6770     0.7150 C.3   1 <1>   0.0850 
 20 N        4.0970     8.5790     0.0800 N.pl3 1 <1>   0.4850 
 21 N        4.6290     8.3370    -1.1380 N.2   1 <1>  -0.7070 
 22 C        4.6220     9.7060     0.6200 C.2   1 <1>  -0.3320 
 23 C        5.4580     9.3090    -1.3440 C.2   1 <1>   0.1080 
 24 C        5.4990    10.2000    -0.2800 C.2   1 <1>  -0.1500 
 25 C        4.2760    10.2730     1.9890 C.3   1 <1>  -0.0600 
 26 C        6.2710     9.4230    -2.6120 C.3   1 <1>  -0.0590 
 27 H       -2.3740     2.3870     0.8310 H     1 <1>   0.3700 
 28 H        1.4090     2.6510    -0.3450 H     1 <1>   0.0800 
 29 H        1.6970     2.0830     1.2820 H     1 <1>   0.0800 
 30 H       -1.6070     4.5460     1.9360 H     1 <1>   0.0800 
 31 H        0.1710     4.8050    -0.4920 H     1 <1>   0.0800 
 32 H       -2.9830     6.3950     1.4310 H     1 <1>   0.1500 
 33 H       -2.0990     3.6110    -1.6890 H     1 <1>   0.1500 
 34 H       -3.8220     4.7680    -3.0370 H     1 <1>   0.1500 
 35 H       -5.0320     6.6600    -2.0850 H     1 <1>   0.1500 
 36 H        2.6890     5.6650    -0.0960 H     1 <1>   0.0000 
 37 H        2.4140     6.9930    -1.2930 H     1 <1>   0.0000 
 38 H        1.5370     9.1470     0.2060 H     1 <1>   0.0000 
 39 H        1.4780     8.5460     1.9140 H     1 <1>   0.0000 
 40 H        3.4920     7.2120     1.6100 H     1 <1>   0.0000 
 41 H        6.1120    11.0810    -0.2150 H     1 <1>   0.1500 
 42 H        4.8880    11.1330     2.1970 H     1 <1>   0.0800 
 43 H        4.4520     9.5380     2.7550 H     1 <1>   0.0800 
 44 H        3.2450    10.5760     2.0220 H     1 <1>   0.0800 
 45 H        6.8870    10.3030    -2.5870 H     1 <1>   0.0800 
 46 H        5.6110     9.4780    -3.4570 H     1 <1>   0.0800 
 47 H        6.8980     8.5560    -2.7140 H     1 <1>   0.0800 
@<TRIPOS>BOND
  1   1   2  2   
  2   2   3  am  
  3   2   4  1   
  4   3   5  1   
  5   3  27  1   
  6   4   6  1   
  7   4  28  1   
  8   4  29  1   
  9   5   7  1   
 10   5   8  1   
 11   5  30  1   
 12   6   8  1   
 13   7   9  ar  
 14   7  10  ar  
 15   8  11  1   
 16   8  31  1   
 17   9  12  ar  
 18   9  32  1   
 19  10  13  ar  
 20  10  33  1   
 21  11  14  2   
 22  11  15  am  
 23  12  16  ar  
 24  13  16  ar  
 25  13  34  1   
 26  15  17  1   
 27  15  18  1   
 28  16  35  1   
 29  17  19  1   
 30  17  36  1   
 31  17  37  1   
 32  18  19  1   
 33  18  38  1   
 34  18  39  1   
 35  19  20  1   
 36  19  40  1   
 37  20  21  1   
 38  20  22  1   
 39  21  23  2   
 40  22  24  2   
 41  22  25  1   
 42  23  24  1   
 43  23  26  1   
 44  24  41  1   
 45  25  42  1   
 46  25  43  1   
 47  25  44  1   
 48  26  45  1   
 49  26  46  1   
 50  26  47  1   
@<TRIPOS>SUBSTRUCTURE
  1 ****  15 GROUP 4 **** **** 0

# MOE 2024.06 (io_trps.svl 2023.06)
