@<TRIPOS>MOLECULE
F1913-1184
42 42 1 0 0 
SMALL
USER_CHARGES


@<TRIPOS>ATOM
  1 O        0.4760    -0.0980     1.6320 O.2   1 <1>  -0.5700 
  2 C        0.9750     0.1870     0.5630 C.2   1 <1>   0.7800 
  3 O        1.9470    -0.5380     0.0150 O.3   1 <1>  -0.4300 
  4 N        0.5860     1.2590    -0.1580 N.am  1 <1>  -0.7300 
  5 C        2.5400    -1.7030     0.5470 C.3   1 <1>   0.2800 
  6 C       -0.4700     2.2090     0.2160 C.3   1 <1>   0.2200 
  7 C        3.5910    -2.1230    -0.4830 C.3   1 <1>  -0.2400 
  8 C        1.4950    -2.8170     0.6830 C.3   1 <1>  -0.2400 
  9 C        3.2350    -1.3870     1.8760 C.3   1 <1>  -0.2400 
 10 C       -1.5990     2.1250    -0.8200 C.3   1 <1>  -0.1600 
 11 C        0.1300     3.6150     0.2760 C.3   1 <1>  -0.1600 
 12 C       -2.7140     3.1660    -0.5800 C.3   1 <1>   0.0000 
 13 C       -0.9660     4.6430     0.5610 C.3   1 <1>   0.2000 
 14 C       -2.1000     4.5770    -0.4680 C.3   1 <1>  -0.1600 
 15 C       -3.6860     3.1370    -1.7700 C.3   1 <1>  -0.2400 
 16 C       -3.5140     2.8200     0.6890 C.3   1 <1>  -0.2400 
 17 O       -0.4040     5.8990     0.5040 O.3   1 <1>  -0.6800 
 18 H        1.0560     1.4100    -1.0470 H     1 <1>   0.3700 
 19 H       -0.8540     1.9470     1.1880 H     1 <1>   0.0800 
 20 H        3.1240    -2.3260    -1.4300 H     1 <1>   0.0800 
 21 H        4.0990    -3.0120    -0.1570 H     1 <1>   0.0800 
 22 H        4.3200    -1.3430    -0.6100 H     1 <1>   0.0800 
 23 H        0.9800    -2.9630    -0.2490 H     1 <1>   0.0800 
 24 H        0.7790    -2.5840     1.4500 H     1 <1>   0.0800 
 25 H        1.9740    -3.7390     0.9570 H     1 <1>   0.0800 
 26 H        3.9070    -0.5560     1.7590 H     1 <1>   0.0800 
 27 H        3.8000    -2.2390     2.2070 H     1 <1>   0.0800 
 28 H        2.5180    -1.1560     2.6430 H     1 <1>   0.0800 
 29 H       -2.0200     1.1350    -0.7980 H     1 <1>   0.0800 
 30 H       -1.1790     2.2850    -1.7970 H     1 <1>   0.0800 
 31 H        0.6010     3.8420    -0.6630 H     1 <1>   0.0800 
 32 H        0.8610     3.6520     1.0640 H     1 <1>   0.0800 
 33 H       -1.3520     4.5090     1.5580 H     1 <1>   0.0800 
 34 H       -2.8640     5.2840    -0.1960 H     1 <1>   0.0800 
 35 H       -1.7090     4.8600    -1.4300 H     1 <1>   0.0800 
 36 H       -3.1750     3.3720    -2.6870 H     1 <1>   0.0800 
 37 H       -4.4750     3.8560    -1.6310 H     1 <1>   0.0800 
 38 H       -4.1300     2.1630    -1.8720 H     1 <1>   0.0800 
 39 H       -2.8980     2.8250     1.5690 H     1 <1>   0.0800 
 40 H       -3.9550     1.8420     0.6010 H     1 <1>   0.0800 
 41 H       -4.3080     3.5310     0.8380 H     1 <1>   0.0800 
 42 H       -0.0530     6.0690    -0.3890 H     1 <1>   0.4000 
@<TRIPOS>BOND
  1   1   2  2   
  2   2   3  1   
  3   2   4  am  
  4   3   5  1   
  5   4   6  1   
  6   4  18  1   
  7   5   7  1   
  8   5   8  1   
  9   5   9  1   
 10   6  10  1   
 11   6  11  1   
 12   6  19  1   
 13   7  20  1   
 14   7  21  1   
 15   7  22  1   
 16   8  23  1   
 17   8  24  1   
 18   8  25  1   
 19   9  26  1   
 20   9  27  1   
 21   9  28  1   
 22  10  12  1   
 23  10  29  1   
 24  10  30  1   
 25  11  13  1   
 26  11  31  1   
 27  11  32  1   
 28  12  14  1   
 29  12  15  1   
 30  12  16  1   
 31  13  14  1   
 32  13  17  1   
 33  13  33  1   
 34  14  34  1   
 35  14  35  1   
 36  15  36  1   
 37  15  37  1   
 38  15  38  1   
 39  16  39  1   
 40  16  40  1   
 41  16  41  1   
 42  17  42  1   
@<TRIPOS>SUBSTRUCTURE
  1 ****   4 GROUP 4 **** **** 0

# MOE 2024.06 (io_trps.svl 2023.06)
