@<TRIPOS>MOLECULE
NONAME
64 67 1 0 0 
SMALL
USER_CHARGES


@<TRIPOS>ATOM
  1 O        1.0370     1.0780     1.2190 O.3   1 <1>  -0.6800 
  2 C        2.0050     2.0700     1.2640 C.3   1 <1>   0.2000 
  3 C        2.1370     2.7320    -0.1190 C.3   1 <1>   0.2090 
  4 C        3.3220     1.4160     1.6930 C.3   1 <1>  -0.1600 
  5 N        3.2670     3.7210    -0.1230 N.pl3 1 <1>  -0.8380 
  6 C        4.4790     2.4260     1.6080 C.3   1 <1>  -0.1600 
  7 C        3.1720     5.0140    -0.5360 C.ar  1 <1>   0.4100 
  8 C        4.5760     3.0820     0.2250 C.3   1 <1>   0.2090 
  9 N        4.2470     5.5750    -1.0580 N.ar  1 <1>  -0.6200 
 10 C        1.9690     5.7360    -0.4120 C.ar  1 <1>  -0.1500 
 11 C        4.1760     6.8220    -1.4950 C.ar  1 <1>   0.7710 
 12 C        1.9130     7.0090    -0.8660 C.ar  1 <1>   0.2110 
 13 N        3.0370     7.5340    -1.4130 N.ar  1 <1>  -0.1790 
 14 N        5.2910     7.3870    -2.0400 N.pl3 1 <1>  -0.8380 
 15 C        5.5530     8.8470    -2.2630 C.3   1 <1>   0.2090 
 16 C        6.4000     6.4840    -2.5150 C.3   1 <1>   0.1290 
 17 C        6.1110     9.5340    -0.9940 C.3   1 <1>  -0.0800 
 18 C        6.3930    11.0220    -1.2810 C.3   1 <1>  -0.1600 
 19 C        7.3950     8.8670    -0.4590 C.3   1 <1>  -0.1600 
 20 C        7.0240    11.7470    -0.0880 C.3   1 <1>   0.3430 
 21 C        8.0130     9.6260     0.7180 C.3   1 <1>   0.3430 
 22 N        8.2680    11.0390     0.3300 N.4   1 <1>  -0.9590 
 23 C        8.9800    11.7790     1.4110 C.3   1 <1>   0.4860 
 24 C        9.4220    13.1200     0.8620 C.ar  1 <1>  -0.1430 
 25 C       10.4930    13.1990    -0.0180 C.ar  1 <1>  -0.1500 
 26 C        8.7560    14.2800     1.2320 C.ar  1 <1>  -0.1500 
 27 C       10.8800    14.4230    -0.5350 C.ar  1 <1>  -0.1500 
 28 C        9.1450    15.5030     0.7140 C.ar  1 <1>  -0.1500 
 29 C       10.2050    15.5740    -0.1710 C.ar  1 <1>  -0.1500 
 30 H        0.1400     1.4610     1.1910 H     1 <1>   0.4000 
 31 H        1.7000     2.8000     1.9940 H     1 <1>   0.0800 
 32 H        1.2100     3.1970    -0.3930 H     1 <1>   0.0800 
 33 H        2.3530     1.9680    -0.8470 H     1 <1>   0.0800 
 34 H        3.5340     0.5840     1.0430 H     1 <1>   0.0800 
 35 H        3.2330     1.0510     2.7010 H     1 <1>   0.0800 
 36 H        5.4060     1.9260     1.8260 H     1 <1>   0.0800 
 37 H        4.3430     3.1970     2.3460 H     1 <1>   0.0800 
 38 H        5.3710     3.8070     0.2390 H     1 <1>   0.0800 
 39 H        4.8150     2.3390    -0.5180 H     1 <1>   0.0800 
 40 H        1.1190     5.2720     0.0500 H     1 <1>   0.1500 
 41 H        1.0200     7.6120    -0.8090 H     1 <1>   0.1500 
 42 H        3.0570     8.4570    -1.8260 H     1 <1>   0.4570 
 43 H        4.6510     9.3420    -2.5760 H     1 <1>   0.0800 
 44 H        6.2580     8.9650    -3.0710 H     1 <1>   0.0800 
 45 H        5.9890     5.6100    -2.9930 H     1 <1>   0.0800 
 46 H        6.9970     6.1590    -1.6800 H     1 <1>   0.0800 
 47 H        7.0350     6.9800    -3.2280 H     1 <1>   0.0800 
 48 H        5.3580     9.4810    -0.2260 H     1 <1>   0.0800 
 49 H        5.4750    11.5250    -1.5340 H     1 <1>   0.0800 
 50 H        7.0520    11.1200    -2.1270 H     1 <1>   0.0800 
 51 H        8.1260     8.7810    -1.2440 H     1 <1>   0.0800 
 52 H        7.1680     7.8720    -0.1190 H     1 <1>   0.0800 
 53 H        6.3260    11.7740     0.7330 H     1 <1>   0.0800 
 54 H        7.2540    12.7630    -0.3700 H     1 <1>   0.0800 
 55 H        8.9360     9.1480     1.0070 H     1 <1>   0.0800 
 56 H        7.3390     9.5950     1.5600 H     1 <1>   0.0800 
 57 H        8.9030    11.0520    -0.4780 H     1 <1>   0.4500 
 58 H        9.8470    11.2260     1.7330 H     1 <1>   0.0800 
 59 H        8.3310    11.9220     2.2600 H     1 <1>   0.0800 
 60 H       11.0420    12.3200    -0.3110 H     1 <1>   0.1500 
 61 H        7.9320    14.2530     1.9260 H     1 <1>   0.1500 
 62 H       11.7110    14.4860    -1.2180 H     1 <1>   0.1500 
 63 H        8.6290    16.4040     1.0010 H     1 <1>   0.1500 
 64 H       10.5090    16.5260    -0.5730 H     1 <1>   0.1500 
@<TRIPOS>BOND
  1   1   2  1   
  2   1  30  1   
  3   2   3  1   
  4   2   4  1   
  5   2  31  1   
  6   3   5  1   
  7   3  32  1   
  8   3  33  1   
  9   4   6  1   
 10   4  34  1   
 11   4  35  1   
 12   5   7  1   
 13   5   8  1   
 14   6   8  1   
 15   6  36  1   
 16   6  37  1   
 17   7   9  ar  
 18   7  10  ar  
 19   8  38  1   
 20   8  39  1   
 21   9  11  ar  
 22  10  12  ar  
 23  10  40  1   
 24  11  13  ar  
 25  11  14  1   
 26  12  13  ar  
 27  12  41  1   
 28  13  42  1   
 29  14  15  1   
 30  14  16  1   
 31  15  17  1   
 32  15  43  1   
 33  15  44  1   
 34  16  45  1   
 35  16  46  1   
 36  16  47  1   
 37  17  18  1   
 38  17  19  1   
 39  17  48  1   
 40  18  20  1   
 41  18  49  1   
 42  18  50  1   
 43  19  21  1   
 44  19  51  1   
 45  19  52  1   
 46  20  22  1   
 47  20  53  1   
 48  20  54  1   
 49  21  22  1   
 50  21  55  1   
 51  21  56  1   
 52  22  23  1   
 53  22  57  1   
 54  23  24  1   
 55  23  58  1   
 56  23  59  1   
 57  24  25  ar  
 58  24  26  ar  
 59  25  27  ar  
 60  25  60  1   
 61  26  28  ar  
 62  26  61  1   
 63  27  29  ar  
 64  27  62  1   
 65  28  29  ar  
 66  28  63  1   
 67  29  64  1   
@<TRIPOS>SUBSTRUCTURE
  1 ****  17 GROUP 4 **** **** 0

# MOE 2024.06 (io_trps.svl 2023.06)
