@<TRIPOS>MOLECULE
NONAME
61 64 1 0 0 
SMALL
USER_CHARGES


@<TRIPOS>ATOM
  1 O        0.1920    -1.0850    -1.2430 O.3   1 <1>  -0.6800 
  2 C        0.2570    -1.9440    -0.1590 C.3   1 <1>   0.1200 
  3 C        1.6960    -2.0680     0.4230 C.3   1 <1>   0.0000 
  4 C        2.8180    -2.2790    -0.6400 C.3   1 <1>   0.4230 
  5 C        2.0210    -0.7990     1.2630 C.3   1 <1>  -0.1600 
  6 C        1.7120    -3.2970     1.3790 C.3   1 <1>  -0.1600 
  7 N        2.6150    -3.5180    -1.5060 N.4   1 <1>  -0.9590 
  8 C        3.2060    -0.9970    -1.4190 C.3   1 <1>   0.2090 
  9 C        2.3670     0.4440     0.4320 C.3   1 <1>   0.2090 
 10 C        2.2360    -4.5930     0.7210 C.3   1 <1>  -0.1600 
 11 C        1.9600    -4.6550    -0.7830 C.3   1 <1>   0.3430 
 12 C        1.8840    -3.2480    -2.7870 C.3   1 <1>   0.2630 
 13 N        3.4990     0.1150    -0.4730 N.pl3 1 <1>  -0.8380 
 14 C        4.7720     0.4330    -0.1450 C.ar  1 <1>   0.4100 
 15 N        5.5140    -0.5610     0.3030 N.ar  1 <1>  -0.6200 
 16 C        5.2620     1.7550    -0.2780 C.ar  1 <1>  -0.1440 
 17 C        6.7530    -0.2800     0.6830 C.ar  1 <1>   0.7710 
 18 C        6.5430     2.0000     0.1050 C.ar  1 <1>   0.2170 
 19 C        4.3850     2.8610    -0.8740 C.3   1 <1>  -0.0170 
 20 N        7.2570     0.9620     0.5960 N.ar  1 <1>  -0.1790 
 21 N        7.5430    -1.2720     1.1830 N.pl3 1 <1>  -0.8380 
 22 C        7.2170     3.3650     0.0110 C.3   1 <1>  -0.0170 
 23 C        4.9480     4.2660    -0.6230 C.3   1 <1>  -0.1600 
 24 C        6.9890    -2.6180     1.5420 C.3   1 <1>   0.1290 
 25 C        9.0220    -1.2020     1.4170 C.3   1 <1>   0.1290 
 26 C        6.4510     4.3210    -0.9140 C.3   1 <1>  -0.1600 
 27 H       -0.7330    -0.7960    -1.4030 H     1 <1>   0.4000 
 28 H       -0.4150    -1.5720     0.5960 H     1 <1>   0.0800 
 29 H       -0.1150    -2.8980    -0.4880 H     1 <1>   0.0800 
 30 H        3.6960    -2.4810    -0.0500 H     1 <1>   0.0800 
 31 H        2.8720    -0.9850     1.8960 H     1 <1>   0.0800 
 32 H        1.1970    -0.5630     1.9130 H     1 <1>   0.0800 
 33 H        2.3360    -3.1070     2.2370 H     1 <1>   0.0800 
 34 H        0.7220    -3.4690     1.7680 H     1 <1>   0.0800 
 35 H        3.5620    -3.8320    -1.7560 H     1 <1>   0.4500 
 36 H        2.4220    -0.6820    -2.0820 H     1 <1>   0.0800 
 37 H        4.0850    -1.1930    -2.0070 H     1 <1>   0.0800 
 38 H        2.6480     1.2450     1.0950 H     1 <1>   0.0800 
 39 H        1.5210     0.7720    -0.1470 H     1 <1>   0.0800 
 40 H        1.7770    -5.4410     1.2000 H     1 <1>   0.0800 
 41 H        3.2970    -4.6810     0.8810 H     1 <1>   0.0800 
 42 H        0.8940    -4.6140    -0.9350 H     1 <1>   0.0800 
 43 H        2.3130    -5.5940    -1.1810 H     1 <1>   0.0800 
 44 H        0.8870    -2.8930    -2.5840 H     1 <1>   0.0800 
 45 H        1.8130    -4.1490    -3.3750 H     1 <1>   0.0800 
 46 H        2.3990    -2.5030    -3.3700 H     1 <1>   0.0800 
 47 H        4.3030     2.6940    -1.9340 H     1 <1>   0.0800 
 48 H        3.3910     2.8220    -0.4670 H     1 <1>   0.0800 
 49 H        8.2000     1.0710     0.9410 H     1 <1>   0.4570 
 50 H        7.2650     3.7950     0.9970 H     1 <1>   0.0800 
 51 H        8.2220     3.2630    -0.3600 H     1 <1>   0.0800 
 52 H        4.4300     4.9740    -1.2480 H     1 <1>   0.0800 
 53 H        4.7700     4.5460     0.4020 H     1 <1>   0.0800 
 54 H        7.4160    -2.9580     2.4710 H     1 <1>   0.0800 
 55 H        7.2300    -3.3290     0.7700 H     1 <1>   0.0800 
 56 H        5.9210    -2.5870     1.6650 H     1 <1>   0.0800 
 57 H        9.4820    -2.1330     1.1270 H     1 <1>   0.0800 
 58 H        9.2220    -1.0380     2.4630 H     1 <1>   0.0800 
 59 H        9.4830    -0.4210     0.8370 H     1 <1>   0.0800 
 60 H        6.8130     5.3260    -0.7780 H     1 <1>   0.0800 
 61 H        6.6220     4.0470    -1.9420 H     1 <1>   0.0800 
@<TRIPOS>BOND
  1   1   2  1   
  2   1  27  1   
  3   2   3  1   
  4   2  28  1   
  5   2  29  1   
  6   3   4  1   
  7   3   5  1   
  8   3   6  1   
  9   4   7  1   
 10   4   8  1   
 11   4  30  1   
 12   5   9  1   
 13   5  31  1   
 14   5  32  1   
 15   6  10  1   
 16   6  33  1   
 17   6  34  1   
 18   7  11  1   
 19   7  12  1   
 20   7  35  1   
 21   8  13  1   
 22   8  36  1   
 23   8  37  1   
 24   9  13  1   
 25   9  38  1   
 26   9  39  1   
 27  10  11  1   
 28  10  40  1   
 29  10  41  1   
 30  11  42  1   
 31  11  43  1   
 32  12  44  1   
 33  12  45  1   
 34  12  46  1   
 35  13  14  1   
 36  14  15  ar  
 37  14  16  ar  
 38  15  17  ar  
 39  16  18  ar  
 40  16  19  1   
 41  17  20  ar  
 42  17  21  1   
 43  18  20  ar  
 44  18  22  1   
 45  19  23  1   
 46  19  47  1   
 47  19  48  1   
 48  20  49  1   
 49  21  24  1   
 50  21  25  1   
 51  22  26  1   
 52  22  50  1   
 53  22  51  1   
 54  23  26  1   
 55  23  52  1   
 56  23  53  1   
 57  24  54  1   
 58  24  55  1   
 59  24  56  1   
 60  25  57  1   
 61  25  58  1   
 62  25  59  1   
 63  26  60  1   
 64  26  61  1   
@<TRIPOS>SUBSTRUCTURE
  1 ****  13 GROUP 4 **** **** 0

# MOE 2024.06 (io_trps.svl 2023.06)
