@<TRIPOS>MOLECULE
NONAME
59 63 1 0 0 
SMALL
USER_CHARGES


@<TRIPOS>ATOM
  1 N        0.7760    -0.5640     0.9330 N.ar  1 <1>  -0.6200 
  2 C       -0.5230    -0.5640     1.2120 C.ar  1 <1>   0.4760 
  3 C        1.1300     0.3300     0.0400 C.ar  1 <1>   0.1660 
  4 N       -1.4620     0.2280     0.7130 N.ar  1 <1>  -0.6200 
  5 C       -0.9940    -1.5800     2.2250 C.3   1 <1>  -0.0960 
  6 C        0.2580     1.1990    -0.5410 C.ar  1 <1>  -0.1440 
  7 C        2.5420     0.5340    -0.4520 C.3   1 <1>   0.1430 
  8 C       -1.0610     1.1160    -0.1740 C.ar  1 <1>   0.1600 
  9 C        0.9550     2.1200    -1.5120 C.3   1 <1>  -0.0160 
 10 C        3.4800     0.5620     0.7680 C.3   1 <1>   0.3430 
 11 C        2.9430    -0.6090    -1.4080 C.3   1 <1>  -0.1600 
 12 C        2.4460     1.9000    -1.1840 C.3   1 <1>  -0.1600 
 13 N        4.9270     0.6290     0.3720 N.4   1 <1>  -0.9590 
 14 C        4.4450    -0.5790    -1.7410 C.3   1 <1>  -0.1600 
 15 C        5.3160    -0.5370    -0.4830 C.3   1 <1>   0.3430 
 16 C        5.8020     0.7500     1.5700 C.3   1 <1>   0.4860 
 17 C        7.1980     1.1010     1.0990 C.ar  1 <1>  -0.1440 
 18 C        8.1290     0.0940     0.9040 C.ar  1 <1>  -0.1500 
 19 C        7.5530     2.4150     0.8340 C.ar  1 <1>  -0.1500 
 20 C        9.3970     0.3700     0.4080 C.ar  1 <1>  -0.0230 
 21 C        8.8180     2.7080     0.3540 C.ar  1 <1>  -0.1500 
 22 N       10.2970    -0.7040     0.1620 N.pl3 1 <1>   0.5930 
 23 C        9.7300     1.6920     0.1330 C.ar  1 <1>  -0.1500 
 24 N        9.9010    -1.8010    -0.5330 N.2   1 <1>  -0.7070 
 25 C       11.5770    -0.8700     0.6020 C.2   1 <1>  -0.3320 
 26 C       10.9190    -2.5980    -0.5360 C.2   1 <1>   0.1080 
 27 C       11.9990    -2.0720     0.1610 C.2   1 <1>  -0.1500 
 28 C       12.3490     0.1280     1.4510 C.3   1 <1>  -0.0600 
 29 C       10.9000    -3.9430    -1.2240 C.3   1 <1>  -0.0590 
 30 H       -0.2570    -2.3490     2.3610 H     1 <1>   0.0800 
 31 H       -1.9080    -2.0310     1.8850 H     1 <1>   0.0800 
 32 H       -1.1730    -1.0900     3.1630 H     1 <1>   0.0800 
 33 H       -1.7960     1.7770    -0.6030 H     1 <1>   0.1500 
 34 H        0.6600     3.1460    -1.3710 H     1 <1>   0.0800 
 35 H        0.7340     1.8130    -2.5200 H     1 <1>   0.0800 
 36 H        3.3070    -0.3330     1.3440 H     1 <1>   0.0800 
 37 H        3.2210     1.4060     1.3860 H     1 <1>   0.0800 
 38 H        2.3610    -0.5560    -2.3130 H     1 <1>   0.0800 
 39 H        2.7120    -1.5510    -0.9390 H     1 <1>   0.0800 
 40 H        3.0460     1.9470    -2.0750 H     1 <1>   0.0800 
 41 H        2.7560     2.6900    -0.5220 H     1 <1>   0.0800 
 42 H        5.0860     1.4730    -0.1900 H     1 <1>   0.4500 
 43 H        4.6790     0.2670    -2.3630 H     1 <1>   0.0800 
 44 H        4.6970    -1.4610    -2.3050 H     1 <1>   0.0800 
 45 H        5.1900    -1.4540     0.0700 H     1 <1>   0.0800 
 46 H        6.3520    -0.4580    -0.7750 H     1 <1>   0.0800 
 47 H        5.8170    -0.1760     2.1210 H     1 <1>   0.0800 
 48 H        5.4400     1.5300     2.2200 H     1 <1>   0.0800 
 49 H        7.8840    -0.9350     1.1170 H     1 <1>   0.1500 
 50 H        6.8590     3.2230     0.9940 H     1 <1>   0.1500 
 51 H        9.0950     3.7280     0.1450 H     1 <1>   0.1500 
 52 H       10.7030     1.9280    -0.2650 H     1 <1>   0.1500 
 53 H       12.9520    -2.5510     0.3050 H     1 <1>   0.1500 
 54 H       11.7790     0.3980     2.3230 H     1 <1>   0.0800 
 55 H       12.5670     1.0160     0.8860 H     1 <1>   0.0800 
 56 H       13.2790    -0.3040     1.7740 H     1 <1>   0.0800 
 57 H       10.1520    -4.5680    -0.7730 H     1 <1>   0.0800 
 58 H       11.8570    -4.4220    -1.1400 H     1 <1>   0.0800 
 59 H       10.6630    -3.8100    -2.2640 H     1 <1>   0.0800 
@<TRIPOS>BOND
  1   1   2  ar  
  2   1   3  ar  
  3   2   4  ar  
  4   2   5  1   
  5   3   6  ar  
  6   3   7  1   
  7   4   8  ar  
  8   5  30  1   
  9   5  31  1   
 10   5  32  1   
 11   6   8  ar  
 12   6   9  1   
 13   7  10  1   
 14   7  11  1   
 15   7  12  1   
 16   8  33  1   
 17   9  12  1   
 18   9  34  1   
 19   9  35  1   
 20  10  13  1   
 21  10  36  1   
 22  10  37  1   
 23  11  14  1   
 24  11  38  1   
 25  11  39  1   
 26  12  40  1   
 27  12  41  1   
 28  13  15  1   
 29  13  16  1   
 30  13  42  1   
 31  14  15  1   
 32  14  43  1   
 33  14  44  1   
 34  15  45  1   
 35  15  46  1   
 36  16  17  1   
 37  16  47  1   
 38  16  48  1   
 39  17  18  ar  
 40  17  19  ar  
 41  18  20  ar  
 42  18  49  1   
 43  19  21  ar  
 44  19  50  1   
 45  20  22  1   
 46  20  23  ar  
 47  21  23  ar  
 48  21  51  1   
 49  22  24  1   
 50  22  25  1   
 51  23  52  1   
 52  24  26  2   
 53  25  27  2   
 54  25  28  1   
 55  26  27  1   
 56  26  29  1   
 57  27  53  1   
 58  28  54  1   
 59  28  55  1   
 60  28  56  1   
 61  29  57  1   
 62  29  58  1   
 63  29  59  1   
@<TRIPOS>SUBSTRUCTURE
  1 ****  13 GROUP 4 **** **** 0

# MOE 2024.06 (io_trps.svl 2023.06)
