@<TRIPOS>MOLECULE
NONAME
50 52 1 0 0 
SMALL
USER_CHARGES


@<TRIPOS>ATOM
  1 S       -0.5900    -2.6230    -1.9150 S.o2  1 <1>   1.0900 
  2 O       -1.6780    -1.9310    -2.5660 O.2   1 <1>  -0.6500 
  3 O        0.0580    -3.7320    -2.5750 O.2   1 <1>  -0.6500 
  4 C       -1.1670    -3.2040    -0.3250 C.3   1 <1>  -0.0550 
  5 C        0.6640    -1.4230    -1.5090 C.3   1 <1>  -0.1350 
  6 C       -1.9190    -2.1500     0.5020 C.3   1 <1>  -0.0990 
  7 C       -2.4960    -2.8290     1.7250 C.2   1 <1>   0.5690 
  8 O       -1.7950    -2.8350     2.7090 O.2   1 <1>  -0.5700 
  9 N       -3.7000    -3.4840     1.6780 N.am  1 <1>  -0.6600 
 10 C       -3.9870    -4.5960     2.6210 C.3   1 <1>   0.1400 
 11 C       -4.7580    -3.3400     0.6390 C.3   1 <1>   0.1400 
 12 C       -3.9800    -5.9050     1.8250 C.3   1 <1>  -0.1600 
 13 C       -4.8140    -4.6130    -0.2080 C.3   1 <1>  -0.1600 
 14 C       -4.9830    -5.8820     0.6550 C.3   1 <1>   0.4240 
 15 O       -6.2330    -5.7570     1.2980 O.3   1 <1>  -0.5600 
 16 C       -4.8850    -7.1850    -0.1880 C.ar  1 <1>  -0.1430 
 17 C       -7.3650    -6.1910     0.6170 C.3   1 <1>   0.1200 
 18 C       -3.7230    -7.5340    -0.8920 C.ar  1 <1>   0.0830 
 19 C       -5.9810    -8.0440    -0.2630 C.ar  1 <1>  -0.1430 
 20 C       -7.2700    -7.7000     0.4540 C.3   1 <1>  -0.0170 
 21 O       -2.6450    -6.7030    -0.8520 O.3   1 <1>  -0.3630 
 22 C       -3.6790    -8.7190    -1.6250 C.ar  1 <1>  -0.1500 
 23 C       -5.9240    -9.2180    -0.9950 C.ar  1 <1>  -0.1500 
 24 C       -1.5570    -6.8350    -1.7460 C.3   1 <1>   0.0400 
 25 C       -4.7730    -9.5570    -1.6750 C.ar  1 <1>  -0.1500 
 26 H       -0.3400    -3.5760     0.2510 H     1 <1>   0.0800 
 27 H       -1.8260    -4.0340    -0.4900 H     1 <1>   0.0800 
 28 H        1.1010    -1.0350    -2.4090 H     1 <1>   0.0800 
 29 H        1.4420    -1.8730    -0.9230 H     1 <1>   0.0800 
 30 H        0.2440    -0.6030    -0.9600 H     1 <1>   0.0800 
 31 H       -2.6850    -1.6790    -0.0810 H     1 <1>   0.0800 
 32 H       -1.2400    -1.3830     0.8240 H     1 <1>   0.0800 
 33 H       -4.9480    -4.4390     3.0810 H     1 <1>   0.0800 
 34 H       -3.2460    -4.6400     3.4000 H     1 <1>   0.0800 
 35 H       -4.5900    -2.4850     0.0130 H     1 <1>   0.0800 
 36 H       -5.7060    -3.1970     1.1320 H     1 <1>   0.0800 
 37 H       -4.2210    -6.7260     2.4740 H     1 <1>   0.0800 
 38 H       -2.9820    -6.0660     1.4710 H     1 <1>   0.0800 
 39 H       -3.9150    -4.6630    -0.7830 H     1 <1>   0.0800 
 40 H       -5.6170    -4.5440    -0.9160 H     1 <1>   0.0800 
 41 H       -7.4220    -5.6980    -0.3370 H     1 <1>   0.0800 
 42 H       -8.2260    -5.9280     1.2060 H     1 <1>   0.0800 
 43 H       -8.1170    -8.0470    -0.1100 H     1 <1>   0.0800 
 44 H       -7.2880    -8.1700     1.4210 H     1 <1>   0.0800 
 45 H       -2.7990    -9.0120    -2.1630 H     1 <1>   0.1500 
 46 H       -6.7760    -9.8750    -1.0380 H     1 <1>   0.1500 
 47 H       -0.8880    -6.0090    -1.5890 H     1 <1>   0.0800 
 48 H       -1.9280    -6.8140    -2.7550 H     1 <1>   0.0800 
 49 H       -1.0440    -7.7570    -1.5400 H     1 <1>   0.0800 
 50 H       -4.7300   -10.4720    -2.2410 H     1 <1>   0.1500 
@<TRIPOS>BOND
  1   1   2  2   
  2   1   3  2   
  3   1   4  1   
  4   1   5  1   
  5   4   6  1   
  6   4  26  1   
  7   4  27  1   
  8   5  28  1   
  9   5  29  1   
 10   5  30  1   
 11   6   7  1   
 12   6  31  1   
 13   6  32  1   
 14   7   8  2   
 15   7   9  am  
 16   9  10  1   
 17   9  11  1   
 18  10  12  1   
 19  10  33  1   
 20  10  34  1   
 21  11  13  1   
 22  11  35  1   
 23  11  36  1   
 24  12  14  1   
 25  12  37  1   
 26  12  38  1   
 27  13  14  1   
 28  13  39  1   
 29  13  40  1   
 30  14  15  1   
 31  14  16  1   
 32  15  17  1   
 33  16  18  ar  
 34  16  19  ar  
 35  17  20  1   
 36  17  41  1   
 37  17  42  1   
 38  18  21  1   
 39  18  22  ar  
 40  19  20  1   
 41  19  23  ar  
 42  20  43  1   
 43  20  44  1   
 44  21  24  1   
 45  22  25  ar  
 46  22  45  1   
 47  23  25  ar  
 48  23  46  1   
 49  24  47  1   
 50  24  48  1   
 51  24  49  1   
 52  25  50  1   
@<TRIPOS>SUBSTRUCTURE
  1 ****  13 GROUP 4 **** **** 0

# MOE 2024.06 (io_trps.svl 2023.06)
