@<TRIPOS>MOLECULE
NONAME
53 54 1 0 0 
SMALL
USER_CHARGES


@<TRIPOS>ATOM
  1 O       -2.6410     0.3310    -1.3520 O.2   1 <1>  -0.5700 
  2 C       -2.2370     0.6670    -0.2650 C.2   1 <1>   0.5690 
  3 N       -2.0280    -0.2390     0.7250 N.am  1 <1>  -0.7300 
  4 C       -1.9500     2.1410     0.0230 C.3   1 <1>  -0.0190 
  5 C       -2.2020    -1.7070     0.5710 C.3   1 <1>   0.1400 
  6 C       -2.9200     3.0910    -0.7090 C.3   1 <1>  -0.1600 
  7 C       -0.4820     2.4930    -0.3140 C.3   1 <1>  -0.1600 
  8 C       -3.6830    -2.0680     0.4500 C.3   1 <1>   0.1200 
  9 C       -2.7160     4.5650    -0.2970 C.3   1 <1>   0.2000 
 10 C       -0.2350     4.0020    -0.5180 C.3   1 <1>  -0.1600 
 11 O       -3.8100    -3.4690     0.5510 O.3   1 <1>  -0.3620 
 12 O       -2.9800     5.3800    -1.4120 O.3   1 <1>  -0.5600 
 13 C       -1.2780     4.8510     0.2120 C.3   1 <1>   0.2000 
 14 C       -5.0260    -4.0670     0.4820 C.ar  1 <1>   0.0820 
 15 C       -4.3290     5.5770    -1.7010 C.3   1 <1>   0.0400 
 16 O       -0.9760     6.1800    -0.0020 O.3   1 <1>  -0.6800 
 17 C       -6.2140    -3.3830     0.2400 C.ar  1 <1>  -0.1500 
 18 C       -5.0590    -5.4400     0.6650 C.ar  1 <1>  -0.1500 
 19 C       -7.4130    -4.0740     0.1900 C.ar  1 <1>  -0.1500 
 20 C       -6.2590    -6.1270     0.6130 C.ar  1 <1>  -0.1500 
 21 C       -7.4440    -5.4470     0.3770 C.ar  1 <1>  -0.1440 
 22 C       -8.7630    -6.2010     0.3170 C.3   1 <1>  -0.0170 
 23 C       -9.0630    -6.6440    -1.1190 C.3   1 <1>  -0.1600 
 24 C      -10.3910    -7.4030    -1.2090 C.3   1 <1>  -0.2400 
 25 H       -1.6640     0.0700     1.6270 H     1 <1>   0.3700 
 26 H       -2.0970     2.2900     1.0780 H     1 <1>   0.0800 
 27 H       -1.6850    -2.0350    -0.3150 H     1 <1>   0.0800 
 28 H       -1.7800    -2.2030     1.4280 H     1 <1>   0.0800 
 29 H       -3.9340     2.7990    -0.5000 H     1 <1>   0.0800 
 30 H       -2.7540     2.9890    -1.7680 H     1 <1>   0.0800 
 31 H        0.1500     2.1300     0.4770 H     1 <1>   0.0800 
 32 H       -0.1890     1.9810    -1.2170 H     1 <1>   0.0800 
 33 H       -4.0650    -1.7570    -0.5060 H     1 <1>   0.0800 
 34 H       -4.2470    -1.6230     1.2510 H     1 <1>   0.0800 
 35 H       -3.4010     4.8280     0.4910 H     1 <1>   0.0800 
 36 H       -0.2960     4.2240    -1.5710 H     1 <1>   0.0800 
 37 H        0.7520     4.2580    -0.1760 H     1 <1>   0.0800 
 38 H       -1.2120     4.6660     1.2710 H     1 <1>   0.0800 
 39 H       -4.3960     6.2300    -2.5530 H     1 <1>   0.0800 
 40 H       -4.8120     6.0360    -0.8560 H     1 <1>   0.0800 
 41 H       -4.7900     4.6330    -1.9370 H     1 <1>   0.0800 
 42 H       -1.4680     6.4360    -0.8160 H     1 <1>   0.4000 
 43 H       -6.2280    -2.3210     0.0870 H     1 <1>   0.1500 
 44 H       -4.1400    -5.9660     0.8480 H     1 <1>   0.1500 
 45 H       -8.3260    -3.5370     0.0000 H     1 <1>   0.1500 
 46 H       -6.2660    -7.1930     0.7560 H     1 <1>   0.1500 
 47 H       -8.7150    -7.0610     0.9610 H     1 <1>   0.0800 
 48 H       -9.5550    -5.5680     0.6760 H     1 <1>   0.0800 
 49 H       -9.1020    -5.7780    -1.7580 H     1 <1>   0.0800 
 50 H       -8.2650    -7.2760    -1.4700 H     1 <1>   0.0800 
 51 H      -11.2050    -6.7790    -0.8840 H     1 <1>   0.0800 
 52 H      -10.3620    -8.2860    -0.5950 H     1 <1>   0.0800 
 53 H      -10.5740    -7.7010    -2.2270 H     1 <1>   0.0800 
@<TRIPOS>BOND
  1   1   2  2   
  2   2   3  am  
  3   2   4  1   
  4   3   5  1   
  5   3  25  1   
  6   4   6  1   
  7   4   7  1   
  8   4  26  1   
  9   5   8  1   
 10   5  27  1   
 11   5  28  1   
 12   6   9  1   
 13   6  29  1   
 14   6  30  1   
 15   7  10  1   
 16   7  31  1   
 17   7  32  1   
 18   8  11  1   
 19   8  33  1   
 20   8  34  1   
 21   9  12  1   
 22   9  13  1   
 23   9  35  1   
 24  10  13  1   
 25  10  36  1   
 26  10  37  1   
 27  11  14  1   
 28  12  15  1   
 29  13  16  1   
 30  13  38  1   
 31  14  17  ar  
 32  14  18  ar  
 33  15  39  1   
 34  15  40  1   
 35  15  41  1   
 36  16  42  1   
 37  17  19  ar  
 38  17  43  1   
 39  18  20  ar  
 40  18  44  1   
 41  19  21  ar  
 42  19  45  1   
 43  20  21  ar  
 44  20  46  1   
 45  21  22  1   
 46  22  23  1   
 47  22  47  1   
 48  22  48  1   
 49  23  24  1   
 50  23  49  1   
 51  23  50  1   
 52  24  51  1   
 53  24  52  1   
 54  24  53  1   
@<TRIPOS>SUBSTRUCTURE
  1 ****   8 GROUP 4 **** **** 0

# MOE 2024.06 (io_trps.svl 2023.06)
