@<TRIPOS>MOLECULE
NONAME
52 54 1 0 0 
SMALL
USER_CHARGES


@<TRIPOS>ATOM
  1 S       -1.0960     0.8150    -0.6740 S.o2  1 <1>   1.0900 
  2 O       -2.2300     1.6020    -0.2510 O.2   1 <1>  -0.6500 
  3 O       -0.2490     1.2810    -1.7450 O.2   1 <1>  -0.6500 
  4 C       -1.6780    -0.8270    -1.0920 C.3   1 <1>  -0.0550 
  5 C       -0.0550     0.5510     0.7500 C.3   1 <1>  -0.1350 
  6 C       -2.7260    -1.3810    -0.1050 C.3   1 <1>  -0.0990 
  7 C       -3.1810    -2.7900    -0.4530 C.2   1 <1>   0.5690 
  8 O       -2.4690    -3.4500    -1.1720 O.2   1 <1>  -0.5700 
  9 N       -4.3510    -3.2940     0.0520 N.am  1 <1>  -0.6600 
 10 C       -4.7580    -4.7090    -0.2250 C.3   1 <1>   0.1400 
 11 C       -5.3180    -2.5480     0.9070 C.3   1 <1>   0.1400 
 12 C       -5.8680    -4.8090    -1.2850 C.3   1 <1>   0.1400 
 13 C       -6.3560    -1.7890     0.0680 C.3   1 <1>  -0.1600 
 14 N       -7.0590    -3.9630    -0.9480 N.am  1 <1>  -0.6600 
 15 C       -6.8400    -2.5100    -1.1970 C.3   1 <1>   0.1400 
 16 C       -8.2600    -4.4060    -0.4360 C.2   1 <1>   0.5690 
 17 O       -9.1110    -3.6100    -0.1090 O.2   1 <1>  -0.5700 
 18 C       -8.5340    -5.9080    -0.2490 C.3   1 <1>   0.1240 
 19 C       -9.9840    -6.3220    -0.0660 C.ar  1 <1>  -0.1430 
 20 C       -7.8590    -6.4850     1.0160 C.3   1 <1>  -0.1600 
 21 C      -10.1090    -7.2740     0.9170 C.ar  1 <1>  -0.1430 
 22 C      -11.1000    -5.8800    -0.7560 C.ar  1 <1>  -0.1500 
 23 C       -8.7760    -7.6040     1.5370 C.3   1 <1>  -0.0170 
 24 C      -11.3430    -7.8100     1.2360 C.ar  1 <1>  -0.1500 
 25 C      -12.3420    -6.4100    -0.4450 C.ar  1 <1>  -0.1500 
 26 C      -12.4630    -7.3720     0.5470 C.ar  1 <1>  -0.1500 
 27 H       -0.8430    -1.5010    -1.1480 H     1 <1>   0.0800 
 28 H       -2.1250    -0.7980    -2.0680 H     1 <1>   0.0800 
 29 H        0.3740     1.4830     1.0630 H     1 <1>   0.0800 
 30 H        0.7450    -0.1240     0.5120 H     1 <1>   0.0800 
 31 H       -0.6190     0.1500     1.5680 H     1 <1>   0.0800 
 32 H       -3.5720    -0.7210    -0.1130 H     1 <1>   0.0800 
 33 H       -2.3200    -1.4010     0.8880 H     1 <1>   0.0800 
 34 H       -5.0930    -5.1670     0.6880 H     1 <1>   0.0800 
 35 H       -3.9080    -5.2760    -0.5650 H     1 <1>   0.0800 
 36 H       -4.7990    -1.8630     1.5550 H     1 <1>   0.0800 
 37 H       -5.8360    -3.2480     1.5410 H     1 <1>   0.0800 
 38 H       -6.1470    -5.8390    -1.3940 H     1 <1>   0.0800 
 39 H       -5.4660    -4.4950    -2.2340 H     1 <1>   0.0800 
 40 H       -5.9570    -0.8340    -0.2190 H     1 <1>   0.0800 
 41 H       -7.2100    -1.5890     0.6910 H     1 <1>   0.0800 
 42 H       -6.1100    -2.3880    -1.9780 H     1 <1>   0.0800 
 43 H       -7.7560    -2.0580    -1.5390 H     1 <1>   0.0800 
 44 H       -8.1880    -6.4360    -1.1160 H     1 <1>   0.0800 
 45 H       -7.8090    -5.7120     1.7630 H     1 <1>   0.0800 
 46 H       -6.8670    -6.8470     0.8160 H     1 <1>   0.0800 
 47 H      -11.0030    -5.1270    -1.5200 H     1 <1>   0.1500 
 48 H       -8.8300    -7.6030     2.6120 H     1 <1>   0.0800 
 49 H       -8.4460    -8.5660     1.1860 H     1 <1>   0.0800 
 50 H      -11.4330    -8.5540     2.0070 H     1 <1>   0.1500 
 51 H      -13.2150    -6.0700    -0.9730 H     1 <1>   0.1500 
 52 H      -13.4310    -7.7790     0.7840 H     1 <1>   0.1500 
@<TRIPOS>BOND
  1   1   2  2   
  2   1   3  2   
  3   1   4  1   
  4   1   5  1   
  5   4   6  1   
  6   4  27  1   
  7   4  28  1   
  8   5  29  1   
  9   5  30  1   
 10   5  31  1   
 11   6   7  1   
 12   6  32  1   
 13   6  33  1   
 14   7   8  2   
 15   7   9  am  
 16   9  10  1   
 17   9  11  1   
 18  10  12  1   
 19  10  34  1   
 20  10  35  1   
 21  11  13  1   
 22  11  36  1   
 23  11  37  1   
 24  12  14  1   
 25  12  38  1   
 26  12  39  1   
 27  13  15  1   
 28  13  40  1   
 29  13  41  1   
 30  14  15  1   
 31  14  16  am  
 32  15  42  1   
 33  15  43  1   
 34  16  17  2   
 35  16  18  1   
 36  18  19  1   
 37  18  20  1   
 38  18  44  1   
 39  19  21  ar  
 40  19  22  ar  
 41  20  23  1   
 42  20  45  1   
 43  20  46  1   
 44  21  23  1   
 45  21  24  ar  
 46  22  25  ar  
 47  22  47  1   
 48  23  48  1   
 49  23  49  1   
 50  24  26  ar  
 51  24  50  1   
 52  25  26  ar  
 53  25  51  1   
 54  26  52  1   
@<TRIPOS>SUBSTRUCTURE
  1 ****  14 GROUP 4 **** **** 0

# MOE 2024.06 (io_trps.svl 2023.06)
