@<TRIPOS>MOLECULE
NONAME
43 45 1 0 0 
SMALL
USER_CHARGES


@<TRIPOS>ATOM
  1 CL       0.3750     2.0480     1.0960 Cl    1 <1>  -0.1770 
  2 C       -1.2980     2.3290     0.6870 C.ar  1 <1>   0.1770 
  3 C       -1.6220     2.7980    -0.5690 C.ar  1 <1>  -0.1500 
  4 C       -2.2780     2.0770     1.6250 C.ar  1 <1>  -0.1500 
  5 C       -2.9510     3.0180    -0.8850 C.ar  1 <1>  -0.1500 
  6 C       -3.6050     2.3040     1.3020 C.ar  1 <1>  -0.1500 
  7 C       -3.9670     2.7860     0.0430 C.ar  1 <1>  -0.1430 
  8 C       -5.4340     3.0720    -0.3840 C.3   1 <1>   0.2040 
  9 C       -5.5320     4.5170    -0.9390 C.2   1 <1>   0.5690 
 10 C       -5.7830     2.0170    -1.4770 C.3   1 <1>  -0.1600 
 11 C       -6.4560     2.9840     0.7890 C.3   1 <1>  -0.1600 
 12 O       -6.3600     4.8030    -1.7730 O.2   1 <1>  -0.5700 
 13 N       -4.6820     5.4680    -0.4670 N.am  1 <1>  -0.7300 
 14 C       -7.2750     1.6520    -1.5230 C.3   1 <1>  -0.1600 
 15 C       -6.9730     1.5560     1.0300 C.3   1 <1>  -0.1600 
 16 C       -4.4690     6.7940    -1.1050 C.3   1 <1>   0.2810 
 17 C       -7.7450     1.0340    -0.1940 C.3   1 <1>  -0.1600 
 18 C       -2.9860     7.1330    -1.2240 C.2   1 <1>   0.5690 
 19 C       -4.9930     7.9010    -0.1740 C.3   1 <1>  -0.1600 
 20 O       -2.2100     6.6150    -1.9890 O.2   1 <1>  -0.5700 
 21 N       -2.6460     8.0720    -0.3240 N.am  1 <1>  -0.7300 
 22 C       -3.7640     8.5090     0.5210 C.3   1 <1>   0.1400 
 23 H       -0.8470     2.9910    -1.2890 H     1 <1>   0.1500 
 24 H       -2.0020     1.7060     2.5950 H     1 <1>   0.1500 
 25 H       -3.1860     3.3830    -1.8720 H     1 <1>   0.1500 
 26 H       -4.3380     2.0900     2.0570 H     1 <1>   0.1500 
 27 H       -5.2340     1.1110    -1.2850 H     1 <1>   0.0800 
 28 H       -5.4700     2.3760    -2.4420 H     1 <1>   0.0800 
 29 H       -7.3130     3.5910     0.5470 H     1 <1>   0.0800 
 30 H       -6.0430     3.4060     1.6870 H     1 <1>   0.0800 
 31 H       -3.9130     5.1580     0.1340 H     1 <1>   0.3700 
 32 H       -7.4610     0.9620    -2.3290 H     1 <1>   0.0800 
 33 H       -7.8450     2.5430    -1.7260 H     1 <1>   0.0800 
 34 H       -7.6140     1.5360     1.8950 H     1 <1>   0.0800 
 35 H       -6.1410     0.9010     1.2240 H     1 <1>   0.0800 
 36 H       -4.9420     6.8350    -2.0710 H     1 <1>   0.0800 
 37 H       -7.6360    -0.0370    -0.2370 H     1 <1>   0.0800 
 38 H       -8.7940     1.2440    -0.0750 H     1 <1>   0.0800 
 39 H       -5.7220     7.5400     0.5300 H     1 <1>   0.0800 
 40 H       -5.4540     8.6640    -0.7750 H     1 <1>   0.0800 
 41 H       -1.6840     8.3980    -0.2090 H     1 <1>   0.3700 
 42 H       -3.6440     8.1090     1.5140 H     1 <1>   0.0800 
 43 H       -3.8210     9.5840     0.5590 H     1 <1>   0.0800 
@<TRIPOS>BOND
  1   1   2  1   
  2   2   3  ar  
  3   2   4  ar  
  4   3   5  ar  
  5   3  23  1   
  6   4   6  ar  
  7   4  24  1   
  8   5   7  ar  
  9   5  25  1   
 10   6   7  ar  
 11   6  26  1   
 12   7   8  1   
 13   8   9  1   
 14   8  10  1   
 15   8  11  1   
 16   9  12  2   
 17   9  13  am  
 18  10  14  1   
 19  10  27  1   
 20  10  28  1   
 21  11  15  1   
 22  11  29  1   
 23  11  30  1   
 24  13  16  1   
 25  13  31  1   
 26  14  17  1   
 27  14  32  1   
 28  14  33  1   
 29  15  17  1   
 30  15  34  1   
 31  15  35  1   
 32  16  18  1   
 33  16  19  1   
 34  16  36  1   
 35  17  37  1   
 36  17  38  1   
 37  18  20  2   
 38  18  21  am  
 39  19  22  1   
 40  19  39  1   
 41  19  40  1   
 42  21  22  1   
 43  21  41  1   
 44  22  42  1   
 45  22  43  1   
@<TRIPOS>SUBSTRUCTURE
  1 ****   7 GROUP 4 **** **** 0

# MOE 2024.06 (io_trps.svl 2023.06)
