@<TRIPOS>MOLECULE
NONAME
53 55 1 0 0 
SMALL
USER_CHARGES


@<TRIPOS>ATOM
  1 CL       1.6910    -5.4830    -0.2290 Cl    1 <1>  -0.1770 
  2 C        0.2600    -4.5050     0.0190 C.ar  1 <1>   0.1770 
  3 C        0.1580    -3.2710    -0.6070 C.ar  1 <1>   0.0830 
  4 C       -0.7540    -4.9750     0.8310 C.ar  1 <1>  -0.1500 
  5 O        1.1440    -2.8130    -1.4000 O.3   1 <1>  -0.5330 
  6 C       -0.9740    -2.5000    -0.4140 C.ar  1 <1>  -0.1500 
  7 C       -1.9000    -4.2090     1.0160 C.ar  1 <1>  -0.1440 
  8 C       -1.9970    -2.9690     0.3950 C.ar  1 <1>  -0.1500 
  9 C       -3.0520    -4.7250     1.8790 C.3   1 <1>   0.0440 
 10 C       -3.3490    -6.2070     1.6800 C.2   1 <1>   0.5690 
 11 O       -3.2380    -6.9220     2.6480 O.2   1 <1>  -0.5700 
 12 N       -3.7130    -6.7050     0.4560 N.am  1 <1>  -0.6600 
 13 C       -3.7950    -8.1850     0.2230 C.3   1 <1>   0.3640 
 14 C       -4.0380    -5.8420    -0.7220 C.3   1 <1>   0.1400 
 15 C       -2.4570    -8.6720    -0.3640 C.ar  1 <1>  -0.1430 
 16 C       -5.0600    -8.5350    -0.6140 C.3   1 <1>   0.2000 
 17 C       -4.4090    -6.6430    -1.9790 C.3   1 <1>   0.1200 
 18 C       -1.3310    -8.5980     0.4480 C.ar  1 <1>  -0.1500 
 19 C       -2.3050    -9.1850    -1.6500 C.ar  1 <1>  -0.1500 
 20 O       -5.3250    -7.6670    -1.7020 O.3   1 <1>  -0.5600 
 21 C       -6.3200    -8.5330     0.2610 C.3   1 <1>   0.1200 
 22 C       -0.0830    -8.9830    -0.0070 C.ar  1 <1>   0.0830 
 23 C       -1.0590    -9.5650    -2.1200 C.ar  1 <1>  -0.1500 
 24 O       -6.3130    -9.6240     1.1250 O.3   1 <1>  -0.6800 
 25 O        0.9520    -8.8920     0.8620 O.3   1 <1>  -0.3630 
 26 C        0.0620    -9.4440    -1.3180 C.ar  1 <1>   0.0830 
 27 C        1.5050   -10.1140     1.2930 C.3   1 <1>   0.0400 
 28 O        1.2590    -9.7790    -1.8600 O.3   1 <1>  -0.3630 
 29 C        2.2160    -8.7460    -1.9550 C.3   1 <1>   0.0400 
 30 H       -0.6380    -5.9340     1.3040 H     1 <1>   0.1500 
 31 H        1.8950    -3.4370    -1.4450 H     1 <1>   0.4500 
 32 H       -1.0480    -1.5410    -0.8950 H     1 <1>   0.1500 
 33 H       -2.8720    -2.3580     0.5360 H     1 <1>   0.1500 
 34 H       -3.9500    -4.1730     1.6770 H     1 <1>   0.0800 
 35 H       -2.8010    -4.5620     2.9120 H     1 <1>   0.0800 
 36 H       -3.9020    -8.6850     1.1710 H     1 <1>   0.0800 
 37 H       -4.8610    -5.1980    -0.4690 H     1 <1>   0.0800 
 38 H       -3.1910    -5.2260    -0.9640 H     1 <1>   0.0800 
 39 H       -4.9530    -9.5210    -1.0260 H     1 <1>   0.0800 
 40 H       -3.5300    -7.0690    -2.4250 H     1 <1>   0.0800 
 41 H       -4.8610    -5.9920    -2.7060 H     1 <1>   0.0800 
 42 H       -1.4120    -8.2410     1.4590 H     1 <1>   0.1500 
 43 H       -3.1450    -9.2910    -2.3120 H     1 <1>   0.1500 
 44 H       -7.2050    -8.5990    -0.3490 H     1 <1>   0.0800 
 45 H       -6.3590    -7.6380     0.8580 H     1 <1>   0.0800 
 46 H       -0.9470    -9.9490    -3.1180 H     1 <1>   0.1500 
 47 H       -6.5220   -10.4510     0.6480 H     1 <1>   0.4000 
 48 H        2.2660    -9.9000     2.0210 H     1 <1>   0.0800 
 49 H        1.9350   -10.6270     0.4510 H     1 <1>   0.0800 
 50 H        0.7260   -10.7090     1.7350 H     1 <1>   0.0800 
 51 H        3.0330    -9.0990    -2.5570 H     1 <1>   0.0800 
 52 H        2.5690    -8.4930    -0.9720 H     1 <1>   0.0800 
 53 H        1.7590    -7.8900    -2.4180 H     1 <1>   0.0800 
@<TRIPOS>BOND
  1   1   2  1   
  2   2   3  ar  
  3   2   4  ar  
  4   3   5  1   
  5   3   6  ar  
  6   4   7  ar  
  7   4  30  1   
  8   5  31  1   
  9   6   8  ar  
 10   6  32  1   
 11   7   8  ar  
 12   7   9  1   
 13   8  33  1   
 14   9  10  1   
 15   9  34  1   
 16   9  35  1   
 17  10  11  2   
 18  10  12  am  
 19  12  13  1   
 20  12  14  1   
 21  13  15  1   
 22  13  16  1   
 23  13  36  1   
 24  14  17  1   
 25  14  37  1   
 26  14  38  1   
 27  15  18  ar  
 28  15  19  ar  
 29  16  20  1   
 30  16  21  1   
 31  16  39  1   
 32  17  20  1   
 33  17  40  1   
 34  17  41  1   
 35  18  22  ar  
 36  18  42  1   
 37  19  23  ar  
 38  19  43  1   
 39  21  24  1   
 40  21  44  1   
 41  21  45  1   
 42  22  25  1   
 43  22  26  ar  
 44  23  26  ar  
 45  23  46  1   
 46  24  47  1   
 47  25  27  1   
 48  26  28  1   
 49  27  48  1   
 50  27  49  1   
 51  27  50  1   
 52  28  29  1   
 53  29  51  1   
 54  29  52  1   
 55  29  53  1   
@<TRIPOS>SUBSTRUCTURE
  1 ****  18 GROUP 4 **** **** 0

# MOE 2024.06 (io_trps.svl 2023.06)
