@<TRIPOS>MOLECULE
NONAME
43 45 1 0 0 
SMALL
USER_CHARGES


@<TRIPOS>ATOM
  1 CL      -1.3850    -0.3310    -1.8180 Cl    1 <1>  -0.1770 
  2 C       -2.1630     0.7550    -0.6830 C.ar  1 <1>   0.1770 
  3 C       -1.9220     2.1190    -0.7810 C.ar  1 <1>   0.0830 
  4 C       -3.0140     0.2410     0.2860 C.ar  1 <1>  -0.1440 
  5 O       -1.0930     2.6230    -1.7140 O.3   1 <1>  -0.5320 
  6 C       -2.5430     2.9850     0.1020 C.ar  1 <1>  -0.1500 
  7 C       -3.6200     1.1220     1.1740 C.ar  1 <1>  -0.1500 
  8 C       -3.2640    -1.2500     0.3810 C.3   1 <1>   0.4860 
  9 C       -3.3890     2.4850     1.0770 C.ar  1 <1>  -0.1500 
 10 N       -4.0160    -1.7540    -0.8140 N.4   1 <1>  -0.9590 
 11 C       -5.4850    -1.4770    -0.9040 C.3   1 <1>   0.4230 
 12 C       -3.7700    -3.2190    -0.9720 C.3   1 <1>   0.2630 
 13 C       -6.2630    -1.5990     0.4040 C.3   1 <1>  -0.1600 
 14 C       -5.8280    -0.0880    -1.4270 C.3   1 <1>  -0.1600 
 15 C       -7.6010    -0.9160     0.0950 C.3   1 <1>  -0.0800 
 16 C       -7.2870     0.1390    -0.9980 C.3   1 <1>  -0.0800 
 17 C       -8.3250    -0.3950     1.3570 C.3   1 <1>   0.1400 
 18 C       -7.5720     1.5910    -0.5670 C.3   1 <1>  -0.0990 
 19 N       -9.2350     0.7090     0.9980 N.am  1 <1>  -0.7300 
 20 C       -8.9190     1.6800     0.1160 C.2   1 <1>   0.5690 
 21 O       -9.6720     2.5880    -0.1190 O.2   1 <1>  -0.5700 
 22 H       -0.6410     1.9450    -2.2530 H     1 <1>   0.4500 
 23 H       -2.3580     4.0430     0.0240 H     1 <1>   0.1500 
 24 H       -4.2760     0.7650     1.9510 H     1 <1>   0.1500 
 25 H       -3.7930    -1.4840     1.2890 H     1 <1>   0.0800 
 26 H       -2.3050    -1.7400     0.4300 H     1 <1>   0.0800 
 27 H       -3.8630     3.1650     1.7660 H     1 <1>   0.1500 
 28 H       -3.5830    -1.2830    -1.6230 H     1 <1>   0.4500 
 29 H       -5.9220    -2.1770    -1.6000 H     1 <1>   0.0800 
 30 H       -4.1920    -3.7640    -0.1430 H     1 <1>   0.0800 
 31 H       -2.7110    -3.4200    -1.0140 H     1 <1>   0.0800 
 32 H       -4.2190    -3.5790    -1.8840 H     1 <1>   0.0800 
 33 H       -6.4080    -2.6250     0.6940 H     1 <1>   0.0800 
 34 H       -5.7800    -1.0570     1.1940 H     1 <1>   0.0800 
 35 H       -5.2070     0.6660    -0.9870 H     1 <1>   0.0800 
 36 H       -5.7340    -0.0380    -2.4980 H     1 <1>   0.0800 
 37 H       -8.2490    -1.6510    -0.3550 H     1 <1>   0.0800 
 38 H       -7.9300    -0.0730    -1.8380 H     1 <1>   0.0800 
 39 H       -7.6160    -0.0210     2.0750 H     1 <1>   0.0800 
 40 H       -8.8850    -1.1920     1.8170 H     1 <1>   0.0800 
 41 H       -7.5630     2.2430    -1.4220 H     1 <1>   0.0800 
 42 H       -6.8300     1.9380     0.1290 H     1 <1>   0.0800 
 43 H      -10.1330     0.7920     1.4830 H     1 <1>   0.3700 
@<TRIPOS>BOND
  1   1   2  1   
  2   2   3  ar  
  3   2   4  ar  
  4   3   5  1   
  5   3   6  ar  
  6   4   7  ar  
  7   4   8  1   
  8   5  22  1   
  9   6   9  ar  
 10   6  23  1   
 11   7   9  ar  
 12   7  24  1   
 13   8  10  1   
 14   8  25  1   
 15   8  26  1   
 16   9  27  1   
 17  10  11  1   
 18  10  12  1   
 19  10  28  1   
 20  11  13  1   
 21  11  14  1   
 22  11  29  1   
 23  12  30  1   
 24  12  31  1   
 25  12  32  1   
 26  13  15  1   
 27  13  33  1   
 28  13  34  1   
 29  14  16  1   
 30  14  35  1   
 31  14  36  1   
 32  15  16  1   
 33  15  17  1   
 34  15  37  1   
 35  16  18  1   
 36  16  38  1   
 37  17  19  1   
 38  17  39  1   
 39  17  40  1   
 40  18  20  1   
 41  18  41  1   
 42  18  42  1   
 43  19  20  am  
 44  19  43  1   
 45  20  21  2   
@<TRIPOS>SUBSTRUCTURE
  1 ****  14 GROUP 4 **** **** 0

# MOE 2024.06 (io_trps.svl 2023.06)
