@<TRIPOS>MOLECULE
NONAME
46 49 1 0 0 
SMALL
USER_CHARGES


@<TRIPOS>ATOM
  1 S        1.6500    -0.3650     1.5190 S.3   1 <1>  -0.0800 
  2 C        0.7910    -1.7260     2.2030 C.2   1 <1>   0.4620 
  3 C        1.2260    -0.9360    -0.0640 C.2   1 <1>  -0.1100 
  4 N        0.2570    -2.5010     1.3420 N.2   1 <1>  -0.5650 
  5 N        0.7500    -1.8650     3.5490 N.pl3 1 <1>  -0.8840 
  6 C        0.4870    -2.0650     0.0250 C.2   1 <1>   0.1410 
  7 C       -0.0070    -2.7950    -1.1440 C.2   1 <1>   0.7160 
  8 O        0.6320    -2.7170    -2.1810 O.2   1 <1>  -0.5700 
  9 N       -1.1660    -3.5520    -1.1540 N.am  1 <1>  -0.6600 
 10 C       -2.2640    -3.4350    -0.1580 C.3   1 <1>   0.1400 
 11 C       -1.4120    -4.6080    -2.1730 C.3   1 <1>   0.1400 
 12 C       -2.3930    -4.7600     0.5950 C.3   1 <1>  -0.1600 
 13 C       -1.5460    -5.9610    -1.4680 C.3   1 <1>  -0.1600 
 14 C       -2.6260    -5.9430    -0.3680 C.3   1 <1>   0.4240 
 15 O       -3.8150    -5.6610    -1.0760 O.3   1 <1>  -0.5600 
 16 C       -2.7110    -7.3110     0.3710 C.ar  1 <1>  -0.1430 
 17 C       -5.0230    -6.0020    -0.4800 C.3   1 <1>   0.1200 
 18 C       -1.6310    -7.8360     1.0940 C.ar  1 <1>   0.0830 
 19 C       -3.8920    -8.0520     0.3290 C.ar  1 <1>  -0.1430 
 20 C       -5.1020    -7.5190    -0.4110 C.3   1 <1>  -0.0170 
 21 O       -0.4790    -7.1180     1.1690 O.3   1 <1>  -0.3630 
 22 C       -1.7440    -9.0730     1.7270 C.ar  1 <1>  -0.1500 
 23 C       -3.9930    -9.2790     0.9610 C.ar  1 <1>  -0.1500 
 24 C        0.6560    -7.5530     1.8830 C.3   1 <1>   0.0400 
 25 C       -2.9190    -9.7920     1.6590 C.ar  1 <1>  -0.1500 
 26 H        1.5700    -0.3810    -0.9180 H     1 <1>   0.1500 
 27 H        0.3140    -2.6940     3.9530 H     1 <1>   0.4000 
 28 H        1.2720    -1.2520     4.1750 H     1 <1>   0.4000 
 29 H       -3.1830    -3.2210    -0.6780 H     1 <1>   0.0800 
 30 H       -2.0870    -2.6280     0.5290 H     1 <1>   0.0800 
 31 H       -0.6030    -4.6530    -2.8820 H     1 <1>   0.0800 
 32 H       -2.3150    -4.3770    -2.7120 H     1 <1>   0.0800 
 33 H       -3.1900    -4.7040     1.3100 H     1 <1>   0.0800 
 34 H       -1.4880    -4.9030     1.1520 H     1 <1>   0.0800 
 35 H       -0.5870    -6.2050    -1.0580 H     1 <1>   0.0800 
 36 H       -1.7890    -6.7230    -2.1840 H     1 <1>   0.0800 
 37 H       -5.8160    -5.6090    -1.0920 H     1 <1>   0.0800 
 38 H       -5.0770    -5.5630     0.5000 H     1 <1>   0.0800 
 39 H       -5.1280    -7.9240    -1.4070 H     1 <1>   0.0800 
 40 H       -6.0060    -7.8030     0.0960 H     1 <1>   0.0800 
 41 H       -0.9290    -9.4960     2.2800 H     1 <1>   0.1500 
 42 H       -4.9090    -9.8420     0.9130 H     1 <1>   0.1500 
 43 H        1.4160    -6.7990     1.7870 H     1 <1>   0.0800 
 44 H        1.0030    -8.4780     1.4570 H     1 <1>   0.0800 
 45 H        0.3920    -7.6770     2.9180 H     1 <1>   0.0800 
 46 H       -3.0000   -10.7470     2.1480 H     1 <1>   0.1500 
@<TRIPOS>BOND
  1   1   2  1   
  2   1   3  1   
  3   2   4  2   
  4   2   5  1   
  5   3   6  2   
  6   3  26  1   
  7   4   6  1   
  8   5  27  1   
  9   5  28  1   
 10   6   7  1   
 11   7   8  2   
 12   7   9  am  
 13   9  10  1   
 14   9  11  1   
 15  10  12  1   
 16  10  29  1   
 17  10  30  1   
 18  11  13  1   
 19  11  31  1   
 20  11  32  1   
 21  12  14  1   
 22  12  33  1   
 23  12  34  1   
 24  13  14  1   
 25  13  35  1   
 26  13  36  1   
 27  14  15  1   
 28  14  16  1   
 29  15  17  1   
 30  16  18  ar  
 31  16  19  ar  
 32  17  20  1   
 33  17  37  1   
 34  17  38  1   
 35  18  21  1   
 36  18  22  ar  
 37  19  20  1   
 38  19  23  ar  
 39  20  39  1   
 40  20  40  1   
 41  21  24  1   
 42  22  25  ar  
 43  22  41  1   
 44  23  25  ar  
 45  23  42  1   
 46  24  43  1   
 47  24  44  1   
 48  24  45  1   
 49  25  46  1   
@<TRIPOS>SUBSTRUCTURE
  1 ****  12 GROUP 4 **** **** 0

# MOE 2024.06 (io_trps.svl 2023.06)
