@<TRIPOS>MOLECULE
NONAME
53 55 1 0 0 
SMALL
USER_CHARGES


@<TRIPOS>ATOM
  1 S        1.1550     0.8600    -0.5140 S.o2  1 <1>   1.2040 
  2 O        0.5830     2.1010    -0.9900 O.2   1 <1>  -0.6500 
  3 O        2.4430     0.4390    -1.0240 O.2   1 <1>  -0.6500 
  4 C       -0.0490    -0.4750    -0.7040 C.ar  1 <1>  -0.0090 
  5 C        1.3150     0.9570     1.2730 C.3   1 <1>  -0.0550 
  6 C        0.3600    -1.7950    -0.8520 C.ar  1 <1>  -0.1500 
  7 C       -1.4150    -0.2160    -0.6740 C.ar  1 <1>  -0.1500 
  8 C        2.5240     1.7840     1.7480 C.3   1 <1>  -0.0990 
  9 C       -0.5600    -2.8240    -0.9610 C.ar  1 <1>  -0.1500 
 10 C       -2.3420    -1.2390    -0.7830 C.ar  1 <1>  -0.1500 
 11 C        2.4000     3.2360     1.3180 C.2   1 <1>   0.5690 
 12 C       -1.9140    -2.5460    -0.9260 C.ar  1 <1>  -0.1500 
 13 O        1.7910     3.9760     2.0520 O.2   1 <1>  -0.5700 
 14 N        2.9200     3.7100     0.1430 N.am  1 <1>  -0.6600 
 15 C        2.2490     4.8760    -0.4940 C.3   1 <1>   0.1400 
 16 C        4.0480     3.1260    -0.6260 C.3   1 <1>   0.1400 
 17 C        2.8040     6.1820     0.0900 C.3   1 <1>   0.3430 
 18 C        5.0780     4.2080    -0.9820 C.3   1 <1>  -0.1600 
 19 N        4.2540     6.4540    -0.2480 N.4   1 <1>  -0.9590 
 20 C        5.1880     5.3260     0.0630 C.3   1 <1>   0.3430 
 21 C        4.7090     7.6960     0.4390 C.3   1 <1>   0.4860 
 22 C        3.9230     8.8790    -0.0850 C.ar  1 <1>  -0.1430 
 23 C        4.2370     9.4310    -1.3180 C.ar  1 <1>   0.1600 
 24 C        2.8870     9.4290     0.6470 C.ar  1 <1>  -0.1500 
 25 N        3.6010    10.4440    -1.8730 N.ar  1 <1>  -0.6200 
 26 C        2.2200    10.4950     0.0820 C.ar  1 <1>  -0.1500 
 27 C        2.6090    10.9570    -1.1630 C.ar  1 <1>   0.1600 
 28 H        1.4200    -0.0350     1.6670 H     1 <1>   0.0800 
 29 H        0.4180     1.3780     1.6890 H     1 <1>   0.0800 
 30 H        1.4120    -2.0260    -0.8860 H     1 <1>   0.1500 
 31 H       -1.7620     0.7990    -0.5690 H     1 <1>   0.1500 
 32 H        3.4310     1.3390     1.3910 H     1 <1>   0.0800 
 33 H        2.5580     1.7570     2.8220 H     1 <1>   0.0800 
 34 H       -0.2230    -3.8400    -1.0770 H     1 <1>   0.1500 
 35 H       -3.3950    -1.0170    -0.7590 H     1 <1>   0.1500 
 36 H       -2.6320    -3.3430    -1.0120 H     1 <1>   0.1500 
 37 H        1.1930     4.8240    -0.2860 H     1 <1>   0.0800 
 38 H        2.3630     4.8480    -1.5640 H     1 <1>   0.0800 
 39 H        3.6740     2.6610    -1.5240 H     1 <1>   0.0800 
 40 H        4.5390     2.3660    -0.0450 H     1 <1>   0.0800 
 41 H        2.6790     6.1410     1.1600 H     1 <1>   0.0800 
 42 H        2.1970     6.9950    -0.2750 H     1 <1>   0.0800 
 43 H        4.8640     4.6150    -1.9530 H     1 <1>   0.0800 
 44 H        6.0330     3.7190    -1.0600 H     1 <1>   0.0800 
 45 H        4.2980     6.6300    -1.2580 H     1 <1>   0.4500 
 46 H        6.2020     5.6950     0.0490 H     1 <1>   0.0800 
 47 H        4.9900     4.9330     1.0490 H     1 <1>   0.0800 
 48 H        5.7580     7.8600     0.2520 H     1 <1>   0.0800 
 49 H        4.5650     7.6030     1.5030 H     1 <1>   0.0800 
 50 H        5.0540     9.0240    -1.8900 H     1 <1>   0.1500 
 51 H        2.5990     9.0600     1.6180 H     1 <1>   0.1500 
 52 H        1.4050    10.9710     0.5980 H     1 <1>   0.1500 
 53 H        2.0800    11.7910    -1.5960 H     1 <1>   0.1500 
@<TRIPOS>BOND
  1   1   2  2   
  2   1   3  2   
  3   1   4  1   
  4   1   5  1   
  5   4   6  ar  
  6   4   7  ar  
  7   5   8  1   
  8   5  28  1   
  9   5  29  1   
 10   6   9  ar  
 11   6  30  1   
 12   7  10  ar  
 13   7  31  1   
 14   8  11  1   
 15   8  32  1   
 16   8  33  1   
 17   9  12  ar  
 18   9  34  1   
 19  10  12  ar  
 20  10  35  1   
 21  11  13  2   
 22  11  14  am  
 23  12  36  1   
 24  14  15  1   
 25  14  16  1   
 26  15  17  1   
 27  15  37  1   
 28  15  38  1   
 29  16  18  1   
 30  16  39  1   
 31  16  40  1   
 32  17  19  1   
 33  17  41  1   
 34  17  42  1   
 35  18  20  1   
 36  18  43  1   
 37  18  44  1   
 38  19  20  1   
 39  19  21  1   
 40  19  45  1   
 41  20  46  1   
 42  20  47  1   
 43  21  22  1   
 44  21  48  1   
 45  21  49  1   
 46  22  23  ar  
 47  22  24  ar  
 48  23  25  ar  
 49  23  50  1   
 50  24  26  ar  
 51  24  51  1   
 52  25  27  ar  
 53  26  27  ar  
 54  26  52  1   
 55  27  53  1   
@<TRIPOS>SUBSTRUCTURE
  1 ****  14 GROUP 4 **** **** 0

# MOE 2024.06 (io_trps.svl 2023.06)
