@<TRIPOS>MOLECULE
NONAME
41 43 1 0 0 
SMALL
USER_CHARGES


@<TRIPOS>ATOM
  1 S       -0.5140     0.2440     2.1030 S.3   1 <1>  -0.0800 
  2 C       -1.2320    -1.3130     1.8650 C.2   1 <1>   0.4420 
  3 C       -0.3070     0.3200     0.3840 C.2   1 <1>   0.1980 
  4 N       -1.2790    -1.6490     0.6310 N.2   1 <1>  -0.3380 
  5 N       -1.6680    -2.0040     2.9680 N.am  1 <1>  -0.4940 
  6 N       -0.7430    -0.7180    -0.2080 N.2   1 <1>  -0.3380 
  7 C        0.3360     1.5560    -0.2070 C.3   1 <1>   0.0200 
  8 C       -2.3080    -3.2070     3.0580 C.2   1 <1>   0.7030 
  9 C       -0.6880     2.6820    -0.3180 C.3   1 <1>   0.1200 
 10 O       -2.9180    -3.3910     4.0880 O.2   1 <1>  -0.5700 
 11 C       -2.3180    -4.2520     2.0400 C.2   1 <1>   0.2770 
 12 O       -0.0330     3.8070    -0.7990 O.3   1 <1>  -0.5600 
 13 N       -3.3190    -5.2070     1.9400 N.pl3 1 <1>  -0.7000 
 14 C       -1.4310    -4.5590     1.0580 C.2   1 <1>   0.2000 
 15 C       -0.8600     4.9050    -0.9920 C.3   1 <1>   0.1200 
 16 C       -3.0480    -6.0370     0.9270 C.cat 1 <1>   0.7910 
 17 N       -1.8820    -5.6570     0.3600 N.pl3 1 <1>  -0.6290 
 18 C        0.0070     6.0460    -1.5100 C.3   1 <1>  -0.2400 
 19 C       -3.7560    -7.1460     0.4350 C.2   1 <1>  -0.1410 
 20 C       -1.3770    -6.3440    -0.7220 C.2   1 <1>   0.2290 
 21 C       -3.2670    -7.8460    -0.6360 C.2   1 <1>  -0.1380 
 22 C       -2.0520    -7.4220    -1.2170 C.2   1 <1>  -0.1500 
 23 C       -3.9850    -9.0530    -1.2160 C.3   1 <1>  -0.1020 
 24 H       -1.6870    -1.4840     3.8460 H     1 <1>   0.3700 
 25 H        0.7120     1.3230    -1.1860 H     1 <1>   0.0800 
 26 H        1.1550     1.8680     0.4150 H     1 <1>   0.0800 
 27 H       -1.1080     2.9140     0.6450 H     1 <1>   0.0800 
 28 H       -1.4700     2.4110    -1.0080 H     1 <1>   0.0800 
 29 H       -4.1200    -5.2650     2.5770 H     1 <1>   0.4500 
 30 H       -0.5020    -4.0700     0.8110 H     1 <1>   0.1500 
 31 H       -1.3140     5.1710    -0.0520 H     1 <1>   0.0800 
 32 H       -1.6190     4.6490    -1.7120 H     1 <1>   0.0800 
 33 H        0.7710     6.2840    -0.7910 H     1 <1>   0.0800 
 34 H       -0.5970     6.9190    -1.6730 H     1 <1>   0.0800 
 35 H        0.4670     5.7660    -2.4410 H     1 <1>   0.0800 
 36 H       -4.6750    -7.4190     0.9180 H     1 <1>   0.1500 
 37 H       -0.4490    -6.0030    -1.1550 H     1 <1>   0.1500 
 38 H       -1.6650    -7.9660    -2.0620 H     1 <1>   0.1500 
 39 H       -3.3520    -9.9210    -1.1620 H     1 <1>   0.0800 
 40 H       -4.2360    -8.8740    -2.2460 H     1 <1>   0.0800 
 41 H       -4.8920    -9.2610    -0.6760 H     1 <1>   0.0800 
@<TRIPOS>BOND
  1   1   2  1   
  2   1   3  1   
  3   2   4  2   
  4   2   5  1   
  5   3   6  2   
  6   3   7  1   
  7   4   6  1   
  8   5   8  am  
  9   5  24  1   
 10   7   9  1   
 11   7  25  1   
 12   7  26  1   
 13   8  10  2   
 14   8  11  1   
 15   9  12  1   
 16   9  27  1   
 17   9  28  1   
 18  11  13  1   
 19  11  14  2   
 20  12  15  1   
 21  13  16  ar  
 22  13  29  1   
 23  14  17  1   
 24  14  30  1   
 25  15  18  1   
 26  15  31  1   
 27  15  32  1   
 28  16  17  ar  
 29  16  19  1   
 30  17  20  1   
 31  18  33  1   
 32  18  34  1   
 33  18  35  1   
 34  19  21  2   
 35  19  36  1   
 36  20  22  2   
 37  20  37  1   
 38  21  22  1   
 39  21  23  1   
 40  22  38  1   
 41  23  39  1   
 42  23  40  1   
 43  23  41  1   
@<TRIPOS>SUBSTRUCTURE
  1 ****   4 GROUP 4 **** **** 0

# MOE 2024.06 (io_trps.svl 2023.06)
