@<TRIPOS>MOLECULE
NONAME
48 49 1 0 0 
SMALL
USER_CHARGES


@<TRIPOS>ATOM
  1 S       -0.0620     1.1480    -1.7590 S.o2  1 <1>   1.3330 
  2 O       -1.3040     0.8020    -2.4100 O.2   1 <1>  -0.6500 
  3 O        0.9170     1.9390    -2.4720 O.2   1 <1>  -0.6500 
  4 N        0.6850    -0.3010    -1.2820 N.am  1 <1>  -0.8490 
  5 C       -0.4400     1.9620    -0.2010 C.3   1 <1>  -0.0550 
  6 C       -0.2640    -1.3400    -0.8680 C.3   1 <1>   0.1160 
  7 C        1.5780    -0.8300    -2.3170 C.3   1 <1>   0.1160 
  8 C        0.7770     2.1970     0.7210 C.3   1 <1>  -0.0800 
  9 C        0.3220     2.6550     2.1060 C.3   1 <1>   0.2000 
 10 C        1.6520     3.3600     0.2310 C.3   1 <1>   0.2090 
 11 O        1.3700     2.4400     2.9860 O.3   1 <1>  -0.6800 
 12 C        0.1450     4.1620     1.9470 C.3   1 <1>   0.2090 
 13 N        1.2340     4.5580     1.0190 N.pl3 1 <1>  -0.8380 
 14 C        2.1990     5.3870     1.5480 C.ar  1 <1>   0.4100 
 15 N        3.1310     4.7620     2.2710 N.ar  1 <1>  -0.6200 
 16 C        2.1530     6.7790     1.3560 C.ar  1 <1>   0.0860 
 17 C        4.0540     5.5270     2.8210 C.ar  1 <1>   0.1600 
 18 C        1.1120     7.4100     0.5840 C.2   1 <1>   0.5440 
 19 C        3.1400     7.5470     1.9580 C.ar  1 <1>  -0.1500 
 20 C        4.1050     6.9040     2.6990 C.ar  1 <1>  -0.1500 
 21 O        0.3120     8.1240     1.1650 O.2   1 <1>  -0.5700 
 22 N        1.0200     7.2880    -0.7940 N.am  1 <1>  -0.6600 
 23 C        1.9800     6.5050    -1.6190 C.3   1 <1>   0.0600 
 24 C       -0.1050     7.8810    -1.5690 C.3   1 <1>   0.0600 
 25 H       -0.9140     2.9020    -0.4080 H     1 <1>   0.0800 
 26 H       -1.1500     1.3550     0.3240 H     1 <1>   0.0800 
 27 H        0.2690    -2.2000    -0.4990 H     1 <1>   0.0800 
 28 H       -0.8810    -1.6400    -1.6990 H     1 <1>   0.0800 
 29 H       -0.8990    -0.9730    -0.0800 H     1 <1>   0.0800 
 30 H        2.0450    -1.7390    -1.9790 H     1 <1>   0.0800 
 31 H        2.3540    -0.1160    -2.5360 H     1 <1>   0.0800 
 32 H        1.0260    -1.0280    -3.2220 H     1 <1>   0.0800 
 33 H        1.3480     1.2880     0.7940 H     1 <1>   0.0800 
 34 H       -0.5510     2.1500     2.4800 H     1 <1>   0.0800 
 35 H        1.5270     3.5600    -0.8170 H     1 <1>   0.0800 
 36 H        2.6900     3.1340     0.4090 H     1 <1>   0.0800 
 37 H        2.0650     3.1190     2.7860 H     1 <1>   0.4000 
 38 H        0.2140     4.6700     2.8950 H     1 <1>   0.0800 
 39 H       -0.8040     4.3900     1.4940 H     1 <1>   0.0800 
 40 H        4.8120     5.0330     3.4050 H     1 <1>   0.1500 
 41 H        3.1350     8.6170     1.8450 H     1 <1>   0.1500 
 42 H        4.8880     7.4600     3.1810 H     1 <1>   0.1500 
 43 H        2.3210     7.1040    -2.4460 H     1 <1>   0.0800 
 44 H        1.4910     5.6250    -2.0000 H     1 <1>   0.0800 
 45 H        2.8360     6.2020    -1.0430 H     1 <1>   0.0800 
 46 H       -0.5960     7.1140    -2.1400 H     1 <1>   0.0800 
 47 H        0.2740     8.6350    -2.2360 H     1 <1>   0.0800 
 48 H       -0.8290     8.3350    -0.9150 H     1 <1>   0.0800 
@<TRIPOS>BOND
  1   1   2  2   
  2   1   3  2   
  3   1   4  am  
  4   1   5  1   
  5   4   6  1   
  6   4   7  1   
  7   5   8  1   
  8   5  25  1   
  9   5  26  1   
 10   6  27  1   
 11   6  28  1   
 12   6  29  1   
 13   7  30  1   
 14   7  31  1   
 15   7  32  1   
 16   8   9  1   
 17   8  10  1   
 18   8  33  1   
 19   9  11  1   
 20   9  12  1   
 21   9  34  1   
 22  10  13  1   
 23  10  35  1   
 24  10  36  1   
 25  11  37  1   
 26  12  13  1   
 27  12  38  1   
 28  12  39  1   
 29  13  14  1   
 30  14  15  ar  
 31  14  16  ar  
 32  15  17  ar  
 33  16  18  1   
 34  16  19  ar  
 35  17  20  ar  
 36  17  40  1   
 37  18  21  2   
 38  18  22  am  
 39  19  20  ar  
 40  19  41  1   
 41  20  42  1   
 42  22  23  1   
 43  22  24  1   
 44  23  43  1   
 45  23  44  1   
 46  23  45  1   
 47  24  46  1   
 48  24  47  1   
 49  24  48  1   
@<TRIPOS>SUBSTRUCTURE
  1 ****  10 GROUP 4 **** **** 0

# MOE 2024.06 (io_trps.svl 2023.06)
