@<TRIPOS>MOLECULE
NONAME
53 57 1 0 0 
SMALL
USER_CHARGES


@<TRIPOS>ATOM
  1 O        0.1650     0.8680    -2.9970 O.2   1 <1>  -0.5700 
  2 C       -0.7400     1.4070    -2.4030 C.2   1 <1>   0.5690 
  3 N       -1.9160     0.7280    -2.1440 N.am  1 <1>  -0.6600 
  4 C       -0.5010     2.8720    -2.0440 C.3   1 <1>   0.1570 
  5 C       -2.9150     1.1480    -1.1150 C.3   1 <1>   0.2200 
  6 C       -2.1340    -0.6120    -2.7720 C.3   1 <1>   0.0600 
  7 N       -0.5110     3.1670    -0.5910 N.pl3 1 <1>   0.0480 
  8 C       -3.2330     0.0990    -0.0560 C.3   1 <1>  -0.1600 
  9 C       -4.2790     1.5400    -1.6600 C.3   1 <1>  -0.1600 
 10 C       -0.0650     2.3640     0.4160 C.ar  1 <1>  -0.1520 
 11 C       -1.2650     4.1260     0.0230 C.2   1 <1>   0.1010 
 12 C       -4.4860     0.6610     0.6310 C.3   1 <1>  -0.0800 
 13 C       -5.1380     1.6190    -0.3880 C.3   1 <1>  -0.0800 
 14 C       -0.6050     2.8890     1.5750 C.ar  1 <1>   0.2270 
 15 C        0.7380     1.2200     0.4550 C.ar  1 <1>  -0.1500 
 16 N       -1.3620     3.9840     1.2990 N.2   1 <1>  -0.5650 
 17 C       -1.9440     5.2490    -0.7450 C.3   1 <1>  -0.0150 
 18 C       -4.1490     1.4920     1.8790 C.3   1 <1>  -0.1600 
 19 C       -5.1150     3.0160     0.2530 C.3   1 <1>  -0.1600 
 20 C       -0.3560     2.2810     2.8040 C.ar  1 <1>  -0.1500 
 21 C        0.9780     0.6230     1.6730 C.ar  1 <1>  -0.1500 
 22 C       -1.1270     6.3860    -1.2780 C.3   1 <1>  -0.2000 
 23 C       -2.0750     6.6120    -0.1400 C.3   1 <1>  -0.2000 
 24 C       -4.9350     2.7870     1.7450 C.3   1 <1>   0.2000 
 25 C        0.4320     1.1530     2.8480 C.ar  1 <1>  -0.1500 
 26 O       -4.2240     3.8310     2.3000 O.3   1 <1>  -0.6800 
 27 H       -1.2510     3.4570    -2.5360 H     1 <1>   0.0800 
 28 H        0.4560     3.1670    -2.4320 H     1 <1>   0.0800 
 29 H       -2.5590     1.9960    -0.5800 H     1 <1>   0.0800 
 30 H       -3.1760    -0.7710    -2.9770 H     1 <1>   0.0800 
 31 H       -1.7780    -1.3820    -2.1110 H     1 <1>   0.0800 
 32 H       -1.5940    -0.6840    -3.7010 H     1 <1>   0.0800 
 33 H       -3.4880    -0.8400    -0.5110 H     1 <1>   0.0800 
 34 H       -2.4100    -0.0430     0.6230 H     1 <1>   0.0800 
 35 H       -4.2500     2.4710    -2.1960 H     1 <1>   0.0800 
 36 H       -4.6630     0.7670    -2.3000 H     1 <1>   0.0800 
 37 H       -5.1660    -0.1330     0.8920 H     1 <1>   0.0800 
 38 H       -6.1540     1.3230    -0.5870 H     1 <1>   0.0800 
 39 H        1.1600     0.8150    -0.4490 H     1 <1>   0.1500 
 40 H       -2.7750     4.9070    -1.3360 H     1 <1>   0.1000 
 41 H       -3.0980     1.7090     1.9140 H     1 <1>   0.0800 
 42 H       -4.4270     0.9710     2.7780 H     1 <1>   0.0800 
 43 H       -6.0280     3.5500     0.0560 H     1 <1>   0.0800 
 44 H       -4.2860     3.5880    -0.1190 H     1 <1>   0.0800 
 45 H       -0.7890     2.7110     3.6890 H     1 <1>   0.1500 
 46 H        1.5920    -0.2590     1.7300 H     1 <1>   0.1500 
 47 H       -0.0720     6.4150    -1.0670 H     1 <1>   0.1000 
 48 H       -1.3720     6.8020    -2.2400 H     1 <1>   0.1000 
 49 H       -2.9850     7.1610    -0.3090 H     1 <1>   0.1000 
 50 H       -1.6800     6.7650     0.8510 H     1 <1>   0.1000 
 51 H       -5.8900     2.7120     2.2400 H     1 <1>   0.0800 
 52 H        0.6350     0.6690     3.7880 H     1 <1>   0.1500 
 53 H       -3.3050     3.8600     1.9400 H     1 <1>   0.4000 
@<TRIPOS>BOND
  1   1   2  2   
  2   2   3  am  
  3   2   4  1   
  4   3   5  1   
  5   3   6  1   
  6   4   7  1   
  7   4  27  1   
  8   4  28  1   
  9   5   8  1   
 10   5   9  1   
 11   5  29  1   
 12   6  30  1   
 13   6  31  1   
 14   6  32  1   
 15   7  10  1   
 16   7  11  1   
 17   8  12  1   
 18   8  33  1   
 19   8  34  1   
 20   9  13  1   
 21   9  35  1   
 22   9  36  1   
 23  10  14  ar  
 24  10  15  ar  
 25  11  16  2   
 26  11  17  1   
 27  12  13  1   
 28  12  18  1   
 29  12  37  1   
 30  13  19  1   
 31  13  38  1   
 32  14  16  1   
 33  14  20  ar  
 34  15  21  ar  
 35  15  39  1   
 36  17  22  1   
 37  17  23  1   
 38  17  40  1   
 39  18  24  1   
 40  18  41  1   
 41  18  42  1   
 42  19  24  1   
 43  19  43  1   
 44  19  44  1   
 45  20  25  ar  
 46  20  45  1   
 47  21  25  ar  
 48  21  46  1   
 49  22  23  1   
 50  22  47  1   
 51  22  48  1   
 52  23  49  1   
 53  23  50  1   
 54  24  26  1   
 55  24  51  1   
 56  25  52  1   
 57  26  53  1   
@<TRIPOS>SUBSTRUCTURE
  1 ****   7 GROUP 4 **** **** 0

# MOE 2024.06 (io_trps.svl 2023.06)
