@<TRIPOS>MOLECULE
NONAME
53 55 1 0 0 
SMALL
USER_CHARGES


@<TRIPOS>ATOM
  1 O       -0.6920     1.1490    -1.8450 O.2   1 <1>  -0.5700 
  2 C       -0.4720     2.2310    -1.3620 C.2   1 <1>   0.5690 
  3 N       -1.3780     2.8200    -0.5510 N.am  1 <1>  -0.7300 
  4 C        0.8320     2.9670    -1.6940 C.3   1 <1>   0.1810 
  5 C       -1.1420     4.1190     0.1230 C.3   1 <1>   0.3640 
  6 O        1.1270     4.0230    -0.8030 O.3   1 <1>  -0.5600 
  7 C       -2.4100     4.9660     0.0570 C.ar  1 <1>  -0.1440 
  8 C        0.0350     4.8850    -0.5270 C.3   1 <1>   0.2610 
  9 C       -3.1440     5.0790    -1.1150 C.ar  1 <1>  -0.1500 
 10 C       -2.8290     5.6680     1.1750 C.ar  1 <1>  -0.1500 
 11 C        0.4610     6.0690     0.3540 C.2   1 <1>   0.5690 
 12 C       -4.2740     5.8760    -1.1860 C.ar  1 <1>   0.0830 
 13 C       -3.9520     6.4740     1.1220 C.ar  1 <1>  -0.1500 
 14 O        0.3800     5.9540     1.5600 O.2   1 <1>  -0.5700 
 15 N        0.9000     7.2360    -0.2290 N.am  1 <1>  -0.5090 
 16 O       -4.8900     5.8830    -2.4020 O.3   1 <1>  -0.3630 
 17 C       -4.6840     6.6020    -0.0550 C.ar  1 <1>   0.0830 
 18 C        0.9880     8.4990     0.5490 C.3   1 <1>   0.0540 
 19 C        1.4090     7.3190    -1.6250 C.3   1 <1>   0.0600 
 20 C       -6.2900     6.0220    -2.5080 C.3   1 <1>   0.0400 
 21 O       -5.7680     7.4280    -0.1280 O.3   1 <1>  -0.3630 
 22 C       -0.3090     9.0540     1.0520 C.3   1 <1>  -0.2000 
 23 C        0.4040     9.7310    -0.0780 C.3   1 <1>  -0.2000 
 24 C        2.2480     8.5420     1.4380 C.3   1 <1>   0.2150 
 25 C       -6.0260     8.4040     0.8590 C.3   1 <1>   0.0400 
 26 O        2.3930     9.7920     2.0480 O.3   1 <1>  -0.5600 
 27 C        3.4560     9.8620     2.9410 C.3   1 <1>   0.0400 
 28 H       -2.2470     2.3290    -0.3340 H     1 <1>   0.3700 
 29 H        0.7660     3.3710    -2.6870 H     1 <1>   0.0800 
 30 H        1.6500     2.2710    -1.6580 H     1 <1>   0.0800 
 31 H       -0.9050     3.9140     1.1530 H     1 <1>   0.0800 
 32 H       -0.3070     5.2790    -1.4660 H     1 <1>   0.0800 
 33 H       -2.8480     4.5450    -2.0000 H     1 <1>   0.1500 
 34 H       -2.2740     5.6010     2.0980 H     1 <1>   0.1500 
 35 H       -4.2340     6.9980     2.0150 H     1 <1>   0.1500 
 36 H        2.2120     8.0340    -1.6770 H     1 <1>   0.0800 
 37 H        0.6170     7.6350    -2.2820 H     1 <1>   0.0800 
 38 H        1.7860     6.3650    -1.9490 H     1 <1>   0.0800 
 39 H       -6.5930     5.6390    -3.4650 H     1 <1>   0.0800 
 40 H       -6.5410     7.0650    -2.4380 H     1 <1>   0.0800 
 41 H       -6.7610     5.4620    -1.7190 H     1 <1>   0.0800 
 42 H       -1.2130     8.5060     0.8550 H     1 <1>   0.1000 
 43 H       -0.3230     9.5470     2.0080 H     1 <1>   0.1000 
 44 H        0.8570    10.6860     0.1210 H     1 <1>   0.1000 
 45 H       -0.0510     9.6850    -1.0510 H     1 <1>   0.1000 
 46 H        3.1230     8.3610     0.8390 H     1 <1>   0.0800 
 47 H        2.1690     7.7920     2.2070 H     1 <1>   0.0800 
 48 H       -6.8440     9.0120     0.5210 H     1 <1>   0.0800 
 49 H       -5.1470     9.0120     0.9880 H     1 <1>   0.0800 
 50 H       -6.2940     7.9110     1.7770 H     1 <1>   0.0800 
 51 H        3.4840    10.8570     3.3490 H     1 <1>   0.0800 
 52 H        4.3740     9.6570     2.4180 H     1 <1>   0.0800 
 53 H        3.3010     9.1500     3.7330 H     1 <1>   0.0800 
@<TRIPOS>BOND
  1   1   2  2   
  2   2   3  am  
  3   2   4  1   
  4   3   5  1   
  5   3  28  1   
  6   4   6  1   
  7   4  29  1   
  8   4  30  1   
  9   5   7  1   
 10   5   8  1   
 11   5  31  1   
 12   6   8  1   
 13   7   9  ar  
 14   7  10  ar  
 15   8  11  1   
 16   8  32  1   
 17   9  12  ar  
 18   9  33  1   
 19  10  13  ar  
 20  10  34  1   
 21  11  14  2   
 22  11  15  am  
 23  12  16  1   
 24  12  17  ar  
 25  13  17  ar  
 26  13  35  1   
 27  15  18  1   
 28  15  19  1   
 29  16  20  1   
 30  17  21  1   
 31  18  22  1   
 32  18  23  1   
 33  18  24  1   
 34  19  36  1   
 35  19  37  1   
 36  19  38  1   
 37  20  39  1   
 38  20  40  1   
 39  20  41  1   
 40  21  25  1   
 41  22  23  1   
 42  22  42  1   
 43  22  43  1   
 44  23  44  1   
 45  23  45  1   
 46  24  26  1   
 47  24  46  1   
 48  24  47  1   
 49  25  48  1   
 50  25  49  1   
 51  25  50  1   
 52  26  27  1   
 53  27  51  1   
 54  27  52  1   
 55  27  53  1   
@<TRIPOS>SUBSTRUCTURE
  1 ****   7 GROUP 4 **** **** 0

# MOE 2024.06 (io_trps.svl 2023.06)
