@<TRIPOS>MOLECULE
NONAME
57 59 1 0 0 
SMALL
USER_CHARGES


@<TRIPOS>ATOM
  1 O       -0.0570     1.0960    -1.7680 O.2   1 <1>  -0.5700 
  2 C       -0.1080     2.1020    -1.0840 C.2   1 <1>   0.5440 
  3 N       -1.3450     2.6070    -0.7340 N.am  1 <1>  -0.6600 
  4 C        1.1290     2.7190    -0.6450 C.ar  1 <1>   0.0860 
  5 C       -1.5300     3.5980     0.3700 C.3   1 <1>   0.1400 
  6 C       -2.5860     2.0450    -1.3430 C.3   1 <1>   0.1400 
  7 C        2.1310     1.9510    -0.0580 C.ar  1 <1>  -0.1500 
  8 C        1.3620     4.0840    -0.7930 C.ar  1 <1>  -0.1500 
  9 C       -2.8700     3.3610     1.0660 C.3   1 <1>  -0.1600 
 10 C       -3.7000     3.0950    -1.3280 C.3   1 <1>  -0.1600 
 11 C        3.3240     2.5160     0.3790 C.ar  1 <1>   0.0820 
 12 C        2.5300     4.6780    -0.3540 C.ar  1 <1>   0.0820 
 13 C       -4.0610     3.5720     0.1100 C.3   1 <1>   0.2800 
 14 O        4.3110     1.7730     0.9600 O.3   1 <1>  -0.3630 
 15 C        3.5330     3.8890     0.2230 C.ar  1 <1>   0.0820 
 16 O        2.6090     6.0250    -0.5370 O.3   1 <1>  -0.3630 
 17 O       -4.2340     4.9630     0.0490 O.3   1 <1>  -0.5600 
 18 C       -5.3290     2.9050     0.7480 C.3   1 <1>   0.2000 
 19 C        4.1820     0.3800     1.1440 C.3   1 <1>   0.0400 
 20 O        4.7080     4.4390     0.6240 O.3   1 <1>  -0.3630 
 21 C        3.1710     6.8380     0.4710 C.3   1 <1>   0.0400 
 22 C       -5.3020     5.5000    -0.6850 C.3   1 <1>   0.1200 
 23 O       -5.4410     1.5690     0.3200 O.3   1 <1>  -0.6800 
 24 C       -6.6520     3.7050     0.5250 C.3   1 <1>   0.2800 
 25 C        5.7990     4.2600    -0.2490 C.3   1 <1>   0.0400 
 26 C       -6.5430     4.5920    -0.7170 C.3   1 <1>  -0.1600 
 27 O       -6.8420     4.5440     1.6080 O.3   1 <1>  -0.6800 
 28 C       -7.9200     2.8410     0.4720 C.3   1 <1>  -0.2400 
 29 H       -0.7350     3.5020     1.0900 H     1 <1>   0.0800 
 30 H       -1.5090     4.5950    -0.0360 H     1 <1>   0.0800 
 31 H       -2.3850     1.7460    -2.3580 H     1 <1>   0.0800 
 32 H       -2.8860     1.1720    -0.7890 H     1 <1>   0.0800 
 33 H        1.9420     0.8990     0.0390 H     1 <1>   0.1500 
 34 H        0.6150     4.6980    -1.2610 H     1 <1>   0.1500 
 35 H       -2.9670     4.0200     1.9100 H     1 <1>   0.0800 
 36 H       -2.8730     2.3540     1.4440 H     1 <1>   0.0800 
 37 H       -4.5580     2.6940    -1.8310 H     1 <1>   0.0800 
 38 H       -3.3460     3.9260    -1.9120 H     1 <1>   0.0800 
 39 H       -5.1820     2.8420     1.8120 H     1 <1>   0.0800 
 40 H        5.0800     0.0210     1.6140 H     1 <1>   0.0800 
 41 H        4.0600    -0.0900     0.1840 H     1 <1>   0.0800 
 42 H        3.3360     0.1880     1.7800 H     1 <1>   0.0800 
 43 H        2.7810     7.8330     0.3560 H     1 <1>   0.0800 
 44 H        4.2390     6.8520     0.3520 H     1 <1>   0.0800 
 45 H        2.9030     6.4440     1.4360 H     1 <1>   0.0800 
 46 H       -5.5510     6.4350    -0.2130 H     1 <1>   0.0800 
 47 H       -4.9570     5.7080    -1.6830 H     1 <1>   0.0800 
 48 H       -5.6840     1.5350    -0.6230 H     1 <1>   0.4000 
 49 H        6.6490     4.7710     0.1650 H     1 <1>   0.0800 
 50 H        5.5470     4.6760    -1.2080 H     1 <1>   0.0800 
 51 H        6.0100     3.2090    -0.3380 H     1 <1>   0.0800 
 52 H       -6.4880     3.9700    -1.5900 H     1 <1>   0.0800 
 53 H       -7.4250     5.1960    -0.8300 H     1 <1>   0.0800 
 54 H       -7.6910     5.0120     1.5210 H     1 <1>   0.4000 
 55 H       -7.9000     2.1940    -0.3850 H     1 <1>   0.0800 
 56 H       -8.8020     3.4520     0.4070 H     1 <1>   0.0800 
 57 H       -7.9800     2.2250     1.3530 H     1 <1>   0.0800 
@<TRIPOS>BOND
  1   1   2  2   
  2   2   3  am  
  3   2   4  1   
  4   3   5  1   
  5   3   6  1   
  6   4   7  ar  
  7   4   8  ar  
  8   5   9  1   
  9   5  29  1   
 10   5  30  1   
 11   6  10  1   
 12   6  31  1   
 13   6  32  1   
 14   7  11  ar  
 15   7  33  1   
 16   8  12  ar  
 17   8  34  1   
 18   9  13  1   
 19   9  35  1   
 20   9  36  1   
 21  10  13  1   
 22  10  37  1   
 23  10  38  1   
 24  11  14  1   
 25  11  15  ar  
 26  12  15  ar  
 27  12  16  1   
 28  13  17  1   
 29  13  18  1   
 30  14  19  1   
 31  15  20  1   
 32  16  21  1   
 33  17  22  1   
 34  18  23  1   
 35  18  24  1   
 36  18  39  1   
 37  19  40  1   
 38  19  41  1   
 39  19  42  1   
 40  20  25  1   
 41  21  43  1   
 42  21  44  1   
 43  21  45  1   
 44  22  26  1   
 45  22  46  1   
 46  22  47  1   
 47  23  48  1   
 48  24  26  1   
 49  24  27  1   
 50  24  28  1   
 51  25  49  1   
 52  25  50  1   
 53  25  51  1   
 54  26  52  1   
 55  26  53  1   
 56  27  54  1   
 57  28  55  1   
 58  28  56  1   
 59  28  57  1   
@<TRIPOS>SUBSTRUCTURE
  1 ****   5 GROUP 4 **** **** 0

# MOE 2024.06 (io_trps.svl 2023.06)
