@<TRIPOS>MOLECULE
NONAME
50 51 1 0 0 
SMALL
USER_CHARGES


@<TRIPOS>ATOM
  1 S        0.4780     0.1270    -0.8910 S.o2  1 <1>   1.3330 
  2 O        1.7400    -0.2030    -1.5150 O.2   1 <1>  -0.6500 
  3 O       -0.7000     0.2940    -1.7120 O.2   1 <1>  -0.6500 
  4 N        0.1190    -1.0920     0.2390 N.am  1 <1>  -0.8490 
  5 C        0.6900     1.5940     0.1310 C.3   1 <1>  -0.0550 
  6 C       -1.2960    -1.1320     0.6250 C.3   1 <1>   0.1160 
  7 C        0.5430    -2.4180    -0.2220 C.3   1 <1>   0.1160 
  8 C        2.0410     1.7770     0.8600 C.3   1 <1>  -0.0800 
  9 C        3.2170     2.0210    -0.0900 C.3   1 <1>   0.2200 
 10 C        2.5190     0.6210     1.7470 C.3   1 <1>   0.1200 
 11 N        3.8020     3.3500     0.1930 N.am  1 <1>  -0.7300 
 12 C        4.2000     0.9150     0.2830 C.3   1 <1>   0.1200 
 13 O        3.9020     0.6050     1.6060 O.3   1 <1>  -0.5600 
 14 C        3.3500     4.5070    -0.3470 C.2   1 <1>   0.5690 
 15 O        2.4050     4.5340    -1.0950 O.2   1 <1>  -0.5700 
 16 C        4.0510     5.7970     0.0070 C.3   1 <1>  -0.0990 
 17 C        5.0610     6.1850    -1.0780 C.3   1 <1>  -0.0170 
 18 C        5.7980     7.4610    -0.6860 C.ar  1 <1>  -0.1440 
 19 C        7.0190     7.4520    -0.0150 C.ar  1 <1>  -0.1440 
 20 C        5.2100     8.6740    -1.0150 C.ar  1 <1>  -0.1500 
 21 C        7.6260     8.6560     0.3110 C.ar  1 <1>  -0.1500 
 22 C        7.7200     6.1580     0.3760 C.3   1 <1>  -0.0970 
 23 C        5.8220     9.8690    -0.6860 C.ar  1 <1>  -0.1500 
 24 C        7.0320     9.8600    -0.0210 C.ar  1 <1>  -0.1500 
 25 H        0.5550     2.4550    -0.4970 H     1 <1>   0.0800 
 26 H       -0.0960     1.6220     0.8590 H     1 <1>   0.0800 
 27 H       -1.4450    -1.8540     1.4100 H     1 <1>   0.0800 
 28 H       -1.9100    -1.4020    -0.2190 H     1 <1>   0.0800 
 29 H       -1.6120    -0.1690     0.9860 H     1 <1>   0.0800 
 30 H        0.3090    -3.1640     0.5180 H     1 <1>   0.0800 
 31 H        1.6080    -2.4300    -0.3840 H     1 <1>   0.0800 
 32 H        0.0500    -2.6680    -1.1470 H     1 <1>   0.0800 
 33 H        1.9270     2.6330     1.5030 H     1 <1>   0.0800 
 34 H        2.9480     1.9620    -1.1320 H     1 <1>   0.0800 
 35 H        2.1590    -0.3370     1.4230 H     1 <1>   0.0800 
 36 H        2.2750     0.7690     2.7850 H     1 <1>   0.0800 
 37 H        4.5220     3.3530     0.9180 H     1 <1>   0.3700 
 38 H        5.2290     1.2180     0.2010 H     1 <1>   0.0800 
 39 H        4.0270     0.0340    -0.3110 H     1 <1>   0.0800 
 40 H        3.3140     6.5730     0.1060 H     1 <1>   0.0800 
 41 H        4.5500     5.6930     0.9520 H     1 <1>   0.0800 
 42 H        4.5380     6.3420    -2.0060 H     1 <1>   0.0800 
 43 H        5.7520     5.3790    -1.2430 H     1 <1>   0.0800 
 44 H        4.2670     8.6930    -1.5320 H     1 <1>   0.1500 
 45 H        8.5690     8.6670     0.8270 H     1 <1>   0.1500 
 46 H        8.5940     6.3570     0.9690 H     1 <1>   0.0800 
 47 H        8.0270     5.6270    -0.5070 H     1 <1>   0.0800 
 48 H        7.0610     5.5370     0.9530 H     1 <1>   0.0800 
 49 H        5.3550    10.8030    -0.9470 H     1 <1>   0.1500 
 50 H        7.5130    10.7870     0.2370 H     1 <1>   0.1500 
@<TRIPOS>BOND
  1   1   2  2   
  2   1   3  2   
  3   1   4  am  
  4   1   5  1   
  5   4   6  1   
  6   4   7  1   
  7   5   8  1   
  8   5  25  1   
  9   5  26  1   
 10   6  27  1   
 11   6  28  1   
 12   6  29  1   
 13   7  30  1   
 14   7  31  1   
 15   7  32  1   
 16   8   9  1   
 17   8  10  1   
 18   8  33  1   
 19   9  11  1   
 20   9  12  1   
 21   9  34  1   
 22  10  13  1   
 23  10  35  1   
 24  10  36  1   
 25  11  14  am  
 26  11  37  1   
 27  12  13  1   
 28  12  38  1   
 29  12  39  1   
 30  14  15  2   
 31  14  16  1   
 32  16  17  1   
 33  16  40  1   
 34  16  41  1   
 35  17  18  1   
 36  17  42  1   
 37  17  43  1   
 38  18  19  ar  
 39  18  20  ar  
 40  19  21  ar  
 41  19  22  1   
 42  20  23  ar  
 43  20  44  1   
 44  21  24  ar  
 45  21  45  1   
 46  22  46  1   
 47  22  47  1   
 48  22  48  1   
 49  23  24  ar  
 50  23  49  1   
 51  24  50  1   
@<TRIPOS>SUBSTRUCTURE
  1 ****  11 GROUP 4 **** **** 0

# MOE 2024.06 (io_trps.svl 2023.06)
