@<TRIPOS>MOLECULE
NONAME
47 48 1 0 0 
SMALL
USER_CHARGES


@<TRIPOS>ATOM
  1 S        0.6310     0.0690    -1.4390 S.o2  1 <1>   1.3330 
  2 O       -0.3460     0.8700    -2.1410 O.2   1 <1>  -0.6500 
  3 O        1.0290    -1.2140    -1.9750 O.2   1 <1>  -0.6500 
  4 N        0.0370    -0.1840     0.1330 N.am  1 <1>  -0.8490 
  5 C        2.1140     1.0440    -1.1820 C.3   1 <1>  -0.0550 
  6 C       -0.7460     0.9450     0.6470 C.3   1 <1>   0.1160 
  7 C       -0.7490    -1.4180     0.2350 C.3   1 <1>   0.1160 
  8 C        3.2670     0.2810    -0.4920 C.3   1 <1>  -0.0800 
  9 C        4.5850     1.0390    -0.4290 C.3   1 <1>   0.2200 
 10 C        3.0190    -0.0910     0.9750 C.3   1 <1>   0.1200 
 11 N        4.3580     2.4570    -0.0620 N.am  1 <1>  -0.7300 
 12 C        5.2580     0.3320     0.7380 C.3   1 <1>   0.1200 
 13 O        4.2300     0.0950     1.6500 O.3   1 <1>  -0.5600 
 14 C        4.3760     3.4960    -0.9280 C.2   1 <1>   0.5690 
 15 O        4.5740     3.3430    -2.1060 O.2   1 <1>  -0.5700 
 16 C        4.1360     4.8870    -0.4030 C.3   1 <1>  -0.0990 
 17 C        5.4420     5.6830    -0.4310 C.3   1 <1>   0.0960 
 18 N        5.2400     7.0120     0.1680 N.pl3 1 <1>   0.3140 
 19 N        4.9740     7.1600     1.4780 N.2   1 <1>  -0.7070 
 20 C        5.2690     8.2010    -0.4650 C.2   1 <1>  -0.3020 
 21 C        4.8460     8.4410     1.6470 C.2   1 <1>   0.1390 
 22 C        5.0200     9.1480     0.4620 C.2   1 <1>  -0.1810 
 23 C        4.9400    10.6500     0.2810 C.3   1 <1>  -0.0590 
 24 H        2.4660     1.3750    -2.1410 H     1 <1>   0.0800 
 25 H        1.8660     1.9190    -0.6160 H     1 <1>   0.0800 
 26 H       -1.0180     0.7690     1.6750 H     1 <1>   0.0800 
 27 H       -1.6450     1.0760     0.0660 H     1 <1>   0.0800 
 28 H       -0.1690     1.8520     0.5990 H     1 <1>   0.0800 
 29 H       -1.1010    -1.5560     1.2420 H     1 <1>   0.0800 
 30 H       -0.1390    -2.2670    -0.0270 H     1 <1>   0.0800 
 31 H       -1.5930    -1.3800    -0.4350 H     1 <1>   0.0800 
 32 H        3.4410    -0.6330    -1.0340 H     1 <1>   0.0800 
 33 H        5.1550     0.9660    -1.3410 H     1 <1>   0.0800 
 34 H        2.7120    -1.1180     1.0800 H     1 <1>   0.0800 
 35 H        2.2920     0.5540     1.4360 H     1 <1>   0.0800 
 36 H        4.1830     2.6010     0.9370 H     1 <1>   0.3700 
 37 H        6.0280     0.9230     1.2000 H     1 <1>   0.0800 
 38 H        5.6560    -0.6200     0.4320 H     1 <1>   0.0800 
 39 H        3.4020     5.3690    -1.0230 H     1 <1>   0.0800 
 40 H        3.7590     4.8340     0.6030 H     1 <1>   0.0800 
 41 H        5.7870     5.8000    -1.4420 H     1 <1>   0.0800 
 42 H        6.1980     5.1740     0.1380 H     1 <1>   0.0800 
 43 H        5.4620     8.3040    -1.5170 H     1 <1>   0.1500 
 44 H        4.6300     8.8930     2.6000 H     1 <1>   0.1500 
 45 H        5.6810    11.1320     0.8930 H     1 <1>   0.0800 
 46 H        3.9660    11.0020     0.5670 H     1 <1>   0.0800 
 47 H        5.1160    10.9090    -0.7470 H     1 <1>   0.0800 
@<TRIPOS>BOND
  1   1   2  2   
  2   1   3  2   
  3   1   4  am  
  4   1   5  1   
  5   4   6  1   
  6   4   7  1   
  7   5   8  1   
  8   5  24  1   
  9   5  25  1   
 10   6  26  1   
 11   6  27  1   
 12   6  28  1   
 13   7  29  1   
 14   7  30  1   
 15   7  31  1   
 16   8   9  1   
 17   8  10  1   
 18   8  32  1   
 19   9  11  1   
 20   9  12  1   
 21   9  33  1   
 22  10  13  1   
 23  10  34  1   
 24  10  35  1   
 25  11  14  am  
 26  11  36  1   
 27  12  13  1   
 28  12  37  1   
 29  12  38  1   
 30  14  15  2   
 31  14  16  1   
 32  16  17  1   
 33  16  39  1   
 34  16  40  1   
 35  17  18  1   
 36  17  41  1   
 37  17  42  1   
 38  18  19  1   
 39  18  20  1   
 40  19  21  2   
 41  20  22  2   
 42  20  43  1   
 43  21  22  1   
 44  21  44  1   
 45  22  23  1   
 46  23  45  1   
 47  23  46  1   
 48  23  47  1   
@<TRIPOS>SUBSTRUCTURE
  1 ****  11 GROUP 4 **** **** 0

# MOE 2024.06 (io_trps.svl 2023.06)
