@<TRIPOS>MOLECULE
NONAME
55 57 1 0 0 
SMALL
USER_CHARGES


@<TRIPOS>ATOM
  1 O        0.5540    -0.1770    -0.9230 O.2   1 <1>  -0.5700 
  2 C        1.5870    -0.8040    -0.9640 C.2   1 <1>   0.5690 
  3 N        2.7820    -0.1970    -1.2500 N.am  1 <1>  -0.6600 
  4 C        1.5410    -2.2980    -0.6780 C.3   1 <1>  -0.0990 
  5 C        2.8700     1.2750    -1.5140 C.3   1 <1>   0.1400 
  6 C        4.1260    -0.8620    -1.2560 C.3   1 <1>   0.1400 
  7 C        0.1200    -2.8530    -0.4410 C.3   1 <1>  -0.0990 
  8 C        3.8300     1.9590    -0.5260 C.3   1 <1>   0.2090 
  9 C        5.0880    -0.1760    -0.2680 C.3   1 <1>   0.2090 
 10 C        0.0820    -4.3520    -0.1520 C.2   1 <1>   0.4230 
 11 N        5.1710     1.2940    -0.5230 N.pl3 1 <1>  -0.8380 
 12 O        1.1380    -4.9290    -0.0610 O.2   1 <1>  -0.5700 
 13 C       -1.1940    -5.0240     0.0020 C.ar  1 <1>   0.0860 
 14 C        6.1960     1.9720     0.1380 C.ar  1 <1>   0.1000 
 15 C       -2.4240    -4.3580    -0.0330 C.ar  1 <1>  -0.1500 
 16 C       -1.2380    -6.4060     0.1980 C.ar  1 <1>  -0.1500 
 17 C        6.2040     2.1880     1.5190 C.ar  1 <1>   0.1600 
 18 C        7.2650     2.4580    -0.5910 C.ar  1 <1>  -0.1500 
 19 C       -3.6290    -5.0240     0.1150 C.ar  1 <1>  -0.1440 
 20 C       -2.4300    -7.0880     0.3480 C.ar  1 <1>  -0.1500 
 21 N        7.1500     2.8180     2.1990 N.ar  1 <1>  -0.6200 
 22 C        8.2610     3.1180     0.0940 C.ar  1 <1>  -0.1500 
 23 C       -3.6400    -6.4020     0.3080 C.ar  1 <1>   0.0820 
 24 C       -4.9380    -4.2470     0.0690 C.3   1 <1>  -0.0970 
 25 C        8.1570     3.2690     1.4670 C.ar  1 <1>   0.1600 
 26 O       -4.8400    -7.0130     0.4480 O.3   1 <1>  -0.3620 
 27 C       -4.9600    -8.4020     0.6480 C.3   1 <1>   0.1200 
 28 C       -6.4440    -8.7340     0.7630 C.3   1 <1>  -0.2400 
 29 H        2.1370    -2.4920     0.1950 H     1 <1>   0.0800 
 30 H        1.9780    -2.8170    -1.5110 H     1 <1>   0.0800 
 31 H        1.9000     1.7350    -1.4370 H     1 <1>   0.0800 
 32 H        3.2280     1.4320    -2.5160 H     1 <1>   0.0800 
 33 H        4.5440    -0.7950    -2.2450 H     1 <1>   0.0800 
 34 H        4.0510    -1.9020    -1.0020 H     1 <1>   0.0800 
 35 H       -0.4740    -2.6550    -1.3150 H     1 <1>   0.0800 
 36 H       -0.3190    -2.3340     0.3920 H     1 <1>   0.0800 
 37 H        3.4040     1.9220     0.4610 H     1 <1>   0.0800 
 38 H        3.9480     2.9930    -0.8020 H     1 <1>   0.0800 
 39 H        6.0690    -0.6080    -0.3670 H     1 <1>   0.0800 
 40 H        4.7460    -0.3490     0.7370 H     1 <1>   0.0800 
 41 H       -2.4500    -3.2930    -0.1770 H     1 <1>   0.1500 
 42 H       -0.3130    -6.9560     0.2320 H     1 <1>   0.1500 
 43 H        5.3720     1.8100     2.0840 H     1 <1>   0.1500 
 44 H        7.2990     2.3150    -1.6550 H     1 <1>   0.1500 
 45 H       -2.3980    -8.1500     0.4950 H     1 <1>   0.1500 
 46 H        9.1130     3.5140    -0.4290 H     1 <1>   0.1500 
 47 H       -4.7670    -3.1970    -0.0860 H     1 <1>   0.0800 
 48 H       -5.4700    -4.3760     0.9940 H     1 <1>   0.0800 
 49 H       -5.5510    -4.6170    -0.7340 H     1 <1>   0.0800 
 50 H        8.9430     3.7870     1.9900 H     1 <1>   0.1500 
 51 H       -4.4400    -8.6610     1.5540 H     1 <1>   0.0800 
 52 H       -4.5200    -8.9070    -0.1940 H     1 <1>   0.0800 
 53 H       -6.8760    -8.2110     1.5960 H     1 <1>   0.0800 
 54 H       -6.5710    -9.7900     0.9170 H     1 <1>   0.0800 
 55 H       -6.9560    -8.4550    -0.1410 H     1 <1>   0.0800 
@<TRIPOS>BOND
  1   1   2  2   
  2   2   3  am  
  3   2   4  1   
  4   3   5  1   
  5   3   6  1   
  6   4   7  1   
  7   4  29  1   
  8   4  30  1   
  9   5   8  1   
 10   5  31  1   
 11   5  32  1   
 12   6   9  1   
 13   6  33  1   
 14   6  34  1   
 15   7  10  1   
 16   7  35  1   
 17   7  36  1   
 18   8  11  1   
 19   8  37  1   
 20   8  38  1   
 21   9  11  1   
 22   9  39  1   
 23   9  40  1   
 24  10  12  2   
 25  10  13  1   
 26  11  14  1   
 27  13  15  ar  
 28  13  16  ar  
 29  14  17  ar  
 30  14  18  ar  
 31  15  19  ar  
 32  15  41  1   
 33  16  20  ar  
 34  16  42  1   
 35  17  21  ar  
 36  17  43  1   
 37  18  22  ar  
 38  18  44  1   
 39  19  23  ar  
 40  19  24  1   
 41  20  23  ar  
 42  20  45  1   
 43  21  25  ar  
 44  22  25  ar  
 45  22  46  1   
 46  23  26  1   
 47  24  47  1   
 48  24  48  1   
 49  24  49  1   
 50  25  50  1   
 51  26  27  1   
 52  27  28  1   
 53  27  51  1   
 54  27  52  1   
 55  28  53  1   
 56  28  54  1   
 57  28  55  1   
@<TRIPOS>SUBSTRUCTURE
  1 ****   4 GROUP 4 **** **** 0

# MOE 2024.06 (io_trps.svl 2023.06)
