@<TRIPOS>MOLECULE
NONAME
49 52 1 0 0 
SMALL
USER_CHARGES


@<TRIPOS>ATOM
  1 O        0.2730     2.6290    -0.5720 O.3   1 <1>  -0.2800 
  2 C       -0.4580     1.5590    -0.3150 C.2   1 <1>  -0.0400 
  3 C        1.4350     2.4860     0.0320 C.2   1 <1>  -0.0100 
  4 C        0.2440     0.6950     0.4560 C.2   1 <1>  -0.1500 
  5 C       -1.8720     1.5390    -0.8850 C.3   1 <1>   0.6030 
  6 C        1.4850     1.3060     0.6820 C.2   1 <1>  -0.1500 
  7 N       -2.4820     2.8250    -0.4850 N.4   1 <1>  -0.9590 
  8 C       -2.7890     0.4650    -0.2950 C.3   1 <1>  -0.1600 
  9 C       -3.7930     2.5960     0.1590 C.3   1 <1>   0.3430 
 10 C       -2.4590     3.8610    -1.5390 C.3   1 <1>   0.4860 
 11 C       -3.6780     1.1890     0.7170 C.3   1 <1>  -0.1600 
 12 C       -2.5210     5.2040    -0.8430 C.ar  1 <1>  -0.1430 
 13 C       -1.3990     5.6650    -0.1750 C.ar  1 <1>  -0.1500 
 14 C       -3.6690     5.9800    -0.8580 C.ar  1 <1>  -0.1500 
 15 C       -1.4050     6.8850     0.4810 C.ar  1 <1>  -0.1430 
 16 C       -3.6900     7.1990    -0.2050 C.ar  1 <1>  -0.1500 
 17 C       -2.5610     7.6600     0.4700 C.ar  1 <1>   0.0820 
 18 C       -0.1420     7.3550     1.2070 C.3   1 <1>   0.2390 
 19 O       -2.5310     8.8460     1.1290 O.3   1 <1>  -0.3630 
 20 N        1.0600     7.2090     0.3540 N.pl3 1 <1>   0.3140 
 21 C       -3.6300     9.7320     1.1260 C.3   1 <1>   0.0400 
 22 N        1.8730     6.1300     0.4180 N.2   1 <1>  -0.7070 
 23 C        1.4980     8.0900    -0.5680 C.2   1 <1>  -0.3020 
 24 C        2.8050     6.3640    -0.4560 C.2   1 <1>   0.1390 
 25 C        2.6220     7.5760    -1.1090 C.2   1 <1>  -0.1500 
 26 H        2.1660     3.2750    -0.0490 H     1 <1>   0.1500 
 27 H       -0.0330    -0.2660     0.8530 H     1 <1>   0.1500 
 28 H       -1.8300     1.4490    -1.9590 H     1 <1>   0.0800 
 29 H        2.2920     0.8950     1.2640 H     1 <1>   0.1500 
 30 H       -1.8300     3.1740     0.2340 H     1 <1>   0.4500 
 31 H       -2.2520    -0.3540     0.1470 H     1 <1>   0.0800 
 32 H       -3.3970     0.0690    -1.0900 H     1 <1>   0.0800 
 33 H       -4.5770     2.6290    -0.5810 H     1 <1>   0.0800 
 34 H       -3.9910     3.3240     0.9300 H     1 <1>   0.0800 
 35 H       -3.2890     3.7390    -2.2160 H     1 <1>   0.0800 
 36 H       -1.5380     3.8020    -2.0970 H     1 <1>   0.0800 
 37 H       -3.1960     1.2270     1.6790 H     1 <1>   0.0800 
 38 H       -4.6420     0.7230     0.8270 H     1 <1>   0.0800 
 39 H       -0.4980     5.0730    -0.1660 H     1 <1>   0.1500 
 40 H       -4.5540     5.6510    -1.3770 H     1 <1>   0.1500 
 41 H       -4.5930     7.7790    -0.2330 H     1 <1>   0.1500 
 42 H        0.0030     6.7660     2.0930 H     1 <1>   0.0800 
 43 H       -0.2140     8.3850     1.4990 H     1 <1>   0.0800 
 44 H       -3.3570    10.6060     1.6900 H     1 <1>   0.0800 
 45 H       -4.4720     9.2480     1.5890 H     1 <1>   0.0800 
 46 H       -3.8540    10.0090     0.1110 H     1 <1>   0.0800 
 47 H        0.9930     9.0140    -0.7830 H     1 <1>   0.1500 
 48 H        3.6230     5.6910    -0.6480 H     1 <1>   0.1500 
 49 H        3.2560     7.9890    -1.8730 H     1 <1>   0.1500 
@<TRIPOS>BOND
  1   1   2  1   
  2   1   3  1   
  3   2   4  2   
  4   2   5  1   
  5   3   6  2   
  6   3  26  1   
  7   4   6  1   
  8   4  27  1   
  9   5   7  1   
 10   5   8  1   
 11   5  28  1   
 12   6  29  1   
 13   7   9  1   
 14   7  10  1   
 15   7  30  1   
 16   8  11  1   
 17   8  31  1   
 18   8  32  1   
 19   9  11  1   
 20   9  33  1   
 21   9  34  1   
 22  10  12  1   
 23  10  35  1   
 24  10  36  1   
 25  11  37  1   
 26  11  38  1   
 27  12  13  ar  
 28  12  14  ar  
 29  13  15  ar  
 30  13  39  1   
 31  14  16  ar  
 32  14  40  1   
 33  15  17  ar  
 34  15  18  1   
 35  16  17  ar  
 36  16  41  1   
 37  17  19  1   
 38  18  20  1   
 39  18  42  1   
 40  18  43  1   
 41  19  21  1   
 42  20  22  1   
 43  20  23  1   
 44  21  44  1   
 45  21  45  1   
 46  21  46  1   
 47  22  24  2   
 48  23  25  2   
 49  23  47  1   
 50  24  25  1   
 51  24  48  1   
 52  25  49  1   
@<TRIPOS>SUBSTRUCTURE
  1 ****  13 GROUP 4 **** **** 0

# MOE 2024.06 (io_trps.svl 2023.06)
