@<TRIPOS>MOLECULE
NONAME
47 48 1 0 0 
SMALL
USER_CHARGES


@<TRIPOS>ATOM
  1 S       -0.0920    -0.1590    -1.0020 S.o2  1 <1>   1.3330 
  2 O       -0.9020    -1.3050    -0.6580 O.2   1 <1>  -0.6500 
  3 O        0.4100    -0.0110    -2.3500 O.2   1 <1>  -0.6500 
  4 N        1.2320    -0.1270     0.0630 N.am  1 <1>  -0.8490 
  5 C       -0.9890     1.3390    -0.5870 C.3   1 <1>  -0.0550 
  6 C        0.9400    -0.7120     1.3770 C.3   1 <1>   0.1160 
  7 C        2.4300    -0.7510    -0.5070 C.3   1 <1>   0.1160 
  8 C       -0.2590     2.6450    -0.9760 C.3   1 <1>  -0.0800 
  9 C       -1.0890     3.9140    -0.7700 C.3   1 <1>   0.2000 
 10 C        1.0360     2.9140    -0.1980 C.3   1 <1>   0.1400 
 11 O       -1.7020     3.8580     0.4720 O.3   1 <1>  -0.6800 
 12 C       -0.0450     5.0280    -0.7330 C.3   1 <1>   0.1400 
 13 N        1.1470     4.3940    -0.1090 N.am  1 <1>  -0.6600 
 14 C        2.3440     5.0220     0.1510 C.2   1 <1>   0.6160 
 15 O        3.3320     4.3390     0.3350 O.2   1 <1>  -0.5700 
 16 C        2.4540     6.4650     0.1980 C.2   1 <1>   0.0140 
 17 C        1.6200     7.2630     0.9320 C.2   1 <1>  -0.1360 
 18 C        3.4860     7.1180    -0.5360 C.2   1 <1>  -0.1500 
 19 C        1.7360     8.6740     0.9470 C.2   1 <1>   0.6160 
 20 C        3.6140     8.4690    -0.5240 C.2   1 <1>  -0.0410 
 21 O        0.9530     9.3600     1.5950 O.2   1 <1>  -0.5700 
 22 N        2.7470     9.2610     0.2020 N.am  1 <1>  -0.4690 
 23 C        2.9190    10.7350     0.1970 C.3   1 <1>   0.1400 
 24 C        3.8970    11.1420     1.2980 C.3   1 <1>  -0.2400 
 25 H       -1.9290     1.3190    -1.1030 H     1 <1>   0.0800 
 26 H       -1.2040     1.3420     0.4640 H     1 <1>   0.0800 
 27 H        1.7780    -0.5720     2.0380 H     1 <1>   0.0800 
 28 H        0.7390    -1.7670     1.2830 H     1 <1>   0.0800 
 29 H        0.0790    -0.2350     1.8130 H     1 <1>   0.0800 
 30 H        3.2490    -0.6940     0.1890 H     1 <1>   0.0800 
 31 H        2.7210    -0.2380    -1.4090 H     1 <1>   0.0800 
 32 H        2.2370    -1.7850    -0.7450 H     1 <1>   0.0800 
 33 H       -0.0010     2.5920    -2.0200 H     1 <1>   0.0800 
 34 H       -1.8450     4.0620    -1.5220 H     1 <1>   0.0800 
 35 H        1.8890     2.4920    -0.7040 H     1 <1>   0.0800 
 36 H        0.9830     2.5100     0.7980 H     1 <1>   0.0800 
 37 H       -1.0130     3.9150     1.1650 H     1 <1>   0.4000 
 38 H       -0.4010     5.8770    -0.1770 H     1 <1>   0.0800 
 39 H        0.2040     5.3310    -1.7350 H     1 <1>   0.0800 
 40 H        0.8380     6.8520     1.5390 H     1 <1>   0.1500 
 41 H        4.1670     6.4980    -1.0960 H     1 <1>   0.1500 
 42 H        4.3970     8.9650    -1.0760 H     1 <1>   0.1500 
 43 H        3.2940    11.0480    -0.7620 H     1 <1>   0.0800 
 44 H        1.9680    11.2160     0.3530 H     1 <1>   0.0800 
 45 H        4.8540    10.6780     1.1430 H     1 <1>   0.0800 
 46 H        3.5100    10.8520     2.2590 H     1 <1>   0.0800 
 47 H        4.0260    12.2090     1.2920 H     1 <1>   0.0800 
@<TRIPOS>BOND
  1   1   2  2   
  2   1   3  2   
  3   1   4  am  
  4   1   5  1   
  5   4   6  1   
  6   4   7  1   
  7   5   8  1   
  8   5  25  1   
  9   5  26  1   
 10   6  27  1   
 11   6  28  1   
 12   6  29  1   
 13   7  30  1   
 14   7  31  1   
 15   7  32  1   
 16   8   9  1   
 17   8  10  1   
 18   8  33  1   
 19   9  11  1   
 20   9  12  1   
 21   9  34  1   
 22  10  13  1   
 23  10  35  1   
 24  10  36  1   
 25  11  37  1   
 26  12  13  1   
 27  12  38  1   
 28  12  39  1   
 29  13  14  am  
 30  14  15  2   
 31  14  16  1   
 32  16  17  2   
 33  16  18  1   
 34  17  19  1   
 35  17  40  1   
 36  18  20  2   
 37  18  41  1   
 38  19  21  2   
 39  19  22  am  
 40  20  22  1   
 41  20  42  1   
 42  22  23  1   
 43  23  24  1   
 44  23  43  1   
 45  23  44  1   
 46  24  45  1   
 47  24  46  1   
 48  24  47  1   
@<TRIPOS>SUBSTRUCTURE
  1 ****  13 GROUP 4 **** **** 0

# MOE 2024.06 (io_trps.svl 2023.06)
