@<TRIPOS>MOLECULE
NONAME
56 58 1 0 0 
SMALL
USER_CHARGES


@<TRIPOS>ATOM
  1 N       -0.1050     0.5190     0.3820 N.ar  1 <1>  -0.6200 
  2 C       -1.0190    -0.1880    -0.2710 C.ar  1 <1>   0.7710 
  3 C       -0.4460     1.7040     0.8430 C.ar  1 <1>   0.4100 
  4 N       -2.2630     0.2780    -0.4780 N.ar  1 <1>  -0.1790 
  5 N       -0.6910    -1.4120    -0.7470 N.pl3 1 <1>  -0.8380 
  6 N        0.5030     2.3950     1.5280 N.pl3 1 <1>  -0.8380 
  7 C       -1.7380     2.2280     0.6470 C.ar  1 <1>  -0.1500 
  8 C       -2.6560     1.4920    -0.0260 C.ar  1 <1>   0.2180 
  9 C       -1.5560    -2.3930    -1.4620 C.3   1 <1>   0.2090 
 10 C        0.6740    -1.9840    -0.5640 C.3   1 <1>   0.2090 
 11 C        0.7730     3.8500     1.3480 C.3   1 <1>   0.2090 
 12 C        1.4100     1.6760     2.4820 C.3   1 <1>   0.1290 
 13 C       -4.0820     1.9480    -0.2860 C.3   1 <1>  -0.0970 
 14 C       -0.7620    -3.6910    -1.4680 C.3   1 <1>  -0.1600 
 15 C        0.6940    -3.2510    -1.4060 C.3   1 <1>  -0.1600 
 16 C        2.0850     4.0490     0.5620 C.3   1 <1>   0.3430 
 17 N        2.4180     5.4880     0.2680 N.4   1 <1>  -0.9590 
 18 C        3.5250     5.5530    -0.7430 C.3   1 <1>   0.4230 
 19 C        2.6810     6.2730     1.5210 C.3   1 <1>   0.2630 
 20 C        4.8990     5.1910    -0.1710 C.3   1 <1>  -0.1600 
 21 C        3.7020     6.9740    -1.2770 C.3   1 <1>  -0.1600 
 22 C        5.5850     6.5000     0.2360 C.3   1 <1>  -0.1600 
 23 C        4.8430     7.6280    -0.4870 C.3   1 <1>  -0.1600 
 24 H       -2.8790    -0.3410    -0.9880 H     1 <1>   0.4570 
 25 H       -1.9750     3.1910     1.0570 H     1 <1>   0.1500 
 26 H       -1.7120    -2.0620    -2.4760 H     1 <1>   0.0800 
 27 H       -2.5010    -2.5330    -0.9650 H     1 <1>   0.0800 
 28 H        0.8220    -2.2250     0.4760 H     1 <1>   0.0800 
 29 H        1.4370    -1.2920    -0.8830 H     1 <1>   0.0800 
 30 H        0.8400     4.3120     2.3180 H     1 <1>   0.0800 
 31 H       -0.0330     4.3060     0.8020 H     1 <1>   0.0800 
 32 H        0.9920     0.7190     2.7470 H     1 <1>   0.0800 
 33 H        1.5320     2.2470     3.3870 H     1 <1>   0.0800 
 34 H        2.3720     1.5100     2.0290 H     1 <1>   0.0800 
 35 H       -4.7820     1.2700     0.1680 H     1 <1>   0.0800 
 36 H       -4.2760     1.9980    -1.3430 H     1 <1>   0.0800 
 37 H       -4.2470     2.9260     0.1310 H     1 <1>   0.0800 
 38 H       -0.9720    -4.2880    -2.3390 H     1 <1>   0.0800 
 39 H       -1.0080    -4.2610    -0.5880 H     1 <1>   0.0800 
 40 H        1.3340    -4.0040    -0.9790 H     1 <1>   0.0800 
 41 H        1.0500    -3.0110    -2.3930 H     1 <1>   0.0800 
 42 H        1.9930     3.5100    -0.3670 H     1 <1>   0.0800 
 43 H        2.8910     3.6040     1.1220 H     1 <1>   0.0800 
 44 H        1.6070     5.9130    -0.2000 H     1 <1>   0.4500 
 45 H        3.2890     4.8930    -1.5630 H     1 <1>   0.0800 
 46 H        3.5270     5.8630     2.0490 H     1 <1>   0.0800 
 47 H        1.8230     6.2490     2.1730 H     1 <1>   0.0800 
 48 H        2.8940     7.3010     1.2810 H     1 <1>   0.0800 
 49 H        5.4760     4.7530    -0.9670 H     1 <1>   0.0800 
 50 H        4.8600     4.4810     0.6350 H     1 <1>   0.0800 
 51 H        2.7970     7.5550    -1.2470 H     1 <1>   0.0800 
 52 H        4.0140     6.9000    -2.3050 H     1 <1>   0.0800 
 53 H        6.6270     6.4860    -0.0420 H     1 <1>   0.0800 
 54 H        5.5280     6.6450     1.3010 H     1 <1>   0.0800 
 55 H        4.4580     8.3370     0.2260 H     1 <1>   0.0800 
 56 H        5.5070     8.1550    -1.1540 H     1 <1>   0.0800 
@<TRIPOS>BOND
  1   1   2  ar  
  2   1   3  ar  
  3   2   4  ar  
  4   2   5  1   
  5   3   6  1   
  6   3   7  ar  
  7   4   8  ar  
  8   4  24  1   
  9   5   9  1   
 10   5  10  1   
 11   6  11  1   
 12   6  12  1   
 13   7   8  ar  
 14   7  25  1   
 15   8  13  1   
 16   9  14  1   
 17   9  26  1   
 18   9  27  1   
 19  10  15  1   
 20  10  28  1   
 21  10  29  1   
 22  11  16  1   
 23  11  30  1   
 24  11  31  1   
 25  12  32  1   
 26  12  33  1   
 27  12  34  1   
 28  13  35  1   
 29  13  36  1   
 30  13  37  1   
 31  14  15  1   
 32  14  38  1   
 33  14  39  1   
 34  15  40  1   
 35  15  41  1   
 36  16  17  1   
 37  16  42  1   
 38  16  43  1   
 39  17  18  1   
 40  17  19  1   
 41  17  44  1   
 42  18  20  1   
 43  18  21  1   
 44  18  45  1   
 45  19  46  1   
 46  19  47  1   
 47  19  48  1   
 48  20  22  1   
 49  20  49  1   
 50  20  50  1   
 51  21  23  1   
 52  21  51  1   
 53  21  52  1   
 54  22  23  1   
 55  22  53  1   
 56  22  54  1   
 57  23  55  1   
 58  23  56  1   
@<TRIPOS>SUBSTRUCTURE
  1 ****   6 GROUP 4 **** **** 0

# MOE 2024.06 (io_trps.svl 2023.06)
