@<TRIPOS>MOLECULE
NONAME
51 52 1 0 0 
SMALL
USER_CHARGES


@<TRIPOS>ATOM
  1 S        0.0400    -0.0840    -1.5930 S.3   1 <1>  -0.0800 
  2 C       -0.9680     0.9830    -0.6420 C.2   1 <1>   0.1980 
  3 C       -0.4460    -1.4100    -0.5760 C.2   1 <1>  -0.1400 
  4 N       -1.5820     0.4090     0.3150 N.2   1 <1>  -0.5650 
  5 C       -0.9970     2.4540    -1.0330 C.3   1 <1>   0.2900 
  6 C       -1.2950    -0.9450     0.3580 C.2   1 <1>   0.0460 
  7 C        0.1370    -2.7700    -0.9070 C.3   1 <1>  -0.0600 
  8 N        0.2620     3.1590    -0.6750 N.3   1 <1>  -0.8100 
  9 C       -1.9790    -1.7320     1.4540 C.3   1 <1>  -0.0590 
 10 C        0.2730     4.5620    -1.1630 C.3   1 <1>   0.1100 
 11 C        0.5280     3.1090     0.7860 C.3   1 <1>   0.1100 
 12 C        1.5140     5.3750    -0.6770 C.3   1 <1>   0.4230 
 13 C        1.9040     3.7170     1.1410 C.3   1 <1>   0.3430 
 14 N        2.4980     4.4450    -0.0310 N.4   1 <1>  -0.9590 
 15 C        1.1460     6.5520     0.2560 C.3   1 <1>  -0.1600 
 16 C        3.8290     5.0670     0.2100 C.3   1 <1>   0.3430 
 17 C        1.6070     7.8950    -0.3140 C.3   1 <1>   0.1200 
 18 C        4.9100     4.0150     0.5210 C.3   1 <1>  -0.0800 
 19 O        2.9580     7.8140    -0.6020 O.3   1 <1>  -0.6800 
 20 C        6.2700     4.7090     0.6650 C.3   1 <1>  -0.2400 
 21 C        5.0070     2.9270    -0.5630 C.3   1 <1>  -0.2400 
 22 H       -1.8310     2.9220    -0.5400 H     1 <1>   0.0800 
 23 H       -1.1560     2.5170    -2.0960 H     1 <1>   0.0800 
 24 H       -0.1430    -3.0520    -1.9060 H     1 <1>   0.0800 
 25 H       -0.2210    -3.5170    -0.2250 H     1 <1>   0.0800 
 26 H        1.2100    -2.7320    -0.8460 H     1 <1>   0.0800 
 27 H       -1.7040    -2.7690     1.4160 H     1 <1>   0.0800 
 28 H       -3.0450    -1.6510     1.3420 H     1 <1>   0.0800 
 29 H       -1.7010    -1.3330     2.4120 H     1 <1>   0.0800 
 30 H       -0.6380     5.0540    -0.8700 H     1 <1>   0.0800 
 31 H        0.2850     4.5480    -2.2400 H     1 <1>   0.0800 
 32 H        0.5130     2.0900     1.1360 H     1 <1>   0.0800 
 33 H       -0.2450     3.6390     1.3160 H     1 <1>   0.0800 
 34 H        1.9750     5.7970    -1.5550 H     1 <1>   0.0800 
 35 H        2.5630     2.9180     1.4390 H     1 <1>   0.0800 
 36 H        1.7960     4.3810     1.9820 H     1 <1>   0.0800 
 37 H        2.6120     3.7030    -0.7360 H     1 <1>   0.4500 
 38 H        1.5760     6.4350     1.2330 H     1 <1>   0.0800 
 39 H        0.0820     6.6110     0.3930 H     1 <1>   0.0800 
 40 H        3.7630     5.7730     1.0210 H     1 <1>   0.0800 
 41 H        4.1270     5.6130    -0.6700 H     1 <1>   0.0800 
 42 H        1.4570     8.6860     0.4020 H     1 <1>   0.0800 
 43 H        1.0820     8.1350    -1.2250 H     1 <1>   0.0800 
 44 H        4.6870     3.5490     1.4650 H     1 <1>   0.0800 
 45 H        3.3010     8.6900    -0.8830 H     1 <1>   0.4000 
 46 H        6.5590     5.1850    -0.2560 H     1 <1>   0.0800 
 47 H        7.0310     3.9940     0.9290 H     1 <1>   0.0800 
 48 H        6.2350     5.4560     1.4400 H     1 <1>   0.0800 
 49 H        5.1910     3.3640    -1.5290 H     1 <1>   0.0800 
 50 H        4.1090     2.3380    -0.6130 H     1 <1>   0.0800 
 51 H        5.8190     2.2560    -0.3410 H     1 <1>   0.0800 
@<TRIPOS>BOND
  1   1   2  1   
  2   1   3  1   
  3   2   4  2   
  4   2   5  1   
  5   3   6  2   
  6   3   7  1   
  7   4   6  1   
  8   5   8  1   
  9   5  22  1   
 10   5  23  1   
 11   6   9  1   
 12   7  24  1   
 13   7  25  1   
 14   7  26  1   
 15   8  10  1   
 16   8  11  1   
 17   9  27  1   
 18   9  28  1   
 19   9  29  1   
 20  10  12  1   
 21  10  30  1   
 22  10  31  1   
 23  11  13  1   
 24  11  32  1   
 25  11  33  1   
 26  12  14  1   
 27  12  15  1   
 28  12  34  1   
 29  13  14  1   
 30  13  35  1   
 31  13  36  1   
 32  14  16  1   
 33  14  37  1   
 34  15  17  1   
 35  15  38  1   
 36  15  39  1   
 37  16  18  1   
 38  16  40  1   
 39  16  41  1   
 40  17  19  1   
 41  17  42  1   
 42  17  43  1   
 43  18  20  1   
 44  18  21  1   
 45  18  44  1   
 46  19  45  1   
 47  20  46  1   
 48  20  47  1   
 49  20  48  1   
 50  21  49  1   
 51  21  50  1   
 52  21  51  1   
@<TRIPOS>SUBSTRUCTURE
  1 ****   8 GROUP 4 **** **** 0

# MOE 2024.06 (io_trps.svl 2023.06)
