@<TRIPOS>MOLECULE
NONAME
51 54 1 0 0 
SMALL
USER_CHARGES


@<TRIPOS>ATOM
  1 S        0.3780    -1.0140    -2.5620 S.3   1 <1>  -0.0800 
  2 C        0.6420    -1.8460    -1.0370 C.2   1 <1>  -0.1400 
  3 C        1.2670     0.3880    -1.9980 C.2   1 <1>  -0.1100 
  4 C        1.3660    -1.0740    -0.2040 C.2   1 <1>  -0.1500 
  5 C        0.0660    -3.2420    -0.8730 C.3   1 <1>   0.5230 
  6 C        1.7220     0.2060    -0.7420 C.2   1 <1>   0.0190 
  7 N       -1.4000    -3.1830    -0.6150 N.4   1 <1>  -0.9590 
  8 C        2.4800     1.1470     0.0240 C.1   1 <1>  -0.0190 
  9 C       -2.1880    -2.8620    -1.8460 C.3   1 <1>   0.3430 
 10 C       -1.7610    -2.2840     0.5180 C.3   1 <1>   0.3430 
 11 C        3.1120     1.9300     0.6600 C.1   1 <1>  -0.2000 
 12 C       -3.5400    -3.6060    -1.8780 C.3   1 <1>   0.1400 
 13 C       -2.9660    -2.8080     1.3090 C.3   1 <1>  -0.1600 
 14 C        3.9090     2.9120     1.4400 C.3   1 <1>   0.3200 
 15 N       -3.9670    -4.1150    -0.5360 N.am  1 <1>  -0.6600 
 16 C       -4.2380    -3.0800     0.4930 C.3   1 <1>   0.1400 
 17 O        4.9900     3.2700     0.6650 O.3   1 <1>  -0.6800 
 18 C       -3.6470    -5.3980    -0.1570 C.2   1 <1>   0.5440 
 19 O       -2.5210    -5.7730    -0.4400 O.2   1 <1>  -0.5700 
 20 C       -4.5590    -6.2310     0.6070 C.ar  1 <1>   0.0860 
 21 C       -5.9420    -6.0060     0.5830 C.ar  1 <1>  -0.1500 
 22 C       -4.0810    -7.2920     1.3950 C.ar  1 <1>  -0.1500 
 23 C       -6.7690    -6.8100     1.3370 C.ar  1 <1>   0.0830 
 24 C       -4.9270    -8.0960     2.1460 C.ar  1 <1>  -0.1500 
 25 O       -8.0990    -6.7480     1.4520 O.3   1 <1>  -0.3630 
 26 C       -6.2790    -7.8280     2.1000 C.ar  1 <1>   0.0830 
 27 C       -8.4820    -7.7990     2.3380 C.3   1 <1>   0.4000 
 28 O       -7.2760    -8.4520     2.7280 O.3   1 <1>  -0.3620 
 29 H        1.3660     1.2230    -2.6700 H     1 <1>   0.1500 
 30 H        1.6850    -1.3360     0.7900 H     1 <1>   0.1500 
 31 H        0.5510    -3.7200    -0.0380 H     1 <1>   0.0800 
 32 H        0.2680    -3.8290    -1.7540 H     1 <1>   0.0800 
 33 H       -1.7110    -4.1480    -0.3660 H     1 <1>   0.4500 
 34 H       -1.6310    -3.1410    -2.7250 H     1 <1>   0.0800 
 35 H       -2.3600    -1.8000    -1.9000 H     1 <1>   0.0800 
 36 H       -1.9660    -1.2950     0.1430 H     1 <1>   0.0800 
 37 H       -0.9240    -2.2070     1.1940 H     1 <1>   0.0800 
 38 H       -3.4490    -4.4440    -2.5500 H     1 <1>   0.0800 
 39 H       -4.3010    -2.9610    -2.2830 H     1 <1>   0.0800 
 40 H       -3.2070    -2.0740     2.0580 H     1 <1>   0.0800 
 41 H       -2.6830    -3.6990     1.8410 H     1 <1>   0.0800 
 42 H        4.2730     2.4740     2.3530 H     1 <1>   0.0800 
 43 H        3.3390     3.7980     1.6600 H     1 <1>   0.0800 
 44 H       -4.5860    -2.1750     0.0220 H     1 <1>   0.0800 
 45 H       -5.0180    -3.4260     1.1510 H     1 <1>   0.0800 
 46 H        5.3210     2.4780     0.2010 H     1 <1>   0.4000 
 47 H       -6.3700    -5.2230    -0.0140 H     1 <1>   0.1500 
 48 H       -3.0230    -7.4920     1.4150 H     1 <1>   0.1500 
 49 H       -4.5560    -8.9070     2.7480 H     1 <1>   0.1500 
 50 H       -9.1190    -8.4950     1.8210 H     1 <1>   0.0800 
 51 H       -8.9660    -7.3850     3.2050 H     1 <1>   0.0800 
@<TRIPOS>BOND
  1   1   2  1   
  2   1   3  1   
  3   2   4  2   
  4   2   5  1   
  5   3   6  2   
  6   3  29  1   
  7   4   6  1   
  8   4  30  1   
  9   5   7  1   
 10   5  31  1   
 11   5  32  1   
 12   6   8  1   
 13   7   9  1   
 14   7  10  1   
 15   7  33  1   
 16   8  11  3   
 17   9  12  1   
 18   9  34  1   
 19   9  35  1   
 20  10  13  1   
 21  10  36  1   
 22  10  37  1   
 23  11  14  1   
 24  12  15  1   
 25  12  38  1   
 26  12  39  1   
 27  13  16  1   
 28  13  40  1   
 29  13  41  1   
 30  14  17  1   
 31  14  42  1   
 32  14  43  1   
 33  15  16  1   
 34  15  18  am  
 35  16  44  1   
 36  16  45  1   
 37  17  46  1   
 38  18  19  2   
 39  18  20  1   
 40  20  21  ar  
 41  20  22  ar  
 42  21  23  ar  
 43  21  47  1   
 44  22  24  ar  
 45  22  48  1   
 46  23  25  1   
 47  23  26  ar  
 48  24  26  ar  
 49  24  49  1   
 50  25  27  1   
 51  26  28  1   
 52  27  28  1   
 53  27  50  1   
 54  27  51  1   
@<TRIPOS>SUBSTRUCTURE
  1 ****   7 GROUP 4 **** **** 0

# MOE 2024.06 (io_trps.svl 2023.06)
