@<TRIPOS>MOLECULE
NONAME
42 44 1 0 0 
SMALL
USER_CHARGES


@<TRIPOS>ATOM
  1 O       -1.0340     0.4010     0.1950 O.3   1 <1>  -0.5600 
  2 C       -1.7440     0.8840     1.3040 C.3   1 <1>   0.1200 
  3 C       -1.2330    -0.9390    -0.1580 C.3   1 <1>   0.1200 
  4 C       -3.1900     1.2770     0.9020 C.3   1 <1>   0.4230 
  5 C       -2.7230    -1.2950    -0.3750 C.3   1 <1>  -0.0800 
  6 N       -3.3350     1.1620    -0.6010 N.4   1 <1>  -0.9590 
  7 C       -4.2670     0.5210     1.7440 C.3   1 <1>   0.2090 
  8 C       -3.4200    -1.7440     0.9270 C.3   1 <1>   0.2090 
  9 C       -3.5110    -0.2240    -1.1520 C.3   1 <1>   0.3430 
 10 C       -4.2900     2.1320    -1.2120 C.3   1 <1>   0.2630 
 11 N       -4.5980    -0.8850     1.2980 N.pl3 1 <1>  -0.8380 
 12 C       -5.8570    -1.3480     1.0740 C.ar  1 <1>   0.7710 
 13 N       -6.0550    -2.1020     0.0040 N.ar  1 <1>  -0.6200 
 14 N       -6.8540    -1.0300     1.9260 N.ar  1 <1>  -0.1790 
 15 C       -7.2740    -2.5350    -0.2270 C.ar  1 <1>   0.4100 
 16 C       -8.1210    -1.4700     1.7210 C.ar  1 <1>   0.2110 
 17 N       -7.4100    -3.2850    -1.3310 N.pl3 1 <1>  -0.8690 
 18 C       -8.3500    -2.2340     0.6270 C.ar  1 <1>  -0.1500 
 19 C       -8.6330    -3.8920    -1.9250 C.3   1 <1>   0.1290 
 20 H       -1.7080     0.1600     2.0990 H     1 <1>   0.0800 
 21 H       -1.2270     1.7640     1.6470 H     1 <1>   0.0800 
 22 H       -0.6890    -1.0950    -1.0750 H     1 <1>   0.0800 
 23 H       -0.7820    -1.5630     0.5960 H     1 <1>   0.0800 
 24 H       -3.2830     2.3170     1.1660 H     1 <1>   0.0800 
 25 H       -2.7190    -2.1720    -0.9970 H     1 <1>   0.0800 
 26 H       -2.3720     1.4040    -0.9100 H     1 <1>   0.4500 
 27 H       -5.1610     1.1190     1.7180 H     1 <1>   0.0800 
 28 H       -3.9390     0.4930     2.7710 H     1 <1>   0.0800 
 29 H       -2.7210    -1.7620     1.7460 H     1 <1>   0.0800 
 30 H       -3.7460    -2.7650     0.8020 H     1 <1>   0.0800 
 31 H       -4.5550    -0.4890    -1.1490 H     1 <1>   0.0800 
 32 H       -3.1810    -0.2320    -2.1790 H     1 <1>   0.0800 
 33 H       -5.3010     1.8990    -0.9200 H     1 <1>   0.0800 
 34 H       -4.2260     2.0910    -2.2870 H     1 <1>   0.0800 
 35 H       -4.0580     3.1370    -0.8970 H     1 <1>   0.0800 
 36 H       -6.5950    -0.5200     2.7650 H     1 <1>   0.4570 
 37 H       -8.8960    -1.2100     2.4260 H     1 <1>   0.1500 
 38 H       -6.5460    -3.5280    -1.8280 H     1 <1>   0.4000 
 39 H       -9.3270    -2.6210     0.4040 H     1 <1>   0.1500 
 40 H       -9.5060    -3.3100    -1.6920 H     1 <1>   0.0800 
 41 H       -8.7630    -4.8940    -1.5530 H     1 <1>   0.0800 
 42 H       -8.5320    -3.9320    -2.9970 H     1 <1>   0.0800 
@<TRIPOS>BOND
  1   1   2  1   
  2   1   3  1   
  3   2   4  1   
  4   2  20  1   
  5   2  21  1   
  6   3   5  1   
  7   3  22  1   
  8   3  23  1   
  9   4   6  1   
 10   4   7  1   
 11   4  24  1   
 12   5   8  1   
 13   5   9  1   
 14   5  25  1   
 15   6   9  1   
 16   6  10  1   
 17   6  26  1   
 18   7  11  1   
 19   7  27  1   
 20   7  28  1   
 21   8  11  1   
 22   8  29  1   
 23   8  30  1   
 24   9  31  1   
 25   9  32  1   
 26  10  33  1   
 27  10  34  1   
 28  10  35  1   
 29  11  12  1   
 30  12  13  ar  
 31  12  14  ar  
 32  13  15  ar  
 33  14  16  ar  
 34  14  36  1   
 35  15  17  1   
 36  15  18  ar  
 37  16  18  ar  
 38  16  37  1   
 39  17  19  1   
 40  17  38  1   
 41  18  39  1   
 42  19  40  1   
 43  19  41  1   
 44  19  42  1   
@<TRIPOS>SUBSTRUCTURE
  1 ****  11 GROUP 4 **** **** 0

# MOE 2024.06 (io_trps.svl 2023.06)
