@<TRIPOS>MOLECULE
NONAME
40 43 1 0 0 
SMALL
USER_CHARGES


@<TRIPOS>ATOM
  1 S       -1.4160     0.9680     0.7880 S.3   1 <1>  -0.0800 
  2 C       -0.5890     2.4360     0.3130 C.2   1 <1>  -0.1400 
  3 C        0.0860     0.3020     1.4120 C.2   1 <1>  -0.1100 
  4 C        0.7170     2.3930     0.6050 C.2   1 <1>  -0.1810 
  5 C       -1.3030     3.5870    -0.3420 C.3   1 <1>   0.0200 
  6 C        1.1060     1.1660     1.2440 C.2   1 <1>  -0.1500 
  7 C        1.6370     3.5610     0.2560 C.3   1 <1>   0.4610 
  8 C       -0.3970     4.8210    -0.2000 C.3   1 <1>   0.1200 
  9 O        0.9440     4.5190    -0.5290 O.3   1 <1>  -0.5600 
 10 C        2.1920     4.2550     1.5110 C.3   1 <1>  -0.1600 
 11 C        2.8010     3.0830    -0.6150 C.3   1 <1>  -0.1600 
 12 C        3.4530     5.0850     1.2480 C.3   1 <1>   0.3430 
 13 C        3.6900     4.2390    -1.0840 C.3   1 <1>   0.3430 
 14 N        3.5480     5.4260    -0.1950 N.4   1 <1>  -0.9590 
 15 C        4.5200     6.5210    -0.4700 C.3   1 <1>   0.5240 
 16 C        3.8410     7.8690    -0.2450 C.2   1 <1>   0.0460 
 17 N        3.1420     8.1290     0.8810 N.2   1 <1>  -0.5650 
 18 C        3.8190     8.9370    -1.0750 C.2   1 <1>  -0.3020 
 19 C        2.7220     9.3420     0.7160 C.2   1 <1>   0.0360 
 20 N        3.1000     9.8920    -0.4560 N.pl3 1 <1>   0.0330 
 21 H        0.0420    -0.6820     1.8460 H     1 <1>   0.1500 
 22 H       -2.2460     3.7680     0.1410 H     1 <1>   0.0800 
 23 H       -1.4810     3.3680    -1.3790 H     1 <1>   0.0800 
 24 H        2.1200     0.9800     1.5470 H     1 <1>   0.1500 
 25 H       -0.4300     5.1880     0.8110 H     1 <1>   0.0800 
 26 H       -0.7330     5.6020    -0.8590 H     1 <1>   0.0800 
 27 H        2.4450     3.5110     2.2440 H     1 <1>   0.0800 
 28 H        1.4380     4.8730     1.9590 H     1 <1>   0.0800 
 29 H        2.4180     2.5510    -1.4680 H     1 <1>   0.0800 
 30 H        3.4010     2.3870    -0.0570 H     1 <1>   0.0800 
 31 H        4.3240     4.5210     1.5390 H     1 <1>   0.0800 
 32 H        3.4190     5.9820     1.8480 H     1 <1>   0.0800 
 33 H        3.3960     4.5170    -2.0840 H     1 <1>   0.0800 
 34 H        4.7160     3.9110    -1.1140 H     1 <1>   0.0800 
 35 H        2.6200     5.8340    -0.4120 H     1 <1>   0.4500 
 36 H        4.8550     6.4730    -1.4920 H     1 <1>   0.0800 
 37 H        5.3750     6.4320     0.1790 H     1 <1>   0.0800 
 38 H        4.2630     9.0800    -2.0450 H     1 <1>   0.1500 
 39 H        2.1260     9.8830     1.4330 H     1 <1>   0.1500 
 40 H        2.8840    10.8380    -0.7920 H     1 <1>   0.2700 
@<TRIPOS>BOND
  1   1   2  1   
  2   1   3  1   
  3   2   4  2   
  4   2   5  1   
  5   3   6  2   
  6   3  21  1   
  7   4   6  1   
  8   4   7  1   
  9   5   8  1   
 10   5  22  1   
 11   5  23  1   
 12   6  24  1   
 13   7   9  1   
 14   7  10  1   
 15   7  11  1   
 16   8   9  1   
 17   8  25  1   
 18   8  26  1   
 19  10  12  1   
 20  10  27  1   
 21  10  28  1   
 22  11  13  1   
 23  11  29  1   
 24  11  30  1   
 25  12  14  1   
 26  12  31  1   
 27  12  32  1   
 28  13  14  1   
 29  13  33  1   
 30  13  34  1   
 31  14  15  1   
 32  14  35  1   
 33  15  16  1   
 34  15  36  1   
 35  15  37  1   
 36  16  17  1   
 37  16  18  2   
 38  17  19  2   
 39  18  20  1   
 40  18  38  1   
 41  19  20  1   
 42  19  39  1   
 43  20  40  1   
@<TRIPOS>SUBSTRUCTURE
  1 ****   9 GROUP 4 **** **** 0

# MOE 2024.06 (io_trps.svl 2023.06)
