@<TRIPOS>MOLECULE
NONAME
48 50 1 0 0 
SMALL
USER_CHARGES


@<TRIPOS>ATOM
  1 S       -0.0860    -0.0020     0.1060 S.3   1 <1>  -0.0800 
  2 C        1.2880    -0.5180     1.0490 C.2   1 <1>   0.1980 
  3 C        0.9550     1.0510    -0.8120 C.2   1 <1>  -0.1400 
  4 N        2.3830     0.0340     0.7130 N.2   1 <1>  -0.5650 
  5 C        1.0410    -1.5380     2.1360 C.3   1 <1>  -0.0600 
  6 C        2.2150     0.9160    -0.3490 C.2   1 <1>   0.0460 
  7 C        0.2460     1.8610    -1.8840 C.3   1 <1>  -0.0600 
  8 C        3.5060     1.6030    -0.8070 C.3   1 <1>   0.6040 
  9 N        3.5930     2.9820    -0.2340 N.4   1 <1>  -0.9590 
 10 C        3.6380     1.6310    -2.3320 C.3   1 <1>  -0.2400 
 11 C        4.8460     3.7020    -0.6100 C.3   1 <1>   0.4810 
 12 C        3.4570     2.9260     1.2640 C.3   1 <1>   0.2630 
 13 C        4.6980     5.1810    -0.3300 C.2   1 <1>  -0.1240 
 14 C        5.2460     5.6430     0.9040 C.2   1 <1>   0.6160 
 15 C        4.0990     6.0350    -1.1930 C.2   1 <1>  -0.1780 
 16 O        5.7470     4.8400     1.6770 O.2   1 <1>  -0.5700 
 17 N        5.1700     6.9900     1.2110 N.am  1 <1>  -0.4770 
 18 C        3.9890     7.4230    -0.8750 C.ar  1 <1>   0.0280 
 19 C        4.5260     7.8950     0.3400 C.ar  1 <1>   0.1170 
 20 C        5.8030     7.4910     2.4710 C.3   1 <1>   0.0600 
 21 C        3.3580     8.3150    -1.7430 C.ar  1 <1>  -0.1500 
 22 C        4.3920     9.2570     0.6350 C.ar  1 <1>  -0.1500 
 23 C        3.2440     9.6500    -1.4300 C.ar  1 <1>  -0.1500 
 24 C        3.7630    10.1220    -0.2340 C.ar  1 <1>  -0.1500 
 25 H        0.3400    -1.1490     2.8510 H     1 <1>   0.0800 
 26 H        1.9630    -1.7680     2.6390 H     1 <1>   0.0800 
 27 H        0.6440    -2.4390     1.7070 H     1 <1>   0.0800 
 28 H       -0.6140     2.3480    -1.4590 H     1 <1>   0.0800 
 29 H       -0.0910     1.2070    -2.6700 H     1 <1>   0.0800 
 30 H        0.8810     2.6140    -2.3050 H     1 <1>   0.0800 
 31 H        4.3210     1.0110    -0.4210 H     1 <1>   0.0800 
 32 H        2.7910     3.5050    -0.5980 H     1 <1>   0.4500 
 33 H        3.0310     2.3960    -2.7760 H     1 <1>   0.0800 
 34 H        3.3280     0.6790    -2.7280 H     1 <1>   0.0800 
 35 H        4.6620     1.7720    -2.6220 H     1 <1>   0.0800 
 36 H        5.0400     3.5840    -1.6630 H     1 <1>   0.0800 
 37 H        5.6880     3.3020    -0.0680 H     1 <1>   0.0800 
 38 H        4.2780     2.3770     1.6960 H     1 <1>   0.0800 
 39 H        2.5360     2.4400     1.5460 H     1 <1>   0.0800 
 40 H        3.4540     3.9190     1.6830 H     1 <1>   0.0800 
 41 H        3.6910     5.7190    -2.1370 H     1 <1>   0.1500 
 42 H        6.3290     6.7090     2.9900 H     1 <1>   0.0800 
 43 H        5.0440     7.8820     3.1250 H     1 <1>   0.0800 
 44 H        6.5090     8.2680     2.2360 H     1 <1>   0.0800 
 45 H        2.9530     7.9580    -2.6730 H     1 <1>   0.1500 
 46 H        4.7800     9.6610     1.5510 H     1 <1>   0.1500 
 47 H        2.7560    10.3320    -2.1050 H     1 <1>   0.1500 
 48 H        3.6710    11.1670     0.0100 H     1 <1>   0.1500 
@<TRIPOS>BOND
  1   1   2  1   
  2   1   3  1   
  3   2   4  2   
  4   2   5  1   
  5   3   6  2   
  6   3   7  1   
  7   4   6  1   
  8   5  25  1   
  9   5  26  1   
 10   5  27  1   
 11   6   8  1   
 12   7  28  1   
 13   7  29  1   
 14   7  30  1   
 15   8   9  1   
 16   8  10  1   
 17   8  31  1   
 18   9  11  1   
 19   9  12  1   
 20   9  32  1   
 21  10  33  1   
 22  10  34  1   
 23  10  35  1   
 24  11  13  1   
 25  11  36  1   
 26  11  37  1   
 27  12  38  1   
 28  12  39  1   
 29  12  40  1   
 30  13  14  1   
 31  13  15  2   
 32  14  16  2   
 33  14  17  am  
 34  15  18  1   
 35  15  41  1   
 36  17  19  1   
 37  17  20  1   
 38  18  19  ar  
 39  18  21  ar  
 40  19  22  ar  
 41  20  42  1   
 42  20  43  1   
 43  20  44  1   
 44  21  23  ar  
 45  21  45  1   
 46  22  24  ar  
 47  22  46  1   
 48  23  24  ar  
 49  23  47  1   
 50  24  48  1   
@<TRIPOS>SUBSTRUCTURE
  1 ****   9 GROUP 4 **** **** 0

# MOE 2024.06 (io_trps.svl 2023.06)
