@<TRIPOS>MOLECULE
NONAME
47 49 1 0 0 
SMALL
USER_CHARGES


@<TRIPOS>ATOM
  1 S        1.3110     0.7410    -0.0810 S.o2  1 <1>   1.3330 
  2 O        2.0450     0.7860    -1.3260 O.2   1 <1>  -0.6500 
  3 O        2.0160     0.4930     1.1570 O.2   1 <1>  -0.6500 
  4 N        0.0850    -0.4230    -0.2260 N.am  1 <1>  -0.8490 
  5 C        0.3980     2.2750     0.0630 C.3   1 <1>  -0.0550 
  6 C        0.5350    -1.6100    -0.9600 C.3   1 <1>   0.1160 
  7 C       -0.4930    -0.8230     1.0610 C.3   1 <1>   0.1160 
  8 C        1.3060     3.5200     0.1020 C.3   1 <1>  -0.0800 
  9 C        0.5500     4.8500     0.0950 C.3   1 <1>   0.2000 
 10 C        2.2140     3.6030     1.3380 C.3   1 <1>   0.1400 
 11 O       -0.4970     4.7800     1.0030 O.3   1 <1>  -0.6800 
 12 C        1.5760     5.8460     0.6270 C.3   1 <1>   0.1400 
 13 N        2.3730     5.0550     1.6040 N.am  1 <1>  -0.6600 
 14 C        3.2530     5.5480     2.5310 C.2   1 <1>   0.5690 
 15 O        3.8840     4.8100     3.2500 O.2   1 <1>  -0.5700 
 16 C        3.4590     7.0360     2.7090 C.3   1 <1>   0.1570 
 17 N        4.1110     7.5960     1.5190 N.pl3 1 <1>   0.3140 
 18 N        3.4720     8.4680     0.7250 N.2   1 <1>  -0.7070 
 19 C        5.3500     7.3240     1.0910 C.2   1 <1>  -0.3020 
 20 C        4.3480     8.7450    -0.2180 C.ar  1 <1>   0.2890 
 21 C        5.5560     8.0480    -0.0410 C.ar  1 <1>   0.0000 
 22 C        4.2090     9.6140    -1.3250 C.ar  1 <1>  -0.1500 
 23 C        6.6150     8.2170    -0.9690 C.ar  1 <1>  -0.1500 
 24 C        5.2380     9.7680    -2.2080 C.ar  1 <1>  -0.1500 
 25 C        6.4530     9.0610    -2.0270 C.ar  1 <1>  -0.1500 
 26 H       -0.2610     2.3600    -0.7790 H     1 <1>   0.0800 
 27 H       -0.2080     2.2430     0.9470 H     1 <1>   0.0800 
 28 H       -0.2690    -2.3200    -1.0500 H     1 <1>   0.0800 
 29 H        1.3640    -2.0730    -0.4510 H     1 <1>   0.0800 
 30 H        0.8500    -1.3320    -1.9520 H     1 <1>   0.0800 
 31 H       -1.3170    -1.4980     0.9020 H     1 <1>   0.0800 
 32 H       -0.8600     0.0400     1.5900 H     1 <1>   0.0800 
 33 H        0.2480    -1.3130     1.6720 H     1 <1>   0.0800 
 34 H        1.9450     3.5020    -0.7660 H     1 <1>   0.0800 
 35 H        0.1550     5.1200    -0.8710 H     1 <1>   0.0800 
 36 H        3.1720     3.1410     1.1590 H     1 <1>   0.0800 
 37 H        1.7550     3.1370     2.1940 H     1 <1>   0.0800 
 38 H       -0.1230     4.7360     1.9060 H     1 <1>   0.4000 
 39 H        1.1070     6.7050     1.0760 H     1 <1>   0.0800 
 40 H        2.2200     6.1670    -0.1740 H     1 <1>   0.0800 
 41 H        4.0830     7.2170     3.5620 H     1 <1>   0.0800 
 42 H        2.5140     7.5210     2.8570 H     1 <1>   0.0800 
 43 H        6.0210     6.6460     1.5860 H     1 <1>   0.1500 
 44 H        3.2760    10.1340    -1.4280 H     1 <1>   0.1500 
 45 H        7.5240     7.6670    -0.8070 H     1 <1>   0.1500 
 46 H        5.1500    10.4260    -3.0550 H     1 <1>   0.1500 
 47 H        7.2410     9.2090    -2.7460 H     1 <1>   0.1500 
@<TRIPOS>BOND
  1   1   2  2   
  2   1   3  2   
  3   1   4  am  
  4   1   5  1   
  5   4   6  1   
  6   4   7  1   
  7   5   8  1   
  8   5  26  1   
  9   5  27  1   
 10   6  28  1   
 11   6  29  1   
 12   6  30  1   
 13   7  31  1   
 14   7  32  1   
 15   7  33  1   
 16   8   9  1   
 17   8  10  1   
 18   8  34  1   
 19   9  11  1   
 20   9  12  1   
 21   9  35  1   
 22  10  13  1   
 23  10  36  1   
 24  10  37  1   
 25  11  38  1   
 26  12  13  1   
 27  12  39  1   
 28  12  40  1   
 29  13  14  am  
 30  14  15  2   
 31  14  16  1   
 32  16  17  1   
 33  16  41  1   
 34  16  42  1   
 35  17  18  1   
 36  17  19  1   
 37  18  20  2   
 38  19  21  2   
 39  19  43  1   
 40  20  21  ar  
 41  20  22  ar  
 42  21  23  ar  
 43  22  24  ar  
 44  22  44  1   
 45  23  25  ar  
 46  23  45  1   
 47  24  25  ar  
 48  24  46  1   
 49  25  47  1   
@<TRIPOS>SUBSTRUCTURE
  1 ****  13 GROUP 4 **** **** 0

# MOE 2024.06 (io_trps.svl 2023.06)
