@<TRIPOS>MOLECULE
NONAME
45 46 1 0 0 
SMALL
USER_CHARGES


@<TRIPOS>ATOM
  1 O       -0.8150    -0.3150    -2.5880 O.2   1 <1>  -0.5700 
  2 C       -1.3310     0.5120    -1.8710 C.2   1 <1>   0.5690 
  3 N       -2.3020     0.1530    -0.9710 N.am  1 <1>  -0.6600 
  4 C       -0.8950     1.9720    -2.0480 C.3   1 <1>   0.1810 
  5 C       -2.9840     1.0570    -0.0130 C.3   1 <1>   0.1400 
  6 C       -2.7140    -1.2530    -0.7570 C.3   1 <1>   0.1400 
  7 O       -0.6030     2.6140    -0.8310 O.3   1 <1>  -0.5600 
  8 C       -3.9900     0.1660     0.7160 C.3   1 <1>   0.2000 
  9 C       -3.4430    -1.2550     0.5870 C.3   1 <1>  -0.0800 
 10 C       -0.1310     3.9120    -0.9750 C.3   1 <1>   0.1200 
 11 O       -4.1060     0.5130     2.0520 O.3   1 <1>  -0.6800 
 12 C       -4.5360    -2.3290     0.6980 C.3   1 <1>  -0.0170 
 13 C        0.0870     4.4860     0.4240 C.3   1 <1>  -0.1600 
 14 C       -3.9480    -3.7250     0.5580 C.ar  1 <1>  -0.1440 
 15 C        0.6050     5.9280     0.3590 C.3   1 <1>  -0.1600 
 16 C       -3.9760    -4.4190    -0.6350 C.ar  1 <1>  -0.1500 
 17 C       -3.3520    -4.3680     1.6230 C.ar  1 <1>  -0.1500 
 18 C        0.8200     6.4980     1.7640 C.3   1 <1>  -0.2400 
 19 C       -3.4190    -5.6850    -0.7030 C.ar  1 <1>   0.1600 
 20 C       -2.8250    -5.6370     1.4490 C.ar  1 <1>   0.1600 
 21 N       -2.8430    -6.3110     0.3110 N.ar  1 <1>  -0.6200 
 22 H       -1.6810     2.5140    -2.5400 H     1 <1>   0.0800 
 23 H       -0.0110     1.9930    -2.6610 H     1 <1>   0.0800 
 24 H       -2.2590     1.4540     0.6750 H     1 <1>   0.0800 
 25 H       -3.4800     1.8560    -0.5340 H     1 <1>   0.0800 
 26 H       -3.3730    -1.5460    -1.5560 H     1 <1>   0.0800 
 27 H       -1.8580    -1.9080    -0.7440 H     1 <1>   0.0800 
 28 H       -4.9590     0.2570     0.2550 H     1 <1>   0.0800 
 29 H       -2.7000    -1.4210     1.3480 H     1 <1>   0.0800 
 30 H        0.7960     3.8850    -1.5230 H     1 <1>   0.0800 
 31 H       -0.8620     4.4920    -1.5120 H     1 <1>   0.0800 
 32 H       -3.2330     0.4690     2.4890 H     1 <1>   0.4000 
 33 H       -5.2840    -2.1720    -0.0590 H     1 <1>   0.0800 
 34 H       -5.0220    -2.2440     1.6540 H     1 <1>   0.0800 
 35 H       -0.8450     4.4640     0.9600 H     1 <1>   0.0800 
 36 H        0.8000     3.8710     0.9450 H     1 <1>   0.0800 
 37 H        1.5380     5.9540    -0.1790 H     1 <1>   0.0800 
 38 H       -0.1030     6.5450    -0.1680 H     1 <1>   0.0800 
 39 H       -4.4230    -3.9900    -1.5130 H     1 <1>   0.1500 
 40 H       -3.2910    -3.8950     2.5860 H     1 <1>   0.1500 
 41 H        1.5420     5.9090     2.3030 H     1 <1>   0.0800 
 42 H       -0.1050     6.5000     2.3150 H     1 <1>   0.0800 
 43 H        1.1830     7.5080     1.7010 H     1 <1>   0.0800 
 44 H       -3.4480    -6.2110    -1.6420 H     1 <1>   0.1500 
 45 H       -2.3630    -6.1230     2.2910 H     1 <1>   0.1500 
@<TRIPOS>BOND
  1   1   2  2   
  2   2   3  am  
  3   2   4  1   
  4   3   5  1   
  5   3   6  1   
  6   4   7  1   
  7   4  22  1   
  8   4  23  1   
  9   5   8  1   
 10   5  24  1   
 11   5  25  1   
 12   6   9  1   
 13   6  26  1   
 14   6  27  1   
 15   7  10  1   
 16   8   9  1   
 17   8  11  1   
 18   8  28  1   
 19   9  12  1   
 20   9  29  1   
 21  10  13  1   
 22  10  30  1   
 23  10  31  1   
 24  11  32  1   
 25  12  14  1   
 26  12  33  1   
 27  12  34  1   
 28  13  15  1   
 29  13  35  1   
 30  13  36  1   
 31  14  16  ar  
 32  14  17  ar  
 33  15  18  1   
 34  15  37  1   
 35  15  38  1   
 36  16  19  ar  
 37  16  39  1   
 38  17  20  ar  
 39  17  40  1   
 40  18  41  1   
 41  18  42  1   
 42  18  43  1   
 43  19  21  ar  
 44  19  44  1   
 45  20  21  ar  
 46  20  45  1   
@<TRIPOS>SUBSTRUCTURE
  1 ****   3 GROUP 4 **** **** 0

# MOE 2024.06 (io_trps.svl 2023.06)
