@<TRIPOS>MOLECULE
NONAME
44 46 1 0 0 
SMALL
USER_CHARGES


@<TRIPOS>ATOM
  1 S        0.3890    -0.9090     0.5570 S.o2  1 <1>   1.5000 
  2 O        1.3800    -1.9480     0.3780 O.2   1 <1>  -0.6500 
  3 O       -0.3030    -0.8160     1.8240 O.2   1 <1>  -0.6500 
  4 N       -0.7820    -1.1390    -0.6520 N.am  1 <1>  -0.8490 
  5 C        1.1260     0.6800     0.1010 C.2   1 <1>  -0.0220 
  6 C       -1.9720    -0.2650    -0.5320 C.3   1 <1>   0.1960 
  7 C       -1.2130    -2.5420    -0.7940 C.3   1 <1>   0.1960 
  8 S        0.6490     2.1150     1.0090 S.3   1 <1>  -0.0800 
  9 C        1.9990     1.0360    -0.8650 C.2   1 <1>  -0.1500 
 10 C       -3.0410    -0.7650     0.4800 C.3   1 <1>   0.2950 
 11 C       -2.2400    -2.9650     0.2850 C.3   1 <1>   0.2000 
 12 C        1.6740     3.1510     0.0340 C.2   1 <1>  -0.1100 
 13 C        2.3130     2.4320    -0.9040 C.2   1 <1>  -0.1500 
 14 O       -3.3420    -2.1070     0.2300 O.3   1 <1>  -0.5600 
 15 C       -4.3750     0.0030     0.4340 C.3   1 <1>  -0.1950 
 16 C       -2.7780    -4.3860     0.0820 C.3   1 <1>  -0.1600 
 17 C       -5.0700     0.4130    -0.8280 C.3   1 <1>  -0.2000 
 18 C       -4.4830     1.4560     0.0830 C.3   1 <1>  -0.2000 
 19 C       -1.7020    -5.4690     0.2730 C.3   1 <1>  -0.1600 
 20 C       -2.3100    -6.8710     0.1610 C.3   1 <1>  -0.1600 
 21 C       -1.2400    -7.9510     0.3480 C.3   1 <1>  -0.2400 
 22 H       -1.6680     0.7310    -0.2640 H     1 <1>   0.0800 
 23 H       -2.4320    -0.2030    -1.5010 H     1 <1>   0.0800 
 24 H       -1.6710    -2.6670    -1.7600 H     1 <1>   0.0800 
 25 H       -0.3580    -3.1940    -0.7660 H     1 <1>   0.0800 
 26 H        2.4430     0.3520    -1.5690 H     1 <1>   0.1500 
 27 H       -2.6610    -0.6930     1.4830 H     1 <1>   0.0800 
 28 H       -1.8040    -2.8920     1.2680 H     1 <1>   0.0800 
 29 H        1.6890     4.2010     0.2710 H     1 <1>   0.1500 
 30 H        3.0020     2.8240    -1.6330 H     1 <1>   0.1500 
 31 H       -5.0130    -0.3320     1.2350 H     1 <1>   0.1000 
 32 H       -3.5620    -4.5510     0.8000 H     1 <1>   0.0800 
 33 H       -3.2030    -4.4690    -0.9030 H     1 <1>   0.0800 
 34 H       -4.6050     0.2220    -1.7780 H     1 <1>   0.1000 
 35 H       -6.1400     0.3030    -0.8740 H     1 <1>   0.1000 
 36 H       -5.1540     2.0730     0.6570 H     1 <1>   0.1000 
 37 H       -3.6290     2.0080    -0.2680 H     1 <1>   0.1000 
 38 H       -0.9330    -5.3620    -0.4720 H     1 <1>   0.0800 
 39 H       -1.2480    -5.3550     1.2430 H     1 <1>   0.0800 
 40 H       -3.0730    -6.9970     0.9100 H     1 <1>   0.0800 
 41 H       -2.7690    -6.9920    -0.8060 H     1 <1>   0.0800 
 42 H       -0.7820    -7.8630     1.3180 H     1 <1>   0.0800 
 43 H       -0.4770    -7.8610    -0.4050 H     1 <1>   0.0800 
 44 H       -1.6850    -8.9270     0.2690 H     1 <1>   0.0800 
@<TRIPOS>BOND
  1   1   2  2   
  2   1   3  2   
  3   1   4  am  
  4   1   5  1   
  5   4   6  1   
  6   4   7  1   
  7   5   8  1   
  8   5   9  2   
  9   6  10  1   
 10   6  22  1   
 11   6  23  1   
 12   7  11  1   
 13   7  24  1   
 14   7  25  1   
 15   8  12  1   
 16   9  13  1   
 17   9  26  1   
 18  10  14  1   
 19  10  15  1   
 20  10  27  1   
 21  11  14  1   
 22  11  16  1   
 23  11  28  1   
 24  12  13  2   
 25  12  29  1   
 26  13  30  1   
 27  15  17  1   
 28  15  18  1   
 29  15  31  1   
 30  16  19  1   
 31  16  32  1   
 32  16  33  1   
 33  17  18  1   
 34  17  34  1   
 35  17  35  1   
 36  18  36  1   
 37  18  37  1   
 38  19  20  1   
 39  19  38  1   
 40  19  39  1   
 41  20  21  1   
 42  20  40  1   
 43  20  41  1   
 44  21  42  1   
 45  21  43  1   
 46  21  44  1   
@<TRIPOS>SUBSTRUCTURE
  1 ****   4 GROUP 4 **** **** 0

# MOE 2024.06 (io_trps.svl 2023.06)
