@<TRIPOS>MOLECULE
NONAME
57 59 1 0 0 
SMALL
USER_CHARGES


@<TRIPOS>ATOM
  1 O        2.4050    -0.3390    -1.4060 O.2   1 <1>  -0.5700 
  2 C        2.1650    -0.6030    -0.2430 C.2   1 <1>   0.7160 
  3 N        2.3620     0.3920     0.6890 N.am  1 <1>  -0.6600 
  4 C        1.7990    -1.9380     0.1530 C.2   1 <1>  -0.0860 
  5 C        3.3320     0.1800     1.7990 C.3   1 <1>   0.1400 
  6 C        2.0200     1.7990     0.3540 C.3   1 <1>   0.1400 
  7 C        1.1340    -2.3040     1.3260 C.2   1 <1>   0.1390 
  8 C        1.9870    -3.1310    -0.4760 C.2   1 <1>  -0.3020 
  9 C        4.7710     0.0730     1.2510 C.3   1 <1>   0.3430 
 10 C        3.2680     2.6680     0.1560 C.3   1 <1>  -0.1600 
 11 N        0.9560    -3.5810     1.4290 N.2   1 <1>  -0.7070 
 12 N        1.4740    -4.0970     0.3010 N.pl3 1 <1>   0.3140 
 13 N        5.3200     1.3400     0.6420 N.4   1 <1>  -0.9590 
 14 C        4.4590     1.9170    -0.4450 C.3   1 <1>   0.3430 
 15 C        1.4340    -5.5460     0.0140 C.3   1 <1>   0.0960 
 16 C        6.6960     1.0750     0.1340 C.3   1 <1>   0.3430 
 17 C        0.2560    -5.8930    -0.9050 C.3   1 <1>  -0.2400 
 18 C        7.4830     2.3800     0.0110 C.3   1 <1>  -0.1600 
 19 C        8.9450     2.1250    -0.3900 C.3   1 <1>   0.1000 
 20 C        9.7570     3.4090    -0.3280 C.2   1 <1>  -0.0400 
 21 C        9.0550     1.5190    -1.7970 C.3   1 <1>  -0.2400 
 22 O       11.0700     3.2990    -0.3290 O.3   1 <1>  -0.2800 
 23 C        9.3990     4.7120    -0.2650 C.2   1 <1>  -0.1500 
 24 C       11.5800     4.5110    -0.2680 C.2   1 <1>  -0.0400 
 25 C       10.5970     5.4340    -0.2260 C.2   1 <1>  -0.1500 
 26 C       13.0840     4.6640    -0.2570 C.3   1 <1>  -0.0600 
 27 H        3.0910    -0.7370     2.3100 H     1 <1>   0.0800 
 28 H        3.2590     0.9770     2.5190 H     1 <1>   0.0800 
 29 H        1.4010     2.2130     1.1320 H     1 <1>   0.0800 
 30 H        1.4370     1.8090    -0.5540 H     1 <1>   0.0800 
 31 H        0.7960    -1.6050     2.0730 H     1 <1>   0.1500 
 32 H        2.4470    -3.3210    -1.4290 H     1 <1>   0.1500 
 33 H        4.7900    -0.7150     0.5160 H     1 <1>   0.0800 
 34 H        5.4130    -0.2300     2.0620 H     1 <1>   0.0800 
 35 H        3.5430     3.1430     1.0800 H     1 <1>   0.0800 
 36 H        2.9940     3.4560    -0.5230 H     1 <1>   0.0800 
 37 H        5.3930     2.0470     1.3840 H     1 <1>   0.4500 
 38 H        5.0370     2.6210    -1.0200 H     1 <1>   0.0800 
 39 H        4.1220     1.1460    -1.1180 H     1 <1>   0.0800 
 40 H        1.3370    -6.0700     0.9480 H     1 <1>   0.0800 
 41 H        2.3620    -5.8300    -0.4460 H     1 <1>   0.0800 
 42 H        6.6460     0.5780    -0.8220 H     1 <1>   0.0800 
 43 H        7.2170     0.4270     0.8210 H     1 <1>   0.0800 
 44 H       -0.6710    -5.6120    -0.4370 H     1 <1>   0.0800 
 45 H        0.2380    -6.9520    -1.0910 H     1 <1>   0.0800 
 46 H        0.3500    -5.3810    -1.8470 H     1 <1>   0.0800 
 47 H        7.4820     2.8820     0.9630 H     1 <1>   0.0800 
 48 H        7.0360     3.0270    -0.7220 H     1 <1>   0.0800 
 49 H        9.3860     1.4410     0.3160 H     1 <1>   0.0800 
 50 H        8.6190     2.1790    -2.5260 H     1 <1>   0.0800 
 51 H        8.5800     0.5580    -1.8570 H     1 <1>   0.0800 
 52 H       10.0940     1.3890    -2.0500 H     1 <1>   0.0800 
 53 H        8.4210     5.1570    -0.2490 H     1 <1>   0.1500 
 54 H       10.6820     6.5050    -0.1740 H     1 <1>   0.1500 
 55 H       13.4940     4.1530     0.5950 H     1 <1>   0.0800 
 56 H       13.3520     5.7030    -0.2060 H     1 <1>   0.0800 
 57 H       13.4980     4.2380    -1.1530 H     1 <1>   0.0800 
@<TRIPOS>BOND
  1   1   2  2   
  2   2   3  am  
  3   2   4  1   
  4   3   5  1   
  5   3   6  1   
  6   4   7  1   
  7   4   8  2   
  8   5   9  1   
  9   5  27  1   
 10   5  28  1   
 11   6  10  1   
 12   6  29  1   
 13   6  30  1   
 14   7  11  2   
 15   7  31  1   
 16   8  12  1   
 17   8  32  1   
 18   9  13  1   
 19   9  33  1   
 20   9  34  1   
 21  10  14  1   
 22  10  35  1   
 23  10  36  1   
 24  11  12  1   
 25  12  15  1   
 26  13  14  1   
 27  13  16  1   
 28  13  37  1   
 29  14  38  1   
 30  14  39  1   
 31  15  17  1   
 32  15  40  1   
 33  15  41  1   
 34  16  18  1   
 35  16  42  1   
 36  16  43  1   
 37  17  44  1   
 38  17  45  1   
 39  17  46  1   
 40  18  19  1   
 41  18  47  1   
 42  18  48  1   
 43  19  20  1   
 44  19  21  1   
 45  19  49  1   
 46  20  22  1   
 47  20  23  2   
 48  21  50  1   
 49  21  51  1   
 50  21  52  1   
 51  22  24  1   
 52  23  25  1   
 53  23  53  1   
 54  24  25  2   
 55  24  26  1   
 56  25  54  1   
 57  26  55  1   
 58  26  56  1   
 59  26  57  1   
@<TRIPOS>SUBSTRUCTURE
  1 ****  13 GROUP 4 **** **** 0

# MOE 2024.06 (io_trps.svl 2023.06)
