@<TRIPOS>MOLECULE
NONAME
45 48 1 0 0 
SMALL
USER_CHARGES


@<TRIPOS>ATOM
  1 F        2.1940     0.5290    -0.5920 F     1 <1>  -0.1900 
  2 C        2.2640    -0.6690    -0.0720 C.ar  1 <1>   0.1900 
  3 C        2.4980    -0.8340     1.2830 C.ar  1 <1>   0.1900 
  4 C        2.0950    -1.7630    -0.9010 C.ar  1 <1>  -0.1500 
  5 F        2.6530     0.2060     2.0610 F     1 <1>  -0.1900 
  6 C        2.5700    -2.0990     1.8370 C.ar  1 <1>  -0.1500 
  7 C        2.1620    -3.0410    -0.3550 C.ar  1 <1>  -0.1430 
  8 C        2.4000    -3.1990     1.0080 C.ar  1 <1>  -0.1500 
  9 C        1.9740    -4.2650    -1.2400 C.3   1 <1>   0.2540 
 10 N        0.7870    -5.0350    -0.8170 N.3   1 <1>  -0.8100 
 11 C       -0.4730    -4.2610    -0.9460 C.3   1 <1>   0.1100 
 12 C        0.6850    -6.3180    -1.5500 C.3   1 <1>   0.1100 
 13 C       -1.6930    -5.0280    -0.3680 C.3   1 <1>   0.4230 
 14 C       -0.6120    -7.0990    -1.2230 C.3   1 <1>   0.3430 
 15 N       -1.3590    -6.4730    -0.0800 N.4   1 <1>  -0.9590 
 16 C       -2.9240    -4.9110    -1.2960 C.3   1 <1>   0.1200 
 17 C       -2.5730    -7.2110     0.3850 C.3   1 <1>   0.5180 
 18 O       -4.0050    -5.6380    -0.7830 O.3   1 <1>  -0.5600 
 19 C       -2.2420    -8.6950     0.5870 C.3   1 <1>  -0.1950 
 20 C       -3.7640    -7.0050    -0.5770 C.3   1 <1>   0.1200 
 21 C       -2.8360    -9.4470     1.7380 C.3   1 <1>  -0.2000 
 22 C       -1.3620    -9.1600     1.7080 C.3   1 <1>  -0.2000 
 23 H        1.9180    -1.6050    -1.9500 H     1 <1>   0.1500 
 24 H        2.7560    -2.2160     2.8900 H     1 <1>   0.1500 
 25 H        2.4530    -4.1900     1.4270 H     1 <1>   0.1500 
 26 H        2.8520    -4.8840    -1.1540 H     1 <1>   0.0800 
 27 H        1.8750    -3.9690    -2.2710 H     1 <1>   0.0800 
 28 H       -0.3900    -3.3280    -0.4150 H     1 <1>   0.0800 
 29 H       -0.6410    -4.0220    -1.9820 H     1 <1>   0.0800 
 30 H        0.7260    -6.1420    -2.6130 H     1 <1>   0.0800 
 31 H        1.5320    -6.9340    -1.2950 H     1 <1>   0.0800 
 32 H       -1.9570    -4.5480     0.5600 H     1 <1>   0.0800 
 33 H       -0.3480    -8.1170    -0.9840 H     1 <1>   0.0800 
 34 H       -1.2390    -7.1220    -2.0990 H     1 <1>   0.0800 
 35 H       -0.6750    -6.4390     0.6870 H     1 <1>   0.4500 
 36 H       -2.7050    -5.2750    -2.2850 H     1 <1>   0.0800 
 37 H       -3.2340    -3.8830    -1.3720 H     1 <1>   0.0800 
 38 H       -2.8650    -6.8100     1.3420 H     1 <1>   0.0800 
 39 H       -2.2060    -9.2420    -0.3400 H     1 <1>   0.1000 
 40 H       -4.6550    -7.4330    -0.1520 H     1 <1>   0.0800 
 41 H       -3.5820    -7.4720    -1.5290 H     1 <1>   0.0800 
 42 H       -3.4350    -8.9360     2.4730 H     1 <1>   0.1000 
 43 H       -3.1570   -10.4660     1.5920 H     1 <1>   0.1000 
 44 H       -0.6900    -9.9860     1.5450 H     1 <1>   0.1000 
 45 H       -0.9780    -8.4620     2.4330 H     1 <1>   0.1000 
@<TRIPOS>BOND
  1   1   2  1   
  2   2   3  ar  
  3   2   4  ar  
  4   3   5  1   
  5   3   6  ar  
  6   4   7  ar  
  7   4  23  1   
  8   6   8  ar  
  9   6  24  1   
 10   7   8  ar  
 11   7   9  1   
 12   8  25  1   
 13   9  10  1   
 14   9  26  1   
 15   9  27  1   
 16  10  11  1   
 17  10  12  1   
 18  11  13  1   
 19  11  28  1   
 20  11  29  1   
 21  12  14  1   
 22  12  30  1   
 23  12  31  1   
 24  13  15  1   
 25  13  16  1   
 26  13  32  1   
 27  14  15  1   
 28  14  33  1   
 29  14  34  1   
 30  15  17  1   
 31  15  35  1   
 32  16  18  1   
 33  16  36  1   
 34  16  37  1   
 35  17  19  1   
 36  17  20  1   
 37  17  38  1   
 38  18  20  1   
 39  19  21  1   
 40  19  22  1   
 41  19  39  1   
 42  20  40  1   
 43  20  41  1   
 44  21  22  1   
 45  21  42  1   
 46  21  43  1   
 47  22  44  1   
 48  22  45  1   
@<TRIPOS>SUBSTRUCTURE
  1 ****  11 GROUP 4 **** **** 0

# MOE 2024.06 (io_trps.svl 2023.06)
