@<TRIPOS>MOLECULE
NONAME
60 63 1 0 0 
SMALL
USER_CHARGES


@<TRIPOS>ATOM
  1 O        4.6560     1.2340    -2.0940 O.2   1 <1>  -0.5700 
  2 C        4.6830     0.2810    -1.3530 C.2   1 <1>   0.5690 
  3 N        4.3620     0.3530    -0.0260 N.am  1 <1>  -0.6600 
  4 C        5.1200    -1.0610    -1.9010 C.3   1 <1>  -0.0990 
  5 C        4.3970    -0.8670     0.8190 C.3   1 <1>   0.1400 
  6 C        4.0110     1.6300     0.6490 C.3   1 <1>   0.0600 
  7 C        4.2160    -2.2040    -1.3980 C.3   1 <1>  -0.0800 
  8 C        3.7620    -2.0540     0.0710 C.3   1 <1>  -0.0800 
  9 C        4.8760    -3.5810    -1.5380 C.3   1 <1>  -0.1600 
 10 C        4.0300    -3.3940     0.7730 C.3   1 <1>  -0.1600 
 11 C        4.4760    -4.3850    -0.3030 C.3   1 <1>   0.2200 
 12 N        5.5520    -5.3310     0.1330 N.am  1 <1>  -0.6600 
 13 C        6.8680    -5.0070     0.4400 C.2   1 <1>   0.5440 
 14 C        5.1870    -6.7630    -0.0800 C.3   1 <1>   0.0600 
 15 O        7.7340    -5.8360     0.2390 O.2   1 <1>  -0.5700 
 16 C        7.2640    -3.7390     1.0230 C.ar  1 <1>   0.0860 
 17 C        7.7380    -2.6850     0.2490 C.ar  1 <1>  -0.1500 
 18 C        7.1870    -3.5420     2.4020 C.ar  1 <1>  -0.1500 
 19 C        8.0360    -1.4550     0.8060 C.ar  1 <1>   0.0820 
 20 C        7.5190    -2.3280     2.9780 C.ar  1 <1>  -0.1500 
 21 O        8.3890    -0.4630    -0.0440 O.3   1 <1>  -0.3620 
 22 C        7.9370    -1.2780     2.1820 C.ar  1 <1>  -0.1500 
 23 C        8.1210     0.8800     0.3010 C.3   1 <1>   0.1200 
 24 C        8.2990     1.7590    -0.9340 C.3   1 <1>  -0.0170 
 25 C        8.0390     3.2110    -0.5680 C.ar  1 <1>  -0.1440 
 26 C        6.8180     3.7980    -0.8590 C.ar  1 <1>  -0.1500 
 27 C        9.0190     3.9600     0.0670 C.ar  1 <1>  -0.1500 
 28 C        6.5750     5.1160    -0.5140 C.ar  1 <1>  -0.1500 
 29 C        8.7780     5.2780     0.4120 C.ar  1 <1>  -0.1500 
 30 C        7.5550     5.8580     0.1230 C.ar  1 <1>  -0.1500 
 31 H        5.1110    -1.0310    -2.9750 H     1 <1>   0.0800 
 32 H        6.1330    -1.2100    -1.5840 H     1 <1>   0.0800 
 33 H        5.4210    -1.0860     1.0570 H     1 <1>   0.0800 
 34 H        3.8670    -0.6950     1.7400 H     1 <1>   0.0800 
 35 H        3.0360     1.5490     1.0970 H     1 <1>   0.0800 
 36 H        3.9970     2.4410    -0.0580 H     1 <1>   0.0800 
 37 H        4.7370     1.8510     1.4110 H     1 <1>   0.0800 
 38 H        3.3220    -2.2000    -2.0010 H     1 <1>   0.0800 
 39 H        2.6980    -1.8870     0.0680 H     1 <1>   0.0800 
 40 H        5.9400    -3.4900    -1.6040 H     1 <1>   0.0800 
 41 H        4.5330    -4.0740    -2.4300 H     1 <1>   0.0800 
 42 H        3.1310    -3.7520     1.2410 H     1 <1>   0.0800 
 43 H        4.7680    -3.2800     1.5370 H     1 <1>   0.0800 
 44 H        3.6030    -4.9540    -0.5770 H     1 <1>   0.0800 
 45 H        4.2240    -6.9660     0.3530 H     1 <1>   0.0800 
 46 H        5.9090    -7.4130     0.3850 H     1 <1>   0.0800 
 47 H        5.1590    -6.9760    -1.1340 H     1 <1>   0.0800 
 48 H        7.8720    -2.8200    -0.8070 H     1 <1>   0.1500 
 49 H        6.8590    -4.3580     3.0220 H     1 <1>   0.1500 
 50 H        7.4520    -2.2020     4.0450 H     1 <1>   0.1500 
 51 H        8.1880    -0.3400     2.6410 H     1 <1>   0.1500 
 52 H        7.1090     0.9490     0.6590 H     1 <1>   0.0800 
 53 H        8.8080     1.1770     1.0740 H     1 <1>   0.0800 
 54 H        9.3010     1.6560    -1.3110 H     1 <1>   0.0800 
 55 H        7.6100     1.4460    -1.6990 H     1 <1>   0.0800 
 56 H        6.0490     3.2330    -1.3580 H     1 <1>   0.1500 
 57 H        9.9740     3.5200     0.2950 H     1 <1>   0.1500 
 58 H        5.6240     5.5630    -0.7460 H     1 <1>   0.1500 
 59 H        9.5420     5.8540     0.9040 H     1 <1>   0.1500 
 60 H        7.3660     6.8830     0.3890 H     1 <1>   0.1500 
@<TRIPOS>BOND
  1   1   2  2   
  2   2   3  am  
  3   2   4  1   
  4   3   5  1   
  5   3   6  1   
  6   4   7  1   
  7   4  31  1   
  8   4  32  1   
  9   5   8  1   
 10   5  33  1   
 11   5  34  1   
 12   6  35  1   
 13   6  36  1   
 14   6  37  1   
 15   7   8  1   
 16   7   9  1   
 17   7  38  1   
 18   8  10  1   
 19   8  39  1   
 20   9  11  1   
 21   9  40  1   
 22   9  41  1   
 23  10  11  1   
 24  10  42  1   
 25  10  43  1   
 26  11  12  1   
 27  11  44  1   
 28  12  13  am  
 29  12  14  1   
 30  13  15  2   
 31  13  16  1   
 32  14  45  1   
 33  14  46  1   
 34  14  47  1   
 35  16  17  ar  
 36  16  18  ar  
 37  17  19  ar  
 38  17  48  1   
 39  18  20  ar  
 40  18  49  1   
 41  19  21  1   
 42  19  22  ar  
 43  20  22  ar  
 44  20  50  1   
 45  21  23  1   
 46  22  51  1   
 47  23  24  1   
 48  23  52  1   
 49  23  53  1   
 50  24  25  1   
 51  24  54  1   
 52  24  55  1   
 53  25  26  ar  
 54  25  27  ar  
 55  26  28  ar  
 56  26  56  1   
 57  27  29  ar  
 58  27  57  1   
 59  28  30  ar  
 60  28  58  1   
 61  29  30  ar  
 62  29  59  1   
 63  30  60  1   
@<TRIPOS>SUBSTRUCTURE
  1 ****  19 GROUP 4 **** **** 0

# MOE 2024.06 (io_trps.svl 2023.06)
