@<TRIPOS>MOLECULE
NONAME
56 59 1 0 0 
SMALL
USER_CHARGES


@<TRIPOS>ATOM
  1 CL      -2.0810     4.1610    -2.9540 Cl    1 <1>  -0.1770 
  2 C       -2.5910     3.2450    -1.5560 C.ar  1 <1>   0.1770 
  3 C       -1.6750     2.9410    -0.5600 C.ar  1 <1>  -0.1440 
  4 C       -3.9120     2.8490    -1.4690 C.ar  1 <1>  -0.1500 
  5 C       -2.1060     2.2190     0.5450 C.ar  1 <1>  -0.1500 
  6 C       -0.2310     3.3870    -0.6800 C.3   1 <1>   0.4870 
  7 C       -4.3320     2.1330    -0.3620 C.ar  1 <1>  -0.1500 
  8 C       -3.4290     1.8200     0.6410 C.ar  1 <1>  -0.1500 
  9 N       -0.1570     4.8710    -0.5830 N.4   1 <1>  -0.9590 
 10 C        1.2130     5.3680    -0.8930 C.3   1 <1>   0.3430 
 11 C       -0.6750     5.3820     0.7230 C.3   1 <1>   0.3430 
 12 C        1.2080     6.8890    -0.9300 C.3   1 <1>  -0.1600 
 13 C       -0.6980     6.9070     0.7070 C.3   1 <1>  -0.1600 
 14 C        0.6890     7.4520     0.3890 C.3   1 <1>   0.2890 
 15 N        0.6040     8.9060     0.2670 N.pl3 1 <1>  -0.8690 
 16 C        1.5760     9.7660     0.7240 C.ar  1 <1>   0.4100 
 17 N        2.7960     9.2440     0.8570 N.ar  1 <1>  -0.6200 
 18 C        1.2530    11.1040     1.0210 C.ar  1 <1>   0.0860 
 19 C        3.7310    10.0530     1.3130 C.ar  1 <1>   0.1600 
 20 C       -0.0880    11.6030     0.8230 C.2   1 <1>   0.5440 
 21 C        2.2660    11.9170     1.5120 C.ar  1 <1>  -0.1500 
 22 C        3.5240    11.3780     1.6550 C.ar  1 <1>  -0.1500 
 23 O       -1.0470    10.9630     1.2270 O.2   1 <1>  -0.5700 
 24 N       -0.3280    12.7920     0.1700 N.am  1 <1>  -0.6600 
 25 C       -1.6960    13.3310    -0.0070 C.3   1 <1>   0.1400 
 26 C        0.6150    13.4370    -0.7720 C.3   1 <1>   0.1400 
 27 C       -1.5390    14.5010    -0.9720 C.3   1 <1>  -0.1600 
 28 C       -0.2730    14.1820    -1.7610 C.3   1 <1>  -0.1600 
 29 H       -4.6040     3.0970    -2.2560 H     1 <1>   0.1500 
 30 H       -1.4260     1.9550     1.3390 H     1 <1>   0.1500 
 31 H        0.1580     3.0620    -1.6320 H     1 <1>   0.0800 
 32 H        0.3590     2.9340     0.1000 H     1 <1>   0.0800 
 33 H       -5.3590     1.8160    -0.2810 H     1 <1>   0.1500 
 34 H       -3.7630     1.2570     1.4990 H     1 <1>   0.1500 
 35 H       -0.7870     5.2300    -1.3170 H     1 <1>   0.4500 
 36 H        1.5390     4.9910    -1.8500 H     1 <1>   0.0800 
 37 H        1.9070     5.0310    -0.1400 H     1 <1>   0.0800 
 38 H       -0.0440     5.0400     1.5270 H     1 <1>   0.0800 
 39 H       -1.6750     5.0150     0.8970 H     1 <1>   0.0800 
 40 H        0.6000     7.2340    -1.7480 H     1 <1>   0.0800 
 41 H        2.2120     7.2410    -1.0900 H     1 <1>   0.0800 
 42 H       -1.0060     7.2640     1.6740 H     1 <1>   0.0800 
 43 H       -1.4120     7.2470    -0.0220 H     1 <1>   0.0800 
 44 H        1.3660     7.1930     1.1880 H     1 <1>   0.0800 
 45 H       -0.3480     9.2870     0.3980 H     1 <1>   0.4000 
 46 H        4.7210     9.6430     1.4260 H     1 <1>   0.1500 
 47 H        2.0650    12.9400     1.7750 H     1 <1>   0.1500 
 48 H        4.3390    11.9720     2.0290 H     1 <1>   0.1500 
 49 H       -2.1060    13.6440     0.9380 H     1 <1>   0.0800 
 50 H       -2.3240    12.5690    -0.4360 H     1 <1>   0.0800 
 51 H        1.2340    12.7100    -1.2700 H     1 <1>   0.0800 
 52 H        1.2320    14.1350    -0.2310 H     1 <1>   0.0800 
 53 H       -1.4010    15.4050    -0.4050 H     1 <1>   0.0800 
 54 H       -2.4010    14.6130    -1.6050 H     1 <1>   0.0800 
 55 H       -0.5090    13.5260    -2.5810 H     1 <1>   0.0800 
 56 H        0.2060    15.0650    -2.1450 H     1 <1>   0.0800 
@<TRIPOS>BOND
  1   1   2  1   
  2   2   3  ar  
  3   2   4  ar  
  4   3   5  ar  
  5   3   6  1   
  6   4   7  ar  
  7   4  29  1   
  8   5   8  ar  
  9   5  30  1   
 10   6   9  1   
 11   6  31  1   
 12   6  32  1   
 13   7   8  ar  
 14   7  33  1   
 15   8  34  1   
 16   9  10  1   
 17   9  11  1   
 18   9  35  1   
 19  10  12  1   
 20  10  36  1   
 21  10  37  1   
 22  11  13  1   
 23  11  38  1   
 24  11  39  1   
 25  12  14  1   
 26  12  40  1   
 27  12  41  1   
 28  13  14  1   
 29  13  42  1   
 30  13  43  1   
 31  14  15  1   
 32  14  44  1   
 33  15  16  1   
 34  15  45  1   
 35  16  17  ar  
 36  16  18  ar  
 37  17  19  ar  
 38  18  20  1   
 39  18  21  ar  
 40  19  22  ar  
 41  19  46  1   
 42  20  23  2   
 43  20  24  am  
 44  21  22  ar  
 45  21  47  1   
 46  22  48  1   
 47  24  25  1   
 48  24  26  1   
 49  25  27  1   
 50  25  49  1   
 51  25  50  1   
 52  26  28  1   
 53  26  51  1   
 54  26  52  1   
 55  27  28  1   
 56  27  53  1   
 57  27  54  1   
 58  28  55  1   
 59  28  56  1   
@<TRIPOS>SUBSTRUCTURE
  1 ****  14 GROUP 4 **** **** 0

# MOE 2024.06 (io_trps.svl 2023.06)
