@<TRIPOS>MOLECULE
NONAME
53 55 1 0 0 
SMALL
USER_CHARGES


@<TRIPOS>ATOM
  1 O        3.8710     1.3900     1.9410 O.co2 1 <1>  -0.9000 
  2 C        3.0900     0.5860     1.4120 C.2   1 <1>   0.9060 
  3 O        2.8660    -0.5120     1.9220 O.co2 1 <1>  -0.9000 
  4 C        2.6350     0.8130    -0.0370 C.3   1 <1>  -0.1060 
  5 C        3.4630    -0.2220    -0.8270 C.3   1 <1>   0.2000 
  6 C        2.9990     2.2420    -0.5620 C.3   1 <1>  -0.1600 
  7 C        1.1110     0.5490    -0.1560 C.3   1 <1>  -0.0160 
  8 O        3.2120    -0.0990    -2.1960 O.3   1 <1>  -0.6800 
  9 C        4.9790     0.0030    -0.5770 C.3   1 <1>   0.3430 
 10 C        4.4500     2.3910    -1.0540 C.3   1 <1>   0.3430 
 11 C        0.2590     1.6240     0.5100 C.ar  1 <1>  -0.1440 
 12 N        5.3260     1.4460    -0.3150 N.4   1 <1>  -0.9590 
 13 C        0.1070     1.6390     1.8880 C.ar  1 <1>  -0.1500 
 14 C       -0.3780     2.5940    -0.2510 C.ar  1 <1>  -0.1500 
 15 C        6.7800     1.7160    -0.3740 C.3   1 <1>   0.4860 
 16 C       -0.6640     2.6130     2.4990 C.ar  1 <1>  -0.1500 
 17 C       -1.1510     3.5680     0.3580 C.ar  1 <1>  -0.1500 
 18 C        7.0740     3.2060    -0.2830 C.ar  1 <1>  -0.1430 
 19 C       -1.2930     3.5790     1.7340 C.ar  1 <1>  -0.1500 
 20 C        6.8940     3.9470     0.8870 C.ar  1 <1>  -0.1430 
 21 C        7.5290     3.8320    -1.4350 C.ar  1 <1>  -0.1500 
 22 C        7.1560     5.3160     0.8720 C.ar  1 <1>  -0.1430 
 23 C        6.4050     3.2940     2.1820 C.3   1 <1>  -0.0970 
 24 C        7.7990     5.1850    -1.4380 C.ar  1 <1>  -0.1500 
 25 C        7.6090     5.9230    -0.2880 C.ar  1 <1>  -0.1500 
 26 C        6.9540     6.1900     2.1050 C.3   1 <1>  -0.0970 
 27 H        3.2020    -1.2270    -0.5370 H     1 <1>   0.0800 
 28 H        2.8130     2.9660     0.2140 H     1 <1>   0.0800 
 29 H        2.3590     2.5050    -1.3840 H     1 <1>   0.0800 
 30 H        0.8290     0.4890    -1.1900 H     1 <1>   0.0800 
 31 H        0.8730    -0.4030     0.2890 H     1 <1>   0.0800 
 32 H        2.2800    -0.3270    -2.3820 H     1 <1>   0.4000 
 33 H        5.5250    -0.3720    -1.4250 H     1 <1>   0.0800 
 34 H        5.2600    -0.5730     0.2900 H     1 <1>   0.0800 
 35 H        4.7690     3.4100    -0.9010 H     1 <1>   0.0800 
 36 H        4.4980     2.1680    -2.1070 H     1 <1>   0.0800 
 37 H        5.0270     1.6060     0.6830 H     1 <1>   0.4500 
 38 H        0.5930     0.8920     2.4950 H     1 <1>   0.1500 
 39 H       -0.2760     2.5970    -1.3210 H     1 <1>   0.1500 
 40 H        7.2770     1.2020     0.4330 H     1 <1>   0.0800 
 41 H        7.1740     1.3390    -1.3020 H     1 <1>   0.0800 
 42 H       -0.7680     2.6150     3.5690 H     1 <1>   0.1500 
 43 H       -1.6400     4.3170    -0.2380 H     1 <1>   0.1500 
 44 H       -1.8910     4.3360     2.2100 H     1 <1>   0.1500 
 45 H        7.6790     3.2730    -2.3430 H     1 <1>   0.1500 
 46 H        6.9770     3.6430     3.0220 H     1 <1>   0.0800 
 47 H        6.4910     2.2240     2.1740 H     1 <1>   0.0800 
 48 H        5.3710     3.5420     2.3470 H     1 <1>   0.0800 
 49 H        8.1550     5.6670    -2.3330 H     1 <1>   0.1500 
 50 H        7.8190     6.9780    -0.3030 H     1 <1>   0.1500 
 51 H        7.0510     7.2320     1.8620 H     1 <1>   0.0800 
 52 H        7.6890     5.9470     2.8510 H     1 <1>   0.0800 
 53 H        5.9720     6.0350     2.5150 H     1 <1>   0.0800 
@<TRIPOS>BOND
  1   1   2  ar  
  2   2   3  ar  
  3   2   4  1   
  4   4   5  1   
  5   4   6  1   
  6   4   7  1   
  7   5   8  1   
  8   5   9  1   
  9   5  27  1   
 10   6  10  1   
 11   6  28  1   
 12   6  29  1   
 13   7  11  1   
 14   7  30  1   
 15   7  31  1   
 16   8  32  1   
 17   9  12  1   
 18   9  33  1   
 19   9  34  1   
 20  10  12  1   
 21  10  35  1   
 22  10  36  1   
 23  11  13  ar  
 24  11  14  ar  
 25  12  15  1   
 26  12  37  1   
 27  13  16  ar  
 28  13  38  1   
 29  14  17  ar  
 30  14  39  1   
 31  15  18  1   
 32  15  40  1   
 33  15  41  1   
 34  16  19  ar  
 35  16  42  1   
 36  17  19  ar  
 37  17  43  1   
 38  18  20  ar  
 39  18  21  ar  
 40  19  44  1   
 41  20  22  ar  
 42  20  23  1   
 43  21  24  ar  
 44  21  45  1   
 45  22  25  ar  
 46  22  26  1   
 47  23  46  1   
 48  23  47  1   
 49  23  48  1   
 50  24  25  ar  
 51  24  49  1   
 52  25  50  1   
 53  26  51  1   
 54  26  52  1   
 55  26  53  1   
@<TRIPOS>SUBSTRUCTURE
  1 ****   6 GROUP 4 **** **** 0

# MOE 2024.06 (io_trps.svl 2023.06)
