@<TRIPOS>MOLECULE
NONAME
49 52 1 0 0 
SMALL
USER_CHARGES


@<TRIPOS>ATOM
  1 O        0.0530    -1.4340    -0.7350 O.3   1 <1>  -0.3630 
  2 C       -0.9590    -2.1760    -0.2060 C.ar  1 <1>   0.0830 
  3 C       -0.1640    -0.6470    -1.8850 C.3   1 <1>   0.0400 
  4 C       -2.2390    -2.2240    -0.7280 C.ar  1 <1>  -0.1500 
  5 C       -0.6360    -2.9210     0.9360 C.ar  1 <1>  -0.1500 
  6 C       -3.2030    -3.0210    -0.1040 C.ar  1 <1>   0.0000 
  7 C       -1.5770    -3.7080     1.5580 C.ar  1 <1>  -0.1500 
  8 C       -2.8690    -3.7540     1.0300 C.ar  1 <1>  -0.1520 
  9 C       -4.5640    -3.2910    -0.3680 C.2   1 <1>  -0.1500 
 10 N       -3.9830    -4.4440     1.4390 N.pl3 1 <1>   0.0330 
 11 C       -5.0060    -4.1530     0.5800 C.2   1 <1>  -0.3320 
 12 C       -6.3780    -4.7620     0.7600 C.3   1 <1>   0.3890 
 13 N       -6.2040    -6.2170     0.6550 N.pl3 1 <1>  -0.8690 
 14 C       -7.2780    -7.0680     0.6990 C.ar  1 <1>   0.4100 
 15 N       -8.4110    -6.6070     1.1930 N.ar  1 <1>  -0.6200 
 16 C       -7.1720    -8.3580     0.2420 C.ar  1 <1>  -0.1500 
 17 C       -9.4090    -7.4680     1.2050 C.ar  1 <1>   0.4700 
 18 C       -8.2800    -9.1680     0.3060 C.ar  1 <1>   0.4100 
 19 N       -9.4240    -8.7190     0.7910 N.ar  1 <1>  -0.6200 
 20 N       -8.2310   -10.4780    -0.1280 N.pl3 1 <1>  -0.8380 
 21 C       -9.4660   -11.1020    -0.6760 C.3   1 <1>   0.2090 
 22 C       -7.3390   -11.4190     0.5950 C.3   1 <1>   0.2090 
 23 C       -9.0810   -12.2300    -1.6330 C.3   1 <1>  -0.1600 
 24 C       -6.9230   -12.5460    -0.3500 C.3   1 <1>  -0.1600 
 25 C       -8.1590   -13.2280    -0.9340 C.3   1 <1>   0.2000 
 26 O       -7.7470   -14.1630    -1.8570 O.3   1 <1>  -0.6800 
 27 H        0.7570    -0.1490    -2.1280 H     1 <1>   0.0800 
 28 H       -0.9280     0.0790    -1.6720 H     1 <1>   0.0800 
 29 H       -0.4580    -1.2890    -2.6970 H     1 <1>   0.0800 
 30 H       -2.5310    -1.6730    -1.5980 H     1 <1>   0.1500 
 31 H        0.3680    -2.8610     1.3160 H     1 <1>   0.1500 
 32 H       -1.3300    -4.2790     2.4360 H     1 <1>   0.1500 
 33 H       -5.1100    -2.8650    -1.1910 H     1 <1>   0.1500 
 34 H       -4.0340    -5.0930     2.2320 H     1 <1>   0.2700 
 35 H       -7.0510    -4.4170    -0.0070 H     1 <1>   0.0800 
 36 H       -6.7840    -4.5080     1.7250 H     1 <1>   0.0800 
 37 H       -5.4670    -6.4480    -0.0130 H     1 <1>   0.4000 
 38 H       -6.2540    -8.7290    -0.1610 H     1 <1>   0.1500 
 39 H      -10.3390    -7.1000     1.6060 H     1 <1>   0.1500 
 40 H      -10.0460   -10.3620    -1.2020 H     1 <1>   0.0800 
 41 H      -10.0620   -11.4840     0.1360 H     1 <1>   0.0800 
 42 H       -7.8660   -11.8230     1.4430 H     1 <1>   0.0800 
 43 H       -6.4650   -10.9030     0.9570 H     1 <1>   0.0800 
 44 H       -8.5880   -11.7970    -2.4850 H     1 <1>   0.0800 
 45 H       -9.9730   -12.7300    -1.9640 H     1 <1>   0.0800 
 46 H       -6.3360   -13.2640     0.1930 H     1 <1>   0.0800 
 47 H       -6.3200   -12.1270    -1.1350 H     1 <1>   0.0800 
 48 H       -8.6970   -13.7490    -0.1580 H     1 <1>   0.0800 
 49 H       -7.2710   -13.7190    -2.5840 H     1 <1>   0.4000 
@<TRIPOS>BOND
  1   1   2  1   
  2   1   3  1   
  3   2   4  ar  
  4   2   5  ar  
  5   3  27  1   
  6   3  28  1   
  7   3  29  1   
  8   4   6  ar  
  9   4  30  1   
 10   5   7  ar  
 11   5  31  1   
 12   6   8  ar  
 13   6   9  1   
 14   7   8  ar  
 15   7  32  1   
 16   8  10  1   
 17   9  11  2   
 18   9  33  1   
 19  10  11  1   
 20  10  34  1   
 21  11  12  1   
 22  12  13  1   
 23  12  35  1   
 24  12  36  1   
 25  13  14  1   
 26  13  37  1   
 27  14  15  ar  
 28  14  16  ar  
 29  15  17  ar  
 30  16  18  ar  
 31  16  38  1   
 32  17  19  ar  
 33  17  39  1   
 34  18  19  ar  
 35  18  20  1   
 36  20  21  1   
 37  20  22  1   
 38  21  23  1   
 39  21  40  1   
 40  21  41  1   
 41  22  24  1   
 42  22  42  1   
 43  22  43  1   
 44  23  25  1   
 45  23  44  1   
 46  23  45  1   
 47  24  25  1   
 48  24  46  1   
 49  24  47  1   
 50  25  26  1   
 51  25  48  1   
 52  26  49  1   
@<TRIPOS>SUBSTRUCTURE
  1 ****  13 GROUP 4 **** **** 0

# MOE 2024.06 (io_trps.svl 2023.06)
