@<TRIPOS>MOLECULE
NONAME
43 45 1 0 0 
SMALL
USER_CHARGES


@<TRIPOS>ATOM
  1 S        0.8160     1.6960     0.9400 S.3   1 <1>  -0.2820 
  2 C        2.1310     1.9340    -0.1770 C.2   1 <1>   0.6510 
  3 C        0.8290    -0.0300     0.5830 C.2   1 <1>   0.5300 
  4 N        2.6630     3.0940    -0.4090 N.2   1 <1>  -0.6210 
  5 N        2.4680     0.7210    -0.7120 N.am  1 <1>  -0.0580 
  6 N        1.7120    -0.3730    -0.2610 N.2   1 <1>  -0.5120 
  7 C       -0.2010    -0.8720     1.3210 C.3   1 <1>  -0.0990 
  8 C        3.6860     3.1000    -1.3210 C.2   1 <1>   0.0330 
  9 C        3.5140     0.7060    -1.6210 C.2   1 <1>   0.6160 
 10 C       -0.1390    -2.3670     0.9720 C.3   1 <1>  -0.2400 
 11 C        4.1170     1.9560    -1.9170 C.2   1 <1>  -0.1360 
 12 C        4.3030     4.4670    -1.6150 C.3   1 <1>   0.4810 
 13 O        3.9170    -0.3210    -2.1440 O.2   1 <1>  -0.5700 
 14 N        4.4460     5.1990    -0.3240 N.4   1 <1>  -0.9590 
 15 C        4.4320     6.6810    -0.5300 C.3   1 <1>   0.3430 
 16 C        5.6280     4.7110     0.4560 C.3   1 <1>   0.2630 
 17 C        4.2030     7.4500     0.7750 C.3   1 <1>   0.0200 
 18 C        4.1720     8.9350     0.4770 C.2   1 <1>  -0.1400 
 19 S        5.6470     9.6470    -0.1220 S.3   1 <1>  -0.0800 
 20 C        3.2370     9.8980     0.5650 C.2   1 <1>   0.0460 
 21 C        4.8390    11.1950    -0.1970 C.2   1 <1>   0.2280 
 22 N        3.6240    11.1680     0.1770 N.2   1 <1>  -0.5650 
 23 C        1.8050     9.7700     1.0410 C.3   1 <1>  -0.0590 
 24 H       -1.1800    -0.4950     1.0850 H     1 <1>   0.0800 
 25 H       -0.0450    -0.7500     2.3780 H     1 <1>   0.0800 
 26 H       -0.3130    -2.5140    -0.0810 H     1 <1>   0.0800 
 27 H       -0.8870    -2.9100     1.5220 H     1 <1>   0.0800 
 28 H        0.8290    -2.7700     1.2170 H     1 <1>   0.0800 
 29 H        4.9170     1.9270    -2.6340 H     1 <1>   0.1500 
 30 H        3.6330     5.0060    -2.2650 H     1 <1>   0.0800 
 31 H        5.2560     4.3630    -2.1090 H     1 <1>   0.0800 
 32 H        3.5870     4.9130     0.1830 H     1 <1>   0.4500 
 33 H        3.6400     6.9430    -1.2140 H     1 <1>   0.0800 
 34 H        5.3640     6.9980    -0.9690 H     1 <1>   0.0800 
 35 H        6.5440     4.9560    -0.0560 H     1 <1>   0.0800 
 36 H        5.5750     3.6410     0.5810 H     1 <1>   0.0800 
 37 H        5.6470     5.1640     1.4340 H     1 <1>   0.0800 
 38 H        4.9960     7.2620     1.4760 H     1 <1>   0.0800 
 39 H        3.2690     7.1520     1.2160 H     1 <1>   0.0800 
 40 H        5.4120    12.0360    -0.5460 H     1 <1>   0.1500 
 41 H        1.5750     8.7650     1.3350 H     1 <1>   0.0800 
 42 H        1.1360    10.0660     0.2530 H     1 <1>   0.0800 
 43 H        1.6480    10.4210     1.8820 H     1 <1>   0.0800 
@<TRIPOS>BOND
  1   1   2  1   
  2   1   3  1   
  3   2   4  2   
  4   2   5  1   
  5   3   6  2   
  6   3   7  1   
  7   4   8  1   
  8   5   6  1   
  9   5   9  am  
 10   7  10  1   
 11   7  24  1   
 12   7  25  1   
 13   8  11  2   
 14   8  12  1   
 15   9  11  1   
 16   9  13  2   
 17  10  26  1   
 18  10  27  1   
 19  10  28  1   
 20  11  29  1   
 21  12  14  1   
 22  12  30  1   
 23  12  31  1   
 24  14  15  1   
 25  14  16  1   
 26  14  32  1   
 27  15  17  1   
 28  15  33  1   
 29  15  34  1   
 30  16  35  1   
 31  16  36  1   
 32  16  37  1   
 33  17  18  1   
 34  17  38  1   
 35  17  39  1   
 36  18  19  1   
 37  18  20  2   
 38  19  21  1   
 39  20  22  1   
 40  20  23  1   
 41  21  22  2   
 42  21  40  1   
 43  23  41  1   
 44  23  42  1   
 45  23  43  1   
@<TRIPOS>SUBSTRUCTURE
  1 ****   4 GROUP 4 **** **** 0

# MOE 2024.06 (io_trps.svl 2023.06)
