@<TRIPOS>MOLECULE
NONAME
48 50 1 0 0 
SMALL
USER_CHARGES


@<TRIPOS>ATOM
  1 CL      -2.7090     1.0320     2.3340 Cl    1 <1>  -0.1770 
  2 C       -1.5980     1.9500     1.3370 C.ar  1 <1>   0.1770 
  3 C       -0.3880     2.3630     1.8810 C.ar  1 <1>   0.0820 
  4 C       -1.9420     2.2630     0.0310 C.ar  1 <1>  -0.1440 
  5 O       -0.0500     2.0620     3.1490 O.3   1 <1>  -0.5320 
  6 C        0.4910     3.1000     1.1080 C.ar  1 <1>  -0.1500 
  7 C       -1.0480     2.9980    -0.7380 C.ar  1 <1>  -0.1500 
  8 C       -3.2680     1.8100    -0.5480 C.3   1 <1>   0.4860 
  9 C        0.1600     3.4150    -0.1990 C.ar  1 <1>  -0.1500 
 10 N       -4.2040     2.9650    -0.5930 N.4   1 <1>  -0.9590 
 11 C       -4.5660     3.4150     0.7850 C.3   1 <1>   0.3430 
 12 C       -5.4140     2.6210    -1.3910 C.3   1 <1>   0.3430 
 13 C       -5.4670     4.6430     0.7110 C.3   1 <1>  -0.1600 
 14 C       -6.3440     3.8280    -1.4800 C.3   1 <1>  -0.1600 
 15 C       -6.7450     4.3720    -0.0970 C.3   1 <1>   0.2800 
 16 O       -7.2840     5.6420    -0.3590 O.3   1 <1>  -0.5600 
 17 C       -7.7430     3.4670     0.7040 C.3   1 <1>   0.2000 
 18 C       -8.5710     5.9640     0.0880 C.3   1 <1>   0.1200 
 19 O       -7.2960     2.1470     0.8390 O.3   1 <1>  -0.6800 
 20 C       -9.2160     3.5220     0.1980 C.3   1 <1>   0.2800 
 21 C       -9.5470     4.8960    -0.4070 C.3   1 <1>  -0.1600 
 22 O      -10.0070     3.3610     1.3180 O.3   1 <1>  -0.6800 
 23 C       -9.6480     2.3950    -0.7530 C.3   1 <1>  -0.2400 
 24 H       -0.7070     1.5030     3.6070 H     1 <1>   0.4500 
 25 H        1.4280     3.4200     1.5310 H     1 <1>   0.1500 
 26 H       -1.2710     3.2530    -1.7610 H     1 <1>   0.1500 
 27 H       -3.6890     1.0150     0.0460 H     1 <1>   0.0800 
 28 H       -3.1020     1.4320    -1.5430 H     1 <1>   0.0800 
 29 H        0.8510     3.9860    -0.7980 H     1 <1>   0.1500 
 30 H       -3.7170     3.7450    -1.0510 H     1 <1>   0.4500 
 31 H       -5.0710     2.6210     1.3100 H     1 <1>   0.0800 
 32 H       -3.6750     3.6660     1.3380 H     1 <1>   0.0800 
 33 H       -5.1270     2.3230    -2.3870 H     1 <1>   0.0800 
 34 H       -5.9330     1.7950    -0.9340 H     1 <1>   0.0800 
 35 H       -4.9150     5.4510     0.2630 H     1 <1>   0.0800 
 36 H       -5.7280     4.9430     1.7100 H     1 <1>   0.0800 
 37 H       -7.2180     3.5580    -2.0370 H     1 <1>   0.0800 
 38 H       -5.8420     4.6020    -2.0350 H     1 <1>   0.0800 
 39 H       -7.7520     3.8650     1.7050 H     1 <1>   0.0800 
 40 H       -8.5650     6.0320     1.1630 H     1 <1>   0.0800 
 41 H       -8.8260     6.9270    -0.3200 H     1 <1>   0.0800 
 42 H       -7.9700     1.6620     1.3670 H     1 <1>   0.4000 
 43 H       -9.4620     4.8600    -1.4790 H     1 <1>   0.0800 
 44 H      -10.5560     5.1850    -0.1760 H     1 <1>   0.0800 
 45 H      -10.9490     3.3450     1.0600 H     1 <1>   0.4000 
 46 H       -9.0490     2.3930    -1.6420 H     1 <1>   0.0800 
 47 H      -10.6730     2.5260    -1.0510 H     1 <1>   0.0800 
 48 H       -9.5480     1.4330    -0.2820 H     1 <1>   0.0800 
@<TRIPOS>BOND
  1   1   2  1   
  2   2   3  ar  
  3   2   4  ar  
  4   3   5  1   
  5   3   6  ar  
  6   4   7  ar  
  7   4   8  1   
  8   5  24  1   
  9   6   9  ar  
 10   6  25  1   
 11   7   9  ar  
 12   7  26  1   
 13   8  10  1   
 14   8  27  1   
 15   8  28  1   
 16   9  29  1   
 17  10  11  1   
 18  10  12  1   
 19  10  30  1   
 20  11  13  1   
 21  11  31  1   
 22  11  32  1   
 23  12  14  1   
 24  12  33  1   
 25  12  34  1   
 26  13  15  1   
 27  13  35  1   
 28  13  36  1   
 29  14  15  1   
 30  14  37  1   
 31  14  38  1   
 32  15  16  1   
 33  15  17  1   
 34  16  18  1   
 35  17  19  1   
 36  17  20  1   
 37  17  39  1   
 38  18  21  1   
 39  18  40  1   
 40  18  41  1   
 41  19  42  1   
 42  20  21  1   
 43  20  22  1   
 44  20  23  1   
 45  21  43  1   
 46  21  44  1   
 47  22  45  1   
 48  23  46  1   
 49  23  47  1   
 50  23  48  1   
@<TRIPOS>SUBSTRUCTURE
  1 ****  11 GROUP 4 **** **** 0

# MOE 2024.06 (io_trps.svl 2023.06)
