@<TRIPOS>MOLECULE
NONAME
45 47 1 0 0 
SMALL
USER_CHARGES


@<TRIPOS>ATOM
  1 S        0.8450    -0.3640    -0.0520 S.o2  1 <1>   1.3330 
  2 O        1.9020    -1.3250    -0.2580 O.2   1 <1>  -0.6500 
  3 O        0.2750     0.3390    -1.1780 O.2   1 <1>  -0.6500 
  4 N       -0.3910    -1.2490     0.6560 N.am  1 <1>  -0.9140 
  5 C        1.3210     0.8330     1.2330 C.3   1 <1>   0.0250 
  6 C       -1.3390    -1.8120    -0.2980 C.3   1 <1>   0.2760 
  7 C        2.4430     1.7830     0.7730 C.3   1 <1>  -0.2400 
  8 C        1.7460     0.1760     2.5620 C.3   1 <1>  -0.2400 
  9 C       -2.5100    -2.3950     0.4830 C.3   1 <1>  -0.0800 
 10 C       -0.7660    -3.0660    -0.9560 C.3   1 <1>   0.1200 
 11 C       -2.0350    -3.8240     0.7940 C.3   1 <1>   0.1200 
 12 C       -3.8050    -2.3890    -0.3580 C.3   1 <1>  -0.0160 
 13 O       -0.9140    -4.0700    -0.0020 O.3   1 <1>  -0.5600 
 14 C       -5.0630    -2.9420     0.3250 C.ar  1 <1>  -0.1440 
 15 C       -6.2330    -3.1790    -0.4390 C.ar  1 <1>   0.0000 
 16 C       -5.1320    -3.2200     1.6620 C.ar  1 <1>  -0.1500 
 17 C       -7.3670    -3.7100     0.2250 C.ar  1 <1>   0.3100 
 18 C       -6.3500    -2.9140    -1.8250 C.ar  1 <1>  -0.1500 
 19 C       -6.3070    -3.7350     2.2220 C.ar  1 <1>   0.1600 
 20 N       -7.3860    -3.9820     1.5530 N.ar  1 <1>  -0.6200 
 21 C       -8.5340    -3.9670    -0.5120 C.ar  1 <1>  -0.1500 
 22 C       -7.5030    -3.1730    -2.5150 C.ar  1 <1>  -0.1500 
 23 C       -8.6100    -3.7090    -1.8530 C.ar  1 <1>  -0.1500 
 24 H        0.0880    -2.0670     1.0410 H     1 <1>   0.4200 
 25 H        0.4580     1.4390     1.4380 H     1 <1>   0.0800 
 26 H       -1.6590    -1.0720    -1.0140 H     1 <1>   0.0800 
 27 H        3.3410     1.2280     0.5640 H     1 <1>   0.0800 
 28 H        2.6550     2.5170     1.5300 H     1 <1>   0.0800 
 29 H        2.1440     2.2960    -0.1250 H     1 <1>   0.0800 
 30 H        2.6040    -0.4550     2.4090 H     1 <1>   0.0800 
 31 H        0.9450    -0.4250     2.9540 H     1 <1>   0.0800 
 32 H        1.9930     0.9260     3.2930 H     1 <1>   0.0800 
 33 H       -2.6770    -1.8290     1.3820 H     1 <1>   0.0800 
 34 H        0.2700    -2.9790    -1.2340 H     1 <1>   0.0800 
 35 H       -1.3430    -3.3440    -1.8200 H     1 <1>   0.0800 
 36 H       -2.7830    -4.5650     0.5680 H     1 <1>   0.0800 
 37 H       -1.7330    -3.9190     1.8220 H     1 <1>   0.0800 
 38 H       -3.6250    -2.9660    -1.2480 H     1 <1>   0.0800 
 39 H       -4.0140    -1.3770    -0.6600 H     1 <1>   0.0800 
 40 H       -4.3110    -3.0610     2.3330 H     1 <1>   0.1500 
 41 H       -5.5190    -2.4950    -2.3590 H     1 <1>   0.1500 
 42 H       -6.3130    -3.9410     3.2790 H     1 <1>   0.1500 
 43 H       -9.3730    -4.3760     0.0190 H     1 <1>   0.1500 
 44 H       -7.5740    -2.9670    -3.5690 H     1 <1>   0.1500 
 45 H       -9.5120    -3.9110    -2.4060 H     1 <1>   0.1500 
@<TRIPOS>BOND
  1   1   2  2   
  2   1   3  2   
  3   1   4  am  
  4   1   5  1   
  5   4   6  1   
  6   4  24  1   
  7   5   7  1   
  8   5   8  1   
  9   5  25  1   
 10   6   9  1   
 11   6  10  1   
 12   6  26  1   
 13   7  27  1   
 14   7  28  1   
 15   7  29  1   
 16   8  30  1   
 17   8  31  1   
 18   8  32  1   
 19   9  11  1   
 20   9  12  1   
 21   9  33  1   
 22  10  13  1   
 23  10  34  1   
 24  10  35  1   
 25  11  13  1   
 26  11  36  1   
 27  11  37  1   
 28  12  14  1   
 29  12  38  1   
 30  12  39  1   
 31  14  15  ar  
 32  14  16  ar  
 33  15  17  ar  
 34  15  18  ar  
 35  16  19  ar  
 36  16  40  1   
 37  17  20  ar  
 38  17  21  ar  
 39  18  22  ar  
 40  18  41  1   
 41  19  20  ar  
 42  19  42  1   
 43  21  23  ar  
 44  21  43  1   
 45  22  23  ar  
 46  22  44  1   
 47  23  45  1   
@<TRIPOS>SUBSTRUCTURE
  1 ****   9 GROUP 4 **** **** 0

# MOE 2024.06 (io_trps.svl 2023.06)
