@<TRIPOS>MOLECULE
NONAME
50 53 1 0 0 
SMALL
USER_CHARGES


@<TRIPOS>ATOM
  1 S       -0.0300    -0.8970     1.5700 S.o2  1 <1>   1.5000 
  2 O       -0.9490    -0.2770     2.5020 O.2   1 <1>  -0.6500 
  3 O        0.7880    -2.0020     2.0230 O.2   1 <1>  -0.6500 
  4 N       -0.9390    -1.4690     0.2570 N.am  1 <1>  -0.8490 
  5 C        1.0440     0.3420     0.8050 C.2   1 <1>  -0.0220 
  6 C       -1.9110    -0.5050    -0.2590 C.3   1 <1>   0.1960 
  7 C       -1.6810    -2.6970     0.5650 C.3   1 <1>   0.1960 
  8 S        0.8080     2.0350     1.2300 S.3   1 <1>  -0.0800 
  9 C        2.0470     0.2520    -0.0930 C.2   1 <1>  -0.1500 
 10 C       -3.2500    -0.8470     0.3970 C.3   1 <1>  -0.0800 
 11 C       -3.1800    -2.3730     0.5330 C.3   1 <1>  -0.0800 
 12 C        2.1050     2.5800     0.1670 C.2   1 <1>   0.0410 
 13 C        2.6400     1.5000    -0.4480 C.2   1 <1>  -0.1500 
 14 C       -4.5250    -0.2910    -0.3020 C.3   1 <1>   0.2800 
 15 C       -3.9030    -3.0790    -0.6260 C.3   1 <1>  -0.1600 
 16 C        2.4100     3.9870     0.0920 C.2   1 <1>   0.2260 
 17 O       -4.3050    -0.1570    -1.6600 O.3   1 <1>  -0.6800 
 18 C       -5.6890    -1.2860    -0.1350 C.3   1 <1>  -0.1600 
 19 C       -4.9440     1.0990     0.2280 C.3   1 <1>  -0.1600 
 20 C       -5.3920    -2.6940    -0.6940 C.3   1 <1>  -0.1600 
 21 N        3.4370     4.3980    -0.7600 N.2   1 <1>  -0.5650 
 22 C        1.8060     4.9890     0.7670 C.2   1 <1>  -0.1100 
 23 C       -3.8940     2.2150     0.0890 C.3   1 <1>  -0.2400 
 24 C        3.6070     5.6560    -0.7350 C.2   1 <1>   0.1980 
 25 S        2.5260     6.5090     0.3400 S.3   1 <1>  -0.0800 
 26 C        4.6100     6.4800    -1.5080 C.3   1 <1>  -0.0600 
 27 H       -1.6130     0.5120    -0.0730 H     1 <1>   0.0800 
 28 H       -1.9730    -0.6480    -1.3240 H     1 <1>   0.0800 
 29 H       -1.4390    -3.4450    -0.1710 H     1 <1>   0.0800 
 30 H       -1.4110    -3.0860     1.5340 H     1 <1>   0.0800 
 31 H        2.3950    -0.6700    -0.5270 H     1 <1>   0.1500 
 32 H       -3.2360    -0.4520     1.3970 H     1 <1>   0.0800 
 33 H       -3.6320    -2.6830     1.4600 H     1 <1>   0.0800 
 34 H        3.4520     1.5530    -1.1530 H     1 <1>   0.1500 
 35 H       -3.4310    -2.7940    -1.5510 H     1 <1>   0.0800 
 36 H       -3.8110    -4.1470    -0.5300 H     1 <1>   0.0800 
 37 H       -5.1360     0.1030    -2.0950 H     1 <1>   0.4000 
 38 H       -5.8860    -1.3820     0.9190 H     1 <1>   0.0800 
 39 H       -6.5860    -0.8990    -0.5840 H     1 <1>   0.0800 
 40 H       -5.8410     1.4080    -0.2790 H     1 <1>   0.0800 
 41 H       -5.1960     1.0070     1.2710 H     1 <1>   0.0800 
 42 H       -5.9760    -3.4120    -0.1450 H     1 <1>   0.0800 
 43 H       -5.7070    -2.7430    -1.7230 H     1 <1>   0.0800 
 44 H        1.0030     4.9910     1.4800 H     1 <1>   0.1500 
 45 H       -3.5460     2.2900    -0.9270 H     1 <1>   0.0800 
 46 H       -3.0550     2.0320     0.7360 H     1 <1>   0.0800 
 47 H       -4.3270     3.1580     0.3690 H     1 <1>   0.0800 
 48 H        5.2080     5.8360    -2.1270 H     1 <1>   0.0800 
 49 H        5.2520     7.0050    -0.8260 H     1 <1>   0.0800 
 50 H        4.0970     7.1880    -2.1320 H     1 <1>   0.0800 
@<TRIPOS>BOND
  1   1   2  2   
  2   1   3  2   
  3   1   4  am  
  4   1   5  1   
  5   4   6  1   
  6   4   7  1   
  7   5   8  1   
  8   5   9  2   
  9   6  10  1   
 10   6  27  1   
 11   6  28  1   
 12   7  11  1   
 13   7  29  1   
 14   7  30  1   
 15   8  12  1   
 16   9  13  1   
 17   9  31  1   
 18  10  11  1   
 19  10  14  1   
 20  10  32  1   
 21  11  15  1   
 22  11  33  1   
 23  12  13  2   
 24  12  16  1   
 25  13  34  1   
 26  14  17  1   
 27  14  18  1   
 28  14  19  1   
 29  15  20  1   
 30  15  35  1   
 31  15  36  1   
 32  16  21  1   
 33  16  22  2   
 34  17  37  1   
 35  18  20  1   
 36  18  38  1   
 37  18  39  1   
 38  19  23  1   
 39  19  40  1   
 40  19  41  1   
 41  20  42  1   
 42  20  43  1   
 43  21  24  2   
 44  22  25  1   
 45  22  44  1   
 46  23  45  1   
 47  23  46  1   
 48  23  47  1   
 49  24  25  1   
 50  24  26  1   
 51  26  48  1   
 52  26  49  1   
 53  26  50  1   
@<TRIPOS>SUBSTRUCTURE
  1 ****   5 GROUP 4 **** **** 0

# MOE 2024.06 (io_trps.svl 2023.06)
