@<TRIPOS>MOLECULE
NONAME
49 51 1 0 0 
SMALL
USER_CHARGES


@<TRIPOS>ATOM
  1 O       -1.4120     1.0850    -1.2420 O.2   1 <1>  -0.5700 
  2 C       -1.7470    -0.0420    -0.9830 C.2   1 <1>   0.5690 
  3 N       -0.9220    -1.0710    -1.2660 N.am  1 <1>  -0.8000 
  4 C       -3.1060    -0.2830    -0.3320 C.3   1 <1>   0.1810 
  5 O       -3.4030    -1.6730    -0.2250 O.3   1 <1>  -0.3630 
  6 C       -4.5510    -2.0980     0.3560 C.ar  1 <1>   0.0820 
  7 C       -4.7230    -3.4690     0.4580 C.ar  1 <1>  -0.1500 
  8 C       -5.5390    -1.2460     0.8420 C.ar  1 <1>  -0.1500 
  9 C       -5.8680    -3.9990     1.0330 C.ar  1 <1>  -0.1430 
 10 C       -6.6780    -1.7710     1.4240 C.ar  1 <1>  -0.1500 
 11 C       -6.8430    -3.1410     1.5220 C.ar  1 <1>  -0.1500 
 12 C       -6.0570    -5.5000     1.1270 C.3   1 <1>   0.4860 
 13 N       -6.3500    -6.0310    -0.2330 N.4   1 <1>  -0.9590 
 14 C       -7.6820    -5.5410    -0.7180 C.3   1 <1>   0.3430 
 15 C       -6.4230    -7.5250    -0.2130 C.3   1 <1>   0.3430 
 16 C       -8.6750    -6.6620    -0.3990 C.3   1 <1>   0.2000 
 17 C       -7.8360    -7.9100    -0.6660 C.3   1 <1>  -0.0800 
 18 O       -8.9990    -6.5900     0.9540 O.3   1 <1>  -0.6800 
 19 C       -8.3350    -9.2280    -0.0410 C.3   1 <1>   0.0200 
 20 C       -7.2950   -10.3180    -0.2180 C.2   1 <1>  -0.0400 
 21 O       -6.7350   -10.4980    -1.3840 O.3   1 <1>  -0.0190 
 22 C       -6.7600   -11.2020     0.6380 C.2   1 <1>  -0.1500 
 23 N       -5.8430   -11.4410    -1.3510 N.2   1 <1>  -0.4100 
 24 C       -5.8420   -11.8930    -0.1490 C.2   1 <1>   0.1080 
 25 C       -4.9600   -13.0240     0.3340 C.3   1 <1>  -0.0590 
 26 H       -0.0170    -0.8980    -1.7020 H     1 <1>   0.3700 
 27 H       -1.1710    -2.0390    -1.0620 H     1 <1>   0.3700 
 28 H       -3.8680     0.1830    -0.9290 H     1 <1>   0.0800 
 29 H       -3.1010     0.1410     0.6550 H     1 <1>   0.0800 
 30 H       -3.9410    -4.1050     0.0840 H     1 <1>   0.1500 
 31 H       -5.4420    -0.1770     0.7810 H     1 <1>   0.1500 
 32 H       -7.4380    -1.1090     1.8050 H     1 <1>   0.1500 
 33 H       -7.7380    -3.5280     1.9840 H     1 <1>   0.1500 
 34 H       -6.8690    -5.7280     1.7990 H     1 <1>   0.0800 
 35 H       -5.1560    -5.9470     1.5150 H     1 <1>   0.0800 
 36 H       -5.6110    -5.6960    -0.8630 H     1 <1>   0.4500 
 37 H       -7.9770    -4.6130    -0.2560 H     1 <1>   0.0800 
 38 H       -7.6440    -5.4020    -1.7860 H     1 <1>   0.0800 
 39 H       -5.6850    -7.9650    -0.8660 H     1 <1>   0.0800 
 40 H       -6.2590    -7.8890     0.7890 H     1 <1>   0.0800 
 41 H       -9.5760    -6.5980    -0.9860 H     1 <1>   0.0800 
 42 H       -7.7920    -8.0520    -1.7330 H     1 <1>   0.0800 
 43 H       -9.8490    -7.0450     1.1390 H     1 <1>   0.4000 
 44 H       -9.2480    -9.5350    -0.5200 H     1 <1>   0.0800 
 45 H       -8.5290    -9.1130     1.0110 H     1 <1>   0.0800 
 46 H       -6.9590   -11.3720     1.6800 H     1 <1>   0.1500 
 47 H       -4.3690   -12.7000     1.1700 H     1 <1>   0.0800 
 48 H       -4.3020   -13.3390    -0.4560 H     1 <1>   0.0800 
 49 H       -5.5680   -13.8590     0.6310 H     1 <1>   0.0800 
@<TRIPOS>BOND
  1   1   2  2   
  2   2   3  am  
  3   2   4  1   
  4   3  26  1   
  5   3  27  1   
  6   4   5  1   
  7   4  28  1   
  8   4  29  1   
  9   5   6  1   
 10   6   7  ar  
 11   6   8  ar  
 12   7   9  ar  
 13   7  30  1   
 14   8  10  ar  
 15   8  31  1   
 16   9  11  ar  
 17   9  12  1   
 18  10  11  ar  
 19  10  32  1   
 20  11  33  1   
 21  12  13  1   
 22  12  34  1   
 23  12  35  1   
 24  13  14  1   
 25  13  15  1   
 26  13  36  1   
 27  14  16  1   
 28  14  37  1   
 29  14  38  1   
 30  15  17  1   
 31  15  39  1   
 32  15  40  1   
 33  16  17  1   
 34  16  18  1   
 35  16  41  1   
 36  17  19  1   
 37  17  42  1   
 38  18  43  1   
 39  19  20  1   
 40  19  44  1   
 41  19  45  1   
 42  20  21  1   
 43  20  22  2   
 44  21  23  1   
 45  22  24  1   
 46  22  46  1   
 47  23  24  2   
 48  24  25  1   
 49  25  47  1   
 50  25  48  1   
 51  25  49  1   
@<TRIPOS>SUBSTRUCTURE
  1 ****  13 GROUP 4 **** **** 0

# MOE 2024.06 (io_trps.svl 2023.06)
