@<TRIPOS>MOLECULE
NONAME
54 55 1 0 0 
SMALL
USER_CHARGES


@<TRIPOS>ATOM
  1 O        3.1610    -0.5040     2.1790 O.co2 1 <1>  -0.9000 
  2 C        2.6910    -0.7260     1.0560 C.2   1 <1>   0.9060 
  3 O        2.5440    -1.8810     0.6300 O.co2 1 <1>  -0.9000 
  4 C        2.3560     0.4400     0.1100 C.3   1 <1>  -0.1060 
  5 C        3.3990     0.2690    -1.0260 C.3   1 <1>   0.2000 
  6 C        2.5650     1.8220     0.8050 C.3   1 <1>  -0.1600 
  7 C        0.8560     0.3200    -0.3200 C.3   1 <1>  -0.1600 
  8 O        2.9490    -0.6380    -1.9700 O.3   1 <1>  -0.6800 
  9 C        3.8260     1.5950    -1.6690 C.3   1 <1>   0.1400 
 10 C        4.0300     2.2640     0.7690 C.3   1 <1>   0.1400 
 11 C        0.3730     1.2410    -1.4590 C.3   1 <1>  -0.1600 
 12 N        4.4620     2.5070    -0.6480 N.am  1 <1>  -0.6600 
 13 C       -1.1160     1.0210    -1.7390 C.3   1 <1>  -0.2400 
 14 C        5.3080     3.5080    -1.0930 C.2   1 <1>   0.5690 
 15 O        5.2780     3.8020    -2.2710 O.2   1 <1>  -0.5700 
 16 C        6.2990     4.3100    -0.1750 C.3   1 <1>   0.3410 
 17 O        7.3420     4.8290    -1.0160 O.3   1 <1>  -0.3630 
 18 C        6.9950     3.4400     0.8960 C.3   1 <1>  -0.2400 
 19 C        5.5670     5.4970     0.4840 C.3   1 <1>  -0.2400 
 20 C        8.2990     5.6870    -0.5850 C.ar  1 <1>   0.0820 
 21 C        8.0820     7.0550    -0.6370 C.ar  1 <1>  -0.1500 
 22 C        9.5190     5.1960    -0.1460 C.ar  1 <1>  -0.1500 
 23 C        9.0620     7.9360    -0.2090 C.ar  1 <1>  -0.1440 
 24 C       10.5000     6.0710     0.2830 C.ar  1 <1>  -0.1500 
 25 C       10.2690     7.4370     0.2570 C.ar  1 <1>  -0.1500 
 26 C        8.8200     9.4340    -0.2510 C.3   1 <1>  -0.0970 
 27 H        4.2960    -0.1650    -0.6150 H     1 <1>   0.0800 
 28 H        2.2330     1.7660     1.8280 H     1 <1>   0.0800 
 29 H        1.9880     2.5950     0.3380 H     1 <1>   0.0800 
 30 H        0.6670    -0.6960    -0.6230 H     1 <1>   0.0800 
 31 H        0.2480     0.4910     0.5510 H     1 <1>   0.0800 
 32 H        2.6730    -1.4360    -1.4530 H     1 <1>   0.4000 
 33 H        2.9730     2.0900    -2.0950 H     1 <1>   0.0800 
 34 H        4.5330     1.3900    -2.4530 H     1 <1>   0.0800 
 35 H        4.6440     1.4960     1.2110 H     1 <1>   0.0800 
 36 H        4.1250     3.1570     1.3540 H     1 <1>   0.0800 
 37 H        0.5270     2.2740    -1.2130 H     1 <1>   0.0800 
 38 H        0.9250     1.0250    -2.3570 H     1 <1>   0.0800 
 39 H       -1.6990     1.2460    -0.8640 H     1 <1>   0.0800 
 40 H       -1.2940    -0.0020    -2.0220 H     1 <1>   0.0800 
 41 H       -1.4370     1.6600    -2.5430 H     1 <1>   0.0800 
 42 H        6.3060     3.0750     1.6270 H     1 <1>   0.0800 
 43 H        7.7290     4.0080     1.4350 H     1 <1>   0.0800 
 44 H        7.4680     2.5970     0.4250 H     1 <1>   0.0800 
 45 H        4.7330     5.1580     1.0650 H     1 <1>   0.0800 
 46 H        5.1900     6.1530    -0.2790 H     1 <1>   0.0800 
 47 H        6.2230     6.0400     1.1390 H     1 <1>   0.0800 
 48 H        7.1470     7.4200    -1.0180 H     1 <1>   0.1500 
 49 H        9.6930     4.1360    -0.1450 H     1 <1>   0.1500 
 50 H       11.4440     5.6920     0.6330 H     1 <1>   0.1500 
 51 H       11.0360     8.1110     0.5950 H     1 <1>   0.1500 
 52 H        9.7270     9.9510    -0.5100 H     1 <1>   0.0800 
 53 H        8.4870     9.7750     0.7120 H     1 <1>   0.0800 
 54 H        8.0720     9.6750    -0.9840 H     1 <1>   0.0800 
@<TRIPOS>BOND
  1   1   2  ar  
  2   2   3  ar  
  3   2   4  1   
  4   4   5  1   
  5   4   6  1   
  6   4   7  1   
  7   5   8  1   
  8   5   9  1   
  9   5  27  1   
 10   6  10  1   
 11   6  28  1   
 12   6  29  1   
 13   7  11  1   
 14   7  30  1   
 15   7  31  1   
 16   8  32  1   
 17   9  12  1   
 18   9  33  1   
 19   9  34  1   
 20  10  12  1   
 21  10  35  1   
 22  10  36  1   
 23  11  13  1   
 24  11  37  1   
 25  11  38  1   
 26  12  14  am  
 27  13  39  1   
 28  13  40  1   
 29  13  41  1   
 30  14  15  2   
 31  14  16  1   
 32  16  17  1   
 33  16  18  1   
 34  16  19  1   
 35  17  20  1   
 36  18  42  1   
 37  18  43  1   
 38  18  44  1   
 39  19  45  1   
 40  19  46  1   
 41  19  47  1   
 42  20  21  ar  
 43  20  22  ar  
 44  21  23  ar  
 45  21  48  1   
 46  22  24  ar  
 47  22  49  1   
 48  23  25  ar  
 49  23  26  1   
 50  24  25  ar  
 51  24  50  1   
 52  25  51  1   
 53  26  52  1   
 54  26  53  1   
 55  26  54  1   
@<TRIPOS>SUBSTRUCTURE
  1 ****  14 GROUP 4 **** **** 0

# MOE 2024.06 (io_trps.svl 2023.06)
