@<TRIPOS>MOLECULE
NONAME
42 45 1 0 0 
SMALL
USER_CHARGES


@<TRIPOS>ATOM
  1 S       -0.0460     0.0970     1.0670 S.3   1 <1>  -0.0800 
  2 C        0.6440     1.6600     0.6240 C.ar  1 <1>   0.0400 
  3 C        1.0390    -0.7910    -0.0300 C.2   1 <1>  -0.0450 
  4 C        1.6540     1.4780    -0.3070 C.ar  1 <1>   0.0000 
  5 C        0.2670     2.8990     1.1060 C.ar  1 <1>  -0.1500 
  6 C        0.9800    -2.2320    -0.1190 C.2   1 <1>   0.7150 
  7 C        1.8550     0.1020    -0.6440 C.2   1 <1>  -0.1500 
  8 C        2.3190     2.6100    -0.7750 C.ar  1 <1>  -0.1500 
  9 C        0.9380     4.0100     0.6270 C.ar  1 <1>  -0.1500 
 10 O        1.9880    -2.8390    -0.4360 O.2   1 <1>  -0.5700 
 11 N       -0.1670    -2.9630     0.1070 N.am  1 <1>  -0.6600 
 12 C        1.9590     3.8630    -0.3090 C.ar  1 <1>  -0.1500 
 13 C       -1.5470    -2.4610    -0.1170 C.3   1 <1>   0.1400 
 14 C       -0.1550    -4.4490     0.1050 C.3   1 <1>   0.1400 
 15 C       -2.3470    -3.6900    -0.5420 C.3   1 <1>   0.2000 
 16 C       -1.6250    -4.8730     0.0960 C.3   1 <1>  -0.0800 
 17 O       -3.6570    -3.6310    -0.0970 O.3   1 <1>  -0.6800 
 18 C       -1.8780    -6.1990    -0.6370 C.3   1 <1>   0.0200 
 19 C       -1.0690    -7.3230    -0.0200 C.2   1 <1>  -0.0400 
 20 O       -1.2750    -7.6710     1.2220 O.3   1 <1>  -0.0190 
 21 C       -0.0960    -8.1040    -0.5120 C.2   1 <1>  -0.1500 
 22 N       -0.4890    -8.6410     1.5890 N.2   1 <1>  -0.4100 
 23 C        0.2330    -8.9230     0.5640 C.2   1 <1>   0.1080 
 24 C        1.2930   -10.0010     0.5420 C.3   1 <1>  -0.0590 
 25 H       -0.5230     2.9870     1.8290 H     1 <1>   0.1500 
 26 H        2.6220    -0.1740    -1.3460 H     1 <1>   0.1500 
 27 H        3.1080     2.5000    -1.4970 H     1 <1>   0.1500 
 28 H        0.6730     4.9930     0.9790 H     1 <1>   0.1500 
 29 H        2.4730     4.7360    -0.6720 H     1 <1>   0.1500 
 30 H       -1.9310    -2.0630     0.8060 H     1 <1>   0.0800 
 31 H       -1.5640    -1.7070    -0.8860 H     1 <1>   0.0800 
 32 H        0.3500    -4.7970    -0.7810 H     1 <1>   0.0800 
 33 H        0.3570    -4.8260     0.9750 H     1 <1>   0.0800 
 34 H       -2.3550    -3.7650    -1.6160 H     1 <1>   0.0800 
 35 H       -1.9320    -4.9700     1.1230 H     1 <1>   0.0800 
 36 H       -3.6880    -3.6210     0.8800 H     1 <1>   0.4000 
 37 H       -1.6140    -6.1020    -1.6750 H     1 <1>   0.0800 
 38 H       -2.9240    -6.4480    -0.5810 H     1 <1>   0.0800 
 39 H        0.3500    -8.1220    -1.4890 H     1 <1>   0.1500 
 40 H        1.0600   -10.7280    -0.2140 H     1 <1>   0.0800 
 41 H        1.3370   -10.4930     1.4970 H     1 <1>   0.0800 
 42 H        2.2520    -9.5640     0.3320 H     1 <1>   0.0800 
@<TRIPOS>BOND
  1   1   2  1   
  2   1   3  1   
  3   2   4  ar  
  4   2   5  ar  
  5   3   6  1   
  6   3   7  2   
  7   4   7  1   
  8   4   8  ar  
  9   5   9  ar  
 10   5  25  1   
 11   6  10  2   
 12   6  11  am  
 13   7  26  1   
 14   8  12  ar  
 15   8  27  1   
 16   9  12  ar  
 17   9  28  1   
 18  11  13  1   
 19  11  14  1   
 20  12  29  1   
 21  13  15  1   
 22  13  30  1   
 23  13  31  1   
 24  14  16  1   
 25  14  32  1   
 26  14  33  1   
 27  15  16  1   
 28  15  17  1   
 29  15  34  1   
 30  16  18  1   
 31  16  35  1   
 32  17  36  1   
 33  18  19  1   
 34  18  37  1   
 35  18  38  1   
 36  19  20  1   
 37  19  21  2   
 38  20  22  1   
 39  21  23  1   
 40  21  39  1   
 41  22  23  2   
 42  23  24  1   
 43  24  40  1   
 44  24  41  1   
 45  24  42  1   
@<TRIPOS>SUBSTRUCTURE
  1 ****  11 GROUP 4 **** **** 0

# MOE 2024.06 (io_trps.svl 2023.06)
