@<TRIPOS>MOLECULE
NONAME
26 26 1 0 0 
SMALL
USER_CHARGES


@<TRIPOS>ATOM
  1 S       -0.0580     0.6080     0.6040 S.3   1 <1>  -0.3320 
  2 C        1.5830     1.2690     0.3420 C.ar  1 <1>   0.7220 
  3 C       -0.0020    -1.1060    -0.0860 C.3   1 <1>  -0.0100 
  4 N        1.7510     2.5010     0.7720 N.ar  1 <1>  -0.6200 
  5 N        2.4410     0.4570    -0.2520 N.ar  1 <1>  -0.6200 
  6 C        2.9480     2.9900     0.5720 C.ar  1 <1>   0.4100 
  7 C        3.6420     0.9730    -0.4180 C.ar  1 <1>   0.1600 
  8 N        3.0950     4.2770     0.9890 N.pl3 1 <1>  -0.8690 
  9 C        3.9620     2.2440    -0.0130 C.ar  1 <1>  -0.1430 
 10 C        3.2570     5.3620     0.0070 C.3   1 <1>   0.2090 
 11 C        5.3610     2.8060    -0.1920 C.3   1 <1>   0.2630 
 12 C        2.0750     6.3110     0.1510 C.3   1 <1>  -0.2400 
 13 O        6.2890     1.8270     0.1180 O.3   1 <1>  -0.6800 
 14 H       -0.9720    -1.5470     0.0490 H     1 <1>   0.0800 
 15 H        0.7510    -1.6530     0.4530 H     1 <1>   0.0800 
 16 H        0.2490    -1.0330    -1.1290 H     1 <1>   0.0800 
 17 H        4.3890     0.3540    -0.8880 H     1 <1>   0.1500 
 18 H        2.3420     4.5080     1.6440 H     1 <1>   0.4000 
 19 H        3.2850     4.9600    -0.9930 H     1 <1>   0.0800 
 20 H        4.1790     5.8860     0.1990 H     1 <1>   0.0800 
 21 H        5.5390     3.6440     0.4600 H     1 <1>   0.0800 
 22 H        5.5200     3.1080    -1.2130 H     1 <1>   0.0800 
 23 H        1.1550     5.7860    -0.0350 H     1 <1>   0.0800 
 24 H        2.1630     7.1080    -0.5640 H     1 <1>   0.0800 
 25 H        2.0550     6.7380     1.1380 H     1 <1>   0.0800 
 26 H        6.1760     1.5560     1.0510 H     1 <1>   0.4000 
@<TRIPOS>BOND
  1   1   2  1   
  2   1   3  1   
  3   2   4  ar  
  4   2   5  ar  
  5   3  14  1   
  6   3  15  1   
  7   3  16  1   
  8   4   6  ar  
  9   5   7  ar  
 10   6   8  1   
 11   6   9  ar  
 12   7   9  ar  
 13   7  17  1   
 14   8  10  1   
 15   8  18  1   
 16   9  11  1   
 17  10  12  1   
 18  10  19  1   
 19  10  20  1   
 20  11  13  1   
 21  11  21  1   
 22  11  22  1   
 23  12  23  1   
 24  12  24  1   
 25  12  25  1   
 26  13  26  1   
@<TRIPOS>SUBSTRUCTURE
  1 ****   6 GROUP 4 **** **** 0

# MOE 2024.06 (io_trps.svl 2023.06)
