@<TRIPOS>MOLECULE
NONAME
44 46 1 0 0 
SMALL
USER_CHARGES


@<TRIPOS>ATOM
  1 O        0.0060     1.0050    -0.5990 O.2   1 <1>  -0.5700 
  2 C        0.2460     2.1830    -0.5390 C.2   1 <1>   0.4230 
  3 C        1.5750     2.7020    -0.3210 C.ar  1 <1>   0.0860 
  4 C       -0.9350     3.1200    -0.7080 C.3   1 <1>  -0.1790 
  5 C        1.8640     4.0680    -0.2620 C.ar  1 <1>   0.1600 
  6 C        2.6580     1.8430    -0.1540 C.ar  1 <1>  -0.1500 
  7 N        3.0510     4.6080    -0.0700 N.ar  1 <1>  -0.6200 
  8 C        3.9020     2.3870     0.0470 C.ar  1 <1>  -0.1500 
  9 C        4.0720     3.7690     0.0750 C.ar  1 <1>   0.4100 
 10 N        5.3200     4.3170     0.2590 N.pl3 1 <1>  -0.8380 
 11 C        6.4870     3.8940    -0.5730 C.3   1 <1>   0.2090 
 12 C        5.4850     5.7180     0.7640 C.3   1 <1>   0.2090 
 13 C        7.8060     4.0140     0.2160 C.3   1 <1>   0.2090 
 14 C        6.8080     5.8910     1.5380 C.3   1 <1>   0.2090 
 15 N        8.0010     5.3840     0.7800 N.pl3 1 <1>  -0.8380 
 16 C        8.7550     6.2730     0.0460 C.ar  1 <1>   0.4100 
 17 N        8.0870     7.1150    -0.7140 N.ar  1 <1>  -0.6200 
 18 C       10.1470     6.2680     0.0820 C.ar  1 <1>  -0.1430 
 19 C        8.8210     7.9300    -1.4390 C.ar  1 <1>   0.4700 
 20 C       10.7950     7.1650    -0.7400 C.ar  1 <1>   0.1670 
 21 C       10.9030     5.3100     1.0050 C.3   1 <1>  -0.0970 
 22 N       10.1360     8.0090    -1.5070 N.ar  1 <1>  -0.6200 
 23 C       12.3080     7.2610    -0.8320 C.3   1 <1>  -0.0970 
 24 H       -0.7910     3.7480    -1.5680 H     1 <1>   0.0800 
 25 H       -1.0560     3.7260     0.1710 H     1 <1>   0.0800 
 26 H       -1.8350     2.5480    -0.8520 H     1 <1>   0.0800 
 27 H        1.0580     4.7680    -0.3810 H     1 <1>   0.1500 
 28 H        2.5130     0.7760    -0.1790 H     1 <1>   0.1500 
 29 H        4.7540     1.7540     0.1950 H     1 <1>   0.1500 
 30 H        6.5460     4.5300    -1.4400 H     1 <1>   0.0800 
 31 H        6.3640     2.8830    -0.9130 H     1 <1>   0.0800 
 32 H        4.6650     5.9730     1.4110 H     1 <1>   0.0800 
 33 H        5.4730     6.3970    -0.0700 H     1 <1>   0.0800 
 34 H        8.6270     3.7740    -0.4360 H     1 <1>   0.0800 
 35 H        7.8000     3.3010     1.0210 H     1 <1>   0.0800 
 36 H        6.7350     5.3560     2.4680 H     1 <1>   0.0800 
 37 H        6.9460     6.9330     1.7690 H     1 <1>   0.0800 
 38 H        8.2790     8.6210    -2.0610 H     1 <1>   0.1500 
 39 H       10.3120     5.0660     1.8690 H     1 <1>   0.0800 
 40 H       11.8150     5.7520     1.3610 H     1 <1>   0.0800 
 41 H       11.1330     4.4020     0.4790 H     1 <1>   0.0800 
 42 H       12.7620     6.2920    -0.7500 H     1 <1>   0.0800 
 43 H       12.6760     7.8980    -0.0500 H     1 <1>   0.0800 
 44 H       12.5930     7.6820    -1.7800 H     1 <1>   0.0800 
@<TRIPOS>BOND
  1   1   2  2   
  2   2   3  1   
  3   2   4  1   
  4   3   5  ar  
  5   3   6  ar  
  6   4  24  1   
  7   4  25  1   
  8   4  26  1   
  9   5   7  ar  
 10   5  27  1   
 11   6   8  ar  
 12   6  28  1   
 13   7   9  ar  
 14   8   9  ar  
 15   8  29  1   
 16   9  10  1   
 17  10  11  1   
 18  10  12  1   
 19  11  13  1   
 20  11  30  1   
 21  11  31  1   
 22  12  14  1   
 23  12  32  1   
 24  12  33  1   
 25  13  15  1   
 26  13  34  1   
 27  13  35  1   
 28  14  15  1   
 29  14  36  1   
 30  14  37  1   
 31  15  16  1   
 32  16  17  ar  
 33  16  18  ar  
 34  17  19  ar  
 35  18  20  ar  
 36  18  21  1   
 37  19  22  ar  
 38  19  38  1   
 39  20  22  ar  
 40  20  23  1   
 41  21  39  1   
 42  21  40  1   
 43  21  41  1   
 44  23  42  1   
 45  23  43  1   
 46  23  44  1   
@<TRIPOS>SUBSTRUCTURE
  1 ****  10 GROUP 4 **** **** 0

# MOE 2024.06 (io_trps.svl 2023.06)
