@<TRIPOS>MOLECULE
NONAME
44 46 1 0 0 
SMALL
USER_CHARGES


@<TRIPOS>ATOM
  1 O       -3.4450     0.1020     1.6200 O.2   1 <1>  -0.5700 
  2 C       -2.5500     0.8530     1.2830 C.2   1 <1>   0.6900 
  3 N       -2.7170     1.8970     0.4170 N.am  1 <1>  -0.4200 
  4 N       -1.2510     0.7310     1.6660 N.am  1 <1>  -0.6600 
  5 C       -1.5160     2.4860     0.1720 C.2   1 <1>   0.5690 
  6 C       -3.9970     2.2590    -0.2580 C.3   1 <1>   0.2010 
  7 C       -0.4400     1.7630     0.9660 C.3   1 <1>   0.2010 
  8 C       -0.6390    -0.3910     2.4180 C.3   1 <1>   0.0600 
  9 O       -1.3190     3.4300    -0.5520 O.2   1 <1>  -0.5700 
 10 C       -4.4130     1.2580    -1.3350 C.2   1 <1>   0.5690 
 11 O       -4.8460     1.6630    -2.3860 O.2   1 <1>  -0.5700 
 12 N       -4.3040    -0.0690    -1.0800 N.am  1 <1>  -0.7300 
 13 C       -4.6140    -1.1830    -1.9970 C.3   1 <1>   0.2200 
 14 C       -5.2600    -2.3310    -1.2350 C.3   1 <1>  -0.0800 
 15 C       -3.3100    -1.8360    -2.4400 C.3   1 <1>   0.1200 
 16 C       -4.0510    -3.0560    -0.6350 C.3   1 <1>   0.1200 
 17 C       -6.3320    -1.9360    -0.2000 C.3   1 <1>  -0.0160 
 18 O       -2.9390    -2.6960    -1.4030 O.3   1 <1>  -0.5600 
 19 C       -6.8750    -3.1620     0.5160 C.ar  1 <1>  -0.1440 
 20 C       -7.8090    -3.9950    -0.0650 C.ar  1 <1>  -0.1500 
 21 C       -6.4560    -3.5050     1.7860 C.ar  1 <1>  -0.1500 
 22 C       -8.2640    -5.1030     0.6310 C.ar  1 <1>   0.1600 
 23 C       -6.9740    -4.6360     2.3940 C.ar  1 <1>   0.1600 
 24 N       -7.8670    -5.4450     1.8460 N.ar  1 <1>  -0.6200 
 25 H       -4.7770     2.3130     0.4780 H     1 <1>   0.0800 
 26 H       -3.8970     3.2280    -0.7130 H     1 <1>   0.0800 
 27 H        0.0320     2.4270     1.6670 H     1 <1>   0.0800 
 28 H        0.2800     1.3110     0.3080 H     1 <1>   0.0800 
 29 H       -0.0670    -0.0080     3.2450 H     1 <1>   0.0800 
 30 H        0.0050    -0.9580     1.7690 H     1 <1>   0.0800 
 31 H       -1.4090    -1.0410     2.7980 H     1 <1>   0.0800 
 32 H       -3.9210    -0.3680    -0.1710 H     1 <1>   0.3700 
 33 H       -5.2040    -0.8390    -2.8300 H     1 <1>   0.0800 
 34 H       -5.7090    -2.9960    -1.9510 H     1 <1>   0.0800 
 35 H       -2.5280    -1.1200    -2.6170 H     1 <1>   0.0800 
 36 H       -3.4660    -2.4340    -3.3210 H     1 <1>   0.0800 
 37 H       -4.1680    -4.1260    -0.6610 H     1 <1>   0.0800 
 38 H       -3.8610    -2.7350     0.3750 H     1 <1>   0.0800 
 39 H       -7.1370    -1.4240    -0.6960 H     1 <1>   0.0800 
 40 H       -5.9230    -1.2620     0.5330 H     1 <1>   0.0800 
 41 H       -8.1870    -3.7940    -1.0500 H     1 <1>   0.1500 
 42 H       -5.7330    -2.9050     2.3080 H     1 <1>   0.1500 
 43 H       -8.9920    -5.7420     0.1630 H     1 <1>   0.1500 
 44 H       -6.6360    -4.8880     3.3850 H     1 <1>   0.1500 
@<TRIPOS>BOND
  1   1   2  2   
  2   2   3  am  
  3   2   4  am  
  4   3   5  am  
  5   3   6  1   
  6   4   7  1   
  7   4   8  1   
  8   5   7  1   
  9   5   9  2   
 10   6  10  1   
 11   6  25  1   
 12   6  26  1   
 13   7  27  1   
 14   7  28  1   
 15   8  29  1   
 16   8  30  1   
 17   8  31  1   
 18  10  11  2   
 19  10  12  am  
 20  12  13  1   
 21  12  32  1   
 22  13  14  1   
 23  13  15  1   
 24  13  33  1   
 25  14  16  1   
 26  14  17  1   
 27  14  34  1   
 28  15  18  1   
 29  15  35  1   
 30  15  36  1   
 31  16  18  1   
 32  16  37  1   
 33  16  38  1   
 34  17  19  1   
 35  17  39  1   
 36  17  40  1   
 37  19  20  ar  
 38  19  21  ar  
 39  20  22  ar  
 40  20  41  1   
 41  21  23  ar  
 42  21  42  1   
 43  22  24  ar  
 44  22  43  1   
 45  23  24  ar  
 46  23  44  1   
@<TRIPOS>SUBSTRUCTURE
  1 ****  12 GROUP 4 **** **** 0

# MOE 2024.06 (io_trps.svl 2023.06)
