@<TRIPOS>MOLECULE
NONAME
47 49 1 0 0 
SMALL
USER_CHARGES


@<TRIPOS>ATOM
  1 O       -0.7550     0.8010     2.6910 O.3   1 <1>  -0.5600 
  2 C        0.4000     0.8490     1.9100 C.3   1 <1>   0.1200 
  3 C       -1.8940     0.8380     1.8830 C.3   1 <1>   0.1200 
  4 C        0.0070     1.6150     0.6510 C.3   1 <1>   0.2890 
  5 C       -1.4160     1.1070     0.4510 C.3   1 <1>  -0.0800 
  6 N        0.0180     3.0690     0.9550 N.pl3 1 <1>  -0.8690 
  7 C       -2.3580     2.0170    -0.3590 C.3   1 <1>  -0.0170 
  8 C        0.5810     4.1110     0.3260 C.ar  1 <1>   0.4100 
  9 C       -3.7190     1.3620    -0.5390 C.ar  1 <1>  -0.1430 
 10 N        0.5380     5.2400     0.9910 N.ar  1 <1>  -0.6200 
 11 C        1.1720     4.0140    -0.9460 C.ar  1 <1>  -0.1500 
 12 C       -4.8050     1.7060     0.2410 C.ar  1 <1>  -0.1500 
 13 C       -3.9390     0.3870    -1.4910 C.ar  1 <1>  -0.1500 
 14 C        1.0940     6.3130     0.4440 C.ar  1 <1>   0.7710 
 15 C        1.7260     5.1220    -1.4960 C.ar  1 <1>   0.2180 
 16 C       -6.0210     1.0720     0.0410 C.ar  1 <1>   0.1600 
 17 C       -5.1960    -0.1840    -1.6100 C.ar  1 <1>   0.1600 
 18 N        1.6710     6.2640    -0.7710 N.ar  1 <1>  -0.1790 
 19 N        1.0800     7.4970     1.1190 N.pl3 1 <1>  -0.8380 
 20 C        2.3900     5.1460    -2.8620 C.3   1 <1>  -0.0970 
 21 N       -6.2420     0.1330    -0.8650 N.ar  1 <1>  -0.6200 
 22 C        0.3230     7.6420     2.4080 C.3   1 <1>   0.1290 
 23 C        1.8270     8.7470     0.7680 C.3   1 <1>   0.1290 
 24 H        1.1890     1.3290     2.4610 H     1 <1>   0.0800 
 25 H        0.6780    -0.1630     1.6720 H     1 <1>   0.0800 
 26 H       -2.4130    -0.1020     1.9620 H     1 <1>   0.0800 
 27 H       -2.5230     1.6320     2.2480 H     1 <1>   0.0800 
 28 H        0.6540     1.3780    -0.1740 H     1 <1>   0.0800 
 29 H       -1.3580     0.1550    -0.0460 H     1 <1>   0.0800 
 30 H       -0.3730     3.2610     1.8860 H     1 <1>   0.4000 
 31 H       -1.9290     2.2110    -1.3250 H     1 <1>   0.0800 
 32 H       -2.4820     2.9640     0.1370 H     1 <1>   0.0800 
 33 H        1.1690     3.0700    -1.4550 H     1 <1>   0.1500 
 34 H       -4.7210     2.4590     1.0030 H     1 <1>   0.1500 
 35 H       -3.1490     0.0640    -2.1420 H     1 <1>   0.1500 
 36 H       -6.8560     1.3530     0.6590 H     1 <1>   0.1500 
 37 H       -5.3480    -0.9440    -2.3580 H     1 <1>   0.1500 
 38 H        2.0380     7.1430    -1.1090 H     1 <1>   0.4570 
 39 H        2.3580     4.1700    -3.3140 H     1 <1>   0.0800 
 40 H        3.4210     5.4410    -2.7740 H     1 <1>   0.0800 
 41 H        1.8820     5.8340    -3.5150 H     1 <1>   0.0800 
 42 H       -0.0990     8.6300     2.4850 H     1 <1>   0.0800 
 43 H        0.9870     7.4810     3.2410 H     1 <1>   0.0800 
 44 H       -0.4860     6.9340     2.4730 H     1 <1>   0.0800 
 45 H        2.2650     9.1700     1.6580 H     1 <1>   0.0800 
 46 H        1.1500     9.4710     0.3460 H     1 <1>   0.0800 
 47 H        2.6260     8.5580     0.0730 H     1 <1>   0.0800 
@<TRIPOS>BOND
  1   1   2  1   
  2   1   3  1   
  3   2   4  1   
  4   2  24  1   
  5   2  25  1   
  6   3   5  1   
  7   3  26  1   
  8   3  27  1   
  9   4   5  1   
 10   4   6  1   
 11   4  28  1   
 12   5   7  1   
 13   5  29  1   
 14   6   8  1   
 15   6  30  1   
 16   7   9  1   
 17   7  31  1   
 18   7  32  1   
 19   8  10  ar  
 20   8  11  ar  
 21   9  12  ar  
 22   9  13  ar  
 23  10  14  ar  
 24  11  15  ar  
 25  11  33  1   
 26  12  16  ar  
 27  12  34  1   
 28  13  17  ar  
 29  13  35  1   
 30  14  18  ar  
 31  14  19  1   
 32  15  18  ar  
 33  15  20  1   
 34  16  21  ar  
 35  16  36  1   
 36  17  21  ar  
 37  17  37  1   
 38  18  38  1   
 39  19  22  1   
 40  19  23  1   
 41  20  39  1   
 42  20  40  1   
 43  20  41  1   
 44  22  42  1   
 45  22  43  1   
 46  22  44  1   
 47  23  45  1   
 48  23  46  1   
 49  23  47  1   
@<TRIPOS>SUBSTRUCTURE
  1 ****   6 GROUP 4 **** **** 0

# MOE 2024.06 (io_trps.svl 2023.06)
