@<TRIPOS>MOLECULE
NONAME
47 48 1 0 0 
SMALL
USER_CHARGES


@<TRIPOS>ATOM
  1 S        1.7470     0.2500     1.2800 S.o2  1 <1>   1.3330 
  2 O        2.4020     0.9700     2.3480 O.2   1 <1>  -0.6500 
  3 O        1.8960    -1.1860     1.1870 O.2   1 <1>  -0.6500 
  4 N        0.0860     0.5910     1.3520 N.am  1 <1>  -0.8490 
  5 C        2.2490     0.9890    -0.2720 C.3   1 <1>  -0.0550 
  6 C       -0.7370    -0.3370     0.5680 C.3   1 <1>   0.1160 
  7 C       -0.4080     0.6520     2.7300 C.3   1 <1>   0.1160 
  8 C        3.7640     0.9030    -0.5220 C.3   1 <1>  -0.0800 
  9 C        4.1740     1.5700    -1.8220 C.3   1 <1>   0.2200 
 10 C        4.3070    -0.5090    -0.6980 C.3   1 <1>   0.1200 
 11 N        4.5060     2.9870    -1.5770 N.am  1 <1>  -0.7300 
 12 C        5.3710     0.7450    -2.2970 C.3   1 <1>   0.1200 
 13 O        5.4730    -0.3550    -1.4410 O.3   1 <1>  -0.5600 
 14 C        3.6540     4.0260    -1.7640 C.2   1 <1>   0.5690 
 15 O        2.5550     3.8640    -2.2370 O.2   1 <1>  -0.5700 
 16 C        4.0800     5.4250    -1.3480 C.3   1 <1>   0.0440 
 17 C        5.3380     5.4220    -0.4840 C.ar  1 <1>  -0.1440 
 18 C        6.5680     5.7640    -1.0240 C.ar  1 <1>  -0.1500 
 19 C        5.2630     5.0510     0.8490 C.ar  1 <1>  -0.1500 
 20 C        7.7080     5.7300    -0.2410 C.ar  1 <1>  -0.1500 
 21 C        6.4040     5.0170     1.6310 C.ar  1 <1>  -0.1500 
 22 C        7.6330     5.3570     1.0910 C.ar  1 <1>  -0.1440 
 23 C        8.8840     5.3190     1.9490 C.3   1 <1>  -0.0970 
 24 H        1.7260     0.5170    -1.0800 H     1 <1>   0.0800 
 25 H        1.9650     2.0250    -0.2630 H     1 <1>   0.0800 
 26 H       -1.7660    -0.0210     0.5830 H     1 <1>   0.0800 
 27 H       -0.6710    -1.3340     0.9730 H     1 <1>   0.0800 
 28 H       -0.4040    -0.3570    -0.4550 H     1 <1>   0.0800 
 29 H       -1.4580     0.8880     2.7410 H     1 <1>   0.0800 
 30 H        0.1140     1.4220     3.2740 H     1 <1>   0.0800 
 31 H       -0.2490    -0.2910     3.2270 H     1 <1>   0.0800 
 32 H        4.2920     1.3520     0.3030 H     1 <1>   0.0800 
 33 H        3.3900     1.4970    -2.5580 H     1 <1>   0.0800 
 34 H        3.6320    -1.1300    -1.2630 H     1 <1>   0.0800 
 35 H        4.5440    -0.9830     0.2400 H     1 <1>   0.0800 
 36 H        5.3830     3.1690    -1.0750 H     1 <1>   0.3700 
 37 H        6.2930     1.2970    -2.2430 H     1 <1>   0.0800 
 38 H        5.2150     0.3780    -3.2960 H     1 <1>   0.0800 
 39 H        4.2380     6.0080    -2.2350 H     1 <1>   0.0800 
 40 H        3.2730     5.8770    -0.8010 H     1 <1>   0.0800 
 41 H        6.6490     6.0560    -2.0570 H     1 <1>   0.1500 
 42 H        4.3170     4.7800     1.2870 H     1 <1>   0.1500 
 43 H        8.6570     5.9970    -0.6730 H     1 <1>   0.1500 
 44 H        6.3290     4.7230     2.6640 H     1 <1>   0.1500 
 45 H        9.5940     6.0530     1.6110 H     1 <1>   0.0800 
 46 H        9.3360     4.3450     1.8910 H     1 <1>   0.0800 
 47 H        8.6430     5.5300     2.9750 H     1 <1>   0.0800 
@<TRIPOS>BOND
  1   1   2  2   
  2   1   3  2   
  3   1   4  am  
  4   1   5  1   
  5   4   6  1   
  6   4   7  1   
  7   5   8  1   
  8   5  24  1   
  9   5  25  1   
 10   6  26  1   
 11   6  27  1   
 12   6  28  1   
 13   7  29  1   
 14   7  30  1   
 15   7  31  1   
 16   8   9  1   
 17   8  10  1   
 18   8  32  1   
 19   9  11  1   
 20   9  12  1   
 21   9  33  1   
 22  10  13  1   
 23  10  34  1   
 24  10  35  1   
 25  11  14  am  
 26  11  36  1   
 27  12  13  1   
 28  12  37  1   
 29  12  38  1   
 30  14  15  2   
 31  14  16  1   
 32  16  17  1   
 33  16  39  1   
 34  16  40  1   
 35  17  18  ar  
 36  17  19  ar  
 37  18  20  ar  
 38  18  41  1   
 39  19  21  ar  
 40  19  42  1   
 41  20  22  ar  
 42  20  43  1   
 43  21  22  ar  
 44  21  44  1   
 45  22  23  1   
 46  23  45  1   
 47  23  46  1   
 48  23  47  1   
@<TRIPOS>SUBSTRUCTURE
  1 ****  11 GROUP 4 **** **** 0

# MOE 2024.06 (io_trps.svl 2023.06)
