@<TRIPOS>MOLECULE
NONAME
48 49 1 0 0 
SMALL
USER_CHARGES


@<TRIPOS>ATOM
  1 F        0.9110    -0.3880     1.6760 F     1 <1>  -0.1900 
  2 C        1.5160    -1.4390     1.1850 C.ar  1 <1>   0.1900 
  3 C        2.8910    -1.5570     1.3390 C.ar  1 <1>  -0.1440 
  4 C        0.7540    -2.3880     0.5330 C.ar  1 <1>  -0.1500 
  5 C        3.5010    -2.6840     0.8110 C.ar  1 <1>  -0.1500 
  6 C        3.7040    -0.4940     2.0620 C.3   1 <1>  -0.0960 
  7 C        1.3710    -3.5120     0.0020 C.ar  1 <1>   0.1170 
  8 C        2.7490    -3.6460     0.1540 C.ar  1 <1>  -0.1500 
  9 N        0.5710    -4.4600    -0.6480 N.am  1 <1>  -0.5470 
 10 C        0.8640    -5.4810    -1.5100 C.2   1 <1>   0.5690 
 11 O        1.9790    -5.6950    -1.9360 O.2   1 <1>  -0.5700 
 12 C       -0.2860    -6.3770    -1.9880 C.3   1 <1>   0.1710 
 13 N       -0.9250    -7.2120    -0.9150 N.3   1 <1>  -0.8100 
 14 C       -0.3480    -8.5690    -0.7710 C.3   1 <1>   0.3330 
 15 C       -2.3960    -7.2320    -1.0730 C.3   1 <1>   0.1100 
 16 C       -0.9320    -9.2890     0.4480 C.ar  1 <1>  -0.1430 
 17 C        1.1710    -8.5280    -0.5940 C.3   1 <1>  -0.2400 
 18 C       -3.0350    -6.0760    -0.3040 C.3   1 <1>  -0.2660 
 19 C       -1.0530    -8.6370     1.6680 C.ar  1 <1>  -0.1500 
 20 C       -1.3450   -10.6100     0.3480 C.ar  1 <1>  -0.1500 
 21 C       -2.8480    -4.7600    -1.0000 C.2   1 <1>   0.9060 
 22 C       -1.5760    -9.2920     2.7690 C.ar  1 <1>  -0.1500 
 23 C       -1.8700   -11.2680     1.4480 C.ar  1 <1>  -0.1500 
 24 O       -3.3690    -4.5980    -2.1060 O.co2 1 <1>  -0.9000 
 25 O       -2.1300    -3.9020    -0.4760 O.co2 1 <1>  -0.9000 
 26 C       -1.9850   -10.6090     2.6600 C.ar  1 <1>  -0.1500 
 27 H       -0.3110    -2.2620     0.4340 H     1 <1>   0.1500 
 28 H        4.5640    -2.8230     0.9050 H     1 <1>   0.1500 
 29 H        3.3570    -0.3940     3.0740 H     1 <1>   0.0800 
 30 H        3.5930     0.4520     1.5620 H     1 <1>   0.0800 
 31 H        4.7470    -0.7530     2.0800 H     1 <1>   0.0800 
 32 H        3.2420    -4.5140    -0.2420 H     1 <1>   0.1500 
 33 H       -0.4520    -4.3140    -0.5100 H     1 <1>   0.3700 
 34 H        0.0740    -7.0130    -2.7750 H     1 <1>   0.0800 
 35 H       -1.0110    -5.7230    -2.4380 H     1 <1>   0.0800 
 36 H       -0.5780    -9.1360    -1.6570 H     1 <1>   0.0800 
 37 H       -2.8070    -8.1430    -0.6760 H     1 <1>   0.0800 
 38 H       -2.6710    -7.1860    -2.1140 H     1 <1>   0.0800 
 39 H        1.4350    -7.8330     0.1830 H     1 <1>   0.0800 
 40 H        1.6600    -8.2530    -1.5080 H     1 <1>   0.0800 
 41 H        1.5290    -9.5020    -0.3140 H     1 <1>   0.0800 
 42 H       -2.6310    -6.0210     0.6880 H     1 <1>   0.0800 
 43 H       -4.0900    -6.2430    -0.2320 H     1 <1>   0.0800 
 44 H       -0.7400    -7.6090     1.7480 H     1 <1>   0.1500 
 45 H       -1.2600   -11.1320    -0.5880 H     1 <1>   0.1500 
 46 H       -1.6650    -8.7710     3.7060 H     1 <1>   0.1500 
 47 H       -2.1880   -12.2910     1.3610 H     1 <1>   0.1500 
 48 H       -2.3930   -11.1180     3.5150 H     1 <1>   0.1500 
@<TRIPOS>BOND
  1   1   2  1   
  2   2   3  ar  
  3   2   4  ar  
  4   3   5  ar  
  5   3   6  1   
  6   4   7  ar  
  7   4  27  1   
  8   5   8  ar  
  9   5  28  1   
 10   6  29  1   
 11   6  30  1   
 12   6  31  1   
 13   7   8  ar  
 14   7   9  1   
 15   8  32  1   
 16   9  10  am  
 17   9  33  1   
 18  10  11  2   
 19  10  12  1   
 20  12  13  1   
 21  12  34  1   
 22  12  35  1   
 23  13  14  1   
 24  13  15  1   
 25  14  16  1   
 26  14  17  1   
 27  14  36  1   
 28  15  18  1   
 29  15  37  1   
 30  15  38  1   
 31  16  19  ar  
 32  16  20  ar  
 33  17  39  1   
 34  17  40  1   
 35  17  41  1   
 36  18  21  1   
 37  18  42  1   
 38  18  43  1   
 39  19  22  ar  
 40  19  44  1   
 41  20  23  ar  
 42  20  45  1   
 43  21  24  ar  
 44  21  25  ar  
 45  22  26  ar  
 46  22  46  1   
 47  23  26  ar  
 48  23  47  1   
 49  26  48  1   
@<TRIPOS>SUBSTRUCTURE
  1 ****   9 GROUP 4 **** **** 0

# MOE 2024.06 (io_trps.svl 2023.06)
