@<TRIPOS>MOLECULE
NONAME
45 47 1 0 0 
SMALL
USER_CHARGES


@<TRIPOS>ATOM
  1 F       -2.2530    -1.4290     1.9580 F     1 <1>  -0.1900 
  2 C       -2.3550    -0.2460     1.4090 C.ar  1 <1>   0.1900 
  3 C       -2.8960    -0.1290     0.1360 C.ar  1 <1>  -0.1440 
  4 C       -1.9190     0.8450     2.1370 C.ar  1 <1>  -0.1500 
  5 C       -2.9970     1.1430    -0.4090 C.ar  1 <1>  -0.1500 
  6 C       -3.3720    -1.3430    -0.6500 C.3   1 <1>  -0.0160 
  7 C       -2.0270     2.1050     1.5750 C.ar  1 <1>  -0.1500 
  8 C       -2.5650     2.2500     0.3050 C.ar  1 <1>  -0.1500 
  9 C       -4.7940    -1.7290    -0.2320 C.3   1 <1>  -0.0990 
 10 C       -5.2460    -2.9790    -0.9500 C.2   1 <1>   0.5690 
 11 O       -5.8280    -2.8790    -2.0010 O.2   1 <1>  -0.5700 
 12 N       -4.9720    -4.1800    -0.3900 N.am  1 <1>  -0.7300 
 13 C       -5.3240    -5.4880    -0.9840 C.3   1 <1>   0.2200 
 14 C       -6.4600    -6.1080    -0.1890 C.3   1 <1>  -0.0800 
 15 C       -4.1940    -6.4820    -0.7410 C.3   1 <1>   0.1200 
 16 C       -5.7130    -6.7810     0.9680 C.3   1 <1>   0.1200 
 17 C       -7.2570    -7.1170    -1.0360 C.3   1 <1>  -0.0170 
 18 O       -4.3980    -6.9970     0.5410 O.3   1 <1>  -0.5600 
 19 C       -8.4100    -7.7190    -0.2480 C.ar  1 <1>  -0.1430 
 20 C       -9.5590    -7.0020     0.0170 C.ar  1 <1>  -0.1500 
 21 C       -8.3710    -9.0090     0.2430 C.ar  1 <1>  -0.1500 
 22 C      -10.5820    -7.5900     0.7420 C.ar  1 <1>   0.1600 
 23 C       -9.4500    -9.5020     0.9580 C.ar  1 <1>   0.1600 
 24 N      -10.5540    -8.8230     1.2210 N.ar  1 <1>  -0.6200 
 25 H       -1.5060     0.7070     3.1190 H     1 <1>   0.1500 
 26 H       -3.4130     1.2780    -1.3930 H     1 <1>   0.1500 
 27 H       -3.3550    -1.1290    -1.7050 H     1 <1>   0.0800 
 28 H       -2.7030    -2.1690    -0.4790 H     1 <1>   0.0800 
 29 H       -1.6940     2.9710     2.1220 H     1 <1>   0.1500 
 30 H       -2.6490     3.2310    -0.1300 H     1 <1>   0.1500 
 31 H       -5.4700    -0.9270    -0.4710 H     1 <1>   0.0800 
 32 H       -4.8360    -1.8930     0.8290 H     1 <1>   0.0800 
 33 H       -4.4750    -4.2400     0.5020 H     1 <1>   0.3700 
 34 H       -5.5490    -5.3760    -2.0320 H     1 <1>   0.0800 
 35 H       -7.1350    -5.3540     0.1750 H     1 <1>   0.0800 
 36 H       -3.2210    -6.0270    -0.7980 H     1 <1>   0.0800 
 37 H       -4.2530    -7.3020    -1.4340 H     1 <1>   0.0800 
 38 H       -6.1440    -7.7220     1.2620 H     1 <1>   0.0800 
 39 H       -5.6720    -6.1290     1.8230 H     1 <1>   0.0800 
 40 H       -6.6110    -7.9040    -1.3870 H     1 <1>   0.0800 
 41 H       -7.6580    -6.6170    -1.9010 H     1 <1>   0.0800 
 42 H       -9.6690    -5.9920    -0.3350 H     1 <1>   0.1500 
 43 H       -7.5140    -9.6360     0.0780 H     1 <1>   0.1500 
 44 H      -11.4710    -7.0140     0.9390 H     1 <1>   0.1500 
 45 H       -9.4010   -10.5100     1.3330 H     1 <1>   0.1500 
@<TRIPOS>BOND
  1   1   2  1   
  2   2   3  ar  
  3   2   4  ar  
  4   3   5  ar  
  5   3   6  1   
  6   4   7  ar  
  7   4  25  1   
  8   5   8  ar  
  9   5  26  1   
 10   6   9  1   
 11   6  27  1   
 12   6  28  1   
 13   7   8  ar  
 14   7  29  1   
 15   8  30  1   
 16   9  10  1   
 17   9  31  1   
 18   9  32  1   
 19  10  11  2   
 20  10  12  am  
 21  12  13  1   
 22  12  33  1   
 23  13  14  1   
 24  13  15  1   
 25  13  34  1   
 26  14  16  1   
 27  14  17  1   
 28  14  35  1   
 29  15  18  1   
 30  15  36  1   
 31  15  37  1   
 32  16  18  1   
 33  16  38  1   
 34  16  39  1   
 35  17  19  1   
 36  17  40  1   
 37  17  41  1   
 38  19  20  ar  
 39  19  21  ar  
 40  20  22  ar  
 41  20  42  1   
 42  21  23  ar  
 43  21  43  1   
 44  22  24  ar  
 45  22  44  1   
 46  23  24  ar  
 47  23  45  1   
@<TRIPOS>SUBSTRUCTURE
  1 ****  12 GROUP 4 **** **** 0

# MOE 2024.06 (io_trps.svl 2023.06)
