@<TRIPOS>MOLECULE
NONAME
51 53 1 0 0 
SMALL
USER_CHARGES


@<TRIPOS>ATOM
  1 O       -0.3520    -1.0950    -0.9840 O.3   1 <1>  -0.6800 
  2 C        0.5880    -2.0990    -0.8590 C.3   1 <1>   0.1200 
  3 C        1.3310    -1.9790     0.5080 C.3   1 <1>   0.0000 
  4 C        2.6960    -2.7160     0.4470 C.3   1 <1>   0.4230 
  5 C        1.6190    -0.4950     0.8710 C.3   1 <1>  -0.1600 
  6 C        0.4560    -2.5830     1.6430 C.3   1 <1>  -0.1600 
  7 N        2.5630    -4.2260     0.2190 N.4   1 <1>  -0.9590 
  8 C        3.6880    -1.9760    -0.5150 C.3   1 <1>   0.3430 
  9 C        2.4800     0.2070    -0.1750 C.3   1 <1>   0.3430 
 10 C        0.8290    -4.0310     2.0100 C.3   1 <1>  -0.1600 
 11 C        1.3100    -4.8280     0.8010 C.3   1 <1>   0.3430 
 12 C        2.7150    -4.7160    -1.1940 C.3   1 <1>   0.2630 
 13 N        3.8020    -0.4910    -0.2660 N.4   1 <1>  -0.9590 
 14 C        4.6770     0.1910    -1.2680 C.3   1 <1>   0.4860 
 15 C        5.0210     1.5590    -0.7220 C.ar  1 <1>  -0.1430 
 16 C        4.3950     2.6910    -1.2230 C.ar  1 <1>  -0.1500 
 17 C        5.9600     1.6920     0.2910 C.ar  1 <1>  -0.1500 
 18 C        4.6910     3.9380    -0.7030 C.ar  1 <1>  -0.1500 
 19 C        6.2510     2.9410     0.8090 C.ar  1 <1>  -0.1500 
 20 C        5.6160     4.0690     0.3190 C.ar  1 <1>  -0.1430 
 21 C        5.9400     5.4400     0.8860 C.3   1 <1>  -0.0970 
 22 H       -1.0010    -1.2730    -1.6990 H     1 <1>   0.4000 
 23 H        0.0700    -3.0400    -0.9380 H     1 <1>   0.0800 
 24 H        1.2550    -2.0020    -1.6970 H     1 <1>   0.0800 
 25 H        3.1160    -2.6040     1.4330 H     1 <1>   0.0800 
 26 H        2.1080    -0.4230     1.8280 H     1 <1>   0.0800 
 27 H        0.6940     0.0490     0.9680 H     1 <1>   0.0800 
 28 H        0.5290    -1.9940     2.5430 H     1 <1>   0.0800 
 29 H       -0.5820    -2.5440     1.3530 H     1 <1>   0.0800 
 30 H        3.3240    -4.6640     0.7630 H     1 <1>   0.4500 
 31 H        3.3510    -2.1230    -1.5270 H     1 <1>   0.0800 
 32 H        4.6630    -2.4240    -0.4170 H     1 <1>   0.0800 
 33 H        2.6220     1.2380     0.1140 H     1 <1>   0.0800 
 34 H        1.9750     0.1940    -1.1280 H     1 <1>   0.0800 
 35 H       -0.0360    -4.5170     2.4320 H     1 <1>   0.0800 
 36 H        1.5920    -4.0410     2.7700 H     1 <1>   0.0800 
 37 H        0.5250    -4.8310     0.0620 H     1 <1>   0.0800 
 38 H        1.4930    -5.8520     1.0900 H     1 <1>   0.0800 
 39 H        1.9400    -4.3100    -1.8240 H     1 <1>   0.0800 
 40 H        2.6410    -5.7920    -1.2230 H     1 <1>   0.0800 
 41 H        3.6760    -4.4390    -1.5970 H     1 <1>   0.0800 
 42 H        4.2720    -0.3080     0.6340 H     1 <1>   0.4500 
 43 H        5.5890    -0.3650    -1.4160 H     1 <1>   0.0800 
 44 H        4.1720     0.2860    -2.2160 H     1 <1>   0.0800 
 45 H        3.6750     2.6270    -2.0210 H     1 <1>   0.1500 
 46 H        6.4820     0.8400     0.6900 H     1 <1>   0.1500 
 47 H        4.2020     4.8130    -1.0970 H     1 <1>   0.1500 
 48 H        6.9810     3.0380     1.5950 H     1 <1>   0.1500 
 49 H        5.0760     6.0780     0.8460 H     1 <1>   0.0800 
 50 H        6.7310     5.8930     0.3140 H     1 <1>   0.0800 
 51 H        6.2560     5.3620     1.9110 H     1 <1>   0.0800 
@<TRIPOS>BOND
  1   1   2  1   
  2   1  22  1   
  3   2   3  1   
  4   2  23  1   
  5   2  24  1   
  6   3   4  1   
  7   3   5  1   
  8   3   6  1   
  9   4   7  1   
 10   4   8  1   
 11   4  25  1   
 12   5   9  1   
 13   5  26  1   
 14   5  27  1   
 15   6  10  1   
 16   6  28  1   
 17   6  29  1   
 18   7  11  1   
 19   7  12  1   
 20   7  30  1   
 21   8  13  1   
 22   8  31  1   
 23   8  32  1   
 24   9  13  1   
 25   9  33  1   
 26   9  34  1   
 27  10  11  1   
 28  10  35  1   
 29  10  36  1   
 30  11  37  1   
 31  11  38  1   
 32  12  39  1   
 33  12  40  1   
 34  12  41  1   
 35  13  14  1   
 36  13  42  1   
 37  14  15  1   
 38  14  43  1   
 39  14  44  1   
 40  15  16  ar  
 41  15  17  ar  
 42  16  18  ar  
 43  16  45  1   
 44  17  19  ar  
 45  17  46  1   
 46  18  20  ar  
 47  18  47  1   
 48  19  20  ar  
 49  19  48  1   
 50  20  21  1   
 51  21  49  1   
 52  21  50  1   
 53  21  51  1   
@<TRIPOS>SUBSTRUCTURE
  1 ****  13 GROUP 4 **** **** 0

# MOE 2024.06 (io_trps.svl 2023.06)
