@<TRIPOS>MOLECULE
NONAME
44 46 1 0 0 
SMALL
USER_CHARGES


@<TRIPOS>ATOM
  1 CL       0.2190    -0.7460     1.1470 Cl    1 <1>  -0.1230 
  2 C       -0.8620    -2.0480     0.6850 C.2   1 <1>   0.1230 
  3 C       -0.5560    -3.0940    -0.1720 C.2   1 <1>   0.1390 
  4 C       -2.1340    -2.2370     1.0800 C.2   1 <1>  -0.3020 
  5 N       -1.5730    -3.8970    -0.3100 N.2   1 <1>  -0.7070 
  6 N       -2.5460    -3.3640     0.4640 N.pl3 1 <1>   0.3140 
  7 C       -3.8760    -3.9870     0.5690 C.3   1 <1>   0.0960 
  8 C       -3.7820    -5.4490     0.1080 C.3   1 <1>   0.3430 
  9 N       -5.0880    -6.1920     0.1800 N.4   1 <1>  -0.9590 
 10 C       -4.8410    -7.6520    -0.0070 C.3   1 <1>   0.3430 
 11 C       -6.0850    -5.6890    -0.8150 C.3   1 <1>   0.3430 
 12 C       -6.1370    -8.4300     0.2040 C.3   1 <1>  -0.1600 
 13 C       -7.4130    -6.4120    -0.6170 C.3   1 <1>  -0.1600 
 14 C       -7.2470    -7.9270    -0.7250 C.3   1 <1>   0.2000 
 15 O       -8.4460    -8.4800    -0.3100 O.3   1 <1>  -0.5600 
 16 C       -8.7670    -9.7320    -0.8650 C.3   1 <1>   0.2630 
 17 C       -9.9890   -10.3600    -0.2000 C.ar  1 <1>   0.1670 
 18 N      -10.1410   -11.6600    -0.4170 N.ar  1 <1>  -0.6200 
 19 C      -10.8650    -9.6010     0.5660 C.ar  1 <1>  -0.1500 
 20 C      -11.1970   -12.2210     0.1510 C.ar  1 <1>   0.1600 
 21 C      -11.9600   -10.1990     1.1510 C.ar  1 <1>  -0.1500 
 22 C      -12.1210   -11.5490     0.9310 C.ar  1 <1>  -0.1500 
 23 H        0.3970    -3.2230    -0.6580 H     1 <1>   0.1500 
 24 H       -2.7360    -1.6430     1.7420 H     1 <1>   0.1500 
 25 H       -4.5480    -3.4300    -0.0550 H     1 <1>   0.0800 
 26 H       -4.1940    -3.9340     1.5930 H     1 <1>   0.0800 
 27 H       -3.0540    -5.9460     0.7300 H     1 <1>   0.0800 
 28 H       -3.4130    -5.4700    -0.9050 H     1 <1>   0.0800 
 29 H       -5.4940    -6.0800     1.1210 H     1 <1>   0.4500 
 30 H       -4.1020    -7.9960     0.7000 H     1 <1>   0.0800 
 31 H       -4.4660    -7.8360    -1.0020 H     1 <1>   0.0800 
 32 H       -5.7230    -5.8630    -1.8160 H     1 <1>   0.0800 
 33 H       -6.2390    -4.6300    -0.6890 H     1 <1>   0.0800 
 34 H       -6.4470    -8.3320     1.2300 H     1 <1>   0.0800 
 35 H       -5.9470    -9.4700     0.0120 H     1 <1>   0.0800 
 36 H       -8.1080    -6.0810    -1.3680 H     1 <1>   0.0800 
 37 H       -7.8180    -6.1550     0.3460 H     1 <1>   0.0800 
 38 H       -7.0570    -8.2040    -1.7500 H     1 <1>   0.0800 
 39 H       -7.9310   -10.3960    -0.7370 H     1 <1>   0.0800 
 40 H       -8.9620    -9.6040    -1.9150 H     1 <1>   0.0800 
 41 H      -10.6960    -8.5490     0.7050 H     1 <1>   0.1500 
 42 H      -11.3330   -13.2760    -0.0140 H     1 <1>   0.1500 
 43 H      -12.6550    -9.6370     1.7500 H     1 <1>   0.1500 
 44 H      -12.9530   -12.0780     1.3580 H     1 <1>   0.1500 
@<TRIPOS>BOND
  1   1   2  1   
  2   2   3  1   
  3   2   4  2   
  4   3   5  2   
  5   3  23  1   
  6   4   6  1   
  7   4  24  1   
  8   5   6  1   
  9   6   7  1   
 10   7   8  1   
 11   7  25  1   
 12   7  26  1   
 13   8   9  1   
 14   8  27  1   
 15   8  28  1   
 16   9  10  1   
 17   9  11  1   
 18   9  29  1   
 19  10  12  1   
 20  10  30  1   
 21  10  31  1   
 22  11  13  1   
 23  11  32  1   
 24  11  33  1   
 25  12  14  1   
 26  12  34  1   
 27  12  35  1   
 28  13  14  1   
 29  13  36  1   
 30  13  37  1   
 31  14  15  1   
 32  14  38  1   
 33  15  16  1   
 34  16  17  1   
 35  16  39  1   
 36  16  40  1   
 37  17  18  ar  
 38  17  19  ar  
 39  18  20  ar  
 40  19  21  ar  
 41  19  41  1   
 42  20  22  ar  
 43  20  42  1   
 44  21  22  ar  
 45  21  43  1   
 46  22  44  1   
@<TRIPOS>SUBSTRUCTURE
  1 ****   9 GROUP 4 **** **** 0

# MOE 2024.06 (io_trps.svl 2023.06)
