@<TRIPOS>MOLECULE
NONAME
56 58 1 0 0 
SMALL
USER_CHARGES


@<TRIPOS>ATOM
  1 O       -0.0350     0.2320     0.3090 O.3   1 <1>  -0.5600 
  2 C        0.4070     0.8200    -0.8690 C.3   1 <1>   0.1200 
  3 C       -1.4320     0.2260     0.3190 C.3   1 <1>   0.1200 
  4 C       -0.5430     2.0020    -1.0360 C.3   1 <1>   0.4230 
  5 C       -1.8610     1.3120    -0.6810 C.3   1 <1>  -0.0800 
  6 N       -0.1970     3.0260    -0.0120 N.4   1 <1>  -0.9060 
  7 C       -3.0200     2.2050    -0.1910 C.3   1 <1>  -0.0170 
  8 C        0.3480     4.3040    -0.5130 C.3   1 <1>   0.4230 
  9 C       -4.2810     1.3780    -0.0040 C.ar  1 <1>  -0.1430 
 10 C        1.7800     4.1190    -1.0460 C.3   1 <1>  -0.1600 
 11 C        0.2360     5.3210     0.6360 C.3   1 <1>  -0.1600 
 12 C       -4.6840     0.9210     1.2350 C.ar  1 <1>  -0.1500 
 13 C       -5.0910     1.0400    -1.0710 C.ar  1 <1>  -0.1500 
 14 C        2.8920     4.4060    -0.0210 C.3   1 <1>   0.0000 
 15 C        1.3020     6.4290     0.6040 C.3   1 <1>   0.0000 
 16 C       -5.8390     0.1640     1.3440 C.ar  1 <1>   0.1600 
 17 C       -6.2260     0.2770    -0.8540 C.ar  1 <1>   0.1600 
 18 C        2.7360     5.8330     0.5710 C.3   1 <1>  -0.1600 
 19 C        4.2490     4.3090    -0.7380 C.3   1 <1>  -0.2400 
 20 C        2.9020     3.3480     1.1000 C.3   1 <1>  -0.2400 
 21 C        1.1500     7.2900     1.8690 C.3   1 <1>  -0.2400 
 22 C        1.0650     7.3620    -0.6010 C.3   1 <1>  -0.2400 
 23 N       -6.6150    -0.1710     0.3270 N.ar  1 <1>  -0.6200 
 24 H        1.4410     1.0930    -0.7710 H     1 <1>   0.0800 
 25 H        0.2930     0.1050    -1.6670 H     1 <1>   0.0800 
 26 H       -1.7790    -0.7500     0.0210 H     1 <1>   0.0800 
 27 H       -1.7580     0.4310     1.3250 H     1 <1>   0.0800 
 28 H       -0.5370     2.4100    -2.0340 H     1 <1>   0.0800 
 29 H       -2.2020     0.8000    -1.5660 H     1 <1>   0.0800 
 30 H       -1.0190     3.2180     0.5630 H     1 <1>   0.4500 
 31 H        0.4850     2.5900     0.6240 H     1 <1>   0.4500 
 32 H       -3.2190     2.9770    -0.9140 H     1 <1>   0.0800 
 33 H       -2.7810     2.6790     0.7440 H     1 <1>   0.0800 
 34 H       -0.2650     4.6530    -1.3290 H     1 <1>   0.0800 
 35 H        1.9190     3.1500    -1.4850 H     1 <1>   0.0800 
 36 H        1.9080     4.8140    -1.8550 H     1 <1>   0.0800 
 37 H       -0.7410     5.7710     0.6040 H     1 <1>   0.0800 
 38 H        0.3220     4.8200     1.5830 H     1 <1>   0.0800 
 39 H       -4.1220     1.1410     2.1240 H     1 <1>   0.1500 
 40 H       -4.8590     1.3590    -2.0700 H     1 <1>   0.1500 
 41 H       -6.1410    -0.1860     2.3170 H     1 <1>   0.1500 
 42 H       -6.8480     0.0210    -1.6960 H     1 <1>   0.1500 
 43 H        3.3620     6.5180     0.0250 H     1 <1>   0.0800 
 44 H        3.1450     5.8210     1.5680 H     1 <1>   0.0800 
 45 H        5.0530     4.5280    -0.0570 H     1 <1>   0.0800 
 46 H        4.3060     5.0100    -1.5530 H     1 <1>   0.0800 
 47 H        4.4070     3.3210    -1.1340 H     1 <1>   0.0800 
 48 H        3.7610     3.4950     1.7340 H     1 <1>   0.0800 
 49 H        2.9730     2.3550     0.6900 H     1 <1>   0.0800 
 50 H        2.0370     3.4050     1.7290 H     1 <1>   0.0800 
 51 H        1.8840     8.0780     1.8800 H     1 <1>   0.0800 
 52 H        1.2850     6.7000     2.7580 H     1 <1>   0.0800 
 53 H        0.1750     7.7430     1.9130 H     1 <1>   0.0800 
 54 H        1.7650     8.1800    -0.5810 H     1 <1>   0.0800 
 55 H        0.0750     7.7830    -0.5670 H     1 <1>   0.0800 
 56 H        1.1820     6.8610    -1.5410 H     1 <1>   0.0800 
@<TRIPOS>BOND
  1   1   2  1   
  2   1   3  1   
  3   2   4  1   
  4   2  24  1   
  5   2  25  1   
  6   3   5  1   
  7   3  26  1   
  8   3  27  1   
  9   4   5  1   
 10   4   6  1   
 11   4  28  1   
 12   5   7  1   
 13   5  29  1   
 14   6   8  1   
 15   6  30  1   
 16   6  31  1   
 17   7   9  1   
 18   7  32  1   
 19   7  33  1   
 20   8  10  1   
 21   8  11  1   
 22   8  34  1   
 23   9  12  ar  
 24   9  13  ar  
 25  10  14  1   
 26  10  35  1   
 27  10  36  1   
 28  11  15  1   
 29  11  37  1   
 30  11  38  1   
 31  12  16  ar  
 32  12  39  1   
 33  13  17  ar  
 34  13  40  1   
 35  14  18  1   
 36  14  19  1   
 37  14  20  1   
 38  15  18  1   
 39  15  21  1   
 40  15  22  1   
 41  16  23  ar  
 42  16  41  1   
 43  17  23  ar  
 44  17  42  1   
 45  18  43  1   
 46  18  44  1   
 47  19  45  1   
 48  19  46  1   
 49  19  47  1   
 50  20  48  1   
 51  20  49  1   
 52  20  50  1   
 53  21  51  1   
 54  21  52  1   
 55  21  53  1   
 56  22  54  1   
 57  22  55  1   
 58  22  56  1   
@<TRIPOS>SUBSTRUCTURE
  1 ****   6 GROUP 4 **** **** 0

# MOE 2024.06 (io_trps.svl 2023.06)
