@<TRIPOS>MOLECULE
NONAME
48 51 1 0 0 
SMALL
USER_CHARGES


@<TRIPOS>ATOM
  1 S       -0.8870     0.6210    -0.9160 S.o2  1 <1>   1.5010 
  2 O       -1.1450    -0.2350    -2.0530 O.2   1 <1>  -0.6500 
  3 O       -1.3310     1.9970    -0.9570 O.2   1 <1>  -0.6500 
  4 N       -1.6420    -0.0960     0.4250 N.am  1 <1>  -0.8490 
  5 C        0.8590     0.5490    -0.4820 C.2   1 <1>  -0.0630 
  6 C       -1.3990    -1.5520     0.5570 C.3   1 <1>   0.1960 
  7 C       -3.0940     0.1710     0.4910 C.3   1 <1>   0.1960 
  8 C        1.4670     1.2240     0.5730 C.2   1 <1>   0.1080 
  9 C        1.8790    -0.1540    -1.0390 C.2   1 <1>  -0.3020 
 10 C       -2.3140    -2.4430    -0.3260 C.3   1 <1>   0.3440 
 11 C       -3.9200    -0.7380    -0.4490 C.3   1 <1>   0.2950 
 12 N        2.7350     0.9680     0.6650 N.2   1 <1>  -0.7070 
 13 C        0.7720     2.1640     1.5350 C.3   1 <1>  -0.0590 
 14 N        2.9910     0.1180    -0.3370 N.pl3 1 <1>   0.3140 
 15 O       -3.6570    -2.0780    -0.1570 O.3   1 <1>  -0.5600 
 16 C       -2.1360    -3.9110     0.0480 C.ar  1 <1>  -0.1440 
 17 C       -5.4240    -0.5160    -0.2630 C.3   1 <1>  -0.1950 
 18 C        4.3420    -0.4040    -0.5690 C.3   1 <1>   0.0160 
 19 C       -1.2500    -4.7000    -0.6720 C.ar  1 <1>  -0.1500 
 20 C       -2.8330    -4.4770     1.1080 C.ar  1 <1>  -0.1500 
 21 C       -6.3970    -0.8800    -1.3390 C.3   1 <1>  -0.2000 
 22 C       -6.1400     0.5640    -1.0120 C.3   1 <1>  -0.2000 
 23 C       -1.0590    -6.0300    -0.3370 C.ar  1 <1>  -0.1500 
 24 C       -2.6440    -5.8060     1.4450 C.ar  1 <1>  -0.1500 
 25 C       -1.7560    -6.5830     0.7230 C.ar  1 <1>  -0.1500 
 26 H       -0.3700    -1.7780     0.3390 H     1 <1>   0.0800 
 27 H       -1.5670    -1.8310     1.5830 H     1 <1>   0.0800 
 28 H       -3.4300     0.0020     1.4990 H     1 <1>   0.0800 
 29 H       -3.2980     1.2030     0.2620 H     1 <1>   0.0800 
 30 H        1.8590    -0.8160    -1.8850 H     1 <1>   0.1500 
 31 H       -2.0740    -2.3270    -1.3670 H     1 <1>   0.0800 
 32 H       -3.6580    -0.5550    -1.4770 H     1 <1>   0.0800 
 33 H       -0.0190     1.6490     2.0480 H     1 <1>   0.0800 
 34 H        0.3640     3.0020     1.0000 H     1 <1>   0.0800 
 35 H        1.4760     2.5290     2.2620 H     1 <1>   0.0800 
 36 H       -5.7340    -0.6930     0.7520 H     1 <1>   0.1000 
 37 H        4.3520    -1.0020    -1.4610 H     1 <1>   0.0800 
 38 H        4.6340    -1.0000     0.2750 H     1 <1>   0.0800 
 39 H        5.0190     0.4220    -0.6760 H     1 <1>   0.0800 
 40 H       -0.7030    -4.2850    -1.5010 H     1 <1>   0.1500 
 41 H       -3.5310    -3.8810     1.6710 H     1 <1>   0.1500 
 42 H       -6.0180    -1.2850    -2.2620 H     1 <1>   0.1000 
 43 H       -7.3340    -1.3250    -1.0510 H     1 <1>   0.1000 
 44 H       -6.9120     1.1220    -0.5100 H     1 <1>   0.1000 
 45 H       -5.6030     1.1600    -1.7300 H     1 <1>   0.1000 
 46 H       -0.3710    -6.6340    -0.9010 H     1 <1>   0.1500 
 47 H       -3.1900    -6.2350     2.2660 H     1 <1>   0.1500 
 48 H       -1.6090    -7.6170     0.9840 H     1 <1>   0.1500 
@<TRIPOS>BOND
  1   1   2  2   
  2   1   3  2   
  3   1   4  am  
  4   1   5  1   
  5   4   6  1   
  6   4   7  1   
  7   5   8  1   
  8   5   9  2   
  9   6  10  1   
 10   6  26  1   
 11   6  27  1   
 12   7  11  1   
 13   7  28  1   
 14   7  29  1   
 15   8  12  2   
 16   8  13  1   
 17   9  14  1   
 18   9  30  1   
 19  10  15  1   
 20  10  16  1   
 21  10  31  1   
 22  11  15  1   
 23  11  17  1   
 24  11  32  1   
 25  12  14  1   
 26  13  33  1   
 27  13  34  1   
 28  13  35  1   
 29  14  18  1   
 30  16  19  ar  
 31  16  20  ar  
 32  17  21  1   
 33  17  22  1   
 34  17  36  1   
 35  18  37  1   
 36  18  38  1   
 37  18  39  1   
 38  19  23  ar  
 39  19  40  1   
 40  20  24  ar  
 41  20  41  1   
 42  21  22  1   
 43  21  42  1   
 44  21  43  1   
 45  22  44  1   
 46  22  45  1   
 47  23  25  ar  
 48  23  46  1   
 49  24  25  ar  
 50  24  47  1   
 51  25  48  1   
@<TRIPOS>SUBSTRUCTURE
  1 ****   6 GROUP 4 **** **** 0

# MOE 2024.06 (io_trps.svl 2023.06)
