@<TRIPOS>MOLECULE
NONAME
57 60 1 0 0 
SMALL
USER_CHARGES


@<TRIPOS>ATOM
  1 O        2.9410    -1.4140     2.3050 O.2   1 <1>  -0.5700 
  2 C        2.0710    -1.7770     1.5280 C.2   1 <1>   0.5440 
  3 N        1.5170    -0.8010     0.7150 N.am  1 <1>  -0.6600 
  4 C        1.7040    -3.1970     1.4960 C.ar  1 <1>   0.3960 
  5 C        1.9940     0.6000     0.7110 C.3   1 <1>   0.1400 
  6 C        0.5100    -1.0130    -0.3500 C.3   1 <1>   0.1400 
  7 N        0.4860    -3.5980     1.0930 N.ar  1 <1>  -0.6200 
  8 C        2.6680    -4.1250     1.9080 C.ar  1 <1>   0.1600 
  9 C        1.5380     1.1600    -0.6300 C.3   1 <1>  -0.1600 
 10 C        0.2820     0.3620    -0.9690 C.3   1 <1>  -0.1600 
 11 C        0.3090    -4.9080     1.1250 C.ar  1 <1>   0.4100 
 12 N        2.5170    -5.4420     1.9400 N.ar  1 <1>  -0.6200 
 13 N       -0.9370    -5.3790     0.7420 N.pl3 1 <1>  -0.8380 
 14 C        1.3150    -5.7950     1.5350 C.ar  1 <1>   0.1600 
 15 C       -1.7000    -4.6430    -0.2990 C.3   1 <1>   0.2090 
 16 C       -1.7950    -5.9780     1.7960 C.3   1 <1>   0.2090 
 17 C       -2.6910    -5.5980    -0.9710 C.3   1 <1>  -0.1600 
 18 C       -2.7880    -6.9490     1.1530 C.3   1 <1>  -0.1600 
 19 C       -3.6250    -6.2640     0.0550 C.3   1 <1>  -0.0800 
 20 C       -4.5680    -7.2540    -0.6430 C.3   1 <1>   0.1200 
 21 O       -5.4670    -7.7860     0.3060 O.3   1 <1>  -0.3630 
 22 C       -6.4200    -8.6820    -0.0600 C.ar  1 <1>   0.0830 
 23 C       -6.5710    -9.1710    -1.3550 C.ar  1 <1>  -0.1500 
 24 C       -7.2790    -9.1180     0.9360 C.ar  1 <1>  -0.1500 
 25 C       -7.5730   -10.0830    -1.6360 C.ar  1 <1>  -0.1500 
 26 C       -8.2810   -10.0310     0.6550 C.ar  1 <1>  -0.1500 
 27 C       -8.4320   -10.5190    -0.6400 C.ar  1 <1>   0.0830 
 28 O       -9.3860   -11.4150    -1.0060 O.3   1 <1>  -0.3630 
 29 C      -10.3080   -11.9180    -0.0660 C.3   1 <1>   0.0400 
 30 H        3.0650     0.6480     0.8170 H     1 <1>   0.0800 
 31 H        1.5270     1.1290     1.5240 H     1 <1>   0.0800 
 32 H       -0.4060    -1.4030     0.0610 H     1 <1>   0.0800 
 33 H        0.9040    -1.6990    -1.0810 H     1 <1>   0.0800 
 34 H        3.6240    -3.7480     2.2290 H     1 <1>   0.1500 
 35 H        2.3010     0.9700    -1.3640 H     1 <1>   0.0800 
 36 H        1.3530     2.2180    -0.5790 H     1 <1>   0.0800 
 37 H       -0.5740     0.8160    -0.5000 H     1 <1>   0.0800 
 38 H        0.1080     0.3010    -2.0280 H     1 <1>   0.0800 
 39 H        1.0830    -6.8430     1.5130 H     1 <1>   0.1500 
 40 H       -1.0210    -4.2460    -1.0350 H     1 <1>   0.0800 
 41 H       -2.2250    -3.8210     0.1590 H     1 <1>   0.0800 
 42 H       -2.3270    -5.1930     2.3060 H     1 <1>   0.0800 
 43 H       -1.1900    -6.5000     2.5180 H     1 <1>   0.0800 
 44 H       -2.1310    -6.3480    -1.5020 H     1 <1>   0.0800 
 45 H       -3.2710    -5.0470    -1.6900 H     1 <1>   0.0800 
 46 H       -3.4380    -7.3360     1.9180 H     1 <1>   0.0800 
 47 H       -2.2410    -7.7760     0.7370 H     1 <1>   0.0800 
 48 H       -4.2270    -5.4940     0.5070 H     1 <1>   0.0800 
 49 H       -4.0100    -8.0670    -1.0740 H     1 <1>   0.0800 
 50 H       -5.1420    -6.7540    -1.4040 H     1 <1>   0.0800 
 51 H       -5.9250    -8.8580    -2.1530 H     1 <1>   0.1500 
 52 H       -7.1570    -8.7370     1.9330 H     1 <1>   0.1500 
 53 H       -7.6970   -10.4660    -2.6330 H     1 <1>   0.1500 
 54 H       -8.9290   -10.3460     1.4510 H     1 <1>   0.1500 
 55 H      -10.9620   -12.6040    -0.5740 H     1 <1>   0.0800 
 56 H      -10.8790   -11.1000     0.3360 H     1 <1>   0.0800 
 57 H       -9.7700   -12.4330     0.7100 H     1 <1>   0.0800 
@<TRIPOS>BOND
  1   1   2  2   
  2   2   3  am  
  3   2   4  1   
  4   3   5  1   
  5   3   6  1   
  6   4   7  ar  
  7   4   8  ar  
  8   5   9  1   
  9   5  30  1   
 10   5  31  1   
 11   6  10  1   
 12   6  32  1   
 13   6  33  1   
 14   7  11  ar  
 15   8  12  ar  
 16   8  34  1   
 17   9  10  1   
 18   9  35  1   
 19   9  36  1   
 20  10  37  1   
 21  10  38  1   
 22  11  13  1   
 23  11  14  ar  
 24  12  14  ar  
 25  13  15  1   
 26  13  16  1   
 27  14  39  1   
 28  15  17  1   
 29  15  40  1   
 30  15  41  1   
 31  16  18  1   
 32  16  42  1   
 33  16  43  1   
 34  17  19  1   
 35  17  44  1   
 36  17  45  1   
 37  18  19  1   
 38  18  46  1   
 39  18  47  1   
 40  19  20  1   
 41  19  48  1   
 42  20  21  1   
 43  20  49  1   
 44  20  50  1   
 45  21  22  1   
 46  22  23  ar  
 47  22  24  ar  
 48  23  25  ar  
 49  23  51  1   
 50  24  26  ar  
 51  24  52  1   
 52  25  27  ar  
 53  25  53  1   
 54  26  27  ar  
 55  26  54  1   
 56  27  28  1   
 57  28  29  1   
 58  29  55  1   
 59  29  56  1   
 60  29  57  1   
@<TRIPOS>SUBSTRUCTURE
  1 ****  15 GROUP 4 **** **** 0

# MOE 2024.06 (io_trps.svl 2023.06)
