@<TRIPOS>MOLECULE
NONAME
50 52 1 0 0 
SMALL
USER_CHARGES


@<TRIPOS>ATOM
  1 O       -3.1930    -0.8800    -2.2400 O.2   1 <1>  -0.5700 
  2 C       -2.7630    -1.2340    -1.1660 C.2   1 <1>   0.5690 
  3 N       -2.8800    -0.4630    -0.0380 N.am  1 <1>  -0.6600 
  4 C       -2.0880    -2.5940    -1.0990 C.3   1 <1>  -0.0190 
  5 C       -2.4160    -0.9520     1.3040 C.3   1 <1>   0.2200 
  6 C       -3.7380     0.7530    -0.0130 C.3   1 <1>   0.0600 
  7 C       -0.6230    -2.4490    -0.6610 C.3   1 <1>   0.1200 
  8 C       -2.8830    -3.6190    -0.2610 C.3   1 <1>   0.1400 
  9 C       -0.8870    -1.1550     1.3080 C.3   1 <1>   0.1200 
 10 C       -3.1710    -2.2180     1.7920 C.3   1 <1>   0.1400 
 11 O       -0.4980    -2.3660     0.7250 O.3   1 <1>  -0.5600 
 12 N       -3.8490    -2.9750     0.6860 N.am  1 <1>  -0.6600 
 13 C       -5.1990    -2.7670     0.4670 C.2   1 <1>   0.5690 
 14 O       -5.8430    -2.0810     1.2290 O.2   1 <1>  -0.5700 
 15 C       -5.9390    -3.3020    -0.7600 C.3   1 <1>   0.0440 
 16 C       -7.0830    -4.2730    -0.4180 C.ar  1 <1>  -0.1430 
 17 C       -8.4020    -3.8200    -0.3460 C.ar  1 <1>  -0.1430 
 18 C       -6.8170    -5.6220    -0.1800 C.ar  1 <1>  -0.1430 
 19 C       -9.4250    -4.7110    -0.0610 C.ar  1 <1>  -0.1500 
 20 C       -8.7850    -2.3600    -0.5600 C.3   1 <1>  -0.0970 
 21 C       -7.8560    -6.4940     0.1050 C.ar  1 <1>  -0.1500 
 22 C       -5.4070    -6.1970    -0.2070 C.3   1 <1>  -0.0970 
 23 C       -9.1620    -6.0490     0.1620 C.ar  1 <1>  -0.1430 
 24 C      -10.2920    -7.0120     0.4750 C.3   1 <1>  -0.0970 
 25 H       -2.0540    -2.9690    -2.1050 H     1 <1>   0.0800 
 26 H       -2.6110    -0.1740     2.0220 H     1 <1>   0.0800 
 27 H       -3.2020     1.5720     0.4340 H     1 <1>   0.0800 
 28 H       -4.6280     0.5520     0.5590 H     1 <1>   0.0800 
 29 H       -4.0290     1.0370    -1.0100 H     1 <1>   0.0800 
 30 H       -0.1620    -1.5860    -1.1120 H     1 <1>   0.0800 
 31 H       -0.0730    -3.3220    -0.9660 H     1 <1>   0.0800 
 32 H       -2.2010    -4.2300     0.3060 H     1 <1>   0.0800 
 33 H       -3.3950    -4.2860    -0.9250 H     1 <1>   0.0800 
 34 H       -0.5440    -1.1850     2.3270 H     1 <1>   0.0800 
 35 H       -0.3890    -0.3410     0.8100 H     1 <1>   0.0800 
 36 H       -3.8970    -1.9130     2.5250 H     1 <1>   0.0800 
 37 H       -2.4920    -2.8760     2.3050 H     1 <1>   0.0800 
 38 H       -6.3160    -2.4480    -1.2850 H     1 <1>   0.0800 
 39 H       -5.2810    -3.7690    -1.4570 H     1 <1>   0.0800 
 40 H      -10.4390    -4.3620    -0.0070 H     1 <1>   0.1500 
 41 H       -9.8220    -2.1930    -0.3330 H     1 <1>   0.0800 
 42 H       -8.6140    -2.0800    -1.5830 H     1 <1>   0.0800 
 43 H       -8.2030    -1.7260     0.0840 H     1 <1>   0.0800 
 44 H       -7.6510    -7.5330     0.2880 H     1 <1>   0.1500 
 45 H       -5.4130    -7.2450     0.0280 H     1 <1>   0.0800 
 46 H       -4.7970    -5.7000     0.5250 H     1 <1>   0.0800 
 47 H       -4.9770    -6.0790    -1.1840 H     1 <1>   0.0800 
 48 H      -11.1980    -6.6980    -0.0100 H     1 <1>   0.0800 
 49 H      -10.4570    -7.0420     1.5370 H     1 <1>   0.0800 
 50 H      -10.0490    -8.0020     0.1320 H     1 <1>   0.0800 
@<TRIPOS>BOND
  1   1   2  2   
  2   2   3  am  
  3   2   4  1   
  4   3   5  1   
  5   3   6  1   
  6   4   7  1   
  7   4   8  1   
  8   4  25  1   
  9   5   9  1   
 10   5  10  1   
 11   5  26  1   
 12   6  27  1   
 13   6  28  1   
 14   6  29  1   
 15   7  11  1   
 16   7  30  1   
 17   7  31  1   
 18   8  12  1   
 19   8  32  1   
 20   8  33  1   
 21   9  11  1   
 22   9  34  1   
 23   9  35  1   
 24  10  12  1   
 25  10  36  1   
 26  10  37  1   
 27  12  13  am  
 28  13  14  2   
 29  13  15  1   
 30  15  16  1   
 31  15  38  1   
 32  15  39  1   
 33  16  17  ar  
 34  16  18  ar  
 35  17  19  ar  
 36  17  20  1   
 37  18  21  ar  
 38  18  22  1   
 39  19  23  ar  
 40  19  40  1   
 41  20  41  1   
 42  20  42  1   
 43  20  43  1   
 44  21  23  ar  
 45  21  44  1   
 46  22  45  1   
 47  22  46  1   
 48  22  47  1   
 49  23  24  1   
 50  24  48  1   
 51  24  49  1   
 52  24  50  1   
@<TRIPOS>SUBSTRUCTURE
  1 ****  13 GROUP 4 **** **** 0

# MOE 2024.06 (io_trps.svl 2023.06)
