@<TRIPOS>MOLECULE
NONAME
45 47 1 0 0 
SMALL
USER_CHARGES


@<TRIPOS>ATOM
  1 S        0.9900     0.4620     0.1240 S.3   1 <1>  -0.0800 
  2 C       -0.5710     1.2390     0.2320 C.2   1 <1>   0.1980 
  3 C        0.1810    -1.0320    -0.2270 C.2   1 <1>  -0.1100 
  4 N       -1.5570     0.4700     0.0270 N.2   1 <1>  -0.5650 
  5 C       -0.5970     2.7170     0.5320 C.3   1 <1>   0.0200 
  6 C       -1.1600    -0.8630    -0.2440 C.2   1 <1>  -0.0060 
  7 C       -0.5320     3.4940    -0.7800 C.3   1 <1>   0.2090 
  8 C       -2.0940    -1.9650    -0.5230 C.2   1 <1>   1.0330 
  9 N       -0.2260     4.9330    -0.5240 N.pl3 1 <1>  -0.8690 
 10 O       -3.3300    -1.8130    -0.5780 O.co2 1 <1>  -0.9000 
 11 O       -1.6400    -3.1120    -0.7220 O.co2 1 <1>  -0.9000 
 12 C        1.0100     5.4550    -0.3610 C.ar  1 <1>   0.4100 
 13 N        2.0060     4.5980    -0.3310 N.ar  1 <1>  -0.6200 
 14 C        1.2090     6.8530    -0.2280 C.ar  1 <1>  -0.1430 
 15 C        3.2310     5.0610    -0.1800 C.ar  1 <1>   0.7710 
 16 C        2.4920     7.3030    -0.1030 C.ar  1 <1>   0.2180 
 17 C       -0.0210     7.7680    -0.2280 C.3   1 <1>  -0.0960 
 18 N        3.4790     6.3740    -0.0770 N.ar  1 <1>  -0.1790 
 19 N        4.2600     4.1810    -0.1290 N.pl3 1 <1>  -0.8380 
 20 C        2.9280     8.7590     0.0130 C.3   1 <1>  -0.0970 
 21 C        4.0300     2.7120    -0.2590 C.3   1 <1>   0.2090 
 22 C        5.7070     4.4500     0.0930 C.3   1 <1>   0.2090 
 23 C        5.4190     2.0960    -0.3410 C.3   1 <1>  -0.1600 
 24 C        6.3210     3.0870     0.3850 C.3   1 <1>  -0.1600 
 25 H        0.7660    -1.9190    -0.3940 H     1 <1>   0.1500 
 26 H        0.2400     2.9620     1.1590 H     1 <1>   0.0800 
 27 H       -1.5080     2.9550     1.0500 H     1 <1>   0.0800 
 28 H       -1.4700     3.4020    -1.3030 H     1 <1>   0.0800 
 29 H        0.2350     3.0720    -1.4090 H     1 <1>   0.0800 
 30 H       -1.0500     5.5390    -0.5210 H     1 <1>   0.4000 
 31 H       -0.7560     7.3970     0.4650 H     1 <1>   0.0800 
 32 H       -0.4590     7.7930    -1.2110 H     1 <1>   0.0800 
 33 H        0.2050     8.7740     0.0690 H     1 <1>   0.0800 
 34 H        4.4540     6.6200     0.0170 H     1 <1>   0.4570 
 35 H        2.2150     9.4230    -0.4380 H     1 <1>   0.0800 
 36 H        3.8650     8.9180    -0.4910 H     1 <1>   0.0800 
 37 H        3.0420     9.0290     1.0480 H     1 <1>   0.0800 
 38 H        3.4480     2.4800    -1.1370 H     1 <1>   0.0800 
 39 H        3.5130     2.3530     0.6160 H     1 <1>   0.0800 
 40 H        5.8690     5.1210     0.9190 H     1 <1>   0.0800 
 41 H        6.1390     4.8530    -0.8090 H     1 <1>   0.0800 
 42 H        5.7100     2.0210    -1.3740 H     1 <1>   0.0800 
 43 H        5.4460     1.1150     0.1010 H     1 <1>   0.0800 
 44 H        6.2840     2.9030     1.4450 H     1 <1>   0.0800 
 45 H        7.3430     3.0270     0.0560 H     1 <1>   0.0800 
@<TRIPOS>BOND
  1   1   2  1   
  2   1   3  1   
  3   2   4  2   
  4   2   5  1   
  5   3   6  2   
  6   3  25  1   
  7   4   6  1   
  8   5   7  1   
  9   5  26  1   
 10   5  27  1   
 11   6   8  1   
 12   7   9  1   
 13   7  28  1   
 14   7  29  1   
 15   8  10  ar  
 16   8  11  ar  
 17   9  12  1   
 18   9  30  1   
 19  12  13  ar  
 20  12  14  ar  
 21  13  15  ar  
 22  14  16  ar  
 23  14  17  1   
 24  15  18  ar  
 25  15  19  1   
 26  16  18  ar  
 27  16  20  1   
 28  17  31  1   
 29  17  32  1   
 30  17  33  1   
 31  18  34  1   
 32  19  21  1   
 33  19  22  1   
 34  20  35  1   
 35  20  36  1   
 36  20  37  1   
 37  21  23  1   
 38  21  38  1   
 39  21  39  1   
 40  22  24  1   
 41  22  40  1   
 42  22  41  1   
 43  23  24  1   
 44  23  42  1   
 45  23  43  1   
 46  24  44  1   
 47  24  45  1   
@<TRIPOS>SUBSTRUCTURE
  1 ****  13 GROUP 4 **** **** 0

# MOE 2024.06 (io_trps.svl 2023.06)
