@<TRIPOS>MOLECULE
NONAME
45 47 1 0 0 
SMALL
USER_CHARGES


@<TRIPOS>ATOM
  1 CL      -0.7780    -0.1150    -0.7200 Cl    1 <1>  -0.1770 
  2 C       -2.2080     0.8500    -0.4300 C.ar  1 <1>   0.1770 
  3 C       -2.1180     2.1670     0.0030 C.ar  1 <1>  -0.1440 
  4 C       -3.4320     0.2460    -0.6510 C.ar  1 <1>  -0.1500 
  5 C       -3.3050     2.8670     0.2100 C.ar  1 <1>  -0.1500 
  6 C       -0.7490     2.8080     0.2380 C.3   1 <1>   1.1640 
  7 C       -4.5960     0.9600    -0.4400 C.ar  1 <1>  -0.1500 
  8 C       -4.5480     2.2800    -0.0030 C.ar  1 <1>   0.1170 
  9 F       -0.0400     2.1810     1.1670 F     1 <1>  -0.3400 
 10 F       -0.0050     2.8410    -0.8590 F     1 <1>  -0.3400 
 11 F       -0.8420     4.0690     0.6470 F     1 <1>  -0.3400 
 12 N       -5.7040     3.0410     0.2110 N.am  1 <1>  -0.5470 
 13 C       -6.9700     2.6640     0.5610 C.2   1 <1>   0.6900 
 14 O       -7.2030     1.5160     0.8890 O.2   1 <1>  -0.5700 
 15 N       -7.9690     3.6060     0.5650 N.am  1 <1>  -0.6600 
 16 C       -9.3090     3.3020     1.1560 C.3   1 <1>   0.1400 
 17 C       -7.9120     4.9220    -0.1310 C.3   1 <1>   0.1400 
 18 C      -10.4180     3.3110     0.0730 C.3   1 <1>   0.0000 
 19 C       -8.9890     4.9840    -1.2200 C.3   1 <1>  -0.1600 
 20 C      -11.8130     3.0220     0.6660 C.3   1 <1>   0.2000 
 21 C      -10.3890     4.6650    -0.6680 C.3   1 <1>  -0.1600 
 22 C      -10.2420     2.1210    -0.8880 C.3   1 <1>  -0.1600 
 23 O      -11.9950     3.5750     1.9230 O.3   1 <1>  -0.6800 
 24 C      -11.9620     1.5000     0.7350 C.3   1 <1>  -0.1600 
 25 C      -10.8650     0.9240    -0.1680 C.3   1 <1>  -0.1600 
 26 H       -3.4720    -0.7750    -0.9850 H     1 <1>   0.1500 
 27 H       -3.2800     3.8880     0.5490 H     1 <1>   0.1500 
 28 H       -5.5460     0.4880    -0.6160 H     1 <1>   0.1500 
 29 H       -5.5830     4.0460     0.2280 H     1 <1>   0.3700 
 30 H       -9.2940     2.3530     1.6620 H     1 <1>   0.0800 
 31 H       -9.5210     4.0560     1.8930 H     1 <1>   0.0800 
 32 H       -8.0810     5.7040     0.5900 H     1 <1>   0.0800 
 33 H       -6.9500     5.0840    -0.5830 H     1 <1>   0.0800 
 34 H       -8.9940     5.9680    -1.6560 H     1 <1>   0.0800 
 35 H       -8.7360     4.2870    -2.0000 H     1 <1>   0.0800 
 36 H      -12.5720     3.4260     0.0180 H     1 <1>   0.0800 
 37 H      -11.1020     4.6640    -1.4730 H     1 <1>   0.0800 
 38 H      -10.6780     5.4420     0.0200 H     1 <1>   0.0800 
 39 H      -10.7930     2.3030    -1.7950 H     1 <1>   0.0800 
 40 H       -9.2150     1.9340    -1.1460 H     1 <1>   0.0800 
 41 H      -11.4870     3.0690     2.5830 H     1 <1>   0.4000 
 42 H      -11.8400     1.1290     1.7380 H     1 <1>   0.0800 
 43 H      -12.9330     1.2180     0.3690 H     1 <1>   0.0800 
 44 H      -10.1130     0.4430     0.4360 H     1 <1>   0.0800 
 45 H      -11.2560     0.2050    -0.8680 H     1 <1>   0.0800 
@<TRIPOS>BOND
  1   1   2  1   
  2   2   3  ar  
  3   2   4  ar  
  4   3   5  ar  
  5   3   6  1   
  6   4   7  ar  
  7   4  26  1   
  8   5   8  ar  
  9   5  27  1   
 10   6   9  1   
 11   6  10  1   
 12   6  11  1   
 13   7   8  ar  
 14   7  28  1   
 15   8  12  1   
 16  12  13  am  
 17  12  29  1   
 18  13  14  2   
 19  13  15  am  
 20  15  16  1   
 21  15  17  1   
 22  16  18  1   
 23  16  30  1   
 24  16  31  1   
 25  17  19  1   
 26  17  32  1   
 27  17  33  1   
 28  18  20  1   
 29  18  21  1   
 30  18  22  1   
 31  19  21  1   
 32  19  34  1   
 33  19  35  1   
 34  20  23  1   
 35  20  24  1   
 36  20  36  1   
 37  21  37  1   
 38  21  38  1   
 39  22  25  1   
 40  22  39  1   
 41  22  40  1   
 42  23  41  1   
 43  24  25  1   
 44  24  42  1   
 45  24  43  1   
 46  25  44  1   
 47  25  45  1   
@<TRIPOS>SUBSTRUCTURE
  1 ****  12 GROUP 4 **** **** 0

# MOE 2024.06 (io_trps.svl 2023.06)
