@<TRIPOS>MOLECULE
NONAME
39 41 1 0 0 
SMALL
USER_CHARGES


@<TRIPOS>ATOM
  1 O       -2.2830     0.8420    -2.0690 O.2   1 <1>  -0.5700 
  2 C       -1.9440     0.7740    -0.9000 C.2   1 <1>   0.7160 
  3 N       -1.8520    -0.4580    -0.3220 N.am  1 <1>  -0.7300 
  4 C       -1.6600     1.9590    -0.1080 C.2   1 <1>   0.1410 
  5 C       -2.1310    -1.7600    -0.9670 C.3   1 <1>   0.2200 
  6 N       -1.3340     1.9150     1.2200 N.2   1 <1>  -0.5650 
  7 C       -1.6660     3.2630    -0.5090 C.2   1 <1>  -0.3020 
  8 C       -3.4680    -2.3270    -0.5120 C.3   1 <1>  -0.0800 
  9 C       -1.1750    -2.8100    -0.4150 C.3   1 <1>   0.1200 
 10 C       -1.1600     3.1490     1.5560 C.2   1 <1>   0.0360 
 11 N       -1.3480     4.0230     0.5440 N.pl3 1 <1>   0.0480 
 12 C       -3.1130    -3.0170     0.8070 C.3   1 <1>   0.1200 
 13 C       -4.6280    -1.3190    -0.4060 C.3   1 <1>  -0.0160 
 14 O       -1.7320    -3.2350     0.7930 O.3   1 <1>  -0.5600 
 15 C       -1.2290     5.4900     0.5890 C.3   1 <1>   0.0160 
 16 C       -5.9200    -2.0180    -0.0140 C.ar  1 <1>  -0.1430 
 17 C       -6.3830    -2.0250     1.2860 C.ar  1 <1>  -0.1500 
 18 C       -6.6960    -2.6840    -0.9410 C.ar  1 <1>  -0.1500 
 19 C       -7.5630    -2.6840     1.5890 C.ar  1 <1>   0.1600 
 20 C       -7.8610    -3.3130    -0.5330 C.ar  1 <1>   0.1600 
 21 N       -8.3120    -3.3310     0.7100 N.ar  1 <1>  -0.6200 
 22 H       -1.5830    -0.4830     0.6660 H     1 <1>   0.3700 
 23 H       -2.0610    -1.6720    -2.0380 H     1 <1>   0.0800 
 24 H       -1.8820     3.6500    -1.4880 H     1 <1>   0.1500 
 25 H       -3.7530    -3.0950    -1.2100 H     1 <1>   0.0800 
 26 H       -0.1860    -2.4240    -0.2440 H     1 <1>   0.0800 
 27 H       -1.1290    -3.6610    -1.0710 H     1 <1>   0.0800 
 28 H       -0.8890     3.4750     2.5450 H     1 <1>   0.1500 
 29 H       -3.6190    -3.9610     0.9160 H     1 <1>   0.0800 
 30 H       -3.3310    -2.3870     1.6520 H     1 <1>   0.0800 
 31 H       -4.7610    -0.8260    -1.3530 H     1 <1>   0.0800 
 32 H       -4.4020    -0.5590     0.3220 H     1 <1>   0.0800 
 33 H       -1.3620     5.8920    -0.3980 H     1 <1>   0.0800 
 34 H       -0.2550     5.7570     0.9560 H     1 <1>   0.0800 
 35 H       -1.9840     5.8870     1.2430 H     1 <1>   0.0800 
 36 H       -5.8390    -1.5240     2.0660 H     1 <1>   0.1500 
 37 H       -6.4050    -2.7200    -1.9750 H     1 <1>   0.1500 
 38 H       -7.9090    -2.6790     2.6080 H     1 <1>   0.1500 
 39 H       -8.4530    -3.8280    -1.2700 H     1 <1>   0.1500 
@<TRIPOS>BOND
  1   1   2  2   
  2   2   3  am  
  3   2   4  1   
  4   3   5  1   
  5   3  22  1   
  6   4   6  1   
  7   4   7  2   
  8   5   8  1   
  9   5   9  1   
 10   5  23  1   
 11   6  10  2   
 12   7  11  1   
 13   7  24  1   
 14   8  12  1   
 15   8  13  1   
 16   8  25  1   
 17   9  14  1   
 18   9  26  1   
 19   9  27  1   
 20  10  11  1   
 21  10  28  1   
 22  11  15  1   
 23  12  14  1   
 24  12  29  1   
 25  12  30  1   
 26  13  16  1   
 27  13  31  1   
 28  13  32  1   
 29  15  33  1   
 30  15  34  1   
 31  15  35  1   
 32  16  17  ar  
 33  16  18  ar  
 34  17  19  ar  
 35  17  36  1   
 36  18  20  ar  
 37  18  37  1   
 38  19  21  ar  
 39  19  38  1   
 40  20  21  ar  
 41  20  39  1   
@<TRIPOS>SUBSTRUCTURE
  1 ****  13 GROUP 4 **** **** 0

# MOE 2024.06 (io_trps.svl 2023.06)
