@<TRIPOS>MOLECULE
NONAME
51 54 1 0 0 
SMALL
USER_CHARGES


@<TRIPOS>ATOM
  1 O       -0.1360     0.1190     0.3410 O.2   1 <1>  -0.5700 
  2 C       -1.1740     0.7190     0.5530 C.2   1 <1>   0.7160 
  3 N       -2.3620     0.0270     0.4890 N.am  1 <1>  -0.6600 
  4 C       -1.1530     2.1310     0.8500 C.2   1 <1>  -0.0860 
  5 C       -3.6860     0.6630     0.2720 C.3   1 <1>   0.1400 
  6 C       -2.4170    -1.4170     0.1520 C.3   1 <1>   0.1400 
  7 C       -0.4880     3.1740     0.2720 C.2   1 <1>  -0.3320 
  8 C       -1.8700     2.7440     1.8800 C.2   1 <1>   0.1390 
  9 C       -4.5490    -0.4260    -0.3650 C.3   1 <1>   0.2000 
 10 C       -3.9070    -1.7480     0.0470 C.3   1 <1>  -0.0800 
 11 N       -0.8320     4.2940     0.9380 N.pl3 1 <1>   0.3140 
 12 C        0.4750     3.1260    -0.9050 C.3   1 <1>  -0.0600 
 13 N       -1.6950     4.0240     1.9320 N.2   1 <1>  -0.7070 
 14 O       -5.8580    -0.3710     0.0870 O.3   1 <1>  -0.6800 
 15 C       -4.2240    -2.8930    -0.9300 C.3   1 <1>  -0.0170 
 16 C       -0.3680     5.6770     0.6930 C.3   1 <1>   0.0960 
 17 C       -3.5770    -4.1930    -0.4860 C.ar  1 <1>   0.1670 
 18 C       -1.2710     6.3950    -0.3190 C.3   1 <1>  -0.2400 
 19 N       -2.3580    -4.4150    -0.8690 N.ar  1 <1>  -0.6200 
 20 C       -4.3130    -5.0800     0.3170 C.ar  1 <1>  -0.1500 
 21 C       -1.7660    -5.5680    -0.4640 C.ar  1 <1>   0.3100 
 22 C       -3.7460    -6.2450     0.7360 C.ar  1 <1>  -0.1500 
 23 C       -2.4250    -6.5190     0.3450 C.ar  1 <1>   0.0000 
 24 C       -0.4440    -5.8280    -0.8590 C.ar  1 <1>  -0.1500 
 25 C       -1.7370    -7.6890     0.7250 C.ar  1 <1>  -0.1500 
 26 C        0.2080    -6.9720    -0.4790 C.ar  1 <1>  -0.1500 
 27 C       -0.4480    -7.9120     0.3210 C.ar  1 <1>  -0.1500 
 28 H       -4.0940     0.9650     1.2210 H     1 <1>   0.0800 
 29 H       -3.5980     1.5140    -0.3820 H     1 <1>   0.0800 
 30 H       -1.9190    -1.5800    -0.7900 H     1 <1>   0.0800 
 31 H       -1.9310    -2.0080     0.9110 H     1 <1>   0.0800 
 32 H       -2.5030     2.2090     2.5660 H     1 <1>   0.1500 
 33 H       -4.5520    -0.3080    -1.4360 H     1 <1>   0.0800 
 34 H       -4.2420    -2.0190     1.0330 H     1 <1>   0.0800 
 35 H        0.5610     2.1220    -1.2820 H     1 <1>   0.0800 
 36 H        1.4520     3.4520    -0.5980 H     1 <1>   0.0800 
 37 H        0.1260     3.7570    -1.7020 H     1 <1>   0.0800 
 38 H       -5.8890    -0.4780     1.0570 H     1 <1>   0.4000 
 39 H       -3.8670    -2.6440    -1.9140 H     1 <1>   0.0800 
 40 H       -5.2890    -3.0240    -0.9970 H     1 <1>   0.0800 
 41 H       -0.3810     6.2020     1.6310 H     1 <1>   0.0800 
 42 H        0.6440     5.6450     0.3360 H     1 <1>   0.0800 
 43 H       -2.2800     6.4330     0.0550 H     1 <1>   0.0800 
 44 H       -1.2610     5.8810    -1.2630 H     1 <1>   0.0800 
 45 H       -0.9230     7.4000    -0.4690 H     1 <1>   0.0800 
 46 H       -5.3210    -4.8280     0.5920 H     1 <1>   0.1500 
 47 H       -4.2770    -6.9490     1.3500 H     1 <1>   0.1500 
 48 H        0.0420    -5.0920    -1.4720 H     1 <1>   0.1500 
 49 H       -2.2460    -8.4080     1.3410 H     1 <1>   0.1500 
 50 H        1.2210    -7.1580    -0.7890 H     1 <1>   0.1500 
 51 H        0.0750    -8.8070     0.6130 H     1 <1>   0.1500 
@<TRIPOS>BOND
  1   1   2  2   
  2   2   3  am  
  3   2   4  1   
  4   3   5  1   
  5   3   6  1   
  6   4   7  2   
  7   4   8  1   
  8   5   9  1   
  9   5  28  1   
 10   5  29  1   
 11   6  10  1   
 12   6  30  1   
 13   6  31  1   
 14   7  11  1   
 15   7  12  1   
 16   8  13  2   
 17   8  32  1   
 18   9  10  1   
 19   9  14  1   
 20   9  33  1   
 21  10  15  1   
 22  10  34  1   
 23  11  13  1   
 24  11  16  1   
 25  12  35  1   
 26  12  36  1   
 27  12  37  1   
 28  14  38  1   
 29  15  17  1   
 30  15  39  1   
 31  15  40  1   
 32  16  18  1   
 33  16  41  1   
 34  16  42  1   
 35  17  19  ar  
 36  17  20  ar  
 37  18  43  1   
 38  18  44  1   
 39  18  45  1   
 40  19  21  ar  
 41  20  22  ar  
 42  20  46  1   
 43  21  23  ar  
 44  21  24  ar  
 45  22  23  ar  
 46  22  47  1   
 47  23  25  ar  
 48  24  26  ar  
 49  24  48  1   
 50  25  27  ar  
 51  25  49  1   
 52  26  27  ar  
 53  26  50  1   
 54  27  51  1   
@<TRIPOS>SUBSTRUCTURE
  1 ****   6 GROUP 4 **** **** 0

# MOE 2024.06 (io_trps.svl 2023.06)
