@<TRIPOS>MOLECULE
NONAME
41 42 1 0 0 
SMALL
USER_CHARGES


@<TRIPOS>ATOM
  1 CL      -1.2880    -0.2900     1.6210 Cl    1 <1>  -0.1770 
  2 C       -1.9650     0.6500     0.3130 C.ar  1 <1>   0.1770 
  3 C       -2.6260     0.0170    -0.7380 C.ar  1 <1>   0.0860 
  4 C       -1.8100     2.0200     0.3640 C.ar  1 <1>  -0.1500 
  5 C       -2.8280    -1.4110    -0.7870 C.2   1 <1>   0.5440 
  6 C       -3.0980     0.8330    -1.7670 C.ar  1 <1>  -0.1500 
  7 C       -2.3070     2.8260    -0.6550 C.ar  1 <1>   0.1170 
  8 O       -2.3350    -2.0430    -1.7030 O.2   1 <1>  -0.5700 
  9 N       -3.6140    -2.0690     0.1380 N.am  1 <1>  -0.6600 
 10 C       -2.9430     2.2060    -1.7260 C.ar  1 <1>  -0.1500 
 11 N       -2.1790     4.2180    -0.6500 N.am  1 <1>  -0.5470 
 12 C       -3.7120    -3.5570     0.1600 C.3   1 <1>   0.1400 
 13 C       -4.5170    -1.3520     1.0870 C.3   1 <1>   0.1400 
 14 C       -2.0680     5.0840     0.4010 C.2   1 <1>   0.5690 
 15 C       -5.1190    -4.0030    -0.2850 C.3   1 <1>  -0.0800 
 16 C       -5.7580    -2.1910     1.4230 C.3   1 <1>  -0.1600 
 17 O       -2.1060     4.7460     1.5550 O.2   1 <1>  -0.5700 
 18 C       -1.9030     6.5480     0.0800 C.3   1 <1>  -0.1790 
 19 C       -6.2030    -3.0040     0.2050 C.3   1 <1>   0.2000 
 20 C       -5.3800    -5.4620     0.1330 C.3   1 <1>   0.1200 
 21 O       -7.3850    -3.6430     0.5330 O.3   1 <1>  -0.6800 
 22 O       -4.3450    -6.2750    -0.3000 O.3   1 <1>  -0.6800 
 23 H       -1.2940     2.4560     1.2000 H     1 <1>   0.1500 
 24 H       -3.5910     0.3700    -2.6050 H     1 <1>   0.1500 
 25 H       -3.3260     2.8040    -2.5330 H     1 <1>   0.1500 
 26 H       -2.2170     4.6610    -1.5660 H     1 <1>   0.3700 
 27 H       -2.9660    -4.0010    -0.4780 H     1 <1>   0.0800 
 28 H       -3.5170    -3.8970     1.1630 H     1 <1>   0.0800 
 29 H       -3.9800    -1.1180     1.9900 H     1 <1>   0.0800 
 30 H       -4.8380    -0.4280     0.6370 H     1 <1>   0.0800 
 31 H       -5.1370    -3.9660    -1.3590 H     1 <1>   0.0800 
 32 H       -6.5470    -1.5310     1.7380 H     1 <1>   0.0800 
 33 H       -5.5210    -2.8490     2.2400 H     1 <1>   0.0800 
 34 H       -1.0390     6.6930    -0.5400 H     1 <1>   0.0800 
 35 H       -1.7730     7.1050     0.9900 H     1 <1>   0.0800 
 36 H       -2.7780     6.9120    -0.4260 H     1 <1>   0.0800 
 37 H       -6.4290    -2.3230    -0.5990 H     1 <1>   0.0800 
 38 H       -6.2960    -5.8290    -0.3000 H     1 <1>   0.0800 
 39 H       -5.4350    -5.5480     1.2040 H     1 <1>   0.0800 
 40 H       -7.2910    -4.1200     1.3780 H     1 <1>   0.4000 
 41 H       -4.2700    -6.2480    -1.2740 H     1 <1>   0.4000 
@<TRIPOS>BOND
  1   1   2  1   
  2   2   3  ar  
  3   2   4  ar  
  4   3   5  1   
  5   3   6  ar  
  6   4   7  ar  
  7   4  23  1   
  8   5   8  2   
  9   5   9  am  
 10   6  10  ar  
 11   6  24  1   
 12   7  10  ar  
 13   7  11  1   
 14   9  12  1   
 15   9  13  1   
 16  10  25  1   
 17  11  14  am  
 18  11  26  1   
 19  12  15  1   
 20  12  27  1   
 21  12  28  1   
 22  13  16  1   
 23  13  29  1   
 24  13  30  1   
 25  14  17  2   
 26  14  18  1   
 27  15  19  1   
 28  15  20  1   
 29  15  31  1   
 30  16  19  1   
 31  16  32  1   
 32  16  33  1   
 33  18  34  1   
 34  18  35  1   
 35  18  36  1   
 36  19  21  1   
 37  19  37  1   
 38  20  22  1   
 39  20  38  1   
 40  20  39  1   
 41  21  40  1   
 42  22  41  1   
@<TRIPOS>SUBSTRUCTURE
  1 ****   3 GROUP 4 **** **** 0

# MOE 2024.06 (io_trps.svl 2023.06)
