@<TRIPOS>MOLECULE
NONAME
31 32 1 0 0 
SMALL
USER_CHARGES


@<TRIPOS>ATOM
  1 S       -0.1780    -0.0340    -0.5650 S.3   1 <1>  -0.0800 
  2 C       -1.2300    -0.8500     0.5440 C.2   1 <1>   0.4420 
  3 C       -0.2060     1.3200     0.5180 C.2   1 <1>   0.1980 
  4 N       -1.5130    -0.1270     1.5660 N.2   1 <1>  -0.3380 
  5 N       -1.6160    -2.1230     0.2020 N.am  1 <1>  -0.4940 
  6 N       -0.9270     1.1080     1.5450 N.2   1 <1>  -0.3380 
  7 C        0.5850     2.5760     0.1570 C.3   1 <1>   0.3800 
  8 C       -2.4250    -3.0200     0.8460 C.2   1 <1>   0.7160 
  9 O        0.2070     3.0660    -1.0970 O.3   1 <1>  -0.5600 
 10 C        2.0900     2.3190     0.1000 C.3   1 <1>  -0.2400 
 11 O       -2.9480    -2.7450     1.9100 O.2   1 <1>  -0.5700 
 12 C       -2.6280    -4.3040     0.2040 C.2   1 <1>   0.2030 
 13 C       -1.0740     3.6170    -1.1530 C.3   1 <1>   0.0400 
 14 N       -2.0910    -4.6650    -0.9500 N.2   1 <1>  -0.7070 
 15 C       -3.4190    -5.3420     0.7140 C.2   1 <1>  -0.1500 
 16 N       -2.5330    -5.9140    -1.1720 N.pl3 1 <1>   0.3000 
 17 C       -3.3350    -6.3450    -0.1840 C.2   1 <1>  -0.3320 
 18 C       -3.9530    -7.7250    -0.2170 C.3   1 <1>   0.7800 
 19 F       -2.9880    -8.6260    -0.3200 F     1 <1>  -0.3400 
 20 F       -4.6520    -7.8560    -1.3350 F     1 <1>  -0.3400 
 21 H       -1.2580    -2.5000    -0.6760 H     1 <1>   0.3700 
 22 H        0.3880     3.3400     0.8900 H     1 <1>   0.0800 
 23 H        2.3200     1.6050    -0.6690 H     1 <1>   0.0800 
 24 H        2.4280     1.9330     1.0450 H     1 <1>   0.0800 
 25 H        2.6080     3.2390    -0.1010 H     1 <1>   0.0800 
 26 H       -1.2360     3.9830    -2.1520 H     1 <1>   0.0800 
 27 H       -1.1440     4.4320    -0.4540 H     1 <1>   0.0800 
 28 H       -1.8060     2.8600    -0.9260 H     1 <1>   0.0800 
 29 H       -3.9620    -5.2910     1.6430 H     1 <1>   0.1500 
 30 H       -2.2760    -6.4600    -2.0080 H     1 <1>   0.2700 
 31 H       -4.5800    -7.9750     0.6210 H     1 <1>   0.0800 
@<TRIPOS>BOND
  1   1   2  1   
  2   1   3  1   
  3   2   4  2   
  4   2   5  1   
  5   3   6  2   
  6   3   7  1   
  7   4   6  1   
  8   5   8  am  
  9   5  21  1   
 10   7   9  1   
 11   7  10  1   
 12   7  22  1   
 13   8  11  2   
 14   8  12  1   
 15   9  13  1   
 16  10  23  1   
 17  10  24  1   
 18  10  25  1   
 19  12  14  2   
 20  12  15  1   
 21  13  26  1   
 22  13  27  1   
 23  13  28  1   
 24  14  16  1   
 25  15  17  2   
 26  15  29  1   
 27  16  17  1   
 28  16  30  1   
 29  17  18  1   
 30  18  19  1   
 31  18  20  1   
 32  18  31  1   
@<TRIPOS>SUBSTRUCTURE
  1 ****   5 GROUP 4 **** **** 0

# MOE 2024.06 (io_trps.svl 2023.06)
