@<TRIPOS>MOLECULE
NONAME
55 58 1 0 0 
SMALL
USER_CHARGES


@<TRIPOS>ATOM
  1 O       -1.3970    -0.9110     0.4280 O.3   1 <1>  -0.5600 
  2 C       -0.0660    -1.3270     0.4500 C.3   1 <1>   0.1200 
  3 C       -2.2750    -1.8370    -0.1440 C.3   1 <1>   0.1200 
  4 C        0.0810    -2.6170     1.2800 C.3   1 <1>   0.2090 
  5 C       -2.2550    -3.1590     0.6430 C.3   1 <1>   0.2090 
  6 N       -0.8480    -3.6940     0.7840 N.pl3 1 <1>  -0.8380 
  7 C       -0.5390    -4.9840     0.4770 C.ar  1 <1>   0.7710 
  8 N       -1.4670    -5.7660    -0.0520 N.ar  1 <1>  -0.6200 
  9 N        0.7020    -5.4390     0.7240 N.ar  1 <1>  -0.1790 
 10 C       -1.1590    -7.0160    -0.3420 C.ar  1 <1>   0.4100 
 11 C        1.0780    -6.7050     0.4260 C.ar  1 <1>   0.2180 
 12 N       -2.1360    -7.8060    -0.8610 N.pl3 1 <1>  -0.8380 
 13 C        0.1400    -7.5130    -0.1220 C.ar  1 <1>  -0.1500 
 14 C        2.5100    -7.1410     0.7100 C.3   1 <1>  -0.0170 
 15 C       -2.2640    -9.2700    -0.6000 C.3   1 <1>   0.2090 
 16 C       -3.2820    -7.2480    -1.6410 C.3   1 <1>   0.2090 
 17 C        3.5310    -6.3490    -0.1170 C.3   1 <1>  -0.2400 
 18 C       -3.5480    -9.5270     0.1890 C.3   1 <1>  -0.1600 
 19 C       -4.5750    -7.4630    -0.8560 C.3   1 <1>  -0.1600 
 20 C       -4.7800    -8.9520    -0.5310 C.3   1 <1>   0.0630 
 21 C       -6.0550    -9.1860     0.2760 C.ar  1 <1>   0.1670 
 22 N       -6.9650    -9.9720    -0.2530 N.ar  1 <1>  -0.6200 
 23 C       -6.2460    -8.6020     1.5100 C.ar  1 <1>  -0.1500 
 24 C       -8.0490   -10.1620     0.4780 C.ar  1 <1>   0.7200 
 25 C       -7.4240    -8.8670     2.1670 C.ar  1 <1>   0.1600 
 26 N       -8.3460    -9.6470     1.6570 N.ar  1 <1>  -0.6200 
 27 N       -8.9770   -10.9550    -0.0580 N.pl3 1 <1>  -0.9000 
 28 H        0.5150    -0.5340     0.8860 H     1 <1>   0.0800 
 29 H        0.2630    -1.4800    -0.5640 H     1 <1>   0.0800 
 30 H       -1.9920    -1.9990    -1.1690 H     1 <1>   0.0800 
 31 H       -3.2620    -1.4080    -0.1230 H     1 <1>   0.0800 
 32 H       -0.1570    -2.3880     2.3060 H     1 <1>   0.0800 
 33 H        1.1080    -2.9270     1.2390 H     1 <1>   0.0800 
 34 H       -2.9060    -3.8560     0.1450 H     1 <1>   0.0800 
 35 H       -2.6660    -2.9830     1.6220 H     1 <1>   0.0800 
 36 H        1.3410    -4.7830     1.1470 H     1 <1>   0.4570 
 37 H        0.3660    -8.5220    -0.4070 H     1 <1>   0.1500 
 38 H        2.6170    -8.1880     0.4760 H     1 <1>   0.0800 
 39 H        2.7240    -7.0260     1.7590 H     1 <1>   0.0800 
 40 H       -1.4300    -9.6390    -0.0310 H     1 <1>   0.0800 
 41 H       -2.2940    -9.7980    -1.5390 H     1 <1>   0.0800 
 42 H       -3.3420    -7.7520    -2.5900 H     1 <1>   0.0800 
 43 H       -3.1420    -6.1990    -1.8380 H     1 <1>   0.0800 
 44 H        3.3300    -6.4580    -1.1690 H     1 <1>   0.0800 
 45 H        4.5230    -6.7260     0.0720 H     1 <1>   0.0800 
 46 H        3.5200    -5.3040     0.1340 H     1 <1>   0.0800 
 47 H       -3.4470    -9.0830     1.1630 H     1 <1>   0.0800 
 48 H       -3.6780   -10.5860     0.3220 H     1 <1>   0.0800 
 49 H       -5.4070    -7.1060    -1.4370 H     1 <1>   0.0800 
 50 H       -4.5260    -6.8800     0.0460 H     1 <1>   0.0800 
 51 H       -4.8830    -9.4760    -1.4660 H     1 <1>   0.0800 
 52 H       -5.5070    -7.9610     1.9510 H     1 <1>   0.1500 
 53 H       -7.6120    -8.4270     3.1320 H     1 <1>   0.1500 
 54 H       -9.9080   -10.8540     0.3350 H     1 <1>   0.4000 
 55 H       -8.9120   -11.0830    -1.0630 H     1 <1>   0.4000 
@<TRIPOS>BOND
  1   1   2  1   
  2   1   3  1   
  3   2   4  1   
  4   2  28  1   
  5   2  29  1   
  6   3   5  1   
  7   3  30  1   
  8   3  31  1   
  9   4   6  1   
 10   4  32  1   
 11   4  33  1   
 12   5   6  1   
 13   5  34  1   
 14   5  35  1   
 15   6   7  1   
 16   7   8  ar  
 17   7   9  ar  
 18   8  10  ar  
 19   9  11  ar  
 20   9  36  1   
 21  10  12  1   
 22  10  13  ar  
 23  11  13  ar  
 24  11  14  1   
 25  12  15  1   
 26  12  16  1   
 27  13  37  1   
 28  14  17  1   
 29  14  38  1   
 30  14  39  1   
 31  15  18  1   
 32  15  40  1   
 33  15  41  1   
 34  16  19  1   
 35  16  42  1   
 36  16  43  1   
 37  17  44  1   
 38  17  45  1   
 39  17  46  1   
 40  18  20  1   
 41  18  47  1   
 42  18  48  1   
 43  19  20  1   
 44  19  49  1   
 45  19  50  1   
 46  20  21  1   
 47  20  51  1   
 48  21  22  ar  
 49  21  23  ar  
 50  22  24  ar  
 51  23  25  ar  
 52  23  52  1   
 53  24  26  ar  
 54  24  27  1   
 55  25  26  ar  
 56  25  53  1   
 57  27  54  1   
 58  27  55  1   
@<TRIPOS>SUBSTRUCTURE
  1 ****   8 GROUP 4 **** **** 0

# MOE 2024.06 (io_trps.svl 2023.06)
