@<TRIPOS>MOLECULE
NONAME
44 47 1 0 0 
SMALL
USER_CHARGES


@<TRIPOS>ATOM
  1 CL      -1.7600     0.3940    -0.5750 Cl    1 <1>  -0.1770 
  2 C       -1.5620    -1.2480    -0.0090 C.ar  1 <1>   0.1770 
  3 C       -2.1680    -2.2770    -0.6850 C.ar  1 <1>  -0.1500 
  4 C       -0.7800    -1.4670     1.1310 C.ar  1 <1>  -0.1500 
  5 C       -1.9950    -3.5820    -0.2100 C.ar  1 <1>   0.0000 
  6 C       -0.6040    -2.7480     1.6020 C.ar  1 <1>  -0.1500 
  7 C       -1.2190    -3.8050     0.9220 C.ar  1 <1>  -0.1520 
  8 C       -2.4490    -4.8440    -0.6320 C.2   1 <1>  -0.1500 
  9 N       -1.2090    -5.1510     1.1690 N.pl3 1 <1>   0.0330 
 10 C       -1.9760    -5.7950     0.2300 C.2   1 <1>  -0.2370 
 11 C       -2.1240    -7.2290     0.2820 C.2   1 <1>   0.7150 
 12 O       -1.2430    -7.8740     0.8230 O.2   1 <1>  -0.5700 
 13 N       -3.2230    -7.8930    -0.2220 N.am  1 <1>  -0.6600 
 14 C       -4.5630    -7.2400    -0.2840 C.3   1 <1>   0.2200 
 15 C       -3.1450    -9.3690    -0.4440 C.3   1 <1>   0.0600 
 16 C       -5.6420    -7.9380     0.5410 C.3   1 <1>  -0.1600 
 17 C       -5.1490    -7.1880    -1.6920 C.3   1 <1>  -0.1600 
 18 C       -6.9600    -7.4080    -0.0380 C.3   1 <1>  -0.0800 
 19 C       -6.6440    -6.9300    -1.4680 C.3   1 <1>  -0.0800 
 20 C       -7.5110    -6.1890     0.7160 C.3   1 <1>  -0.1600 
 21 C       -7.0170    -5.4410    -1.5190 C.3   1 <1>  -0.1600 
 22 C       -8.0010    -5.2510    -0.3760 C.3   1 <1>   0.2000 
 23 O       -7.9690    -3.9480     0.0670 O.3   1 <1>  -0.6800 
 24 H       -2.7640    -2.0950    -1.5590 H     1 <1>   0.1500 
 25 H       -0.3270    -0.6240     1.6200 H     1 <1>   0.1500 
 26 H       -0.0060    -2.9430     2.4760 H     1 <1>   0.1500 
 27 H       -3.0580    -4.9930    -1.5040 H     1 <1>   0.1500 
 28 H       -0.6790    -5.6360     1.9030 H     1 <1>   0.2700 
 29 H       -4.4960    -6.2330     0.0880 H     1 <1>   0.0800 
 30 H       -3.8090    -9.6760    -1.2300 H     1 <1>   0.0800 
 31 H       -3.4040    -9.8850     0.4640 H     1 <1>   0.0800 
 32 H       -2.1410    -9.6470    -0.7190 H     1 <1>   0.0800 
 33 H       -5.6140    -9.0010     0.3850 H     1 <1>   0.0800 
 34 H       -5.5380    -7.7310     1.5920 H     1 <1>   0.0800 
 35 H       -4.6880    -6.4310    -2.2990 H     1 <1>   0.0800 
 36 H       -5.0360    -8.1390    -2.1780 H     1 <1>   0.0800 
 37 H       -7.7050    -8.1860    -0.0620 H     1 <1>   0.0800 
 38 H       -7.2370    -7.4770    -2.1830 H     1 <1>   0.0800 
 39 H       -6.7280    -5.7130     1.2790 H     1 <1>   0.0800 
 40 H       -8.3120    -6.4670     1.3770 H     1 <1>   0.0800 
 41 H       -7.4630    -5.1800    -2.4630 H     1 <1>   0.0800 
 42 H       -6.1460    -4.8320    -1.3520 H     1 <1>   0.0800 
 43 H       -9.0050    -5.4970    -0.6810 H     1 <1>   0.0800 
 44 H       -7.0690    -3.7170     0.3600 H     1 <1>   0.4000 
@<TRIPOS>BOND
  1   1   2  1   
  2   2   3  ar  
  3   2   4  ar  
  4   3   5  ar  
  5   3  24  1   
  6   4   6  ar  
  7   4  25  1   
  8   5   7  ar  
  9   5   8  1   
 10   6   7  ar  
 11   6  26  1   
 12   7   9  1   
 13   8  10  2   
 14   8  27  1   
 15   9  10  1   
 16   9  28  1   
 17  10  11  1   
 18  11  12  2   
 19  11  13  am  
 20  13  14  1   
 21  13  15  1   
 22  14  16  1   
 23  14  17  1   
 24  14  29  1   
 25  15  30  1   
 26  15  31  1   
 27  15  32  1   
 28  16  18  1   
 29  16  33  1   
 30  16  34  1   
 31  17  19  1   
 32  17  35  1   
 33  17  36  1   
 34  18  19  1   
 35  18  20  1   
 36  18  37  1   
 37  19  21  1   
 38  19  38  1   
 39  20  22  1   
 40  20  39  1   
 41  20  40  1   
 42  21  22  1   
 43  21  41  1   
 44  21  42  1   
 45  22  23  1   
 46  22  43  1   
 47  23  44  1   
@<TRIPOS>SUBSTRUCTURE
  1 ****   8 GROUP 4 **** **** 0

# MOE 2024.06 (io_trps.svl 2023.06)
