@<TRIPOS>MOLECULE
NONAME
38 40 1 0 0 
SMALL
USER_CHARGES


@<TRIPOS>ATOM
  1 CL      -0.2180     2.4330     2.8450 Cl    1 <1>  -0.1770 
  2 C        1.3210     2.1510     2.0650 C.ar  1 <1>   0.1770 
  3 C        1.9720     0.9370     2.2050 C.ar  1 <1>   0.1770 
  4 C        1.8730     3.1640     1.3060 C.ar  1 <1>  -0.1500 
  5 CL       1.2830    -0.3500     3.1630 Cl    1 <1>  -0.1770 
  6 C        3.1860     0.7320     1.5780 C.ar  1 <1>  -0.1500 
  7 C        3.1050     2.9890     0.6670 C.ar  1 <1>   0.0860 
  8 C        3.7390     1.7500     0.8190 C.ar  1 <1>  -0.1500 
  9 C        3.7110     4.0430    -0.1270 C.2   1 <1>   0.5440 
 10 O        4.5370     3.7870    -0.9810 O.2   1 <1>  -0.5700 
 11 N        3.3880     5.3470     0.0790 N.am  1 <1>  -0.7300 
 12 C        4.0170     6.4850    -0.6060 C.3   1 <1>   0.4950 
 13 C        5.0680     7.0650     0.3360 C.2   1 <1>   0.0060 
 14 C        2.9550     7.5360    -0.9900 C.3   1 <1>  -0.1950 
 15 N        4.8250     7.7780     1.3840 N.2   1 <1>  -0.5650 
 16 N        6.3850     6.8680     0.1790 N.pl3 1 <1>   0.3140 
 17 C        1.7410     7.8500    -0.1650 C.3   1 <1>  -0.2000 
 18 C        1.5920     7.1720    -1.5000 C.3   1 <1>  -0.2000 
 19 C        6.0590     8.0100     1.8430 C.2   1 <1>   0.3660 
 20 N        7.0240     7.4900     1.1620 N.2   1 <1>  -0.7070 
 21 C        7.1210     6.1030    -0.8530 C.3   1 <1>   0.0960 
 22 C        7.3340     6.9390    -2.1210 C.3   1 <1>  -0.2400 
 23 H        1.3350     4.0890     1.2100 H     1 <1>   0.1500 
 24 H        3.6900    -0.2130     1.6850 H     1 <1>   0.1500 
 25 H        4.6860     1.5880     0.3290 H     1 <1>   0.1500 
 26 H        2.9280     5.6400     0.9400 H     1 <1>   0.3700 
 27 H        4.4830     6.1470    -1.5140 H     1 <1>   0.0800 
 28 H        3.4280     8.3820    -1.4560 H     1 <1>   0.1000 
 29 H        1.4500     8.8810    -0.0670 H     1 <1>   0.1000 
 30 H        1.5460     7.2880     0.7310 H     1 <1>   0.1000 
 31 H        1.2910     6.1380    -1.5200 H     1 <1>   0.1000 
 32 H        1.1810     7.7330    -2.3210 H     1 <1>   0.1000 
 33 H        6.2150     8.6000     2.7320 H     1 <1>   0.1500 
 34 H        6.5800     5.2040    -1.0800 H     1 <1>   0.0800 
 35 H        8.0740     5.8220    -0.4420 H     1 <1>   0.0800 
 36 H        6.3940     7.2180    -2.5610 H     1 <1>   0.0800 
 37 H        7.8900     6.3670    -2.8420 H     1 <1>   0.0800 
 38 H        7.8950     7.8270    -1.8860 H     1 <1>   0.0800 
@<TRIPOS>BOND
  1   1   2  1   
  2   2   3  ar  
  3   2   4  ar  
  4   3   5  1   
  5   3   6  ar  
  6   4   7  ar  
  7   4  23  1   
  8   6   8  ar  
  9   6  24  1   
 10   7   8  ar  
 11   7   9  1   
 12   8  25  1   
 13   9  10  2   
 14   9  11  am  
 15  11  12  1   
 16  11  26  1   
 17  12  13  1   
 18  12  14  1   
 19  12  27  1   
 20  13  15  2   
 21  13  16  1   
 22  14  17  1   
 23  14  18  1   
 24  14  28  1   
 25  15  19  1   
 26  16  20  1   
 27  16  21  1   
 28  17  18  1   
 29  17  29  1   
 30  17  30  1   
 31  18  31  1   
 32  18  32  1   
 33  19  20  2   
 34  19  33  1   
 35  21  22  1   
 36  21  34  1   
 37  21  35  1   
 38  22  36  1   
 39  22  37  1   
 40  22  38  1   
@<TRIPOS>SUBSTRUCTURE
  1 ****  11 GROUP 4 **** **** 0

# MOE 2024.06 (io_trps.svl 2023.06)
