@<TRIPOS>MOLECULE
NONAME
54 57 1 0 0 
SMALL
USER_CHARGES


@<TRIPOS>ATOM
  1 O        0.3600    -0.2430     0.1470 O.2   1 <1>  -0.5700 
  2 C        1.3670    -0.8660    -0.1310 C.2   1 <1>   0.5440 
  3 N        2.5300    -0.1740    -0.3950 N.am  1 <1>  -0.6600 
  4 C        1.3140    -2.3150    -0.1620 C.ar  1 <1>   0.0860 
  5 C        2.5510     1.3120    -0.5660 C.3   1 <1>   0.1400 
  6 C        3.8980    -0.7690    -0.2920 C.3   1 <1>   0.1400 
  7 C        0.7670    -3.0350     0.8990 C.ar  1 <1>  -0.1500 
  8 C        1.8030    -3.0470    -1.2430 C.ar  1 <1>  -0.1500 
  9 C        3.4810     1.9630     0.4700 C.3   1 <1>   0.1200 
 10 C        4.7510     0.0080     0.7250 C.3   1 <1>   0.1200 
 11 C        0.7250    -4.4160     0.8870 C.ar  1 <1>  -0.1500 
 12 C        1.7610    -4.4280    -1.2550 C.ar  1 <1>  -0.1500 
 13 O        4.7520     1.3760     0.4310 O.3   1 <1>  -0.5600 
 14 C        1.2160    -5.1490    -0.1930 C.ar  1 <1>   0.0860 
 15 C        1.1760    -6.5980    -0.2220 C.2   1 <1>   0.5440 
 16 O        2.1670    -7.2220    -0.5480 O.2   1 <1>  -0.5700 
 17 N        0.0330    -7.2980     0.0940 N.am  1 <1>  -0.6600 
 18 C       -1.3410    -6.7380     0.0250 C.3   1 <1>   0.1400 
 19 C       -0.0070    -8.7800     0.0660 C.3   1 <1>   0.1400 
 20 C       -2.2340    -7.9350    -0.2970 C.3   1 <1>   0.2000 
 21 C       -1.4810    -9.1560     0.2270 C.3   1 <1>  -0.0800 
 22 O       -3.4690    -7.8310     0.3230 O.3   1 <1>  -0.6800 
 23 C       -1.8700   -10.4540    -0.4990 C.3   1 <1>  -0.0170 
 24 C       -1.1040   -11.6420     0.0600 C.ar  1 <1>  -0.1440 
 25 C        0.0620   -12.1040    -0.5180 C.ar  1 <1>  -0.1500 
 26 C       -1.5370   -12.3210     1.1810 C.ar  1 <1>  -0.1500 
 27 C        0.7210   -13.1870     0.0400 C.ar  1 <1>   0.1600 
 28 C       -0.8040   -13.3940     1.6580 C.ar  1 <1>   0.1600 
 29 N        0.3160   -13.8430     1.1150 N.ar  1 <1>  -0.6200 
 30 H        2.9040     1.5480    -1.5540 H     1 <1>   0.0800 
 31 H        1.5620     1.7230    -0.4640 H     1 <1>   0.0800 
 32 H        3.8470    -1.7970     0.0170 H     1 <1>   0.0800 
 33 H        4.3750    -0.7300    -1.2560 H     1 <1>   0.0800 
 34 H        0.3730    -2.4900     1.7410 H     1 <1>   0.1500 
 35 H        2.2190    -2.5180    -2.0830 H     1 <1>   0.1500 
 36 H        3.0760     1.8530     1.4620 H     1 <1>   0.0800 
 37 H        3.5950     3.0110     0.2580 H     1 <1>   0.0800 
 38 H        5.7700    -0.3340     0.6940 H     1 <1>   0.0800 
 39 H        4.3700    -0.1300     1.7220 H     1 <1>   0.0800 
 40 H        0.3100    -4.9420     1.7290 H     1 <1>   0.1500 
 41 H        2.1540    -4.9710    -2.0980 H     1 <1>   0.1500 
 42 H       -1.5990    -6.3160     0.9800 H     1 <1>   0.0800 
 43 H       -1.4120    -5.9900    -0.7460 H     1 <1>   0.0800 
 44 H        0.3760    -9.1200    -0.8820 H     1 <1>   0.0800 
 45 H        0.5950    -9.1930     0.8580 H     1 <1>   0.0800 
 46 H       -2.3910    -7.9950    -1.3600 H     1 <1>   0.0800 
 47 H       -1.6670    -9.2670     1.2810 H     1 <1>   0.0800 
 48 H       -3.3680    -7.8310     1.2940 H     1 <1>   0.4000 
 49 H       -1.6740   -10.3600    -1.5530 H     1 <1>   0.0800 
 50 H       -2.9260   -10.6250    -0.3810 H     1 <1>   0.0800 
 51 H        0.4680   -11.6330    -1.3950 H     1 <1>   0.1500 
 52 H       -2.4380   -12.0250     1.6880 H     1 <1>   0.1500 
 53 H        1.6300   -13.5320    -0.4230 H     1 <1>   0.1500 
 54 H       -1.1580   -13.9120     2.5340 H     1 <1>   0.1500 
@<TRIPOS>BOND
  1   1   2  2   
  2   2   3  am  
  3   2   4  1   
  4   3   5  1   
  5   3   6  1   
  6   4   7  ar  
  7   4   8  ar  
  8   5   9  1   
  9   5  30  1   
 10   5  31  1   
 11   6  10  1   
 12   6  32  1   
 13   6  33  1   
 14   7  11  ar  
 15   7  34  1   
 16   8  12  ar  
 17   8  35  1   
 18   9  13  1   
 19   9  36  1   
 20   9  37  1   
 21  10  13  1   
 22  10  38  1   
 23  10  39  1   
 24  11  14  ar  
 25  11  40  1   
 26  12  14  ar  
 27  12  41  1   
 28  14  15  1   
 29  15  16  2   
 30  15  17  am  
 31  17  18  1   
 32  17  19  1   
 33  18  20  1   
 34  18  42  1   
 35  18  43  1   
 36  19  21  1   
 37  19  44  1   
 38  19  45  1   
 39  20  21  1   
 40  20  22  1   
 41  20  46  1   
 42  21  23  1   
 43  21  47  1   
 44  22  48  1   
 45  23  24  1   
 46  23  49  1   
 47  23  50  1   
 48  24  25  ar  
 49  24  26  ar  
 50  25  27  ar  
 51  25  51  1   
 52  26  28  ar  
 53  26  52  1   
 54  27  29  ar  
 55  27  53  1   
 56  28  29  ar  
 57  28  54  1   
@<TRIPOS>SUBSTRUCTURE
  1 ****  14 GROUP 4 **** **** 0

# MOE 2024.06 (io_trps.svl 2023.06)
