@<TRIPOS>MOLECULE
NONAME
52 56 1 0 0 
SMALL
USER_CHARGES


@<TRIPOS>ATOM
  1 S       -0.6620     1.3500    -2.7640 S.3   1 <1>  -0.0800 
  2 C       -0.4570     2.3720    -1.3570 C.2   1 <1>  -0.1400 
  3 C        0.9650     1.7360    -3.3050 C.2   1 <1>  -0.1100 
  4 C        0.7570     2.9360    -1.3210 C.2   1 <1>  -0.1810 
  5 C       -1.5420     2.5730    -0.3340 C.3   1 <1>   0.0200 
  6 C        1.5740     2.5750    -2.4440 C.2   1 <1>  -0.1500 
  7 C        1.1640     3.8570    -0.1690 C.3   1 <1>   0.4610 
  8 C       -1.1830     3.8360     0.4650 C.3   1 <1>   0.1200 
  9 O        0.1740     3.8330     0.8450 O.3   1 <1>  -0.5600 
 10 C        1.3430     5.3020    -0.6550 C.3   1 <1>  -0.1600 
 11 C        2.4530     3.3510     0.4890 C.3   1 <1>  -0.1600 
 12 C        1.8240     6.2210     0.4690 C.3   1 <1>   0.1400 
 13 C        2.9260     4.2910     1.5980 C.3   1 <1>   0.1400 
 14 N        3.0820     5.6650     1.0440 N.am  1 <1>  -0.6600 
 15 C        4.3280     6.2280     0.8560 C.2   1 <1>   0.5440 
 16 O        5.3090     5.5110     0.8840 O.2   1 <1>  -0.5700 
 17 C        4.5010     7.6330     0.6060 C.ar  1 <1>   0.0860 
 18 C        5.3520     8.1020    -0.3740 C.ar  1 <1>   0.1600 
 19 C        3.8390     8.6110     1.3220 C.ar  1 <1>   0.1600 
 20 N        5.5000     9.3760    -0.6470 N.ar  1 <1>  -0.6200 
 21 N        3.9630     9.8910     1.0760 N.ar  1 <1>  -0.6200 
 22 C        4.7930    10.2340     0.0890 C.ar  1 <1>   0.7200 
 23 N        4.9280    11.5710    -0.1900 N.pl3 1 <1>  -0.8380 
 24 C        4.2560    12.6530     0.5950 C.3   1 <1>   0.2090 
 25 C        5.8580    12.1060    -1.2350 C.3   1 <1>   0.2090 
 26 C        3.6710    13.7270    -0.3400 C.3   1 <1>   0.1200 
 27 C        5.1770    13.2130    -2.0590 C.3   1 <1>   0.1200 
 28 O        4.6410    14.2070    -1.2300 O.3   1 <1>  -0.5600 
 29 H        1.2970     1.2860    -4.2230 H     1 <1>   0.1500 
 30 H       -1.5950     1.7200     0.3170 H     1 <1>   0.0800 
 31 H       -2.4940     2.7030    -0.8160 H     1 <1>   0.0800 
 32 H        2.5740     2.9570    -2.5550 H     1 <1>   0.1500 
 33 H       -1.7760     3.8880     1.3610 H     1 <1>   0.0800 
 34 H       -1.3710     4.7160    -0.1230 H     1 <1>   0.0800 
 35 H        0.4240     5.6700    -1.0680 H     1 <1>   0.0800 
 36 H        2.0720     5.3180    -1.4440 H     1 <1>   0.0800 
 37 H        3.2340     3.2770    -0.2440 H     1 <1>   0.0800 
 38 H        2.2850     2.3680     0.8860 H     1 <1>   0.0800 
 39 H        1.0770     6.2800     1.2430 H     1 <1>   0.0800 
 40 H        1.9790     7.2090     0.0720 H     1 <1>   0.0800 
 41 H        3.8580     3.9360     2.0050 H     1 <1>   0.0800 
 42 H        2.2030     4.3110     2.3960 H     1 <1>   0.0800 
 43 H        5.9200     7.3900    -0.9480 H     1 <1>   0.1500 
 44 H        3.1840     8.3130     2.1220 H     1 <1>   0.1500 
 45 H        4.9760    13.1110     1.2510 H     1 <1>   0.0800 
 46 H        3.4610    12.2610     1.2030 H     1 <1>   0.0800 
 47 H        6.1810    11.3310    -1.9070 H     1 <1>   0.0800 
 48 H        6.7310    12.5100    -0.7540 H     1 <1>   0.0800 
 49 H        3.3120    14.5610     0.2350 H     1 <1>   0.0800 
 50 H        2.8540    13.3190    -0.9080 H     1 <1>   0.0800 
 51 H        4.3830    12.7970    -2.6560 H     1 <1>   0.0800 
 52 H        5.8920    13.6800    -2.7120 H     1 <1>   0.0800 
@<TRIPOS>BOND
  1   1   2  1   
  2   1   3  1   
  3   2   4  2   
  4   2   5  1   
  5   3   6  2   
  6   3  29  1   
  7   4   6  1   
  8   4   7  1   
  9   5   8  1   
 10   5  30  1   
 11   5  31  1   
 12   6  32  1   
 13   7   9  1   
 14   7  10  1   
 15   7  11  1   
 16   8   9  1   
 17   8  33  1   
 18   8  34  1   
 19  10  12  1   
 20  10  35  1   
 21  10  36  1   
 22  11  13  1   
 23  11  37  1   
 24  11  38  1   
 25  12  14  1   
 26  12  39  1   
 27  12  40  1   
 28  13  14  1   
 29  13  41  1   
 30  13  42  1   
 31  14  15  am  
 32  15  16  2   
 33  15  17  1   
 34  17  18  ar  
 35  17  19  ar  
 36  18  20  ar  
 37  18  43  1   
 38  19  21  ar  
 39  19  44  1   
 40  20  22  ar  
 41  21  22  ar  
 42  22  23  1   
 43  23  24  1   
 44  23  25  1   
 45  24  26  1   
 46  24  45  1   
 47  24  46  1   
 48  25  27  1   
 49  25  47  1   
 50  25  48  1   
 51  26  28  1   
 52  26  49  1   
 53  26  50  1   
 54  27  28  1   
 55  27  51  1   
 56  27  52  1   
@<TRIPOS>SUBSTRUCTURE
  1 ****  12 GROUP 4 **** **** 0

# MOE 2024.06 (io_trps.svl 2023.06)
