@<TRIPOS>MOLECULE
NONAME
41 42 1 0 0 
SMALL
USER_CHARGES


@<TRIPOS>ATOM
  1 F       -1.6230    -1.7270     0.2730 F     1 <1>  -0.1900 
  2 C       -2.1010    -0.5150     0.1500 C.ar  1 <1>   0.1900 
  3 C       -3.2080    -0.2900    -0.6560 C.ar  1 <1>  -0.1440 
  4 C       -1.4610     0.5020     0.8340 C.ar  1 <1>  -0.1500 
  5 C       -3.6640     1.0150    -0.7750 C.ar  1 <1>  -0.1500 
  6 C       -3.8960    -1.4300    -1.3950 C.3   1 <1>   0.2540 
  7 C       -1.9360     1.7970     0.7100 C.ar  1 <1>  -0.1500 
  8 C       -3.0410     2.0550    -0.0990 C.ar  1 <1>   0.0830 
  9 N       -4.7380    -2.2170    -0.4770 N.3   1 <1>  -0.8100 
 10 O       -3.5700     3.2920    -0.2780 O.3   1 <1>  -0.3630 
 11 C       -5.0370    -3.5380    -1.0570 C.3   1 <1>   0.2900 
 12 C       -5.9620    -1.4750    -0.0850 C.3   1 <1>   0.1100 
 13 C       -2.9970     4.4290     0.3290 C.3   1 <1>   0.0400 
 14 C       -5.4140    -4.5330     0.0220 C.2   1 <1>  -0.3320 
 15 C       -6.5010    -1.9120     1.2830 C.3   1 <1>   0.1200 
 16 N       -4.6560    -4.8210     1.0990 N.pl3 1 <1>   0.0480 
 17 C       -6.5220    -5.3010     0.1180 C.2   1 <1>   0.0770 
 18 O       -7.3650    -0.9360     1.7620 O.3   1 <1>  -0.6800 
 19 C       -5.3670    -5.7480     1.7790 C.2   1 <1>   0.0360 
 20 C       -3.3510    -4.2450     1.4740 C.3   1 <1>   0.0160 
 21 N       -6.4910    -6.0650     1.2230 N.2   1 <1>  -0.5650 
 22 H       -0.6080     0.2800     1.4490 H     1 <1>   0.1500 
 23 H       -4.5130     1.2430    -1.3940 H     1 <1>   0.1500 
 24 H       -3.1290    -2.0570    -1.8180 H     1 <1>   0.0800 
 25 H       -4.4930    -1.0470    -2.2060 H     1 <1>   0.0800 
 26 H       -1.4370     2.5830     1.2440 H     1 <1>   0.1500 
 27 H       -4.1630    -3.9240    -1.5560 H     1 <1>   0.0800 
 28 H       -5.8260    -3.4580    -1.7860 H     1 <1>   0.0800 
 29 H       -6.7290    -1.5950    -0.8320 H     1 <1>   0.0800 
 30 H       -5.7320    -0.4290    -0.0100 H     1 <1>   0.0800 
 31 H       -3.5720     5.2890     0.0340 H     1 <1>   0.0800 
 32 H       -1.9820     4.5340    -0.0120 H     1 <1>   0.0800 
 33 H       -3.0370     4.3140     1.3970 H     1 <1>   0.0800 
 34 H       -5.6990    -2.0270     1.9900 H     1 <1>   0.0800 
 35 H       -7.0540    -2.8310     1.2070 H     1 <1>   0.0800 
 36 H       -7.3570    -5.3460    -0.5610 H     1 <1>   0.1500 
 37 H       -6.8680    -0.1230     1.9770 H     1 <1>   0.4000 
 38 H       -5.0120    -6.1730     2.7010 H     1 <1>   0.1500 
 39 H       -2.6820    -4.3050     0.6360 H     1 <1>   0.0800 
 40 H       -2.9390    -4.7840     2.3050 H     1 <1>   0.0800 
 41 H       -3.4870    -3.2130     1.7440 H     1 <1>   0.0800 
@<TRIPOS>BOND
  1   1   2  1   
  2   2   3  ar  
  3   2   4  ar  
  4   3   5  ar  
  5   3   6  1   
  6   4   7  ar  
  7   4  22  1   
  8   5   8  ar  
  9   5  23  1   
 10   6   9  1   
 11   6  24  1   
 12   6  25  1   
 13   7   8  ar  
 14   7  26  1   
 15   8  10  1   
 16   9  11  1   
 17   9  12  1   
 18  10  13  1   
 19  11  14  1   
 20  11  27  1   
 21  11  28  1   
 22  12  15  1   
 23  12  29  1   
 24  12  30  1   
 25  13  31  1   
 26  13  32  1   
 27  13  33  1   
 28  14  16  1   
 29  14  17  2   
 30  15  18  1   
 31  15  34  1   
 32  15  35  1   
 33  16  19  1   
 34  16  20  1   
 35  17  21  1   
 36  17  36  1   
 37  18  37  1   
 38  19  21  2   
 39  19  38  1   
 40  20  39  1   
 41  20  40  1   
 42  20  41  1   
@<TRIPOS>SUBSTRUCTURE
  1 ****   9 GROUP 4 **** **** 0

# MOE 2024.06 (io_trps.svl 2023.06)
