@<TRIPOS>MOLECULE
NONAME
60 63 1 0 0 
SMALL
USER_CHARGES


@<TRIPOS>ATOM
  1 O       -0.3600    -0.4280     0.0350 O.2   1 <1>  -0.5700 
  2 C       -1.3650     0.2530     0.1160 C.2   1 <1>   0.7160 
  3 N       -2.5240    -0.3680     0.4450 N.am  1 <1>  -0.7300 
  4 C       -1.3470     1.6660    -0.1310 C.2   1 <1>  -0.0860 
  5 C       -2.7420    -1.8160     0.5120 C.3   1 <1>   0.2350 
  6 C       -2.4690     2.5030    -0.2290 C.2   1 <1>   0.3720 
  7 C       -0.3070     2.5210    -0.3510 C.2   1 <1>   0.0870 
  8 C       -4.2460    -2.0410     0.6960 C.3   1 <1>  -0.1950 
  9 N       -2.1270     3.7160    -0.4860 N.2   1 <1>  -0.4100 
 10 N       -3.8070     2.1110    -0.0550 N.pl3 1 <1>  -0.8210 
 11 O       -0.8250     3.7050    -0.5610 O.3   1 <1>  -0.0190 
 12 C        1.1260     2.3730    -0.3860 C.ar  1 <1>   0.0530 
 13 C       -4.9940    -3.2400     0.1750 C.3   1 <1>  -0.1900 
 14 C       -5.2410    -1.8790    -0.4230 C.3   1 <1>  -0.1900 
 15 C       -4.3450     2.4480     1.2920 C.3   1 <1>   0.2090 
 16 C       -4.7540     2.6260    -1.0850 C.3   1 <1>   0.2090 
 17 C        1.8160     1.5870     0.5380 C.ar  1 <1>  -0.1500 
 18 C        1.8830     3.0410    -1.3490 C.ar  1 <1>  -0.1500 
 19 C       -4.2720    -4.3400    -0.6220 C.3   1 <1>  -0.1450 
 20 C       -6.0350    -3.8830     1.1050 C.3   1 <1>  -0.1450 
 21 C       -6.5270    -1.0990    -0.1100 C.3   1 <1>  -0.1450 
 22 C       -4.7690    -1.5450    -1.8480 C.3   1 <1>  -0.1450 
 23 C       -5.7810     2.8960     1.0680 C.3   1 <1>  -0.1600 
 24 C       -5.7700     3.4770    -0.3370 C.3   1 <1>  -0.1600 
 25 C        3.1920     1.4620     0.5000 C.ar  1 <1>  -0.1500 
 26 C        3.2590     2.9240    -1.3920 C.ar  1 <1>  -0.1500 
 27 C        3.9280     2.1330    -0.4720 C.ar  1 <1>   0.0830 
 28 O        5.2750     2.0660    -0.5820 O.3   1 <1>  -0.3630 
 29 C        6.0440     1.2550     0.2780 C.3   1 <1>   0.0400 
 30 H       -3.3760     0.1960     0.3080 H     1 <1>   0.3700 
 31 H       -2.1980    -2.2290     1.3440 H     1 <1>   0.0800 
 32 H       -2.3770    -2.2670    -0.3920 H     1 <1>   0.0800 
 33 H       -4.5450    -1.6960     1.6700 H     1 <1>   0.1000 
 34 H       -3.7740     3.2530     1.7250 H     1 <1>   0.0800 
 35 H       -4.3010     1.5910     1.9430 H     1 <1>   0.0800 
 36 H       -5.2480     1.7900    -1.5490 H     1 <1>   0.0800 
 37 H       -4.2540     3.1990    -1.8490 H     1 <1>   0.0800 
 38 H        1.2640     1.0640     1.2980 H     1 <1>   0.1500 
 39 H        1.3830     3.6590    -2.0730 H     1 <1>   0.1500 
 40 H       -3.4830    -3.9620    -1.2400 H     1 <1>   0.0800 
 41 H       -4.9770    -4.8460    -1.2570 H     1 <1>   0.0800 
 42 H       -3.8420    -5.0590     0.0500 H     1 <1>   0.0800 
 43 H       -6.4600    -3.1720     1.7890 H     1 <1>   0.0800 
 44 H       -5.5790    -4.6610     1.6910 H     1 <1>   0.0800 
 45 H       -6.8300    -4.3130     0.5220 H     1 <1>   0.0800 
 46 H       -6.8020    -1.1740     0.9250 H     1 <1>   0.0800 
 47 H       -7.3370    -1.4740    -0.7090 H     1 <1>   0.0800 
 48 H       -6.3890    -0.0570    -0.3320 H     1 <1>   0.0800 
 49 H       -3.8250    -1.9910    -2.0910 H     1 <1>   0.0800 
 50 H       -4.6550    -0.4820    -1.9580 H     1 <1>   0.0800 
 51 H       -5.4960    -1.8880    -2.5620 H     1 <1>   0.0800 
 52 H       -6.0950     3.6120     1.8060 H     1 <1>   0.0800 
 53 H       -6.4290     2.0380     1.1090 H     1 <1>   0.0800 
 54 H       -6.7380     3.4530    -0.8040 H     1 <1>   0.0800 
 55 H       -5.4150     4.4930    -0.3100 H     1 <1>   0.0800 
 56 H        3.6720     0.8400     1.2300 H     1 <1>   0.1500 
 57 H        3.8280     3.4440    -2.1420 H     1 <1>   0.1500 
 58 H        7.0760     1.3510    -0.0070 H     1 <1>   0.0800 
 59 H        5.7270     0.2330     0.1680 H     1 <1>   0.0800 
 60 H        5.9100     1.5940     1.2900 H     1 <1>   0.0800 
@<TRIPOS>BOND
  1   1   2  2   
  2   2   3  am  
  3   2   4  1   
  4   3   5  1   
  5   3  30  1   
  6   4   6  1   
  7   4   7  2   
  8   5   8  1   
  9   5  31  1   
 10   5  32  1   
 11   6   9  2   
 12   6  10  1   
 13   7  11  1   
 14   7  12  1   
 15   8  13  1   
 16   8  14  1   
 17   8  33  1   
 18   9  11  1   
 19  10  15  1   
 20  10  16  1   
 21  12  17  ar  
 22  12  18  ar  
 23  13  14  1   
 24  13  19  1   
 25  13  20  1   
 26  14  21  1   
 27  14  22  1   
 28  15  23  1   
 29  15  34  1   
 30  15  35  1   
 31  16  24  1   
 32  16  36  1   
 33  16  37  1   
 34  17  25  ar  
 35  17  38  1   
 36  18  26  ar  
 37  18  39  1   
 38  19  40  1   
 39  19  41  1   
 40  19  42  1   
 41  20  43  1   
 42  20  44  1   
 43  20  45  1   
 44  21  46  1   
 45  21  47  1   
 46  21  48  1   
 47  22  49  1   
 48  22  50  1   
 49  22  51  1   
 50  23  24  1   
 51  23  52  1   
 52  23  53  1   
 53  24  54  1   
 54  24  55  1   
 55  25  27  ar  
 56  25  56  1   
 57  26  27  ar  
 58  26  57  1   
 59  27  28  1   
 60  28  29  1   
 61  29  58  1   
 62  29  59  1   
 63  29  60  1   
@<TRIPOS>SUBSTRUCTURE
  1 ****   2 GROUP 4 **** **** 0

# MOE 2024.06 (io_trps.svl 2023.06)
