@<TRIPOS>MOLECULE
NONAME
51 54 1 0 0 
SMALL
USER_CHARGES


@<TRIPOS>ATOM
  1 CL       0.0790    -0.7880    -0.8880 Cl    1 <1>  -0.1770 
  2 C       -1.5310    -1.4510    -0.7720 C.ar  1 <1>   0.1770 
  3 C       -2.4250    -0.9080     0.1310 C.ar  1 <1>  -0.1500 
  4 C       -1.8890    -2.5090    -1.5860 C.ar  1 <1>  -0.1500 
  5 C       -3.7020    -1.4350     0.2180 C.ar  1 <1>  -0.1500 
  6 C       -3.1680    -3.0310    -1.4950 C.ar  1 <1>  -0.1500 
  7 C       -4.0810    -2.4960    -0.5950 C.ar  1 <1>  -0.1430 
  8 C       -5.4980    -3.0610    -0.4990 C.3   1 <1>   0.0440 
  9 C       -5.7720    -3.9450     0.7160 C.2   1 <1>   0.5690 
 10 O       -4.9000    -4.0920     1.5400 O.2   1 <1>  -0.5700 
 11 N       -6.9970    -4.5580     0.8610 N.am  1 <1>  -0.6600 
 12 C       -8.1430    -4.4570    -0.0850 C.3   1 <1>   0.1400 
 13 C       -7.2870    -5.4400     2.0270 C.3   1 <1>   0.1400 
 14 C       -8.4610    -5.8520    -0.6280 C.3   1 <1>  -0.1600 
 15 C       -7.6090    -6.8490     1.5240 C.3   1 <1>  -0.1600 
 16 C       -8.7600    -6.8490     0.5070 C.3   1 <1>   0.4240 
 17 O       -9.8800    -6.3730     1.2160 O.3   1 <1>  -0.5600 
 18 C       -8.9910    -8.2730    -0.0460 C.ar  1 <1>  -0.1430 
 19 C      -11.1430    -6.6880     0.7190 C.3   1 <1>   0.1200 
 20 C      -10.2180    -8.9120     0.1010 C.ar  1 <1>  -0.1430 
 21 C       -7.9700    -8.9440    -0.7110 C.ar  1 <1>  -0.1500 
 22 C      -11.3480    -8.1970     0.8130 C.3   1 <1>  -0.0170 
 23 C      -10.4150   -10.1910    -0.3960 C.ar  1 <1>  -0.1500 
 24 C       -8.1660   -10.2190    -1.2100 C.ar  1 <1>  -0.1500 
 25 C       -9.3850   -10.8530    -1.0560 C.ar  1 <1>   0.0830 
 26 O       -9.4950   -12.1030    -1.5720 O.3   1 <1>  -0.3620 
 27 C      -10.6880   -12.8440    -1.4510 C.3   1 <1>   0.0400 
 28 H       -2.1220    -0.0900     0.7580 H     1 <1>   0.1500 
 29 H       -1.1740    -2.9150    -2.2780 H     1 <1>   0.1500 
 30 H       -4.3990    -1.0240     0.9280 H     1 <1>   0.1500 
 31 H       -3.4450    -3.8580    -2.1250 H     1 <1>   0.1500 
 32 H       -5.7000    -3.6350    -1.3830 H     1 <1>   0.0800 
 33 H       -6.1890    -2.2390    -0.4760 H     1 <1>   0.0800 
 34 H       -7.9290    -3.7920    -0.9010 H     1 <1>   0.0800 
 35 H       -8.9980    -4.0670     0.4430 H     1 <1>   0.0800 
 36 H       -8.1260    -5.0420     2.5720 H     1 <1>   0.0800 
 37 H       -6.4460    -5.4820     2.6990 H     1 <1>   0.0800 
 38 H       -7.6140    -6.1950    -1.1930 H     1 <1>   0.0800 
 39 H       -9.2930    -5.8050    -1.3040 H     1 <1>   0.0800 
 40 H       -7.8710    -7.4810     2.3520 H     1 <1>   0.0800 
 41 H       -6.7180    -7.2530     1.0810 H     1 <1>   0.0800 
 42 H      -11.2200    -6.3500    -0.2990 H     1 <1>   0.0800 
 43 H      -11.8720    -6.1720     1.3180 H     1 <1>   0.0800 
 44 H       -7.0090    -8.4820    -0.8480 H     1 <1>   0.1500 
 45 H      -12.2920    -8.4540     0.3680 H     1 <1>   0.0800 
 46 H      -11.3690    -8.4910     1.8470 H     1 <1>   0.0800 
 47 H      -11.3710   -10.6590    -0.2620 H     1 <1>   0.1500 
 48 H       -7.3720   -10.7320    -1.7210 H     1 <1>   0.1500 
 49 H      -10.5370   -13.7980    -1.9230 H     1 <1>   0.0800 
 50 H      -11.4810   -12.3120    -1.9470 H     1 <1>   0.0800 
 51 H      -10.9080   -12.9830    -0.4070 H     1 <1>   0.0800 
@<TRIPOS>BOND
  1   1   2  1   
  2   2   3  ar  
  3   2   4  ar  
  4   3   5  ar  
  5   3  28  1   
  6   4   6  ar  
  7   4  29  1   
  8   5   7  ar  
  9   5  30  1   
 10   6   7  ar  
 11   6  31  1   
 12   7   8  1   
 13   8   9  1   
 14   8  32  1   
 15   8  33  1   
 16   9  10  2   
 17   9  11  am  
 18  11  12  1   
 19  11  13  1   
 20  12  14  1   
 21  12  34  1   
 22  12  35  1   
 23  13  15  1   
 24  13  36  1   
 25  13  37  1   
 26  14  16  1   
 27  14  38  1   
 28  14  39  1   
 29  15  16  1   
 30  15  40  1   
 31  15  41  1   
 32  16  17  1   
 33  16  18  1   
 34  17  19  1   
 35  18  20  ar  
 36  18  21  ar  
 37  19  22  1   
 38  19  42  1   
 39  19  43  1   
 40  20  22  1   
 41  20  23  ar  
 42  21  24  ar  
 43  21  44  1   
 44  22  45  1   
 45  22  46  1   
 46  23  25  ar  
 47  23  47  1   
 48  24  25  ar  
 49  24  48  1   
 50  25  26  1   
 51  26  27  1   
 52  27  49  1   
 53  27  50  1   
 54  27  51  1   
@<TRIPOS>SUBSTRUCTURE
  1 ****  14 GROUP 4 **** **** 0

# MOE 2024.06 (io_trps.svl 2023.06)
