@<TRIPOS>MOLECULE
NONAME
54 57 1 0 0 
SMALL
USER_CHARGES


@<TRIPOS>ATOM
  1 O        2.1100     2.0870     0.9370 O.3   1 <1>  -0.0190 
  2 N        2.7790     0.9770     1.0130 N.2   1 <1>  -0.4100 
  3 C        1.1240     2.0060     0.0830 C.2   1 <1>  -0.0400 
  4 C        2.2030     0.1570     0.2080 C.2   1 <1>   0.1080 
  5 C        1.1230     0.7660    -0.4260 C.2   1 <1>  -0.1500 
  6 C        0.2400     3.2130    -0.1660 C.3   1 <1>   0.0200 
  7 C        2.6470    -1.2720    -0.0130 C.3   1 <1>  -0.0590 
  8 C        1.0390     4.3490    -0.8350 C.3   1 <1>  -0.0800 
  9 C        0.2330     5.6090    -1.1420 C.3   1 <1>   0.2000 
 10 C        2.2170     4.8450     0.0120 C.3   1 <1>   0.3430 
 11 O       -0.5570     5.9160    -0.0280 O.3   1 <1>  -0.5600 
 12 C        1.3300     6.6670    -1.2710 C.3   1 <1>   0.3430 
 13 N        2.3460     6.3150    -0.2270 N.4   1 <1>  -0.9590 
 14 C       -1.7290     6.6200    -0.3110 C.3   1 <1>   0.0400 
 15 C        2.0950     7.0610     1.0380 C.3   1 <1>   0.4860 
 16 C        2.2720     8.5430     0.7740 C.ar  1 <1>  -0.1440 
 17 C        3.5280     9.0660     0.5070 C.ar  1 <1>  -0.1500 
 18 C        1.1720     9.3870     0.7900 C.ar  1 <1>  -0.1500 
 19 C        3.7060    10.4170     0.2340 C.ar  1 <1>   0.0000 
 20 C        1.3320    10.7360     0.5260 C.ar  1 <1>  -0.1500 
 21 C        5.0190    10.9420    -0.0600 C.ar  1 <1>   0.0000 
 22 C        2.5880    11.2420     0.2480 C.ar  1 <1>  -0.1500 
 23 C        6.0430    10.8800     0.8810 C.ar  1 <1>  -0.1500 
 24 C        5.2990    11.5170    -1.2960 C.ar  1 <1>  -0.1500 
 25 C        7.3060    11.3680     0.5960 C.ar  1 <1>  -0.1500 
 26 C        6.5590    12.0060    -1.5870 C.ar  1 <1>  -0.1500 
 27 C        7.5660    11.9310    -0.6410 C.ar  1 <1>  -0.1500 
 28 H        0.4700     0.3100    -1.1480 H     1 <1>   0.1500 
 29 H       -0.5790     2.9250    -0.8010 H     1 <1>   0.0800 
 30 H       -0.1720     3.5360     0.7750 H     1 <1>   0.0800 
 31 H        1.8490    -1.9450     0.2420 H     1 <1>   0.0800 
 32 H        3.4980    -1.4930     0.6060 H     1 <1>   0.0800 
 33 H        2.9180    -1.4170    -1.0420 H     1 <1>   0.0800 
 34 H        1.4430     3.9730    -1.7600 H     1 <1>   0.0800 
 35 H       -0.3800     5.5100    -2.0230 H     1 <1>   0.0800 
 36 H        3.1210     4.3220    -0.2590 H     1 <1>   0.0800 
 37 H        2.0120     4.6560     1.0540 H     1 <1>   0.0800 
 38 H        0.9360     7.6620    -1.1470 H     1 <1>   0.0800 
 39 H        1.7790     6.5880    -2.2470 H     1 <1>   0.0800 
 40 H        3.2870     6.5660    -0.5560 H     1 <1>   0.4500 
 41 H       -2.2370     6.8150     0.6180 H     1 <1>   0.0800 
 42 H       -2.3620     6.0200    -0.9420 H     1 <1>   0.0800 
 43 H       -1.4880     7.5520    -0.7920 H     1 <1>   0.0800 
 44 H        1.0950     6.8680     1.3910 H     1 <1>   0.0800 
 45 H        2.7910     6.7480     1.7990 H     1 <1>   0.0800 
 46 H        4.4000     8.4340     0.5030 H     1 <1>   0.1500 
 47 H        0.1870     9.0090     1.0080 H     1 <1>   0.1500 
 48 H        0.4800    11.3960     0.5390 H     1 <1>   0.1500 
 49 H        2.7090    12.2930     0.0460 H     1 <1>   0.1500 
 50 H        5.8460    10.4510     1.8480 H     1 <1>   0.1500 
 51 H        4.5220    11.5790    -2.0360 H     1 <1>   0.1500 
 52 H        8.0860    11.3130     1.3350 H     1 <1>   0.1500 
 53 H        6.7590    12.4470    -2.5480 H     1 <1>   0.1500 
 54 H        8.5480    12.3110    -0.8650 H     1 <1>   0.1500 
@<TRIPOS>BOND
  1   1   2  1   
  2   1   3  1   
  3   2   4  2   
  4   3   5  2   
  5   3   6  1   
  6   4   5  1   
  7   4   7  1   
  8   5  28  1   
  9   6   8  1   
 10   6  29  1   
 11   6  30  1   
 12   7  31  1   
 13   7  32  1   
 14   7  33  1   
 15   8   9  1   
 16   8  10  1   
 17   8  34  1   
 18   9  11  1   
 19   9  12  1   
 20   9  35  1   
 21  10  13  1   
 22  10  36  1   
 23  10  37  1   
 24  11  14  1   
 25  12  13  1   
 26  12  38  1   
 27  12  39  1   
 28  13  15  1   
 29  13  40  1   
 30  14  41  1   
 31  14  42  1   
 32  14  43  1   
 33  15  16  1   
 34  15  44  1   
 35  15  45  1   
 36  16  17  ar  
 37  16  18  ar  
 38  17  19  ar  
 39  17  46  1   
 40  18  20  ar  
 41  18  47  1   
 42  19  21  1   
 43  19  22  ar  
 44  20  22  ar  
 45  20  48  1   
 46  21  23  ar  
 47  21  24  ar  
 48  22  49  1   
 49  23  25  ar  
 50  23  50  1   
 51  24  26  ar  
 52  24  51  1   
 53  25  27  ar  
 54  25  52  1   
 55  26  27  ar  
 56  26  53  1   
 57  27  54  1   
@<TRIPOS>SUBSTRUCTURE
  1 ****  13 GROUP 4 **** **** 0

# MOE 2024.06 (io_trps.svl 2023.06)
