@<TRIPOS>MOLECULE
NONAME
65 68 1 0 0 
SMALL
USER_CHARGES


@<TRIPOS>ATOM
  1 O       -0.7800    -1.1800    -0.2690 O.2   1 <1>  -0.5700 
  2 C        0.3970    -1.4780    -0.1790 C.2   1 <1>   0.5440 
  3 N        1.3540    -0.5080    -0.3470 N.am  1 <1>  -0.6600 
  4 C        0.7320    -2.8560     0.1060 C.ar  1 <1>   0.0860 
  5 C        1.0000     0.9010    -0.6340 C.3   1 <1>   0.1400 
  6 C        2.7860    -0.7580    -0.6230 C.3   1 <1>   0.1400 
  7 C        0.1370    -3.8870    -0.5900 C.ar  1 <1>  -0.1500 
  8 C        1.6040    -3.2520     1.1120 C.ar  1 <1>  -0.1500 
  9 C        2.3300     1.5920    -0.9170 C.3   1 <1>  -0.1600 
 10 C        3.2520     0.4730    -1.3910 C.3   1 <1>  -0.1600 
 11 C        0.3620    -5.2050    -0.2330 C.ar  1 <1>   0.4100 
 12 C        1.7980    -4.5960     1.3680 C.ar  1 <1>   0.1600 
 13 N        1.1860    -5.5780     0.7270 N.ar  1 <1>  -0.6200 
 14 N       -0.3310    -6.2020    -0.8650 N.pl3 1 <1>  -0.8690 
 15 C       -1.0490    -7.2260    -0.0310 C.3   1 <1>   0.2090 
 16 C       -2.5960    -7.1570    -0.1580 C.3   1 <1>   0.5660 
 17 N       -3.3020    -6.0920     0.6430 N.4   1 <1>  -0.9590 
 18 C       -3.1970    -8.4970     0.2550 C.ar  1 <1>  -0.1430 
 19 C       -4.7470    -6.0460     0.2660 C.3   1 <1>   0.3430 
 20 C       -2.6660    -4.7470     0.5610 C.3   1 <1>   0.3430 
 21 C       -3.8880    -9.2870    -0.6620 C.ar  1 <1>  -0.1430 
 22 C       -3.0620    -8.9340     1.5690 C.ar  1 <1>  -0.1500 
 23 C       -5.5020    -5.0790     1.1760 C.3   1 <1>  -0.1600 
 24 C       -3.3980    -3.7420     1.4490 C.3   1 <1>  -0.1600 
 25 C       -4.4410   -10.4880    -0.2450 C.ar  1 <1>  -0.1500 
 26 C       -4.0570    -8.8850    -2.1230 C.3   1 <1>  -0.0970 
 27 C       -3.6170   -10.1340     1.9720 C.ar  1 <1>  -0.1500 
 28 C       -4.8950    -3.6720     1.1230 C.3   1 <1>  -0.0800 
 29 C       -4.3090   -10.9100     1.0640 C.ar  1 <1>  -0.1500 
 30 C       -5.6160    -2.7330     2.0960 C.3   1 <1>  -0.2400 
 31 H        0.4890     1.3440     0.2040 H     1 <1>   0.0800 
 32 H        0.3630     0.9350    -1.5020 H     1 <1>   0.0800 
 33 H        2.9260    -1.6570    -1.2000 H     1 <1>   0.0800 
 34 H        3.3180    -0.8340     0.3100 H     1 <1>   0.0800 
 35 H       -0.5300    -3.6650    -1.4020 H     1 <1>   0.1500 
 36 H        2.1170    -2.5100     1.6970 H     1 <1>   0.1500 
 37 H        2.7050     2.0140    -0.0010 H     1 <1>   0.0800 
 38 H        2.2250     2.3750    -1.6460 H     1 <1>   0.0800 
 39 H        3.1090     0.3030    -2.4440 H     1 <1>   0.0800 
 40 H        4.2900     0.6900    -1.2090 H     1 <1>   0.0800 
 41 H        2.4850    -4.8800     2.1490 H     1 <1>   0.1500 
 42 H        0.3150    -6.6850    -1.5020 H     1 <1>   0.4000 
 43 H       -0.7710    -7.1480     1.0050 H     1 <1>   0.0800 
 44 H       -0.7310    -8.1980    -0.3690 H     1 <1>   0.0800 
 45 H       -2.8070    -6.9950    -1.2000 H     1 <1>   0.0800 
 46 H       -3.2650    -6.3920     1.6210 H     1 <1>   0.4500 
 47 H       -5.1860    -7.0280     0.3540 H     1 <1>   0.0800 
 48 H       -4.8450    -5.7220    -0.7580 H     1 <1>   0.0800 
 49 H       -2.6650    -4.3990    -0.4600 H     1 <1>   0.0800 
 50 H       -1.6480    -4.8080     0.9030 H     1 <1>   0.0800 
 51 H       -2.5230    -8.3580     2.3010 H     1 <1>   0.1500 
 52 H       -5.4910    -5.4560     2.1840 H     1 <1>   0.0800 
 53 H       -6.5300    -5.0370     0.8590 H     1 <1>   0.0800 
 54 H       -2.9540    -2.7710     1.3040 H     1 <1>   0.0800 
 55 H       -3.2520    -4.0110     2.4800 H     1 <1>   0.0800 
 56 H       -4.9790   -11.1130    -0.9370 H     1 <1>   0.1500 
 57 H       -4.6220    -7.9740    -2.2040 H     1 <1>   0.0800 
 58 H       -4.5830    -9.6470    -2.6710 H     1 <1>   0.0800 
 59 H       -3.0970    -8.7530    -2.5900 H     1 <1>   0.0800 
 60 H       -3.5100   -10.4700     2.9900 H     1 <1>   0.1500 
 61 H       -5.0130    -3.2780     0.1260 H     1 <1>   0.0800 
 62 H       -4.7420   -11.8460     1.3750 H     1 <1>   0.1500 
 63 H       -5.5260    -3.0820     3.1100 H     1 <1>   0.0800 
 64 H       -6.6610    -2.6660     1.8480 H     1 <1>   0.0800 
 65 H       -5.1960    -1.7430     2.0390 H     1 <1>   0.0800 
@<TRIPOS>BOND
  1   1   2  2   
  2   2   3  am  
  3   2   4  1   
  4   3   5  1   
  5   3   6  1   
  6   4   7  ar  
  7   4   8  ar  
  8   5   9  1   
  9   5  31  1   
 10   5  32  1   
 11   6  10  1   
 12   6  33  1   
 13   6  34  1   
 14   7  11  ar  
 15   7  35  1   
 16   8  12  ar  
 17   8  36  1   
 18   9  10  1   
 19   9  37  1   
 20   9  38  1   
 21  10  39  1   
 22  10  40  1   
 23  11  13  ar  
 24  11  14  1   
 25  12  13  ar  
 26  12  41  1   
 27  14  15  1   
 28  14  42  1   
 29  15  16  1   
 30  15  43  1   
 31  15  44  1   
 32  16  17  1   
 33  16  18  1   
 34  16  45  1   
 35  17  19  1   
 36  17  20  1   
 37  17  46  1   
 38  18  21  ar  
 39  18  22  ar  
 40  19  23  1   
 41  19  47  1   
 42  19  48  1   
 43  20  24  1   
 44  20  49  1   
 45  20  50  1   
 46  21  25  ar  
 47  21  26  1   
 48  22  27  ar  
 49  22  51  1   
 50  23  28  1   
 51  23  52  1   
 52  23  53  1   
 53  24  28  1   
 54  24  54  1   
 55  24  55  1   
 56  25  29  ar  
 57  25  56  1   
 58  26  57  1   
 59  26  58  1   
 60  26  59  1   
 61  27  29  ar  
 62  27  60  1   
 63  28  30  1   
 64  28  61  1   
 65  29  62  1   
 66  30  63  1   
 67  30  64  1   
 68  30  65  1   
@<TRIPOS>SUBSTRUCTURE
  1 ****  20 GROUP 4 **** **** 0

# MOE 2024.06 (io_trps.svl 2023.06)
