@<TRIPOS>MOLECULE
NONAME
55 58 1 0 0 
SMALL
USER_CHARGES


@<TRIPOS>ATOM
  1 O        1.2950     0.1490     1.1380 O.2   1 <1>  -0.5700 
  2 C        1.9940    -0.6120     0.4950 C.2   1 <1>   0.5440 
  3 N        3.1960    -0.1510    -0.0040 N.am  1 <1>  -0.6600 
  4 C        1.5440    -1.9750     0.2900 C.ar  1 <1>   0.0860 
  5 C        4.3420    -1.0550    -0.3450 C.3   1 <1>   0.1400 
  6 C        3.4570     1.3110    -0.1150 C.3   1 <1>   0.1400 
  7 C        1.0370    -2.7450     1.3250 C.ar  1 <1>  -0.1500 
  8 C        1.5770    -2.6040    -0.9450 C.ar  1 <1>  -0.1500 
  9 C        5.5820    -0.7910     0.5220 C.3   1 <1>   0.1400 
 10 C        4.2650     1.7970     1.0940 C.3   1 <1>  -0.1600 
 11 C        0.6320    -4.0460     1.0980 C.ar  1 <1>   0.1660 
 12 C        1.1510    -3.9120    -1.0770 C.ar  1 <1>   0.1660 
 13 N        6.2350     0.5030     0.1630 N.am  1 <1>  -0.6600 
 14 C        5.7870     1.7140     0.9130 C.3   1 <1>   0.1400 
 15 N        0.6880    -4.6420    -0.0790 N.ar  1 <1>  -0.6200 
 16 C        0.0830    -4.8830     2.2340 C.3   1 <1>  -0.0970 
 17 C        1.1960    -4.5970    -2.4270 C.3   1 <1>  -0.0970 
 18 C        7.1150     0.5580    -0.9000 C.2   1 <1>   0.5440 
 19 O        7.1710    -0.3910    -1.6610 O.2   1 <1>  -0.5700 
 20 C        7.9640     1.7100    -1.1430 C.ar  1 <1>   0.0860 
 21 C        8.7790     2.2390    -0.1450 C.ar  1 <1>  -0.1500 
 22 C        7.9930     2.3230    -2.3940 C.ar  1 <1>  -0.1500 
 23 C        9.5870     3.3510    -0.3500 C.ar  1 <1>   0.0540 
 24 C        8.7890     3.4280    -2.6270 C.ar  1 <1>  -0.1500 
 25 C       10.4100     3.8750     0.7170 C.2   1 <1>  -0.0540 
 26 C        9.5770     3.9370    -1.6120 C.ar  1 <1>  -0.1500 
 27 C       10.7860     5.2060     0.9290 C.2   1 <1>   0.1390 
 28 C       11.0020     3.2180     1.7480 C.2   1 <1>  -0.3020 
 29 N       11.5320     5.3630     1.9770 N.2   1 <1>  -0.7070 
 30 N       11.6670     4.1250     2.4830 N.pl3 1 <1>   0.3000 
 31 H        4.5980    -0.9370    -1.3840 H     1 <1>   0.0800 
 32 H        4.0590    -2.0800    -0.1940 H     1 <1>   0.0800 
 33 H        2.5160     1.8350    -0.1420 H     1 <1>   0.0800 
 34 H        3.9760     1.5250    -1.0340 H     1 <1>   0.0800 
 35 H        0.9630    -2.3110     2.3060 H     1 <1>   0.1500 
 36 H        1.9360    -2.0600    -1.7990 H     1 <1>   0.1500 
 37 H        6.2870    -1.5880     0.3590 H     1 <1>   0.0800 
 38 H        5.3140    -0.8020     1.5630 H     1 <1>   0.0800 
 39 H        3.9620     1.2530     1.9720 H     1 <1>   0.0800 
 40 H        4.0170     2.8270     1.2730 H     1 <1>   0.0800 
 41 H        6.2630     1.7270     1.8790 H     1 <1>   0.0800 
 42 H        6.1010     2.5960     0.3820 H     1 <1>   0.0800 
 43 H        0.0620    -4.3270     3.1520 H     1 <1>   0.0800 
 44 H        0.6970    -5.7550     2.3660 H     1 <1>   0.0800 
 45 H       -0.9170    -5.1980     1.9950 H     1 <1>   0.0800 
 46 H        1.5870    -3.9430    -3.1840 H     1 <1>   0.0800 
 47 H        0.2040    -4.9000    -2.7070 H     1 <1>   0.0800 
 48 H        1.8180    -5.4710    -2.3640 H     1 <1>   0.0800 
 49 H        8.7790     1.7670     0.8200 H     1 <1>   0.1500 
 50 H        7.3850     1.9190    -3.1850 H     1 <1>   0.1500 
 51 H        8.7990     3.8880    -3.6010 H     1 <1>   0.1500 
 52 H       10.1990     4.7930    -1.8060 H     1 <1>   0.1500 
 53 H       10.4870     6.0230     0.2940 H     1 <1>   0.1500 
 54 H       10.9860     2.1690     1.9820 H     1 <1>   0.1500 
 55 H       12.2210     3.9400     3.3290 H     1 <1>   0.2700 
@<TRIPOS>BOND
  1   1   2  2   
  2   2   3  am  
  3   2   4  1   
  4   3   5  1   
  5   3   6  1   
  6   4   7  ar  
  7   4   8  ar  
  8   5   9  1   
  9   5  31  1   
 10   5  32  1   
 11   6  10  1   
 12   6  33  1   
 13   6  34  1   
 14   7  11  ar  
 15   7  35  1   
 16   8  12  ar  
 17   8  36  1   
 18   9  13  1   
 19   9  37  1   
 20   9  38  1   
 21  10  14  1   
 22  10  39  1   
 23  10  40  1   
 24  11  15  ar  
 25  11  16  1   
 26  12  15  ar  
 27  12  17  1   
 28  13  14  1   
 29  13  18  am  
 30  14  41  1   
 31  14  42  1   
 32  16  43  1   
 33  16  44  1   
 34  16  45  1   
 35  17  46  1   
 36  17  47  1   
 37  17  48  1   
 38  18  19  2   
 39  18  20  1   
 40  20  21  ar  
 41  20  22  ar  
 42  21  23  ar  
 43  21  49  1   
 44  22  24  ar  
 45  22  50  1   
 46  23  25  1   
 47  23  26  ar  
 48  24  26  ar  
 49  24  51  1   
 50  25  27  1   
 51  25  28  2   
 52  26  52  1   
 53  27  29  2   
 54  27  53  1   
 55  28  30  1   
 56  28  54  1   
 57  29  30  1   
 58  30  55  1   
@<TRIPOS>SUBSTRUCTURE
  1 ****  13 GROUP 4 **** **** 0

# MOE 2024.06 (io_trps.svl 2023.06)
