@<TRIPOS>MOLECULE
NONAME
49 52 1 0 0 
SMALL
USER_CHARGES


@<TRIPOS>ATOM
  1 O       -0.3230     0.3450     0.3110 O.2   1 <1>  -0.5700 
  2 C       -1.3550     0.9790     0.1580 C.2   1 <1>   0.7150 
  3 N       -2.5090     0.2520    -0.0630 N.am  1 <1>  -0.6600 
  4 C       -1.3320     2.4310     0.1970 C.2   1 <1>   0.1020 
  5 C       -3.8530     0.8130    -0.3540 C.3   1 <1>   0.1400 
  6 C       -2.5540    -1.2300    -0.0340 C.3   1 <1>   0.1400 
  7 N       -2.3210     3.2030     0.5750 N.2   1 <1>  -0.3380 
  8 N       -0.2710     3.1990    -0.1400 N.pl3 1 <1>   0.0480 
  9 C       -4.7040    -0.3950    -0.7410 C.3   1 <1>   0.2000 
 10 C       -4.0410    -1.5870    -0.0550 C.3   1 <1>  -0.0800 
 11 N       -1.9150     4.4600     0.5010 N.2   1 <1>  -0.3380 
 12 C       -0.6980     4.4390     0.0830 C.2   1 <1>   0.0070 
 13 C        1.0620     2.8320    -0.6790 C.3   1 <1>   0.0960 
 14 O       -6.0150    -0.2620    -0.3130 O.3   1 <1>  -0.6800 
 15 C       -4.3450    -2.9280    -0.7410 C.3   1 <1>   0.0210 
 16 C        0.1450     5.6850    -0.1160 C.3   1 <1>   0.0200 
 17 C        2.1860     3.2410     0.2820 C.3   1 <1>  -0.1600 
 18 C       -3.5460    -4.0570    -0.1190 C.2   1 <1>   0.1080 
 19 C        1.4060     5.6690     0.7610 C.3   1 <1>  -0.1600 
 20 C        2.5200     4.7420     0.2460 C.3   1 <1>  -0.1600 
 21 N       -3.6070    -4.3520     1.1420 N.2   1 <1>  -0.7070 
 22 C       -2.6650    -4.8820    -0.8100 C.2   1 <1>  -0.1500 
 23 N       -2.7580    -5.3860     1.2920 N.pl3 1 <1>   0.3000 
 24 C       -2.1740    -5.7240     0.1230 C.2   1 <1>  -0.3320 
 25 C       -1.1670    -6.8490    -0.0320 C.3   1 <1>  -0.0600 
 26 H       -4.2390     1.2830     0.5350 H     1 <1>   0.0800 
 27 H       -3.8030     1.5270    -1.1580 H     1 <1>   0.0800 
 28 H       -2.0510    -1.6140    -0.9050 H     1 <1>   0.0800 
 29 H       -2.0740    -1.6150     0.8510 H     1 <1>   0.0800 
 30 H       -4.7060    -0.5080    -1.8120 H     1 <1>   0.0800 
 31 H       -4.3650    -1.6380     0.9710 H     1 <1>   0.0800 
 32 H        1.1100     1.7750    -0.8530 H     1 <1>   0.0800 
 33 H        1.1950     3.3190    -1.6290 H     1 <1>   0.0800 
 34 H       -6.0470    -0.2160     0.6620 H     1 <1>   0.4000 
 35 H       -4.1140    -2.8660    -1.7890 H     1 <1>   0.0800 
 36 H       -5.3920    -3.1500    -0.6420 H     1 <1>   0.0800 
 37 H        0.4050     5.7910    -1.1530 H     1 <1>   0.0800 
 38 H       -0.4530     6.5380     0.1560 H     1 <1>   0.0800 
 39 H        1.9380     2.9310     1.2840 H     1 <1>   0.0800 
 40 H        3.0730     2.7020    -0.0040 H     1 <1>   0.0800 
 41 H        1.7980     6.6700     0.7970 H     1 <1>   0.0800 
 42 H        1.1360     5.3950     1.7670 H     1 <1>   0.0800 
 43 H        3.3910     4.9010     0.8610 H     1 <1>   0.0800 
 44 H        2.7890     5.0270    -0.7570 H     1 <1>   0.0800 
 45 H       -2.4420    -4.8370    -1.8600 H     1 <1>   0.1500 
 46 H       -2.6000    -5.8370     2.2010 H     1 <1>   0.2700 
 47 H       -0.8480    -6.9210    -1.0570 H     1 <1>   0.0800 
 48 H       -1.6090    -7.7870     0.2550 H     1 <1>   0.0800 
 49 H       -0.3040    -6.6640     0.5820 H     1 <1>   0.0800 
@<TRIPOS>BOND
  1   1   2  2   
  2   2   3  am  
  3   2   4  1   
  4   3   5  1   
  5   3   6  1   
  6   4   7  2   
  7   4   8  1   
  8   5   9  1   
  9   5  26  1   
 10   5  27  1   
 11   6  10  1   
 12   6  28  1   
 13   6  29  1   
 14   7  11  1   
 15   8  12  1   
 16   8  13  1   
 17   9  10  1   
 18   9  14  1   
 19   9  30  1   
 20  10  15  1   
 21  10  31  1   
 22  11  12  2   
 23  12  16  1   
 24  13  17  1   
 25  13  32  1   
 26  13  33  1   
 27  14  34  1   
 28  15  18  1   
 29  15  35  1   
 30  15  36  1   
 31  16  19  1   
 32  16  37  1   
 33  16  38  1   
 34  17  20  1   
 35  17  39  1   
 36  17  40  1   
 37  18  21  2   
 38  18  22  1   
 39  19  20  1   
 40  19  41  1   
 41  19  42  1   
 42  20  43  1   
 43  20  44  1   
 44  21  23  1   
 45  22  24  2   
 46  22  45  1   
 47  23  24  1   
 48  23  46  1   
 49  24  25  1   
 50  25  47  1   
 51  25  48  1   
 52  25  49  1   
@<TRIPOS>SUBSTRUCTURE
  1 ****   3 GROUP 4 **** **** 0

# MOE 2024.06 (io_trps.svl 2023.06)
