@<TRIPOS>MOLECULE
NONAME
43 45 1 0 0 
SMALL
USER_CHARGES


@<TRIPOS>ATOM
  1 O        2.0270    -0.0540     1.6130 O.3   1 <1>  -0.6800 
  2 C        1.9520    -0.2850     0.2400 C.3   1 <1>   0.2000 
  3 C        2.8360    -1.4730    -0.1450 C.3   1 <1>  -0.0800 
  4 C        2.6310     0.8800    -0.4840 C.3   1 <1>   0.3430 
  5 C        4.2470    -0.8840    -0.2850 C.3   1 <1>   0.3430 
  6 C        2.7890    -2.6840     0.8060 C.3   1 <1>   0.0210 
  7 N        4.0950     0.5970    -0.3970 N.4   1 <1>  -0.9590 
  8 C        3.6530    -3.8210     0.2940 C.2   1 <1>   0.1080 
  9 C        4.7110     1.2880     0.7640 C.3   1 <1>   0.4860 
 10 N        4.9310    -3.7070     0.1000 N.2   1 <1>  -0.7070 
 11 C        3.1840    -5.0930    -0.0150 C.2   1 <1>  -0.1500 
 12 C        4.6420     2.7840     0.5390 C.ar  1 <1>  -0.1440 
 13 N        5.3180    -4.9270    -0.3300 N.pl3 1 <1>   0.3000 
 14 C        4.2760    -5.7790    -0.4120 C.2   1 <1>  -0.3320 
 15 C        5.2160     3.3530    -0.5990 C.ar  1 <1>   0.4100 
 16 C        3.9940     3.6010     1.4400 C.ar  1 <1>  -0.1500 
 17 C        4.3890    -7.2230    -0.8670 C.3   1 <1>  -0.0600 
 18 N        5.1710     4.6310    -0.8960 N.ar  1 <1>  -0.6200 
 19 N        5.8730     2.6200    -1.5360 N.pl3 1 <1>  -0.9000 
 20 C        3.9550     4.9490     1.1440 C.ar  1 <1>  -0.1500 
 21 C        4.5480     5.4040    -0.0200 C.ar  1 <1>   0.1600 
 22 H        1.4300    -0.6570     2.1050 H     1 <1>   0.4000 
 23 H        0.9190    -0.3990    -0.0420 H     1 <1>   0.0800 
 24 H        2.5380    -1.8090    -1.1230 H     1 <1>   0.0800 
 25 H        2.3670     1.8270    -0.0430 H     1 <1>   0.0800 
 26 H        2.3300     0.8760    -1.5180 H     1 <1>   0.0800 
 27 H        4.7360    -1.2960    -1.1530 H     1 <1>   0.0800 
 28 H        4.8320    -1.1380     0.5850 H     1 <1>   0.0800 
 29 H        1.7760    -3.0310     0.9040 H     1 <1>   0.0800 
 30 H        3.1460    -2.4140     1.7840 H     1 <1>   0.0800 
 31 H        4.5900     0.9890    -1.2210 H     1 <1>   0.4500 
 32 H        4.1910     1.0240     1.6710 H     1 <1>   0.0800 
 33 H        5.7430     0.9930     0.8600 H     1 <1>   0.0800 
 34 H        2.1680    -5.4370     0.0590 H     1 <1>   0.1500 
 35 H        6.2960    -5.1540    -0.5540 H     1 <1>   0.2700 
 36 H        3.5330     3.2230     2.3380 H     1 <1>   0.1500 
 37 H        3.4230    -7.6950    -0.8440 H     1 <1>   0.0800 
 38 H        5.0500    -7.7670    -0.2170 H     1 <1>   0.0800 
 39 H        4.7680    -7.2690    -1.8730 H     1 <1>   0.0800 
 40 H        5.8700     3.1630    -2.4080 H     1 <1>   0.4000 
 41 H        6.8640     2.5090    -1.3030 H     1 <1>   0.4000 
 42 H        3.4680     5.6430     1.8070 H     1 <1>   0.1500 
 43 H        4.5090     6.4580    -0.2430 H     1 <1>   0.1500 
@<TRIPOS>BOND
  1   1   2  1   
  2   1  22  1   
  3   2   3  1   
  4   2   4  1   
  5   2  23  1   
  6   3   5  1   
  7   3   6  1   
  8   3  24  1   
  9   4   7  1   
 10   4  25  1   
 11   4  26  1   
 12   5   7  1   
 13   5  27  1   
 14   5  28  1   
 15   6   8  1   
 16   6  29  1   
 17   6  30  1   
 18   7   9  1   
 19   7  31  1   
 20   8  10  2   
 21   8  11  1   
 22   9  12  1   
 23   9  32  1   
 24   9  33  1   
 25  10  13  1   
 26  11  14  2   
 27  11  34  1   
 28  12  15  ar  
 29  12  16  ar  
 30  13  14  1   
 31  13  35  1   
 32  14  17  1   
 33  15  18  ar  
 34  15  19  1   
 35  16  20  ar  
 36  16  36  1   
 37  17  37  1   
 38  17  38  1   
 39  17  39  1   
 40  18  21  ar  
 41  19  40  1   
 42  19  41  1   
 43  20  21  ar  
 44  20  42  1   
 45  21  43  1   
@<TRIPOS>SUBSTRUCTURE
  1 ****   5 GROUP 4 **** **** 0

# MOE 2024.06 (io_trps.svl 2023.06)
