@<TRIPOS>MOLECULE
NONAME
36 37 1 0 0 
SMALL
USER_CHARGES


@<TRIPOS>ATOM
  1 CL       0.6960    -1.4830    -1.6110 Cl    1 <1>  -0.1230 
  2 C       -0.5130    -2.4460    -0.7820 C.2   1 <1>   0.1230 
  3 C       -0.2810    -3.3020     0.2830 C.2   1 <1>   0.1390 
  4 C       -1.8320    -2.5070    -1.0420 C.2   1 <1>  -0.3020 
  5 N       -1.3860    -3.8720     0.6740 N.2   1 <1>  -0.7070 
  6 N       -2.3410    -3.3780    -0.1450 N.pl3 1 <1>   0.3140 
  7 C       -3.7440    -3.7900    -0.0060 C.3   1 <1>   0.0960 
  8 C       -3.7900    -5.3110     0.1710 C.3   1 <1>   0.3430 
  9 N       -5.1470    -5.8230     0.5400 N.4   1 <1>  -0.9590 
 10 C       -5.0310    -7.3000     0.7620 C.3   1 <1>   0.3430 
 11 C       -6.1590    -5.5340    -0.5290 C.3   1 <1>   0.3430 
 12 C       -6.3800    -7.8790     1.1910 C.3   1 <1>  -0.1600 
 13 C       -7.5240    -6.1200    -0.1590 C.3   1 <1>  -0.1600 
 14 C       -7.4570    -7.6410     0.1130 C.3   1 <1>  -0.1060 
 15 C       -7.0720    -8.4180    -1.1780 C.2   1 <1>   0.9060 
 16 C       -8.8250    -8.0930     0.6750 C.3   1 <1>  -0.2400 
 17 O       -6.0900    -8.0300    -1.8260 O.co2 1 <1>  -0.9000 
 18 O       -7.7100    -9.4160    -1.5110 O.co2 1 <1>  -0.9000 
 19 H        0.6840    -3.4730     0.7290 H     1 <1>   0.1500 
 20 H       -2.4040    -1.9920    -1.7900 H     1 <1>   0.1500 
 21 H       -4.2800    -3.4900    -0.8860 H     1 <1>   0.0800 
 22 H       -4.1460    -3.3000     0.8600 H     1 <1>   0.0800 
 23 H       -3.0920    -5.5850     0.9460 H     1 <1>   0.0800 
 24 H       -3.4700    -5.7820    -0.7460 H     1 <1>   0.0800 
 25 H       -5.4730    -5.4130     1.4210 H     1 <1>   0.4500 
 26 H       -4.3000    -7.5020     1.5270 H     1 <1>   0.0800 
 27 H       -4.7040    -7.7830    -0.1450 H     1 <1>   0.0800 
 28 H       -5.8270    -5.9480    -1.4670 H     1 <1>   0.0800 
 29 H       -6.2650    -4.4710    -0.6610 H     1 <1>   0.0800 
 30 H       -6.6760    -7.4520     2.1320 H     1 <1>   0.0800 
 31 H       -6.2650    -8.9400     1.3350 H     1 <1>   0.0800 
 32 H       -8.2010    -5.9470    -0.9770 H     1 <1>   0.0800 
 33 H       -7.9110    -5.6010     0.6990 H     1 <1>   0.0800 
 34 H       -9.0890    -7.5530     1.5660 H     1 <1>   0.0800 
 35 H       -8.7990    -9.1450     0.9030 H     1 <1>   0.0800 
 36 H       -9.5930    -7.9420    -0.0650 H     1 <1>   0.0800 
@<TRIPOS>BOND
  1   1   2  1   
  2   2   3  1   
  3   2   4  2   
  4   3   5  2   
  5   3  19  1   
  6   4   6  1   
  7   4  20  1   
  8   5   6  1   
  9   6   7  1   
 10   7   8  1   
 11   7  21  1   
 12   7  22  1   
 13   8   9  1   
 14   8  23  1   
 15   8  24  1   
 16   9  10  1   
 17   9  11  1   
 18   9  25  1   
 19  10  12  1   
 20  10  26  1   
 21  10  27  1   
 22  11  13  1   
 23  11  28  1   
 24  11  29  1   
 25  12  14  1   
 26  12  30  1   
 27  12  31  1   
 28  13  14  1   
 29  13  32  1   
 30  13  33  1   
 31  14  15  1   
 32  14  16  1   
 33  15  17  ar  
 34  15  18  ar  
 35  16  34  1   
 36  16  35  1   
 37  16  36  1   
@<TRIPOS>SUBSTRUCTURE
  1 ****   8 GROUP 4 **** **** 0

# MOE 2024.06 (io_trps.svl 2023.06)
