@<TRIPOS>MOLECULE
NONAME
53 55 1 0 0 
SMALL
USER_CHARGES


@<TRIPOS>ATOM
  1 O       -1.5870     0.4890     2.2910 O.2   1 <1>  -0.5700 
  2 C       -1.7580     0.9560     1.1800 C.2   1 <1>   0.5440 
  3 N       -2.1690     0.1330     0.1580 N.am  1 <1>  -0.6600 
  4 C       -1.5350     2.3680     0.9680 C.ar  1 <1>   0.0860 
  5 C       -2.2420    -1.3570     0.3410 C.3   1 <1>   0.3640 
  6 C       -2.6250     0.6830    -1.1570 C.3   1 <1>   0.1400 
  7 C       -0.4800     2.8590     0.1860 C.ar  1 <1>   0.0830 
  8 C       -2.4050     3.2980     1.5380 C.ar  1 <1>  -0.1500 
  9 C       -0.9360    -2.0430    -0.0890 C.ar  1 <1>  -0.1440 
 10 C       -3.4640    -2.0070    -0.3840 C.3   1 <1>   0.2000 
 11 C       -3.1570    -0.4050    -2.0980 C.3   1 <1>   0.1200 
 12 O        0.4350     2.0460    -0.3830 O.3   1 <1>  -0.3630 
 13 C       -0.3440     4.2190    -0.0460 C.ar  1 <1>  -0.1500 
 14 C       -2.2600     4.6550     1.3170 C.ar  1 <1>  -0.1500 
 15 C       -0.6520    -3.2900     0.4530 C.ar  1 <1>  -0.1500 
 16 C       -0.0280    -1.4910    -0.9880 C.ar  1 <1>  -0.1500 
 17 O       -4.0440    -1.2200    -1.4010 O.3   1 <1>  -0.5600 
 18 C       -4.5880    -2.3430     0.6030 C.3   1 <1>   0.1200 
 19 C        1.2980     1.3170     0.4690 C.3   1 <1>   0.0400 
 20 C       -1.2290     5.1180     0.5170 C.ar  1 <1>  -0.1500 
 21 C        0.4960    -3.9820     0.1040 C.ar  1 <1>   0.0830 
 22 C        1.1320    -2.1650    -1.3300 C.ar  1 <1>  -0.1500 
 23 O       -4.2100    -3.4030     1.4240 O.3   1 <1>  -0.6800 
 24 O        0.6690    -5.2140     0.6460 O.3   1 <1>  -0.3630 
 25 C        1.4120    -3.4020    -0.7790 C.ar  1 <1>   0.0830 
 26 C        0.6720    -6.3020    -0.2530 C.3   1 <1>   0.0400 
 27 O        2.5830    -3.9890    -1.1230 O.3   1 <1>  -0.3630 
 28 C        3.5300    -4.1470    -0.0890 C.3   1 <1>   0.0400 
 29 H       -2.3490    -1.5640     1.3920 H     1 <1>   0.0800 
 30 H       -3.4090     1.3990    -0.9810 H     1 <1>   0.0800 
 31 H       -1.8110     1.1970    -1.6370 H     1 <1>   0.0800 
 32 H       -3.2070     2.9390     2.1610 H     1 <1>   0.1500 
 33 H       -3.1480    -2.9210    -0.8540 H     1 <1>   0.0800 
 34 H       -2.3610    -1.0110    -2.4940 H     1 <1>   0.0800 
 35 H       -3.6910     0.0420    -2.9180 H     1 <1>   0.0800 
 36 H        0.4630     4.5680    -0.6650 H     1 <1>   0.1500 
 37 H       -2.9460     5.3520     1.7670 H     1 <1>   0.1500 
 38 H       -1.3270    -3.7430     1.1580 H     1 <1>   0.1500 
 39 H       -0.2030    -0.5260    -1.4270 H     1 <1>   0.1500 
 40 H       -5.4810    -2.6300     0.0780 H     1 <1>   0.0800 
 41 H       -4.7960    -1.4930     1.2310 H     1 <1>   0.0800 
 42 H        2.1100     0.9350    -0.1220 H     1 <1>   0.0800 
 43 H        0.7620     0.4980     0.9130 H     1 <1>   0.0800 
 44 H        1.6750     1.9740     1.2330 H     1 <1>   0.0800 
 45 H       -1.1170     6.1740     0.3390 H     1 <1>   0.1500 
 46 H        1.8300    -1.7280    -2.0210 H     1 <1>   0.1500 
 47 H       -4.2670    -4.2520     0.9420 H     1 <1>   0.4000 
 48 H        0.6880    -7.2100     0.3210 H     1 <1>   0.0800 
 49 H        1.5460    -6.2480    -0.8770 H     1 <1>   0.0800 
 50 H       -0.2190    -6.2590    -0.8530 H     1 <1>   0.0800 
 51 H        4.4400    -4.5240    -0.5200 H     1 <1>   0.0800 
 52 H        3.1520    -4.8440     0.6380 H     1 <1>   0.0800 
 53 H        3.7060    -3.1900     0.3690 H     1 <1>   0.0800 
@<TRIPOS>BOND
  1   1   2  2   
  2   2   3  am  
  3   2   4  1   
  4   3   5  1   
  5   3   6  1   
  6   4   7  ar  
  7   4   8  ar  
  8   5   9  1   
  9   5  10  1   
 10   5  29  1   
 11   6  11  1   
 12   6  30  1   
 13   6  31  1   
 14   7  12  1   
 15   7  13  ar  
 16   8  14  ar  
 17   8  32  1   
 18   9  15  ar  
 19   9  16  ar  
 20  10  17  1   
 21  10  18  1   
 22  10  33  1   
 23  11  17  1   
 24  11  34  1   
 25  11  35  1   
 26  12  19  1   
 27  13  20  ar  
 28  13  36  1   
 29  14  20  ar  
 30  14  37  1   
 31  15  21  ar  
 32  15  38  1   
 33  16  22  ar  
 34  16  39  1   
 35  18  23  1   
 36  18  40  1   
 37  18  41  1   
 38  19  42  1   
 39  19  43  1   
 40  19  44  1   
 41  20  45  1   
 42  21  24  1   
 43  21  25  ar  
 44  22  25  ar  
 45  22  46  1   
 46  23  47  1   
 47  24  26  1   
 48  25  27  1   
 49  26  48  1   
 50  26  49  1   
 51  26  50  1   
 52  27  28  1   
 53  28  51  1   
 54  28  52  1   
 55  28  53  1   
@<TRIPOS>SUBSTRUCTURE
  1 ****   9 GROUP 4 **** **** 0

# MOE 2024.06 (io_trps.svl 2023.06)
