@<TRIPOS>MOLECULE
NONAME
49 51 1 0 0 
SMALL
USER_CHARGES


@<TRIPOS>ATOM
  1 O       -1.1070    -0.1700    -0.8730 O.3   1 <1>  -0.5600 
  2 C       -2.0850    -0.0210     0.1030 C.3   1 <1>   0.1200 
  3 C        0.1750    -0.3870    -0.3730 C.3   1 <1>   0.0400 
  4 C       -3.4150     0.2530    -0.6040 C.3   1 <1>   0.3540 
  5 N       -4.5450     0.2500     0.3690 N.pl3 1 <1>  -0.7640 
  6 C       -5.3740    -0.7520     0.6690 C.cat 1 <1>   0.6560 
  7 C       -4.9230     1.3340     1.1330 C.2   1 <1>   0.2000 
  8 N       -6.2410    -0.3460     1.5820 N.pl3 1 <1>  -0.7000 
  9 C       -5.3740    -2.1790     0.0890 C.3   1 <1>   0.2540 
 10 C       -5.9780     0.9610     1.8870 C.2   1 <1>   0.2000 
 11 N       -6.6360    -2.9170     0.3610 N.3   1 <1>  -0.8100 
 12 C       -7.7700    -2.4770    -0.4790 C.3   1 <1>   0.1100 
 13 C       -6.5030    -4.3710     0.1230 C.3   1 <1>   0.1100 
 14 C       -8.7490    -3.6420    -0.4260 C.3   1 <1>   0.2000 
 15 C       -7.8090    -4.8380    -0.5420 C.3   1 <1>  -0.0800 
 16 O       -9.3360    -3.6280     0.8280 O.3   1 <1>  -0.6800 
 17 C       -8.3430    -6.1770     0.0000 C.3   1 <1>   0.0210 
 18 C       -7.3080    -7.2830    -0.1180 C.2   1 <1>   0.1080 
 19 N       -6.5560    -7.4540    -1.1620 N.2   1 <1>  -0.7070 
 20 C       -7.0510    -8.2250     0.8720 C.2   1 <1>  -0.1500 
 21 N       -5.8010    -8.5290    -0.8660 N.pl3 1 <1>   0.3000 
 22 C       -6.0790    -9.0100     0.3640 C.2   1 <1>  -0.3320 
 23 C       -5.3910   -10.2130     0.9840 C.3   1 <1>  -0.0600 
 24 H       -2.1370    -0.9330     0.6710 H     1 <1>   0.0800 
 25 H       -1.8170     0.8050     0.7380 H     1 <1>   0.0800 
 26 H        0.8480    -0.4900    -1.2070 H     1 <1>   0.0800 
 27 H        0.1850    -1.2920     0.2110 H     1 <1>   0.0800 
 28 H        0.4740     0.4550     0.2280 H     1 <1>   0.0800 
 29 H       -3.5760    -0.5030    -1.3530 H     1 <1>   0.0800 
 30 H       -3.3650     1.2090    -1.0970 H     1 <1>   0.0800 
 31 H       -4.4280     2.2930     1.0950 H     1 <1>   0.1500 
 32 H       -6.9720    -0.9680     1.9490 H     1 <1>   0.4500 
 33 H       -4.5570    -2.7110     0.5440 H     1 <1>   0.0800 
 34 H       -5.1980    -2.1410    -0.9710 H     1 <1>   0.0800 
 35 H       -6.5460     1.5330     2.6050 H     1 <1>   0.1500 
 36 H       -8.2200    -1.5680    -0.1180 H     1 <1>   0.0800 
 37 H       -7.4490    -2.3380    -1.4990 H     1 <1>   0.0800 
 38 H       -5.6740    -4.5990    -0.5280 H     1 <1>   0.0800 
 39 H       -6.3500    -4.8740     1.0630 H     1 <1>   0.0800 
 40 H       -9.5170    -3.6090    -1.1800 H     1 <1>   0.0800 
 41 H       -7.5960    -4.9770    -1.5880 H     1 <1>   0.0800 
 42 H       -8.6090    -3.6030     1.4820 H     1 <1>   0.4000 
 43 H       -9.2170    -6.4640    -0.5570 H     1 <1>   0.0800 
 44 H       -8.6260    -6.0800     1.0320 H     1 <1>   0.0800 
 45 H       -7.5410    -8.2930     1.8270 H     1 <1>   0.1500 
 46 H       -5.1120    -8.9140    -1.5240 H     1 <1>   0.2700 
 47 H       -5.7880   -10.3990     1.9670 H     1 <1>   0.0800 
 48 H       -4.3340   -10.0350     1.0690 H     1 <1>   0.0800 
 49 H       -5.5530   -11.0870     0.3790 H     1 <1>   0.0800 
@<TRIPOS>BOND
  1   1   2  1   
  2   1   3  1   
  3   2   4  1   
  4   2  24  1   
  5   2  25  1   
  6   3  26  1   
  7   3  27  1   
  8   3  28  1   
  9   4   5  1   
 10   4  29  1   
 11   4  30  1   
 12   5   6  ar  
 13   5   7  1   
 14   6   8  ar  
 15   6   9  1   
 16   7  10  2   
 17   7  31  1   
 18   8  10  1   
 19   8  32  1   
 20   9  11  1   
 21   9  33  1   
 22   9  34  1   
 23  10  35  1   
 24  11  12  1   
 25  11  13  1   
 26  12  14  1   
 27  12  36  1   
 28  12  37  1   
 29  13  15  1   
 30  13  38  1   
 31  13  39  1   
 32  14  15  1   
 33  14  16  1   
 34  14  40  1   
 35  15  17  1   
 36  15  41  1   
 37  16  42  1   
 38  17  18  1   
 39  17  43  1   
 40  17  44  1   
 41  18  19  2   
 42  18  20  1   
 43  19  21  1   
 44  20  22  2   
 45  20  45  1   
 46  21  22  1   
 47  21  46  1   
 48  22  23  1   
 49  23  47  1   
 50  23  48  1   
 51  23  49  1   
@<TRIPOS>SUBSTRUCTURE
  1 ****  11 GROUP 4 **** **** 0

# MOE 2024.06 (io_trps.svl 2023.06)
