@<TRIPOS>MOLECULE
NONAME
48 51 1 0 0 
SMALL
USER_CHARGES


@<TRIPOS>ATOM
  1 S       -0.9130    -0.5420     0.1570 S.3   1 <1>  -0.0800 
  2 C        0.2720    -1.3840     1.1050 C.2   1 <1>  -0.1400 
  3 C       -1.3840    -2.0800    -0.5450 C.2   1 <1>   0.1980 
  4 C        0.2200    -2.6880     0.8170 C.2   1 <1>   0.0460 
  5 C        1.1840    -0.6790     2.0820 C.3   1 <1>   0.0200 
  6 N       -0.7220    -3.0870    -0.1150 N.2   1 <1>  -0.5650 
  7 C       -2.5080    -2.0470    -1.5710 C.3   1 <1>   0.3200 
  8 C        1.1420    -3.6970     1.4730 C.3   1 <1>   0.0210 
  9 C        1.8580    -1.7370     2.9790 C.3   1 <1>  -0.1600 
 10 N       -2.8100    -3.4200    -2.0260 N.am  1 <1>  -0.7300 
 11 C        2.3130    -2.9820     2.1840 C.3   1 <1>  -0.1600 
 12 C       -3.8490    -3.7530    -2.8180 C.2   1 <1>   0.5690 
 13 O       -4.6050    -2.9230    -3.2570 O.2   1 <1>  -0.5700 
 14 C       -4.0710    -5.2140    -3.1540 C.3   1 <1>  -0.0990 
 15 C       -4.7830    -5.9570    -2.0120 C.3   1 <1>  -0.1600 
 16 C       -5.0240    -7.4340    -2.3570 C.3   1 <1>   0.0200 
 17 C       -5.6910    -8.1700    -1.2100 C.2   1 <1>   0.2980 
 18 O       -6.9400    -7.9050    -0.9310 O.3   1 <1>  -0.0190 
 19 N       -5.1400    -9.0420    -0.4730 N.2   1 <1>  -0.5650 
 20 N       -7.2100    -8.6770     0.0740 N.2   1 <1>  -0.4100 
 21 C       -6.1490    -9.3500     0.3480 C.2   1 <1>   0.4620 
 22 C       -6.0210   -10.3300     1.4100 C.ar  1 <1>   0.0540 
 23 C       -7.0760   -10.6650     2.2480 C.ar  1 <1>  -0.1500 
 24 C       -4.8390   -11.0100     1.6720 C.ar  1 <1>  -0.1500 
 25 C       -6.9090   -11.6050     3.2470 C.ar  1 <1>   0.1600 
 26 C       -4.7730   -11.9350     2.6970 C.ar  1 <1>   0.1600 
 27 N       -5.7810   -12.2500     3.4920 N.ar  1 <1>  -0.6200 
 28 H        0.6200     0.0110     2.6860 H     1 <1>   0.0800 
 29 H        1.9260    -0.1290     1.5310 H     1 <1>   0.0800 
 30 H       -2.2130    -1.4490    -2.4140 H     1 <1>   0.0800 
 31 H       -3.3900    -1.6150    -1.1310 H     1 <1>   0.0800 
 32 H        1.5260    -4.3700     0.7280 H     1 <1>   0.0800 
 33 H        0.5700    -4.2670     2.1820 H     1 <1>   0.0800 
 34 H        1.1550    -2.0490     3.7320 H     1 <1>   0.0800 
 35 H        2.7000    -1.2940     3.4810 H     1 <1>   0.0800 
 36 H       -2.1830    -4.1170    -1.6110 H     1 <1>   0.3700 
 37 H        3.0280    -2.6720     1.4420 H     1 <1>   0.0800 
 38 H        2.8050    -3.6760     2.8430 H     1 <1>   0.0800 
 39 H       -3.1190    -5.6690    -3.3590 H     1 <1>   0.0800 
 40 H       -4.6640    -5.2670    -4.0490 H     1 <1>   0.0800 
 41 H       -5.7260    -5.4770    -1.8120 H     1 <1>   0.0800 
 42 H       -4.1870    -5.8960    -1.1160 H     1 <1>   0.0800 
 43 H       -4.0850    -7.9130    -2.5710 H     1 <1>   0.0800 
 44 H       -5.6480    -7.5140    -3.2290 H     1 <1>   0.0800 
 45 H       -8.0320   -10.1900     2.1230 H     1 <1>   0.1500 
 46 H       -3.9660   -10.8180     1.0750 H     1 <1>   0.1500 
 47 H       -7.7480   -11.8410     3.8800 H     1 <1>   0.1500 
 48 H       -3.8400   -12.4450     2.8730 H     1 <1>   0.1500 
@<TRIPOS>BOND
  1   1   2  1   
  2   1   3  1   
  3   2   4  2   
  4   2   5  1   
  5   3   6  2   
  6   3   7  1   
  7   4   6  1   
  8   4   8  1   
  9   5   9  1   
 10   5  28  1   
 11   5  29  1   
 12   7  10  1   
 13   7  30  1   
 14   7  31  1   
 15   8  11  1   
 16   8  32  1   
 17   8  33  1   
 18   9  11  1   
 19   9  34  1   
 20   9  35  1   
 21  10  12  am  
 22  10  36  1   
 23  11  37  1   
 24  11  38  1   
 25  12  13  2   
 26  12  14  1   
 27  14  15  1   
 28  14  39  1   
 29  14  40  1   
 30  15  16  1   
 31  15  41  1   
 32  15  42  1   
 33  16  17  1   
 34  16  43  1   
 35  16  44  1   
 36  17  18  1   
 37  17  19  2   
 38  18  20  1   
 39  19  21  1   
 40  20  21  2   
 41  21  22  1   
 42  22  23  ar  
 43  22  24  ar  
 44  23  25  ar  
 45  23  45  1   
 46  24  26  ar  
 47  24  46  1   
 48  25  27  ar  
 49  25  47  1   
 50  26  27  ar  
 51  26  48  1   
@<TRIPOS>SUBSTRUCTURE
  1 ****  15 GROUP 4 **** **** 0

# MOE 2024.06 (io_trps.svl 2023.06)
