@<TRIPOS>MOLECULE
NONAME
44 46 1 0 0 
SMALL
USER_CHARGES


@<TRIPOS>ATOM
  1 S        0.5040    -0.8800     0.4980 S.o2  1 <1>   1.5760 
  2 O        1.3950    -1.2690    -0.5690 O.2   1 <1>  -0.6500 
  3 O        0.9830    -0.6630     1.8400 O.2   1 <1>  -0.6500 
  4 N       -0.4010     0.4600     0.0070 N.am  1 <1>  -0.8490 
  5 N       -0.7180    -2.0090     0.5850 N.am  1 <1>  -0.9140 
  6 C       -1.2660     0.9720     1.0740 C.3   1 <1>   0.1160 
  7 C        0.4590     1.5320    -0.4960 C.3   1 <1>   0.1160 
  8 C       -1.1440    -2.5080    -0.7140 C.3   1 <1>   0.2760 
  9 C       -2.5240    -3.1400    -0.5980 C.3   1 <1>  -0.0800 
 10 C       -0.3240    -3.7370    -1.1040 C.3   1 <1>   0.1200 
 11 C       -2.2140    -4.5610    -0.1110 C.3   1 <1>   0.1200 
 12 C       -3.5390    -2.3810     0.2790 C.3   1 <1>  -0.0160 
 13 O       -0.8510    -4.7770    -0.3390 O.3   1 <1>  -0.5600 
 14 C       -4.9000    -3.0700     0.2610 C.ar  1 <1>  -0.1430 
 15 C       -5.7960    -2.9550    -0.8270 C.ar  1 <1>   0.0000 
 16 C       -5.2860    -3.8390     1.3200 C.ar  1 <1>  -0.1500 
 17 C       -7.0180    -3.6680    -0.7480 C.ar  1 <1>   0.3100 
 18 C       -5.5570    -2.1780    -1.9850 C.ar  1 <1>  -0.1500 
 19 C       -6.5230    -4.4940     1.3010 C.ar  1 <1>   0.1600 
 20 N       -7.3640    -4.4300     0.3190 N.ar  1 <1>  -0.6200 
 21 C       -7.9220    -3.5880    -1.8200 C.ar  1 <1>  -0.1500 
 22 C       -6.4600    -2.1200    -3.0110 C.ar  1 <1>  -0.1500 
 23 C       -7.6570    -2.8340    -2.9310 C.ar  1 <1>  -0.1500 
 24 H       -0.2910    -2.8050     1.0550 H     1 <1>   0.4200 
 25 H       -1.8740     1.7780     0.7020 H     1 <1>   0.0800 
 26 H       -0.6770     1.3270     1.9030 H     1 <1>   0.0800 
 27 H       -1.9190     0.1910     1.4260 H     1 <1>   0.0800 
 28 H       -0.1390     2.3620    -0.8310 H     1 <1>   0.0800 
 29 H        1.0410     1.1760    -1.3310 H     1 <1>   0.0800 
 30 H        1.1320     1.8690     0.2760 H     1 <1>   0.0800 
 31 H       -1.1190    -1.7300    -1.4610 H     1 <1>   0.0800 
 32 H       -2.9270    -3.2290    -1.5910 H     1 <1>   0.0800 
 33 H        0.7280    -3.6400    -0.9050 H     1 <1>   0.0800 
 34 H       -0.4730    -3.9800    -2.1420 H     1 <1>   0.0800 
 35 H       -2.7830    -5.3000    -0.6490 H     1 <1>   0.0800 
 36 H       -2.3870    -4.6670     0.9460 H     1 <1>   0.0800 
 37 H       -3.6350    -1.3650    -0.0600 H     1 <1>   0.0800 
 38 H       -3.1820    -2.3360     1.2930 H     1 <1>   0.0800 
 39 H       -4.6600    -3.9660     2.1840 H     1 <1>   0.1500 
 40 H       -4.6460    -1.6160    -2.0640 H     1 <1>   0.1500 
 41 H       -6.7900    -5.0910     2.1570 H     1 <1>   0.1500 
 42 H       -8.8370    -4.1430    -1.7350 H     1 <1>   0.1500 
 43 H       -6.2640    -1.5260    -3.8870 H     1 <1>   0.1500 
 44 H       -8.3600    -2.7830    -3.7450 H     1 <1>   0.1500 
@<TRIPOS>BOND
  1   1   2  2   
  2   1   3  2   
  3   1   4  am  
  4   1   5  am  
  5   4   6  1   
  6   4   7  1   
  7   5   8  1   
  8   5  24  1   
  9   6  25  1   
 10   6  26  1   
 11   6  27  1   
 12   7  28  1   
 13   7  29  1   
 14   7  30  1   
 15   8   9  1   
 16   8  10  1   
 17   8  31  1   
 18   9  11  1   
 19   9  12  1   
 20   9  32  1   
 21  10  13  1   
 22  10  33  1   
 23  10  34  1   
 24  11  13  1   
 25  11  35  1   
 26  11  36  1   
 27  12  14  1   
 28  12  37  1   
 29  12  38  1   
 30  14  15  ar  
 31  14  16  ar  
 32  15  17  ar  
 33  15  18  ar  
 34  16  19  ar  
 35  16  39  1   
 36  17  20  ar  
 37  17  21  ar  
 38  18  22  ar  
 39  18  40  1   
 40  19  20  ar  
 41  19  41  1   
 42  21  23  ar  
 43  21  42  1   
 44  22  23  ar  
 45  22  43  1   
 46  23  44  1   
@<TRIPOS>SUBSTRUCTURE
  1 ****  12 GROUP 4 **** **** 0

# MOE 2024.06 (io_trps.svl 2023.06)
