@<TRIPOS>MOLECULE
NONAME
48 50 1 0 0 
SMALL
USER_CHARGES


@<TRIPOS>ATOM
  1 O       -0.4280     1.2570    -1.1620 O.2   1 <1>  -0.5700 
  2 C       -0.6740     2.4320    -1.0140 C.2   1 <1>   0.5690 
  3 N       -1.2340     2.9560     0.1180 N.am  1 <1>  -0.5090 
  4 C       -0.3420     3.3990    -2.1430 C.3   1 <1>   0.1810 
  5 C       -1.5330     4.4220     0.1960 C.3   1 <1>   0.3640 
  6 C       -1.4090     2.1680     1.3610 C.3   1 <1>   0.0490 
  7 O        0.2030     4.5850    -1.6260 O.3   1 <1>  -0.5600 
  8 C       -3.0100     4.6990    -0.1140 C.ar  1 <1>  -0.1440 
  9 C       -0.6420     5.3060    -0.7300 C.3   1 <1>   0.2610 
 10 C       -2.2900     0.9590     1.3200 C.3   1 <1>  -0.2000 
 11 C       -2.7240     2.1700     2.0800 C.3   1 <1>  -0.2000 
 12 C       -3.7850     3.8760    -0.9250 C.ar  1 <1>  -0.1500 
 13 C       -3.5960     5.8310     0.4370 C.ar  1 <1>  -0.1500 
 14 C        0.1870     6.2590     0.1360 C.2   1 <1>   0.5690 
 15 C       -5.1120     4.1760    -1.1790 C.ar  1 <1>  -0.1500 
 16 C       -4.9220     6.1340     0.1840 C.ar  1 <1>  -0.1500 
 17 O       -0.3870     7.0160     0.8840 O.2   1 <1>  -0.5700 
 18 N        1.5440     6.2270     0.0500 N.am  1 <1>  -0.7300 
 19 C       -5.6900     5.3130    -0.6240 C.ar  1 <1>   0.0830 
 20 C        2.4900     7.0830     0.7930 C.3   1 <1>   0.1400 
 21 O       -6.9810     5.6790    -0.8200 O.3   1 <1>  -0.3630 
 22 C        3.3840     7.8180    -0.2050 C.3   1 <1>  -0.1600 
 23 C       -7.8580     4.8920    -1.5940 C.3   1 <1>   0.0400 
 24 C        4.3920     8.7230     0.5110 C.3   1 <1>  -0.2400 
 25 H       -1.2240     3.6360    -2.7090 H     1 <1>   0.0800 
 26 H        0.3900     2.9550    -2.7950 H     1 <1>   0.0800 
 27 H       -1.3650     4.7240     1.2160 H     1 <1>   0.0800 
 28 H       -0.5030     2.1110     1.9420 H     1 <1>   0.1000 
 29 H       -1.2800     5.9200    -1.3390 H     1 <1>   0.0800 
 30 H       -2.7780     0.7160     0.3930 H     1 <1>   0.1000 
 31 H       -1.9860     0.0860     1.8690 H     1 <1>   0.1000 
 32 H       -2.7270     2.1150     3.1540 H     1 <1>   0.1000 
 33 H       -3.5600     2.7260     1.6960 H     1 <1>   0.1000 
 34 H       -3.3730     2.9850    -1.3630 H     1 <1>   0.1500 
 35 H       -3.0250     6.4910     1.0700 H     1 <1>   0.1500 
 36 H       -5.6780     3.5160    -1.8070 H     1 <1>   0.1500 
 37 H       -5.3710     7.0120     0.6120 H     1 <1>   0.1500 
 38 H        1.9490     5.5740    -0.6290 H     1 <1>   0.3700 
 39 H        1.9470     7.7930     1.3940 H     1 <1>   0.0800 
 40 H        3.0860     6.4680     1.4450 H     1 <1>   0.0800 
 41 H        3.9180     7.1020    -0.8060 H     1 <1>   0.0800 
 42 H        2.7690     8.4200    -0.8530 H     1 <1>   0.0800 
 43 H       -8.8210     5.3690    -1.5960 H     1 <1>   0.0800 
 44 H       -7.9340     3.9150    -1.1500 H     1 <1>   0.0800 
 45 H       -7.4780     4.8310    -2.5990 H     1 <1>   0.0800 
 46 H        5.0310     8.1430     1.1540 H     1 <1>   0.0800 
 47 H        3.8800     9.4610     1.1040 H     1 <1>   0.0800 
 48 H        5.0070     9.2320    -0.2110 H     1 <1>   0.0800 
@<TRIPOS>BOND
  1   1   2  2   
  2   2   3  am  
  3   2   4  1   
  4   3   5  1   
  5   3   6  1   
  6   4   7  1   
  7   4  25  1   
  8   4  26  1   
  9   5   8  1   
 10   5   9  1   
 11   5  27  1   
 12   6  10  1   
 13   6  11  1   
 14   6  28  1   
 15   7   9  1   
 16   8  12  ar  
 17   8  13  ar  
 18   9  14  1   
 19   9  29  1   
 20  10  11  1   
 21  10  30  1   
 22  10  31  1   
 23  11  32  1   
 24  11  33  1   
 25  12  15  ar  
 26  12  34  1   
 27  13  16  ar  
 28  13  35  1   
 29  14  17  2   
 30  14  18  am  
 31  15  19  ar  
 32  15  36  1   
 33  16  19  ar  
 34  16  37  1   
 35  18  20  1   
 36  18  38  1   
 37  19  21  1   
 38  20  22  1   
 39  20  39  1   
 40  20  40  1   
 41  21  23  1   
 42  22  24  1   
 43  22  41  1   
 44  22  42  1   
 45  23  43  1   
 46  23  44  1   
 47  23  45  1   
 48  24  46  1   
 49  24  47  1   
 50  24  48  1   
@<TRIPOS>SUBSTRUCTURE
  1 ****   5 GROUP 4 **** **** 0

# MOE 2024.06 (io_trps.svl 2023.06)
