@<TRIPOS>MOLECULE
NONAME
49 51 1 0 0 
SMALL
USER_CHARGES


@<TRIPOS>ATOM
  1 O        1.4080    -0.4850     1.5580 O.co2 1 <1>  -0.9000 
  2 C        1.3420     0.3630     0.6530 C.2   1 <1>   0.9060 
  3 O        0.4820     1.2420     0.6550 O.co2 1 <1>  -0.9000 
  4 C        2.3820     0.3210    -0.4840 C.3   1 <1>  -0.1060 
  5 C        3.7180    -0.2080     0.0840 C.3   1 <1>   0.4230 
  6 C        2.6250     1.7470    -1.0580 C.3   1 <1>  -0.1600 
  7 C        1.9050    -0.6040    -1.6290 C.3   1 <1>  -0.1600 
  8 N        3.5590    -1.6250     0.5580 N.4   1 <1>  -0.9590 
  9 C        4.2590     0.7680     1.1540 C.3   1 <1>   0.1400 
 10 C        3.2070     2.7040    -0.0060 C.3   1 <1>   0.1400 
 11 C        1.8490    -2.0730    -1.1790 C.3   1 <1>  -0.1600 
 12 C        3.1610    -2.5400    -0.5420 C.3   1 <1>   0.3430 
 13 C        4.6900    -2.1610     1.3620 C.3   1 <1>   0.2630 
 14 N        4.4670     2.1090     0.5290 N.am  1 <1>  -0.6600 
 15 C        5.7270     2.6070     0.3310 C.2   1 <1>   0.5690 
 16 O        6.7050     1.9270     0.5420 O.2   1 <1>  -0.5700 
 17 C        5.9180     4.0250    -0.1860 C.3   1 <1>  -0.0990 
 18 C        7.3600     4.5410    -0.0610 C.3   1 <1>  -0.0170 
 19 C        7.4510     5.9690    -0.5740 C.ar  1 <1>  -0.1430 
 20 C        7.7760     6.2290    -1.8990 C.ar  1 <1>   0.1600 
 21 C        7.2040     7.0330     0.2690 C.ar  1 <1>  -0.1500 
 22 N        7.8660     7.4350    -2.4370 N.ar  1 <1>  -0.6200 
 23 C        7.2960     8.2970    -0.2730 C.ar  1 <1>  -0.1500 
 24 C        7.6250     8.4400    -1.6100 C.ar  1 <1>   0.1600 
 25 H        4.4390    -0.2100    -0.7150 H     1 <1>   0.0800 
 26 H        1.6930     2.1550    -1.4120 H     1 <1>   0.0800 
 27 H        3.2970     1.7080    -1.8970 H     1 <1>   0.0800 
 28 H        0.9250    -0.2930    -1.9540 H     1 <1>   0.0800 
 29 H        2.5720    -0.5210    -2.4700 H     1 <1>   0.0800 
 30 H        2.7100    -1.5280     1.1790 H     1 <1>   0.4500 
 31 H        5.1890     0.4080     1.5510 H     1 <1>   0.0800 
 32 H        3.5630     0.8640     1.9700 H     1 <1>   0.0800 
 33 H        2.5040     2.8420     0.8000 H     1 <1>   0.0800 
 34 H        3.3810     3.6640    -0.4550 H     1 <1>   0.0800 
 35 H        1.6250    -2.6970    -2.0260 H     1 <1>   0.0800 
 36 H        1.0500    -2.2050    -0.4690 H     1 <1>   0.0800 
 37 H        3.9360    -2.5620    -1.2900 H     1 <1>   0.0800 
 38 H        3.0280    -3.5370    -0.1570 H     1 <1>   0.0800 
 39 H        5.5970    -2.1600     0.7800 H     1 <1>   0.0800 
 40 H        4.4750    -3.1680     1.6770 H     1 <1>   0.0800 
 41 H        4.8390    -1.5570     2.2420 H     1 <1>   0.0800 
 42 H        5.6230     4.0530    -1.2190 H     1 <1>   0.0800 
 43 H        5.2730     4.6800     0.3700 H     1 <1>   0.0800 
 44 H        8.0250     3.9080    -0.6240 H     1 <1>   0.0800 
 45 H        7.6710     4.5030     0.9690 H     1 <1>   0.0800 
 46 H        7.9720     5.3990    -2.5550 H     1 <1>   0.1500 
 47 H        6.9500     6.8890     1.3050 H     1 <1>   0.1500 
 48 H        7.1160     9.1660     0.3330 H     1 <1>   0.1500 
 49 H        7.6930     9.4320    -2.0220 H     1 <1>   0.1500 
@<TRIPOS>BOND
  1   1   2  ar  
  2   2   3  ar  
  3   2   4  1   
  4   4   5  1   
  5   4   6  1   
  6   4   7  1   
  7   5   8  1   
  8   5   9  1   
  9   5  25  1   
 10   6  10  1   
 11   6  26  1   
 12   6  27  1   
 13   7  11  1   
 14   7  28  1   
 15   7  29  1   
 16   8  12  1   
 17   8  13  1   
 18   8  30  1   
 19   9  14  1   
 20   9  31  1   
 21   9  32  1   
 22  10  14  1   
 23  10  33  1   
 24  10  34  1   
 25  11  12  1   
 26  11  35  1   
 27  11  36  1   
 28  12  37  1   
 29  12  38  1   
 30  13  39  1   
 31  13  40  1   
 32  13  41  1   
 33  14  15  am  
 34  15  16  2   
 35  15  17  1   
 36  17  18  1   
 37  17  42  1   
 38  17  43  1   
 39  18  19  1   
 40  18  44  1   
 41  18  45  1   
 42  19  20  ar  
 43  19  21  ar  
 44  20  22  ar  
 45  20  46  1   
 46  21  23  ar  
 47  21  47  1   
 48  22  24  ar  
 49  23  24  ar  
 50  23  48  1   
 51  24  49  1   
@<TRIPOS>SUBSTRUCTURE
  1 ****  14 GROUP 4 **** **** 0

# MOE 2024.06 (io_trps.svl 2023.06)
