@<TRIPOS>MOLECULE
NONAME
56 58 1 0 0 
SMALL
USER_CHARGES


@<TRIPOS>ATOM
  1 O       -1.1370     3.7850     0.2960 O.2   1 <1>  -0.5740 
  2 C       -1.7650     3.1760    -0.5500 C.2   1 <1>   0.5400 
  3 N       -1.6520     3.6360    -1.8370 N.am  1 <1>  -0.6640 
  4 C       -2.6350     2.0700    -0.1880 C.ar  1 <1>   0.0790 
  5 C       -2.8250     3.7420    -2.7360 C.3   1 <1>   0.1340 
  6 C       -0.3810     4.1830    -2.3910 C.3   1 <1>   0.1340 
  7 C       -2.7780     0.9530    -1.0070 C.ar  1 <1>  -0.1560 
  8 C       -3.3640     2.0810     0.9980 C.ar  1 <1>  -0.1560 
  9 C       -3.1840     5.2260    -2.8770 C.3   1 <1>  -0.1660 
 10 C       -0.6530     5.4360    -3.2370 C.3   1 <1>  -0.1660 
 11 C       -3.6170    -0.0930    -0.6690 C.ar  1 <1>  -0.1560 
 12 C       -4.2030     1.0370     1.3380 C.ar  1 <1>  -0.1560 
 13 C       -1.9590     6.1780    -2.8630 C.3   1 <1>  -0.0260 
 14 C       -4.3520    -0.0720     0.5130 C.ar  1 <1>  -0.1500 
 15 C       -1.8660     6.9940    -1.5660 C.2   1 <1>   0.8500 
 16 C       -5.3050    -1.2120     0.9350 C.3   1 <1>   0.1370 
 17 O       -2.2920     8.1200    -1.5790 O.2   1 <1>  -0.5740 
 18 N       -1.3170     6.4850    -0.4290 N.pl3 1 <1>  -0.7330 
 19 C       -4.8370    -1.8030     2.2740 C.3   1 <1>  -0.2460 
 20 C       -6.7300    -0.6610     1.0920 C.3   1 <1>  -0.2460 
 21 C       -5.3630    -2.3630    -0.0840 C.3   1 <1>  -0.2460 
 22 C       -1.1210     7.1330     0.7240 C.cat 1 <1>   1.0690 
 23 N       -1.6720     8.2900     1.0430 N.pl3 1 <1>  -0.7030 
 24 N       -0.3370     6.7330     1.7290 N.pl3 1 <1>  -0.7670 
 25 C       -1.2590     8.6540     2.3000 C.2   1 <1>   0.1940 
 26 C       -0.4310     7.6860     2.7300 C.2   1 <1>   0.1940 
 27 C        0.5480     5.5420     1.8320 C.3   1 <1>   0.2680 
 28 H       -3.6680     3.1950    -2.3480 H     1 <1>   0.0730 
 29 H       -2.5680     3.3270    -3.6960 H     1 <1>   0.0730 
 30 H        0.0890     3.4300    -3.0020 H     1 <1>   0.0730 
 31 H        0.2990     4.4190    -1.5910 H     1 <1>   0.0730 
 32 H       -2.2190     0.8990    -1.9250 H     1 <1>   0.1440 
 33 H       -3.2710     2.9200     1.6640 H     1 <1>   0.1440 
 34 H       -3.8710     5.4950    -2.0930 H     1 <1>   0.0730 
 35 H       -3.7180     5.3450    -3.8050 H     1 <1>   0.0730 
 36 H       -0.7280     5.1250    -4.2660 H     1 <1>   0.0730 
 37 H        0.1910     6.1010    -3.1810 H     1 <1>   0.0730 
 38 H       -3.6790    -0.9220    -1.3490 H     1 <1>   0.1440 
 39 H       -4.7460     1.0960     2.2640 H     1 <1>   0.1440 
 40 H       -2.1270     6.9030    -3.6410 H     1 <1>   0.0730 
 41 H       -1.1490     5.4710    -0.4050 H     1 <1>   0.4450 
 42 H       -4.8630    -1.0650     3.0540 H     1 <1>   0.0730 
 43 H       -3.8280    -2.1640     2.1830 H     1 <1>   0.0730 
 44 H       -5.4690    -2.6220     2.5680 H     1 <1>   0.0730 
 45 H       -6.7750     0.0860     1.8620 H     1 <1>   0.0730 
 46 H       -7.4150    -1.4490     1.3510 H     1 <1>   0.0730 
 47 H       -7.0550    -0.2150     0.1690 H     1 <1>   0.0730 
 48 H       -4.3910    -2.8070    -0.2080 H     1 <1>   0.0730 
 49 H       -5.7110    -2.0060    -1.0370 H     1 <1>   0.0730 
 50 H       -6.0380    -3.1300     0.2510 H     1 <1>   0.0730 
 51 H       -2.2690     8.7930     0.3750 H     1 <1>   0.4450 
 52 H       -1.5760     9.5620     2.7910 H     1 <1>   0.1440 
 53 H        0.0970     7.6110     3.6690 H     1 <1>   0.1440 
 54 H        0.8530     5.2100     0.8540 H     1 <1>   0.0730 
 55 H        0.0310     4.7420     2.3340 H     1 <1>   0.0730 
 56 H        1.4330     5.7870     2.3950 H     1 <1>   0.0730 
@<TRIPOS>BOND
  1   1   2  2   
  2   2   3  am  
  3   2   4  1   
  4   3   5  1   
  5   3   6  1   
  6   4   7  ar  
  7   4   8  ar  
  8   5   9  1   
  9   5  28  1   
 10   5  29  1   
 11   6  10  1   
 12   6  30  1   
 13   6  31  1   
 14   7  11  ar  
 15   7  32  1   
 16   8  12  ar  
 17   8  33  1   
 18   9  13  1   
 19   9  34  1   
 20   9  35  1   
 21  10  13  1   
 22  10  36  1   
 23  10  37  1   
 24  11  14  ar  
 25  11  38  1   
 26  12  14  ar  
 27  12  39  1   
 28  13  15  1   
 29  13  40  1   
 30  14  16  1   
 31  15  17  2   
 32  15  18  1   
 33  16  19  1   
 34  16  20  1   
 35  16  21  1   
 36  18  22  ar  
 37  18  41  1   
 38  19  42  1   
 39  19  43  1   
 40  19  44  1   
 41  20  45  1   
 42  20  46  1   
 43  20  47  1   
 44  21  48  1   
 45  21  49  1   
 46  21  50  1   
 47  22  23  ar  
 48  22  24  ar  
 49  23  25  1   
 50  23  51  1   
 51  24  26  1   
 52  24  27  1   
 53  25  26  2   
 54  25  52  1   
 55  26  53  1   
 56  27  54  1   
 57  27  55  1   
 58  27  56  1   
@<TRIPOS>SUBSTRUCTURE
  1 ****   2 GROUP 4 **** **** 0

# MOE 2024.06 (io_trps.svl 2023.06)
