@<TRIPOS>MOLECULE
NONAME
53 54 1 0 0 
SMALL
USER_CHARGES


@<TRIPOS>ATOM
  1 O       -2.2570     0.4950     2.3560 O.2   1 <1>  -0.5700 
  2 C       -2.1530     0.7470     1.1780 C.2   1 <1>   0.5690 
  3 N       -2.5430    -0.1760     0.2300 N.am  1 <1>  -0.6600 
  4 C       -1.5940     2.1360     0.8370 C.3   1 <1>  -0.0190 
  5 C       -3.0520    -1.5110     0.6690 C.3   1 <1>   0.1400 
  6 C       -2.5490     0.0000    -1.2530 C.3   1 <1>   0.0600 
  7 C       -2.6430     3.0720     0.1970 C.3   1 <1>  -0.1600 
  8 C       -0.2480     2.0930     0.0710 C.3   1 <1>  -0.1600 
  9 C       -4.5410    -1.4250     1.0130 C.3   1 <1>   0.1200 
 10 C       -2.1190     4.5130     0.0240 C.3   1 <1>   0.2000 
 11 C       -0.0160     3.3240    -0.8250 C.3   1 <1>  -0.1600 
 12 O       -5.0580    -2.7190     1.2580 O.3   1 <1>  -0.3620 
 13 O       -2.7560     5.0670    -1.1020 O.3   1 <1>  -0.5600 
 14 C       -0.5800     4.5860    -0.1690 C.3   1 <1>   0.2000 
 15 C       -5.5360    -3.3980     0.1920 C.ar  1 <1>   0.0820 
 16 C       -4.0270     5.5890    -0.8650 C.3   1 <1>   0.0400 
 17 O       -0.2730     5.6590    -0.9800 O.3   1 <1>  -0.6800 
 18 C       -6.8450    -3.2170    -0.2530 C.ar  1 <1>  -0.1440 
 19 C       -4.6970    -4.3020    -0.4440 C.ar  1 <1>  -0.1500 
 20 C       -7.2780    -3.9280    -1.3620 C.ar  1 <1>  -0.1500 
 21 C       -7.8230    -2.2840     0.4550 C.3   1 <1>  -0.0170 
 22 C       -5.1420    -5.0050    -1.5480 C.ar  1 <1>  -0.1500 
 23 C       -6.4320    -4.8130    -2.0100 C.ar  1 <1>  -0.1500 
 24 C       -8.4970    -3.0060     1.6240 C.3   1 <1>  -0.2400 
 25 H       -1.3660     2.5880     1.7890 H     1 <1>   0.0800 
 26 H       -2.8980    -2.2270    -0.1170 H     1 <1>   0.0800 
 27 H       -2.5080    -1.8390     1.5390 H     1 <1>   0.0800 
 28 H       -2.0180    -0.8140    -1.7150 H     1 <1>   0.0800 
 29 H       -2.0770     0.9150    -1.5530 H     1 <1>   0.0800 
 30 H       -3.5630     0.0030    -1.6120 H     1 <1>   0.0800 
 31 H       -3.5190     3.0900     0.8200 H     1 <1>   0.0800 
 32 H       -2.9300     2.6920    -0.7640 H     1 <1>   0.0800 
 33 H        0.5450     2.0370     0.7980 H     1 <1>   0.0800 
 34 H       -0.1670     1.2060    -0.5310 H     1 <1>   0.0800 
 35 H       -5.0930    -0.9790     0.2050 H     1 <1>   0.0800 
 36 H       -4.6770    -0.8460     1.9090 H     1 <1>   0.0800 
 37 H       -2.3660     5.1030     0.8900 H     1 <1>   0.0800 
 38 H       -0.5090     3.1750    -1.7700 H     1 <1>   0.0800 
 39 H        1.0380     3.4440    -1.0050 H     1 <1>   0.0800 
 40 H       -0.0930     4.7400     0.7790 H     1 <1>   0.0800 
 41 H       -4.4050     5.9820    -1.7930 H     1 <1>   0.0800 
 42 H       -3.9560     6.3810    -0.1400 H     1 <1>   0.0800 
 43 H       -4.6780     4.8080    -0.5130 H     1 <1>   0.0800 
 44 H       -1.0670     5.8010    -1.5450 H     1 <1>   0.4000 
 45 H       -3.7030    -4.4550    -0.0680 H     1 <1>   0.1500 
 46 H       -8.2830    -3.8030    -1.7240 H     1 <1>   0.1500 
 47 H       -7.3150    -1.4120     0.8210 H     1 <1>   0.0800 
 48 H       -8.5740    -1.9500    -0.2380 H     1 <1>   0.0800 
 49 H       -4.4890    -5.7020    -2.0440 H     1 <1>   0.1500 
 50 H       -6.7820    -5.3580    -2.8700 H     1 <1>   0.1500 
 51 H       -7.7550    -3.3230     2.3350 H     1 <1>   0.0800 
 52 H       -9.0260    -3.8720     1.2700 H     1 <1>   0.0800 
 53 H       -9.1910    -2.3490     2.1160 H     1 <1>   0.0800 
@<TRIPOS>BOND
  1   1   2  2   
  2   2   3  am  
  3   2   4  1   
  4   3   5  1   
  5   3   6  1   
  6   4   7  1   
  7   4   8  1   
  8   4  25  1   
  9   5   9  1   
 10   5  26  1   
 11   5  27  1   
 12   6  28  1   
 13   6  29  1   
 14   6  30  1   
 15   7  10  1   
 16   7  31  1   
 17   7  32  1   
 18   8  11  1   
 19   8  33  1   
 20   8  34  1   
 21   9  12  1   
 22   9  35  1   
 23   9  36  1   
 24  10  13  1   
 25  10  14  1   
 26  10  37  1   
 27  11  14  1   
 28  11  38  1   
 29  11  39  1   
 30  12  15  1   
 31  13  16  1   
 32  14  17  1   
 33  14  40  1   
 34  15  18  ar  
 35  15  19  ar  
 36  16  41  1   
 37  16  42  1   
 38  16  43  1   
 39  17  44  1   
 40  18  20  ar  
 41  18  21  1   
 42  19  22  ar  
 43  19  45  1   
 44  20  23  ar  
 45  20  46  1   
 46  21  24  1   
 47  21  47  1   
 48  21  48  1   
 49  22  23  ar  
 50  22  49  1   
 51  23  50  1   
 52  24  51  1   
 53  24  52  1   
 54  24  53  1   
@<TRIPOS>SUBSTRUCTURE
  1 ****   3 GROUP 4 **** **** 0

# MOE 2024.06 (io_trps.svl 2023.06)
