@<TRIPOS>MOLECULE
NONAME
61 64 1 0 0 
SMALL
USER_CHARGES


@<TRIPOS>ATOM
  1 O       -0.4600     0.4250    -1.3490 O.2   1 <1>  -0.5700 
  2 C       -1.2120     1.1210    -0.6940 C.2   1 <1>   0.5440 
  3 N       -2.2120     0.5100     0.0290 N.am  1 <1>  -0.6600 
  4 C       -1.0500     2.5610    -0.7080 C.ar  1 <1>   0.0860 
  5 C       -3.4750     1.1700     0.4490 C.3   1 <1>   0.1400 
  6 C       -2.3640    -0.9670     0.0640 C.3   1 <1>   0.1400 
  7 C       -1.0870     3.3210     0.4620 C.ar  1 <1>  -0.1500 
  8 C       -0.8400     3.2400    -1.9090 C.ar  1 <1>  -0.1500 
  9 C       -4.5120     0.0490     0.4660 C.3   1 <1>   0.2000 
 10 C       -3.7150    -1.2240     0.7330 C.3   1 <1>  -0.0800 
 11 C       -0.9360     4.6940     0.4320 C.ar  1 <1>  -0.1500 
 12 C       -0.6870     4.6130    -1.9490 C.ar  1 <1>  -0.1500 
 13 O       -5.4600     0.2420     1.4570 O.3   1 <1>  -0.6800 
 14 C       -4.4150    -2.4960     0.2340 C.3   1 <1>   0.0210 
 15 C       -0.7330     5.3500    -0.7700 C.ar  1 <1>   0.0830 
 16 C       -3.5390    -3.7140     0.4470 C.2   1 <1>   0.1080 
 17 O       -0.5790     6.6890    -0.7150 O.3   1 <1>  -0.3630 
 18 N       -3.1930    -4.1330     1.6240 N.2   1 <1>  -0.7070 
 19 C       -3.0050    -4.4990    -0.5700 C.2   1 <1>  -0.1500 
 20 C       -0.1770     7.4400    -1.8520 C.3   1 <1>   0.1810 
 21 N       -2.4220    -5.2110     1.3870 N.pl3 1 <1>   0.3000 
 22 C       -2.2910    -5.4520     0.0660 C.2   1 <1>  -0.3320 
 23 C        0.1210     8.8890    -1.4810 C.2   1 <1>   0.5690 
 24 C       -1.4800    -6.5940    -0.5170 C.3   1 <1>  -0.0600 
 25 O       -0.5430     9.7380    -2.0310 O.2   1 <1>  -0.5700 
 26 N        1.1160     9.2160    -0.5870 N.am  1 <1>  -0.6600 
 27 C        1.3150    10.6200    -0.1320 C.3   1 <1>   0.1400 
 28 C        1.9920     8.2350     0.1130 C.3   1 <1>   0.1400 
 29 C        1.0380    10.7110     1.3730 C.3   1 <1>  -0.1600 
 30 C        1.7090     8.2870     1.6170 C.3   1 <1>  -0.1600 
 31 C        1.8850     9.7090     2.1720 C.3   1 <1>  -0.1600 
 32 H       -3.3470     1.5800     1.4350 H     1 <1>   0.0800 
 33 H       -3.7560     1.9430    -0.2460 H     1 <1>   0.0800 
 34 H       -2.3540    -1.3450    -0.9450 H     1 <1>   0.0800 
 35 H       -1.5590    -1.4200     0.6170 H     1 <1>   0.0800 
 36 H       -1.2290     2.8210     1.4050 H     1 <1>   0.1500 
 37 H       -0.7960     2.6680    -2.8200 H     1 <1>   0.1500 
 38 H       -5.0160     0.0070    -0.4850 H     1 <1>   0.0800 
 39 H       -3.5280    -1.3190     1.7890 H     1 <1>   0.0800 
 40 H       -0.9700     5.2680     1.3410 H     1 <1>   0.1500 
 41 H       -0.5350     5.0860    -2.9010 H     1 <1>   0.1500 
 42 H       -5.0600     0.1040     2.3380 H     1 <1>   0.4000 
 43 H       -4.6510    -2.4040    -0.8110 H     1 <1>   0.0800 
 44 H       -5.3350    -2.6350     0.7740 H     1 <1>   0.0800 
 45 H       -3.1440    -4.3540    -1.6260 H     1 <1>   0.1500 
 46 H        0.7050     6.9910    -2.2680 H     1 <1>   0.0800 
 47 H       -0.9760     7.4110    -2.5700 H     1 <1>   0.0800 
 48 H       -2.0010    -5.7590     2.1470 H     1 <1>   0.2700 
 49 H       -1.5310    -6.5720    -1.5920 H     1 <1>   0.0800 
 50 H       -1.8650    -7.5380    -0.1750 H     1 <1>   0.0800 
 51 H       -0.4490    -6.5060    -0.2220 H     1 <1>   0.0800 
 52 H        2.3290    10.9160    -0.3390 H     1 <1>   0.0800 
 53 H        0.6590    11.2900    -0.6610 H     1 <1>   0.0800 
 54 H        1.8360     7.2350    -0.2490 H     1 <1>   0.0800 
 55 H        3.0210     8.4940    -0.0710 H     1 <1>   0.0800 
 56 H        1.2420    11.7110     1.7120 H     1 <1>   0.0800 
 57 H       -0.0080    10.5160     1.5400 H     1 <1>   0.0800 
 58 H        0.7010     7.9500     1.7910 H     1 <1>   0.0800 
 59 H        2.3730     7.6140     2.1290 H     1 <1>   0.0800 
 60 H        1.5960     9.7340     3.2080 H     1 <1>   0.0800 
 61 H        2.9220     9.9900     2.1080 H     1 <1>   0.0800 
@<TRIPOS>BOND
  1   1   2  2   
  2   2   3  am  
  3   2   4  1   
  4   3   5  1   
  5   3   6  1   
  6   4   7  ar  
  7   4   8  ar  
  8   5   9  1   
  9   5  32  1   
 10   5  33  1   
 11   6  10  1   
 12   6  34  1   
 13   6  35  1   
 14   7  11  ar  
 15   7  36  1   
 16   8  12  ar  
 17   8  37  1   
 18   9  10  1   
 19   9  13  1   
 20   9  38  1   
 21  10  14  1   
 22  10  39  1   
 23  11  15  ar  
 24  11  40  1   
 25  12  15  ar  
 26  12  41  1   
 27  13  42  1   
 28  14  16  1   
 29  14  43  1   
 30  14  44  1   
 31  15  17  1   
 32  16  18  2   
 33  16  19  1   
 34  17  20  1   
 35  18  21  1   
 36  19  22  2   
 37  19  45  1   
 38  20  23  1   
 39  20  46  1   
 40  20  47  1   
 41  21  22  1   
 42  21  48  1   
 43  22  24  1   
 44  23  25  2   
 45  23  26  am  
 46  24  49  1   
 47  24  50  1   
 48  24  51  1   
 49  26  27  1   
 50  26  28  1   
 51  27  29  1   
 52  27  52  1   
 53  27  53  1   
 54  28  30  1   
 55  28  54  1   
 56  28  55  1   
 57  29  31  1   
 58  29  56  1   
 59  29  57  1   
 60  30  31  1   
 61  30  58  1   
 62  30  59  1   
 63  31  60  1   
 64  31  61  1   
@<TRIPOS>SUBSTRUCTURE
  1 ****   4 GROUP 4 **** **** 0

# MOE 2024.06 (io_trps.svl 2023.06)
