@<TRIPOS>MOLECULE
NONAME
53 55 1 0 0 
SMALL
USER_CHARGES


@<TRIPOS>ATOM
  1 O        0.1620    -0.9300    -1.1050 O.2   1 <1>  -0.5700 
  2 C        1.2480    -1.2760    -0.6950 C.2   1 <1>   0.9370 
  3 N        2.4000    -0.6590    -1.2030 N.pl3 1 <1>  -0.5760 
  4 C        1.3850    -2.2600     0.3090 C.2   1 <1>  -0.1360 
  5 C        3.6130    -0.9870    -0.6910 C.cat 1 <1>   0.7390 
  6 C        2.3190     0.2770    -2.2080 C.2   1 <1>   0.1910 
  7 C        2.5970    -2.5820     0.8010 C.2   1 <1>   0.2030 
  8 N        3.6940    -1.9140     0.2940 N.pl3 1 <1>  -0.6450 
  9 C        4.7660    -0.3630    -1.1880 C.2   1 <1>  -0.1800 
 10 C        3.4340     0.8960    -2.7080 C.2   1 <1>  -0.1380 
 11 C        2.8090    -3.6560     1.8770 C.3   1 <1>   0.2480 
 12 C        4.6910     0.5710    -2.1870 C.2   1 <1>  -0.1500 
 13 C        3.3490     1.9310    -3.8180 C.3   1 <1>  -0.1020 
 14 N        1.8260    -4.7350     1.7110 N.3   1 <1>  -0.8100 
 15 C        2.1360    -5.6030     0.5520 C.3   1 <1>   0.1100 
 16 C        1.6180    -5.5340     2.9240 C.3   1 <1>   0.1100 
 17 C        0.9160    -6.4750     0.1840 C.3   1 <1>   0.0000 
 18 C        0.3990    -6.4380     2.7200 C.3   1 <1>  -0.1600 
 19 C        0.5520    -7.2930     1.4560 C.3   1 <1>   0.2000 
 20 C       -0.2580    -5.5430    -0.2240 C.3   1 <1>   0.1200 
 21 C        1.2530    -7.4060    -1.0190 C.3   1 <1>  -0.1600 
 22 O       -0.6200    -8.0080     1.2750 O.3   1 <1>  -0.6800 
 23 O        0.0850    -4.7240    -1.3010 O.3   1 <1>  -0.6800 
 24 C        2.3550    -8.4580    -0.7920 C.3   1 <1>  -0.1600 
 25 C        2.6350    -9.2360    -2.0810 C.3   1 <1>  -0.2400 
 26 H        0.4780    -2.7290     0.6400 H     1 <1>   0.1500 
 27 H        1.3430     0.5220    -2.6050 H     1 <1>   0.1500 
 28 H        4.6270    -2.1380     0.6510 H     1 <1>   0.4500 
 29 H        5.7210    -0.6270    -0.7760 H     1 <1>   0.1500 
 30 H        2.6870    -3.1970     2.8430 H     1 <1>   0.0800 
 31 H        3.8020    -4.0660     1.8190 H     1 <1>   0.0800 
 32 H        5.5740     1.0550    -2.5750 H     1 <1>   0.1500 
 33 H        3.7460     2.8720    -3.4780 H     1 <1>   0.0800 
 34 H        2.3300     2.0870    -4.1280 H     1 <1>   0.0800 
 35 H        3.9170     1.6060    -4.6720 H     1 <1>   0.0800 
 36 H        2.4050    -5.0060    -0.3020 H     1 <1>   0.0800 
 37 H        2.9800    -6.2260     0.7940 H     1 <1>   0.0800 
 38 H        2.4930    -6.1290     3.1330 H     1 <1>   0.0800 
 39 H        1.4360    -4.8860     3.7660 H     1 <1>   0.0800 
 40 H       -0.4790    -5.8220     2.6620 H     1 <1>   0.0800 
 41 H        0.2990    -7.0840     3.5740 H     1 <1>   0.0800 
 42 H        1.3280    -8.0130     1.6470 H     1 <1>   0.0800 
 43 H       -0.5340    -4.8970     0.5900 H     1 <1>   0.0800 
 44 H       -1.1220    -6.1180    -0.5100 H     1 <1>   0.0800 
 45 H        0.3550    -7.9280    -1.3050 H     1 <1>   0.0800 
 46 H        1.5470    -6.8000    -1.8570 H     1 <1>   0.0800 
 47 H       -1.3930    -7.4160     1.3300 H     1 <1>   0.4000 
 48 H        0.0780    -5.2480    -2.1280 H     1 <1>   0.4000 
 49 H        3.2690    -7.9930    -0.4700 H     1 <1>   0.0800 
 50 H        2.0470    -9.1620    -0.0370 H     1 <1>   0.0800 
 51 H        2.9730    -8.5740    -2.8590 H     1 <1>   0.0800 
 52 H        1.7450    -9.7400    -2.4160 H     1 <1>   0.0800 
 53 H        3.3970    -9.9740    -1.9070 H     1 <1>   0.0800 
@<TRIPOS>BOND
  1   1   2  2   
  2   2   3  1   
  3   2   4  1   
  4   3   5  ar  
  5   3   6  1   
  6   4   7  2   
  7   4  26  1   
  8   5   8  ar  
  9   5   9  1   
 10   6  10  2   
 11   6  27  1   
 12   7   8  1   
 13   7  11  1   
 14   8  28  1   
 15   9  12  2   
 16   9  29  1   
 17  10  12  1   
 18  10  13  1   
 19  11  14  1   
 20  11  30  1   
 21  11  31  1   
 22  12  32  1   
 23  13  33  1   
 24  13  34  1   
 25  13  35  1   
 26  14  15  1   
 27  14  16  1   
 28  15  17  1   
 29  15  36  1   
 30  15  37  1   
 31  16  18  1   
 32  16  38  1   
 33  16  39  1   
 34  17  19  1   
 35  17  20  1   
 36  17  21  1   
 37  18  19  1   
 38  18  40  1   
 39  18  41  1   
 40  19  22  1   
 41  19  42  1   
 42  20  23  1   
 43  20  43  1   
 44  20  44  1   
 45  21  24  1   
 46  21  45  1   
 47  21  46  1   
 48  22  47  1   
 49  23  48  1   
 50  24  25  1   
 51  24  49  1   
 52  24  50  1   
 53  25  51  1   
 54  25  52  1   
 55  25  53  1   
@<TRIPOS>SUBSTRUCTURE
  1 ****   4 GROUP 4 **** **** 0

# MOE 2024.06 (io_trps.svl 2023.06)
