@<TRIPOS>MOLECULE
NONAME
48 52 1 0 0 
SMALL
USER_CHARGES


@<TRIPOS>ATOM
  1 O        0.7110     0.1820     1.4260 O.3   1 <1>  -0.6800 
  2 C        1.5070    -0.0710     0.3170 C.3   1 <1>   0.2000 
  3 C        2.3830    -1.3010     0.5490 C.3   1 <1>  -0.0800 
  4 C        2.4910     1.0720     0.0750 C.3   1 <1>   0.2090 
  5 C        3.5950    -1.0560    -0.3560 C.3   1 <1>   0.2090 
  6 C        1.6520    -2.6250     0.2510 C.3   1 <1>  -0.0170 
  7 N        3.7040     0.4210    -0.4840 N.pl3 1 <1>  -0.8380 
  8 C        2.4550    -3.9120     0.4790 C.ar  1 <1>  -0.1440 
  9 C        4.9080     1.0630    -0.7010 C.ar  1 <1>   0.4100 
 10 C        1.9910    -5.1440    -0.0490 C.ar  1 <1>   0.0000 
 11 C        3.6200    -3.9480     1.1950 C.ar  1 <1>  -0.1500 
 12 N        5.9550     0.3130    -0.9850 N.ar  1 <1>  -0.6200 
 13 C        5.0320     2.4390    -0.6370 C.ar  1 <1>  -0.1500 
 14 C        2.7790    -6.3010     0.1710 C.ar  1 <1>   0.3100 
 15 C        0.7850    -5.3010    -0.7740 C.ar  1 <1>  -0.1500 
 16 C        4.3190    -5.1490     1.3590 C.ar  1 <1>   0.1600 
 17 C        7.0870     0.9550    -1.1930 C.ar  1 <1>   0.4700 
 18 C        6.2620     2.9930    -0.8660 C.ar  1 <1>   0.2780 
 19 N        3.9390    -6.2860     0.8730 N.ar  1 <1>  -0.6200 
 20 C        2.3490    -7.5310    -0.3520 C.ar  1 <1>  -0.1500 
 21 C        0.3930    -6.5150    -1.2680 C.ar  1 <1>  -0.1500 
 22 N        7.3150     2.2550    -1.1510 N.ar  1 <1>  -0.6200 
 23 C        6.4690     4.4990    -0.8090 C.3   1 <1>  -0.0680 
 24 C        1.1830    -7.6470    -1.0590 C.ar  1 <1>  -0.1500 
 25 C        7.2450     5.1050     0.3200 C.3   1 <1>  -0.2000 
 26 C        5.7740     5.3650     0.2000 C.3   1 <1>  -0.2000 
 27 H        0.1100    -0.5670     1.6010 H     1 <1>   0.4000 
 28 H        0.8750    -0.1900    -0.5470 H     1 <1>   0.0800 
 29 H        2.7230    -1.2810     1.5690 H     1 <1>   0.0800 
 30 H        2.7410     1.5530     1.0050 H     1 <1>   0.0800 
 31 H        2.0880     1.7840    -0.6240 H     1 <1>   0.0800 
 32 H        3.4400    -1.4760    -1.3360 H     1 <1>   0.0800 
 33 H        4.4900    -1.4760     0.0680 H     1 <1>   0.0800 
 34 H        1.3430    -2.5920    -0.7790 H     1 <1>   0.0800 
 35 H        0.7650    -2.6790     0.8570 H     1 <1>   0.0800 
 36 H        4.0470    -3.0800     1.6590 H     1 <1>   0.1500 
 37 H        4.1870     3.0560    -0.4200 H     1 <1>   0.1500 
 38 H        0.1520    -4.4520    -0.9450 H     1 <1>   0.1500 
 39 H        5.2340    -5.1240     1.9250 H     1 <1>   0.1500 
 40 H        7.9390     0.3390    -1.4270 H     1 <1>   0.1500 
 41 H        2.9730    -8.3880    -0.1750 H     1 <1>   0.1500 
 42 H       -0.5260    -6.6170    -1.8200 H     1 <1>   0.1500 
 43 H        6.6440     4.9090    -1.7880 H     1 <1>   0.1000 
 44 H        0.8660    -8.5970    -1.4530 H     1 <1>   0.1500 
 45 H        7.6020     4.4500     1.0960 H     1 <1>   0.1000 
 46 H        7.9410     5.8940     0.0940 H     1 <1>   0.1000 
 47 H        5.4460     6.3450    -0.1010 H     1 <1>   0.1000 
 48 H        5.1280     4.9220     0.9370 H     1 <1>   0.1000 
@<TRIPOS>BOND
  1   1   2  1   
  2   1  27  1   
  3   2   3  1   
  4   2   4  1   
  5   2  28  1   
  6   3   5  1   
  7   3   6  1   
  8   3  29  1   
  9   4   7  1   
 10   4  30  1   
 11   4  31  1   
 12   5   7  1   
 13   5  32  1   
 14   5  33  1   
 15   6   8  1   
 16   6  34  1   
 17   6  35  1   
 18   7   9  1   
 19   8  10  ar  
 20   8  11  ar  
 21   9  12  ar  
 22   9  13  ar  
 23  10  14  ar  
 24  10  15  ar  
 25  11  16  ar  
 26  11  36  1   
 27  12  17  ar  
 28  13  18  ar  
 29  13  37  1   
 30  14  19  ar  
 31  14  20  ar  
 32  15  21  ar  
 33  15  38  1   
 34  16  19  ar  
 35  16  39  1   
 36  17  22  ar  
 37  17  40  1   
 38  18  22  ar  
 39  18  23  1   
 40  20  24  ar  
 41  20  41  1   
 42  21  24  ar  
 43  21  42  1   
 44  23  25  1   
 45  23  26  1   
 46  23  43  1   
 47  24  44  1   
 48  25  26  1   
 49  25  45  1   
 50  25  46  1   
 51  26  47  1   
 52  26  48  1   
@<TRIPOS>SUBSTRUCTURE
  1 ****   5 GROUP 4 **** **** 0

# MOE 2024.06 (io_trps.svl 2023.06)
