@<TRIPOS>MOLECULE
NONAME
56 58 1 0 0 
SMALL
USER_CHARGES


@<TRIPOS>ATOM
  1 O        0.3330     0.5730    -1.1600 O.co2 1 <1>  -0.9000 
  2 C       -0.4730     0.8500    -0.2630 C.2   1 <1>   0.9060 
  3 O       -1.0190    -0.0470     0.3980 O.co2 1 <1>  -0.9000 
  4 C       -0.8010     2.3130     0.0690 C.3   1 <1>  -0.1060 
  5 C       -2.3390     2.4420     0.1890 C.3   1 <1>   0.2000 
  6 C       -0.3580     3.2210    -1.1150 C.3   1 <1>   0.1100 
  7 C       -0.1230     2.6680     1.4330 C.3   1 <1>  -0.0170 
  8 O       -2.8060     1.6630     1.2320 O.3   1 <1>  -0.6800 
  9 C       -2.8320     3.8850     0.4110 C.3   1 <1>  -0.1600 
 10 N       -1.2330     4.3980    -1.3470 N.3   1 <1>  -0.8100 
 11 C        1.3380     3.1270     1.4380 C.ar  1 <1>  -0.1440 
 12 C       -1.8700     4.9380    -0.1520 C.3   1 <1>   0.1100 
 13 C       -0.6710     5.4180    -2.2720 C.3   1 <1>   0.1710 
 14 C        2.3350     2.4110     0.7900 C.ar  1 <1>  -0.1500 
 15 C        1.6900     4.2640     2.1520 C.ar  1 <1>  -0.1500 
 16 C        0.2810     6.4680    -1.6820 C.2   1 <1>   0.5690 
 17 C        3.6530     2.8300     0.8440 C.ar  1 <1>  -0.1500 
 18 C        3.0090     4.6760     2.2220 C.ar  1 <1>  -0.1500 
 19 O        0.0850     7.6290    -1.9580 O.2   1 <1>  -0.5700 
 20 N        1.3180     6.0690    -0.8950 N.am  1 <1>  -0.7300 
 21 C        3.9930     3.9620     1.5630 C.ar  1 <1>  -0.1500 
 22 C        2.4130     6.8810    -0.3330 C.3   1 <1>   0.2200 
 23 C        1.8790     7.8420     0.7350 C.3   1 <1>  -0.1600 
 24 C        3.1880     7.6250    -1.4280 C.3   1 <1>  -0.1600 
 25 C        3.0180     8.6740     1.3440 C.3   1 <1>  -0.1600 
 26 C        4.3310     8.4510    -0.8190 C.3   1 <1>  -0.1600 
 27 C        3.8050     9.4160     0.2530 C.3   1 <1>  -0.1600 
 28 H       -2.7780     2.0580    -0.7170 H     1 <1>   0.0800 
 29 H       -0.3920     2.6450    -2.0240 H     1 <1>   0.0800 
 30 H        0.6640     3.5180    -0.9890 H     1 <1>   0.0800 
 31 H       -0.7000     3.4240     1.9270 H     1 <1>   0.0800 
 32 H       -0.1870     1.8060     2.0750 H     1 <1>   0.0800 
 33 H       -2.3200     0.7900     1.1390 H     1 <1>   0.4000 
 34 H       -3.7840     3.9910    -0.0750 H     1 <1>   0.0800 
 35 H       -2.9740     4.0790     1.4590 H     1 <1>   0.0800 
 36 H       -1.1140     5.1930     0.5710 H     1 <1>   0.0800 
 37 H       -2.4210     5.8320    -0.3950 H     1 <1>   0.0800 
 38 H       -0.1610     4.9170    -3.0740 H     1 <1>   0.0800 
 39 H       -1.4960     5.9490    -2.7120 H     1 <1>   0.0800 
 40 H        2.0950     1.5150     0.2430 H     1 <1>   0.1500 
 41 H        0.9350     4.8300     2.6690 H     1 <1>   0.1500 
 42 H        4.4080     2.2630     0.3290 H     1 <1>   0.1500 
 43 H        3.2680     5.5520     2.7890 H     1 <1>   0.1500 
 44 H        1.3200     5.0930    -0.5820 H     1 <1>   0.3700 
 45 H        5.0190     4.2810     1.6100 H     1 <1>   0.1500 
 46 H        3.1050     6.2060     0.1370 H     1 <1>   0.0800 
 47 H        1.1600     8.5070     0.2890 H     1 <1>   0.0800 
 48 H        1.3880     7.2810     1.5100 H     1 <1>   0.0800 
 49 H        3.5890     6.9150    -2.1290 H     1 <1>   0.0800 
 50 H        2.5280     8.2910    -1.9560 H     1 <1>   0.0800 
 51 H        2.6100     9.3860     2.0400 H     1 <1>   0.0800 
 52 H        3.6850     8.0260     1.8850 H     1 <1>   0.0800 
 53 H        5.0570     7.7880    -0.3790 H     1 <1>   0.0800 
 54 H        4.8230     9.0100    -1.5970 H     1 <1>   0.0800 
 55 H        4.6290     9.9450     0.6990 H     1 <1>   0.0800 
 56 H        3.1610    10.1430    -0.2130 H     1 <1>   0.0800 
@<TRIPOS>BOND
  1   1   2  ar  
  2   2   3  ar  
  3   2   4  1   
  4   4   5  1   
  5   4   6  1   
  6   4   7  1   
  7   5   8  1   
  8   5   9  1   
  9   5  28  1   
 10   6  10  1   
 11   6  29  1   
 12   6  30  1   
 13   7  11  1   
 14   7  31  1   
 15   7  32  1   
 16   8  33  1   
 17   9  12  1   
 18   9  34  1   
 19   9  35  1   
 20  10  12  1   
 21  10  13  1   
 22  11  14  ar  
 23  11  15  ar  
 24  12  36  1   
 25  12  37  1   
 26  13  16  1   
 27  13  38  1   
 28  13  39  1   
 29  14  17  ar  
 30  14  40  1   
 31  15  18  ar  
 32  15  41  1   
 33  16  19  2   
 34  16  20  am  
 35  17  21  ar  
 36  17  42  1   
 37  18  21  ar  
 38  18  43  1   
 39  20  22  1   
 40  20  44  1   
 41  21  45  1   
 42  22  23  1   
 43  22  24  1   
 44  22  46  1   
 45  23  25  1   
 46  23  47  1   
 47  23  48  1   
 48  24  26  1   
 49  24  49  1   
 50  24  50  1   
 51  25  27  1   
 52  25  51  1   
 53  25  52  1   
 54  26  27  1   
 55  26  53  1   
 56  26  54  1   
 57  27  55  1   
 58  27  56  1   
@<TRIPOS>SUBSTRUCTURE
  1 ****  20 GROUP 4 **** **** 0

# MOE 2024.06 (io_trps.svl 2023.06)
