@<TRIPOS>MOLECULE
NONAME
42 44 1 0 0 
SMALL
USER_CHARGES


@<TRIPOS>ATOM
  1 O        0.7150    -0.1170     2.1330 O.2   1 <1>  -0.5700 
  2 C        1.3870    -0.6290     1.2670 C.2   1 <1>   0.5690 
  3 N        2.1480     0.1300     0.4090 N.am  1 <1>  -0.6600 
  4 C        1.3770    -2.1550     1.2030 C.3   1 <1>   0.1810 
  5 C        3.0300    -0.3970    -0.6750 C.3   1 <1>   0.1400 
  6 C        2.1280     1.6240     0.4550 C.3   1 <1>   0.1400 
  7 O        0.9140    -2.6300    -0.0540 O.3   1 <1>  -0.3620 
  8 C        4.4390     0.2150    -0.5790 C.3   1 <1>   0.1100 
  9 C        3.5540     2.1950     0.5210 C.3   1 <1>   0.1100 
 10 C        0.7540    -3.9580    -0.2890 C.ar  1 <1>   0.0820 
 11 N        4.4030     1.6910    -0.5840 N.3   1 <1>  -0.8100 
 12 C        0.2250    -4.3400    -1.5170 C.ar  1 <1>   0.1600 
 13 C        1.0880    -4.9470     0.6250 C.ar  1 <1>  -0.1500 
 14 C        5.7790     2.2540    -0.5220 C.3   1 <1>   0.2910 
 15 N        0.0100    -5.5910    -1.9020 N.ar  1 <1>  -0.6200 
 16 C        0.8670    -6.2520     0.2380 C.ar  1 <1>  -0.1500 
 17 C        5.8600     3.7790    -0.6530 C.2   1 <1>   0.3350 
 18 C        0.3360    -6.5160    -1.0140 C.ar  1 <1>   0.1600 
 19 N        6.0280     4.4100    -1.7490 N.2   1 <1>  -0.4100 
 20 N        5.7880     4.5790     0.4080 N.2   1 <1>  -0.5650 
 21 O        6.0600     5.6750    -1.4620 O.3   1 <1>  -0.0190 
 22 C        5.9120     5.7080    -0.1620 C.2   1 <1>   0.2980 
 23 C        5.9030     7.0490     0.5350 C.3   1 <1>  -0.0600 
 24 H        0.7180    -2.5310     1.9650 H     1 <1>   0.0800 
 25 H        2.3710    -2.5270     1.3660 H     1 <1>   0.0800 
 26 H        2.6010    -0.1420    -1.6290 H     1 <1>   0.0800 
 27 H        3.1090    -1.4660    -0.6250 H     1 <1>   0.0800 
 28 H        1.5710     1.9710     1.3080 H     1 <1>   0.0800 
 29 H        1.6410     1.9960    -0.4290 H     1 <1>   0.0800 
 30 H        5.0190    -0.1280    -1.4190 H     1 <1>   0.0800 
 31 H        4.9120    -0.1370     0.3220 H     1 <1>   0.0800 
 32 H        3.9920     1.9410     1.4710 H     1 <1>   0.0800 
 33 H        3.4830     3.2670     0.4630 H     1 <1>   0.0800 
 34 H       -0.0330    -3.5630    -2.2130 H     1 <1>   0.1500 
 35 H        1.4990    -4.7360     1.5940 H     1 <1>   0.1500 
 36 H        6.3570     1.8340    -1.3250 H     1 <1>   0.0800 
 37 H        6.2450     1.9680     0.4040 H     1 <1>   0.0800 
 38 H        1.1030    -7.0660     0.9000 H     1 <1>   0.1500 
 39 H        0.1700    -7.5410    -1.3000 H     1 <1>   0.1500 
 40 H        5.7730     6.9110     1.5920 H     1 <1>   0.0800 
 41 H        5.0950     7.6470     0.1560 H     1 <1>   0.0800 
 42 H        6.8330     7.5550     0.3570 H     1 <1>   0.0800 
@<TRIPOS>BOND
  1   1   2  2   
  2   2   3  am  
  3   2   4  1   
  4   3   5  1   
  5   3   6  1   
  6   4   7  1   
  7   4  24  1   
  8   4  25  1   
  9   5   8  1   
 10   5  26  1   
 11   5  27  1   
 12   6   9  1   
 13   6  28  1   
 14   6  29  1   
 15   7  10  1   
 16   8  11  1   
 17   8  30  1   
 18   8  31  1   
 19   9  11  1   
 20   9  32  1   
 21   9  33  1   
 22  10  12  ar  
 23  10  13  ar  
 24  11  14  1   
 25  12  15  ar  
 26  12  34  1   
 27  13  16  ar  
 28  13  35  1   
 29  14  17  1   
 30  14  36  1   
 31  14  37  1   
 32  15  18  ar  
 33  16  18  ar  
 34  16  38  1   
 35  17  19  2   
 36  17  20  1   
 37  18  39  1   
 38  19  21  1   
 39  20  22  2   
 40  21  22  1   
 41  22  23  1   
 42  23  40  1   
 43  23  41  1   
 44  23  42  1   
@<TRIPOS>SUBSTRUCTURE
  1 ****   5 GROUP 4 **** **** 0

# MOE 2024.06 (io_trps.svl 2023.06)
