@<TRIPOS>MOLECULE
NONAME
34 33 1 0 0 
SMALL
USER_CHARGES


@<TRIPOS>ATOM
  1 O       -9.0050     1.6700    -0.5570 O.2   1 <1>  -0.5700 
  2 C       -8.9550     0.5500    -0.1150 C.2   1 <1>   0.6590 
  3 O       -7.7900     0.0140     0.2430 O.3   1 <1>  -0.4300 
  4 C      -10.2070    -0.3490     0.0560 C.3   1 <1>   0.2510 
  5 C       -6.5800     0.7100     0.0600 C.3   1 <1>   0.1200 
  6 N      -10.1920    -1.5410    -0.8130 N.3   1 <1>  -0.9900 
  7 C      -11.5210     0.4210    -0.1860 C.3   1 <1>  -0.1600 
  8 C       -5.4330    -0.2550     0.3690 C.3   1 <1>   0.3430 
  9 C      -12.7980    -0.3880     0.1130 C.3   1 <1>  -0.1600 
 10 N       -4.1020     0.3810     0.1410 N.4   1 <1>  -0.8530 
 11 C      -14.0480     0.4910    -0.0490 C.3   1 <1>  -0.1600 
 12 C      -15.3240    -0.2980     0.2420 C.3   1 <1>   0.3430 
 13 N      -16.4950     0.5930     0.0740 N.4   1 <1>  -0.8530 
 14 H      -10.1990    -0.6870     1.0780 H     1 <1>   0.0800 
 15 H       -6.5810     1.5550     0.7270 H     1 <1>   0.0800 
 16 H       -6.5420     1.0430    -0.9640 H     1 <1>   0.0800 
 17 H      -10.2630    -1.2460    -1.7950 H     1 <1>   0.3600 
 18 H      -11.0060    -2.1300    -0.6110 H     1 <1>   0.3600 
 19 H      -11.5360     0.7740    -1.2030 H     1 <1>   0.0800 
 20 H      -11.5100     1.2920     0.4480 H     1 <1>   0.0800 
 21 H       -5.5320    -1.1220    -0.2660 H     1 <1>   0.0800 
 22 H       -5.5130    -0.5740     1.3960 H     1 <1>   0.0800 
 23 H      -12.7470    -0.7690     1.1200 H     1 <1>   0.0800 
 24 H      -12.8600    -1.2270    -0.5610 H     1 <1>   0.0800 
 25 H       -3.9960     0.6780    -0.8370 H     1 <1>   0.4500 
 26 H       -3.3440    -0.2810     0.3490 H     1 <1>   0.4500 
 27 H       -3.9730     1.2040     0.7420 H     1 <1>   0.4500 
 28 H      -14.0760     0.8680    -1.0580 H     1 <1>   0.0800 
 29 H      -13.9750     1.3240     0.6290 H     1 <1>   0.0800 
 30 H      -15.2910    -0.6810     1.2500 H     1 <1>   0.0800 
 31 H      -15.3950    -1.1350    -0.4370 H     1 <1>   0.0800 
 32 H      -16.4390     1.3910     0.7170 H     1 <1>   0.4500 
 33 H      -17.3720     0.0940     0.2620 H     1 <1>   0.4500 
 34 H      -16.5370     0.9610    -0.8830 H     1 <1>   0.4500 
@<TRIPOS>BOND
  1   1   2  2   
  2   2   3  1   
  3   2   4  1   
  4   3   5  1   
  5   4   6  1   
  6   4   7  1   
  7   4  14  1   
  8   5   8  1   
  9   5  15  1   
 10   5  16  1   
 11   6  17  1   
 12   6  18  1   
 13   7   9  1   
 14   7  19  1   
 15   7  20  1   
 16   8  10  1   
 17   8  21  1   
 18   8  22  1   
 19   9  11  1   
 20   9  23  1   
 21   9  24  1   
 22  10  25  1   
 23  10  26  1   
 24  10  27  1   
 25  11  12  1   
 26  11  28  1   
 27  11  29  1   
 28  12  13  1   
 29  12  30  1   
 30  12  31  1   
 31  13  32  1   
 32  13  33  1   
 33  13  34  1   
@<TRIPOS>SUBSTRUCTURE
  1 ****   4 GROUP 4 **** **** 0

# MOE 2024.06 (io_trps.svl 2023.06)
