@<TRIPOS>MOLECULE
NONAME
48 50 1 0 0 
SMALL
USER_CHARGES


@<TRIPOS>ATOM
  1 O        0.8400     1.2910     1.5020 O.co2 1 <1>  -0.9000 
  2 C        1.7200     0.4420     1.3600 C.2   1 <1>   0.9060 
  3 O        1.9930    -0.3630     2.2680 O.co2 1 <1>  -0.9000 
  4 C        2.4960     0.3570     0.0300 C.3   1 <1>  -0.1060 
  5 C        3.9230    -0.1480     0.3100 C.3   1 <1>   0.4230 
  6 C        2.6300     1.7550    -0.6280 C.3   1 <1>  -0.1600 
  7 C        1.7900    -0.6010    -0.9580 C.3   1 <1>  -0.1600 
  8 N        3.8770    -1.5460     0.8580 N.4   1 <1>  -0.9590 
  9 C        4.6780     0.8660     1.2060 C.3   1 <1>   0.1100 
 10 C        3.4240     2.7260     0.2540 C.3   1 <1>   0.1100 
 11 C        1.8380    -2.0520    -0.4570 C.3   1 <1>  -0.1600 
 12 C        3.2580    -2.4970    -0.0990 C.3   1 <1>   0.3430 
 13 C        5.1500    -2.0560     1.4300 C.3   1 <1>   0.2630 
 14 N        4.7650     2.1820     0.5440 N.3   1 <1>  -0.8100 
 15 C        5.5560     3.1180     1.3650 C.3   1 <1>   0.2530 
 16 C        5.9970     4.3320     0.5600 C.ar  1 <1>  -0.1430 
 17 C        7.1550     4.2950    -0.2180 C.ar  1 <1>   0.3930 
 18 C        5.2590     5.4980     0.6030 C.ar  1 <1>  -0.1500 
 19 O        7.8800     3.1510    -0.2290 O.3   1 <1>  -0.3620 
 20 N        7.6040     5.3210    -0.9400 N.ar  1 <1>  -0.6200 
 21 C        5.7160     6.5630    -0.1430 C.ar  1 <1>  -0.1500 
 22 C        9.0440     3.0330    -1.0230 C.3   1 <1>   0.0400 
 23 C        6.8730     6.4210    -0.8850 C.ar  1 <1>   0.1600 
 24 H        4.4520    -0.1760    -0.6270 H     1 <1>   0.0800 
 25 H        1.6500     2.1690    -0.7970 H     1 <1>   0.0800 
 26 H        3.1220     1.6830    -1.5820 H     1 <1>   0.0800 
 27 H        0.7630    -0.2950    -1.0770 H     1 <1>   0.0800 
 28 H        2.2640    -0.5450    -1.9230 H     1 <1>   0.0800 
 29 H        3.1770    -1.4170     1.6390 H     1 <1>   0.4500 
 30 H        5.6800     0.5140     1.3710 H     1 <1>   0.0800 
 31 H        4.1830     0.9690     2.1570 H     1 <1>   0.0800 
 32 H        2.8880     2.9090     1.1720 H     1 <1>   0.0800 
 33 H        3.5160     3.6600    -0.2720 H     1 <1>   0.0800 
 34 H        1.4420    -2.7050    -1.2150 H     1 <1>   0.0800 
 35 H        1.2090    -2.1570     0.4120 H     1 <1>   0.0800 
 36 H        3.8550    -2.5450    -0.9950 H     1 <1>   0.0800 
 37 H        3.2170    -3.4810     0.3390 H     1 <1>   0.0800 
 38 H        5.9140    -2.0860     0.6710 H     1 <1>   0.0800 
 39 H        5.0050    -3.0480     1.8250 H     1 <1>   0.0800 
 40 H        5.4770    -1.4170     2.2330 H     1 <1>   0.0800 
 41 H        4.9780     3.4310     2.2190 H     1 <1>   0.0800 
 42 H        6.4350     2.6190     1.7360 H     1 <1>   0.0800 
 43 H        4.3610     5.5750     1.1920 H     1 <1>   0.1500 
 44 H        5.1780     7.4930    -0.1510 H     1 <1>   0.1500 
 45 H        9.4480     2.0460    -0.8890 H     1 <1>   0.0800 
 46 H        9.7580     3.7730    -0.7060 H     1 <1>   0.0800 
 47 H        8.7770     3.1880    -2.0540 H     1 <1>   0.0800 
 48 H        7.2190     7.2600    -1.4650 H     1 <1>   0.1500 
@<TRIPOS>BOND
  1   1   2  ar  
  2   2   3  ar  
  3   2   4  1   
  4   4   5  1   
  5   4   6  1   
  6   4   7  1   
  7   5   8  1   
  8   5   9  1   
  9   5  24  1   
 10   6  10  1   
 11   6  25  1   
 12   6  26  1   
 13   7  11  1   
 14   7  27  1   
 15   7  28  1   
 16   8  12  1   
 17   8  13  1   
 18   8  29  1   
 19   9  14  1   
 20   9  30  1   
 21   9  31  1   
 22  10  14  1   
 23  10  32  1   
 24  10  33  1   
 25  11  12  1   
 26  11  34  1   
 27  11  35  1   
 28  12  36  1   
 29  12  37  1   
 30  13  38  1   
 31  13  39  1   
 32  13  40  1   
 33  14  15  1   
 34  15  16  1   
 35  15  41  1   
 36  15  42  1   
 37  16  17  ar  
 38  16  18  ar  
 39  17  19  1   
 40  17  20  ar  
 41  18  21  ar  
 42  18  43  1   
 43  19  22  1   
 44  20  23  ar  
 45  21  23  ar  
 46  21  44  1   
 47  22  45  1   
 48  22  46  1   
 49  22  47  1   
 50  23  48  1   
@<TRIPOS>SUBSTRUCTURE
  1 ****  14 GROUP 4 **** **** 0

# MOE 2024.06 (io_trps.svl 2023.06)
