@<TRIPOS>MOLECULE
NONAME
39 41 1 0 0 
SMALL
USER_CHARGES


@<TRIPOS>ATOM
  1 F        1.3860     0.5010    -2.2660 F     1 <1>  -0.3400 
  2 C        2.2150     1.3750    -1.7050 C.3   1 <1>   1.1640 
  3 F        1.5180     2.5000    -1.6210 F     1 <1>  -0.3400 
  4 F        3.1650     1.5890    -2.6040 F     1 <1>  -0.3400 
  5 C        2.7810     0.8770    -0.3520 C.ar  1 <1>  -0.1440 
  6 C        3.2500     1.7050     0.6830 C.ar  1 <1>  -0.1440 
  7 C        2.8180    -0.5060    -0.1590 C.ar  1 <1>  -0.1500 
  8 C        3.6790     1.1200     1.8700 C.ar  1 <1>  -0.1500 
  9 C        3.3190     3.2430     0.6450 C.3   1 <1>   0.2540 
 10 C        3.2670    -1.0660     1.0200 C.ar  1 <1>  -0.1500 
 11 C        3.6940    -0.2490     2.0430 C.ar  1 <1>  -0.1500 
 12 N        4.6340     3.7790     0.2370 N.3   1 <1>  -0.8100 
 13 C        5.7410     3.4120     1.1570 C.3   1 <1>   0.1100 
 14 C        4.9310     3.5740    -1.1930 C.3   1 <1>   0.1100 
 15 C        7.0580     4.2210     1.0000 C.3   1 <1>   0.2200 
 16 C        6.0820     4.4420    -1.7440 C.3   1 <1>  -0.0190 
 17 N        6.8520     5.5370     0.3420 N.am  1 <1>  -0.7300 
 18 C        8.1490     3.4170     0.2610 C.3   1 <1>   0.1200 
 19 C        6.3560     5.6760    -0.9050 C.2   1 <1>   0.5690 
 20 C        7.3780     3.6470    -1.9760 C.3   1 <1>   0.1200 
 21 O        7.6860     2.8020    -0.9080 O.3   1 <1>  -0.5600 
 22 O        6.1610     6.7740    -1.3660 O.2   1 <1>  -0.5700 
 23 H        2.4890    -1.1800    -0.9330 H     1 <1>   0.1500 
 24 H        4.0140     1.7370     2.6850 H     1 <1>   0.1500 
 25 H        3.1050     3.6140     1.6330 H     1 <1>   0.0800 
 26 H        2.5620     3.6680     0.0170 H     1 <1>   0.0800 
 27 H        3.2820    -2.1360     1.1410 H     1 <1>   0.1500 
 28 H        4.0370    -0.6760     2.9700 H     1 <1>   0.1500 
 29 H        5.4010     3.5700     2.1650 H     1 <1>   0.0800 
 30 H        5.9580     2.3620     1.0570 H     1 <1>   0.0800 
 31 H        5.1430     2.5330    -1.3710 H     1 <1>   0.0800 
 32 H        4.0500     3.8350    -1.7530 H     1 <1>   0.0800 
 33 H        7.4410     4.4130     1.9860 H     1 <1>   0.0800 
 34 H        5.7770     4.7930    -2.7110 H     1 <1>   0.0800 
 35 H        6.8770     6.3770     0.9180 H     1 <1>   0.3700 
 36 H        8.4910     2.6250     0.9030 H     1 <1>   0.0800 
 37 H        8.9910     4.0420     0.0210 H     1 <1>   0.0800 
 38 H        8.2110     4.3040    -2.1590 H     1 <1>   0.0800 
 39 H        7.2520     3.0150    -2.8380 H     1 <1>   0.0800 
@<TRIPOS>BOND
  1   1   2  1   
  2   2   3  1   
  3   2   4  1   
  4   2   5  1   
  5   5   6  ar  
  6   5   7  ar  
  7   6   8  ar  
  8   6   9  1   
  9   7  10  ar  
 10   7  23  1   
 11   8  11  ar  
 12   8  24  1   
 13   9  12  1   
 14   9  25  1   
 15   9  26  1   
 16  10  11  ar  
 17  10  27  1   
 18  11  28  1   
 19  12  13  1   
 20  12  14  1   
 21  13  15  1   
 22  13  29  1   
 23  13  30  1   
 24  14  16  1   
 25  14  31  1   
 26  14  32  1   
 27  15  17  1   
 28  15  18  1   
 29  15  33  1   
 30  16  19  1   
 31  16  20  1   
 32  16  34  1   
 33  17  19  am  
 34  17  35  1   
 35  18  21  1   
 36  18  36  1   
 37  18  37  1   
 38  19  22  2   
 39  20  21  1   
 40  20  38  1   
 41  20  39  1   
@<TRIPOS>SUBSTRUCTURE
  1 ****  12 GROUP 4 **** **** 0

# MOE 2024.06 (io_trps.svl 2023.06)
