@<TRIPOS>MOLECULE
NONAME
51 53 1 0 0 
SMALL
USER_CHARGES


@<TRIPOS>ATOM
  1 O        0.2960     1.9390     1.9770 O.co2 1 <1>  -0.9000 
  2 C       -0.5580     1.8710     1.0890 C.2   1 <1>   0.9060 
  3 O       -0.4490     1.1120     0.1100 O.co2 1 <1>  -0.9000 
  4 C       -1.9130     2.6010     1.2700 C.3   1 <1>   0.4600 
  5 N       -3.0830     1.7590     0.7950 N.4   1 <1>  -0.9590 
  6 C       -1.9700     3.9410     0.5350 C.ar  1 <1>  -0.1430 
  7 C       -4.3870     2.4700     0.6920 C.3   1 <1>   0.3430 
  8 C       -3.1350     0.4490     1.4850 C.3   1 <1>   0.3430 
  9 C       -2.4400     5.0670     1.1970 C.ar  1 <1>  -0.1500 
 10 C       -1.5860     4.0470    -0.7950 C.ar  1 <1>  -0.1500 
 11 C       -5.5530     1.4880     0.5600 C.3   1 <1>  -0.1600 
 12 C       -4.0220    -0.5190     0.6970 C.3   1 <1>  -0.1600 
 13 C       -2.5490     6.2840     0.5460 C.ar  1 <1>   0.0830 
 14 C       -1.6680     5.2630    -1.4510 C.ar  1 <1>  -0.1500 
 15 C       -5.1460     0.1690    -0.1090 C.3   1 <1>   0.4240 
 16 O       -3.0700     7.3070     1.2750 O.3   1 <1>  -0.3630 
 17 C       -2.1330     6.3860    -0.7880 C.ar  1 <1>   0.0830 
 18 O       -4.5930     0.5080    -1.3410 O.3   1 <1>  -0.6800 
 19 C       -6.3900    -0.7390    -0.2930 C.ar  1 <1>   0.1670 
 20 C       -4.0010     8.1820     0.6730 C.3   1 <1>   0.0400 
 21 O       -2.1420     7.5530    -1.4710 O.3   1 <1>  -0.3630 
 22 N       -6.9020    -1.2610     0.8190 N.ar  1 <1>  -0.6200 
 23 C       -6.9420    -0.9670    -1.5520 C.ar  1 <1>  -0.1500 
 24 C       -1.0340     8.3900    -1.2300 C.3   1 <1>   0.0400 
 25 C       -7.9690    -2.0320     0.6750 C.ar  1 <1>   0.1600 
 26 C       -8.0520    -1.7730    -1.6870 C.ar  1 <1>  -0.1500 
 27 C       -8.5720    -2.3180    -0.5360 C.ar  1 <1>  -0.1500 
 28 H       -2.0150     2.7870     2.3230 H     1 <1>   0.0800 
 29 H       -2.7870     1.5170    -0.1680 H     1 <1>   0.4500 
 30 H       -4.3610     3.1070    -0.1780 H     1 <1>   0.0800 
 31 H       -4.5390     3.0940     1.5570 H     1 <1>   0.0800 
 32 H       -3.5350     0.5850     2.4760 H     1 <1>   0.0800 
 33 H       -2.1440     0.0280     1.5720 H     1 <1>   0.0800 
 34 H       -2.7350     5.0150     2.2290 H     1 <1>   0.1500 
 35 H       -1.2120     3.1860    -1.3280 H     1 <1>   0.1500 
 36 H       -6.3500     1.9480     0.0050 H     1 <1>   0.0800 
 37 H       -5.9390     1.2750     1.5400 H     1 <1>   0.0800 
 38 H       -4.4400    -1.1940     1.4200 H     1 <1>   0.0800 
 39 H       -3.4100    -1.1180     0.0470 H     1 <1>   0.0800 
 40 H       -1.3610     5.3450    -2.4780 H     1 <1>   0.1500 
 41 H       -4.3350    -0.3090    -1.8110 H     1 <1>   0.4000 
 42 H       -4.5870     8.6350     1.4520 H     1 <1>   0.0800 
 43 H       -4.6360     7.6220     0.0100 H     1 <1>   0.0800 
 44 H       -3.4690     8.9420     0.1320 H     1 <1>   0.0800 
 45 H       -6.5270    -0.5190    -2.4360 H     1 <1>   0.1500 
 46 H       -1.1510     9.2840    -1.8140 H     1 <1>   0.0800 
 47 H       -0.1380     7.8710    -1.5210 H     1 <1>   0.0800 
 48 H       -1.0000     8.6320    -0.1820 H     1 <1>   0.0800 
 49 H       -8.3870    -2.4610     1.5700 H     1 <1>   0.1500 
 50 H       -8.4950    -1.9660    -2.6500 H     1 <1>   0.1500 
 51 H       -9.4370    -2.9550    -0.5720 H     1 <1>   0.1500 
@<TRIPOS>BOND
  1   1   2  ar  
  2   2   3  ar  
  3   2   4  1   
  4   4   5  1   
  5   4   6  1   
  6   4  28  1   
  7   5   7  1   
  8   5   8  1   
  9   5  29  1   
 10   6   9  ar  
 11   6  10  ar  
 12   7  11  1   
 13   7  30  1   
 14   7  31  1   
 15   8  12  1   
 16   8  32  1   
 17   8  33  1   
 18   9  13  ar  
 19   9  34  1   
 20  10  14  ar  
 21  10  35  1   
 22  11  15  1   
 23  11  36  1   
 24  11  37  1   
 25  12  15  1   
 26  12  38  1   
 27  12  39  1   
 28  13  16  1   
 29  13  17  ar  
 30  14  17  ar  
 31  14  40  1   
 32  15  18  1   
 33  15  19  1   
 34  16  20  1   
 35  17  21  1   
 36  18  41  1   
 37  19  22  ar  
 38  19  23  ar  
 39  20  42  1   
 40  20  43  1   
 41  20  44  1   
 42  21  24  1   
 43  22  25  ar  
 44  23  26  ar  
 45  23  45  1   
 46  24  46  1   
 47  24  47  1   
 48  24  48  1   
 49  25  27  ar  
 50  25  49  1   
 51  26  27  ar  
 52  26  50  1   
 53  27  51  1   
@<TRIPOS>SUBSTRUCTURE
  1 ****   7 GROUP 4 **** **** 0

# MOE 2024.06 (io_trps.svl 2023.06)
