@<TRIPOS>MOLECULE
NONAME
52 55 1 0 0 
SMALL
USER_CHARGES


@<TRIPOS>ATOM
  1 O       -0.8240    -1.2810     0.8130 O.2   1 <1>  -0.5700 
  2 C        0.3260    -1.4140     0.4680 C.2   1 <1>   0.5690 
  3 N        1.1200    -2.4120     0.9660 N.am  1 <1>  -0.6600 
  4 C        0.8600    -0.4470    -0.5760 C.3   1 <1>  -0.0990 
  5 C        2.5480    -2.6120     0.5920 C.3   1 <1>   0.1400 
  6 C        0.6110    -3.3570     2.0190 C.3   1 <1>   0.2010 
  7 C        2.3910    -0.4370    -0.6820 C.3   1 <1>  -0.1600 
  8 C        2.9100    -1.8770    -0.7020 C.3   1 <1>  -0.1600 
  9 C        0.5060    -4.8100     1.5450 C.2   1 <1>   0.5690 
 10 O        1.3280    -5.5960     1.9560 O.2   1 <1>  -0.5700 
 11 N       -0.4880    -5.2010     0.6870 N.am  1 <1>  -0.6600 
 12 C       -1.5210    -4.3210     0.0850 C.3   1 <1>   0.1400 
 13 C       -0.6640    -6.5990     0.2350 C.3   1 <1>   0.1400 
 14 C       -2.4220    -5.2560    -0.7260 C.3   1 <1>   0.2000 
 15 C       -2.1170    -6.6710    -0.2320 C.3   1 <1>  -0.0800 
 16 O       -3.7650    -4.9730    -0.5310 O.3   1 <1>  -0.6800 
 17 C       -2.3730    -7.7420    -1.3050 C.3   1 <1>  -0.0170 
 18 C       -2.0240    -9.1280    -0.7930 C.ar  1 <1>   0.1670 
 19 N       -0.8110    -9.5470    -0.9810 N.ar  1 <1>  -0.6200 
 20 C       -3.0140    -9.8790    -0.1380 C.ar  1 <1>  -0.1500 
 21 C       -0.4860   -10.7790    -0.5100 C.ar  1 <1>   0.3100 
 22 C       -2.7180   -11.1180     0.3410 C.ar  1 <1>  -0.1500 
 23 C       -1.4130   -11.6060     0.1620 C.ar  1 <1>   0.0000 
 24 C        0.8230   -11.2520    -0.6920 C.ar  1 <1>  -0.1500 
 25 C       -0.9940   -12.8710     0.6220 C.ar  1 <1>  -0.1500 
 26 C        1.2100   -12.4850    -0.2370 C.ar  1 <1>  -0.1500 
 27 C        0.2900   -13.3020     0.4270 C.ar  1 <1>  -0.1500 
 28 H        0.4390    -0.7330    -1.5230 H     1 <1>   0.0800 
 29 H        0.5070     0.5420    -0.3460 H     1 <1>   0.0800 
 30 H        3.1650    -2.2470     1.3960 H     1 <1>   0.0800 
 31 H        2.7490    -3.6630     0.4690 H     1 <1>   0.0800 
 32 H        1.2770    -3.3250     2.8620 H     1 <1>   0.0800 
 33 H       -0.3550    -3.0450     2.3700 H     1 <1>   0.0800 
 34 H        2.6920     0.0820    -1.5750 H     1 <1>   0.0800 
 35 H        2.8050     0.0820     0.1660 H     1 <1>   0.0800 
 36 H        3.9790    -1.8780    -0.8190 H     1 <1>   0.0800 
 37 H        2.4900    -2.4080    -1.5390 H     1 <1>   0.0800 
 38 H       -2.0720    -3.8170     0.8600 H     1 <1>   0.0800 
 39 H       -1.0580    -3.5990    -0.5640 H     1 <1>   0.0800 
 40 H        0.0140    -6.7930    -0.5800 H     1 <1>   0.0800 
 41 H       -0.4660    -7.2960     1.0330 H     1 <1>   0.0800 
 42 H       -2.2040    -5.1510    -1.7750 H     1 <1>   0.0800 
 43 H       -2.7160    -6.8850     0.6360 H     1 <1>   0.0800 
 44 H       -3.9760    -4.9800     0.4230 H     1 <1>   0.4000 
 45 H       -1.7810    -7.5330    -2.1790 H     1 <1>   0.0800 
 46 H       -3.4070    -7.7150    -1.6000 H     1 <1>   0.0800 
 47 H       -3.9980    -9.4620    -0.0220 H     1 <1>   0.1500 
 48 H       -3.4490   -11.7230     0.8480 H     1 <1>   0.1500 
 49 H        1.5140   -10.6080    -1.2030 H     1 <1>   0.1500 
 50 H       -1.7060   -13.4940     1.1320 H     1 <1>   0.1500 
 51 H        2.2180   -12.8350    -0.3830 H     1 <1>   0.1500 
 52 H        0.6080   -14.2690     0.7790 H     1 <1>   0.1500 
@<TRIPOS>BOND
  1   1   2  2   
  2   2   3  am  
  3   2   4  1   
  4   3   5  1   
  5   3   6  1   
  6   4   7  1   
  7   4  28  1   
  8   4  29  1   
  9   5   8  1   
 10   5  30  1   
 11   5  31  1   
 12   6   9  1   
 13   6  32  1   
 14   6  33  1   
 15   7   8  1   
 16   7  34  1   
 17   7  35  1   
 18   8  36  1   
 19   8  37  1   
 20   9  10  2   
 21   9  11  am  
 22  11  12  1   
 23  11  13  1   
 24  12  14  1   
 25  12  38  1   
 26  12  39  1   
 27  13  15  1   
 28  13  40  1   
 29  13  41  1   
 30  14  15  1   
 31  14  16  1   
 32  14  42  1   
 33  15  17  1   
 34  15  43  1   
 35  16  44  1   
 36  17  18  1   
 37  17  45  1   
 38  17  46  1   
 39  18  19  ar  
 40  18  20  ar  
 41  19  21  ar  
 42  20  22  ar  
 43  20  47  1   
 44  21  23  ar  
 45  21  24  ar  
 46  22  23  ar  
 47  22  48  1   
 48  23  25  ar  
 49  24  26  ar  
 50  24  49  1   
 51  25  27  ar  
 52  25  50  1   
 53  26  27  ar  
 54  26  51  1   
 55  27  52  1   
@<TRIPOS>SUBSTRUCTURE
  1 ****  13 GROUP 4 **** **** 0

# MOE 2024.06 (io_trps.svl 2023.06)
