@<TRIPOS>MOLECULE
NONAME
32 34 1 0 0 
SMALL
USER_CHARGES


@<TRIPOS>ATOM
  1 S       -0.2700     0.2020     0.3090 S.3   1 <1>  -0.0800 
  2 C       -0.2260    -1.5430     0.0700 C.2   1 <1>   0.4620 
  3 C        1.4240     0.1730     0.7120 C.2   1 <1>  -0.1100 
  4 N        0.9320    -2.0600     0.2760 N.2   1 <1>  -0.5650 
  5 N       -1.3750    -2.1980    -0.3040 N.pl3 1 <1>  -0.8220 
  6 C        1.8530    -1.0950     0.6350 C.2   1 <1>   0.0770 
  7 C       -2.7310    -1.6020    -0.2830 C.3   1 <1>   0.2090 
  8 C       -1.4410    -3.6730    -0.4120 C.3   1 <1>   0.2090 
  9 C       -3.6870    -2.7960    -0.3810 C.3   1 <1>   0.2000 
 10 C       -2.8670    -4.0240     0.0150 C.3   1 <1>  -0.0800 
 11 O       -4.7730    -2.6630     0.4730 O.3   1 <1>  -0.6800 
 12 C       -3.4100    -5.3230    -0.6040 C.3   1 <1>  -0.0170 
 13 C       -2.5970    -6.5340    -0.1740 C.ar  1 <1>   0.1670 
 14 N       -1.4920    -6.7780    -0.8600 N.ar  1 <1>  -0.6200 
 15 C       -3.0270    -7.3180     0.8960 C.ar  1 <1>   0.1600 
 16 C       -0.8510    -7.8420    -0.4070 C.ar  1 <1>   0.1600 
 17 N       -2.3880    -8.3840     1.3490 N.ar  1 <1>  -0.6200 
 18 C       -1.2840    -8.6180     0.6610 C.ar  1 <1>   0.1600 
 19 H        1.9040     1.1010     0.9600 H     1 <1>   0.1500 
 20 H        2.8610    -1.4210     0.8300 H     1 <1>   0.1500 
 21 H       -2.8770    -1.0650     0.6380 H     1 <1>   0.0800 
 22 H       -2.8570    -0.9430    -1.1240 H     1 <1>   0.0800 
 23 H       -1.2600    -3.9590    -1.4340 H     1 <1>   0.0800 
 24 H       -0.7110    -4.1490     0.2220 H     1 <1>   0.0800 
 25 H       -4.0550    -2.8800    -1.3890 H     1 <1>   0.0800 
 26 H       -2.8560    -4.1150     1.0870 H     1 <1>   0.0800 
 27 H       -4.4650    -2.5660     1.3960 H     1 <1>   0.4000 
 28 H       -3.3940    -5.2550    -1.6780 H     1 <1>   0.0800 
 29 H       -4.4350    -5.4540    -0.3050 H     1 <1>   0.0800 
 30 H       -3.9390    -7.0510     1.4000 H     1 <1>   0.1500 
 31 H        0.0630    -8.1130    -0.9060 H     1 <1>   0.1500 
 32 H       -0.6920    -9.4670     0.9560 H     1 <1>   0.1500 
@<TRIPOS>BOND
  1   1   2  1   
  2   1   3  1   
  3   2   4  2   
  4   2   5  1   
  5   3   6  2   
  6   3  19  1   
  7   4   6  1   
  8   5   7  1   
  9   5   8  1   
 10   6  20  1   
 11   7   9  1   
 12   7  21  1   
 13   7  22  1   
 14   8  10  1   
 15   8  23  1   
 16   8  24  1   
 17   9  10  1   
 18   9  11  1   
 19   9  25  1   
 20  10  12  1   
 21  10  26  1   
 22  11  27  1   
 23  12  13  1   
 24  12  28  1   
 25  12  29  1   
 26  13  14  ar  
 27  13  15  ar  
 28  14  16  ar  
 29  15  17  ar  
 30  15  30  1   
 31  16  18  ar  
 32  16  31  1   
 33  17  18  ar  
 34  18  32  1   
@<TRIPOS>SUBSTRUCTURE
  1 ****   8 GROUP 4 **** **** 0

# MOE 2024.06 (io_trps.svl 2023.06)
