@<TRIPOS>MOLECULE
NONAME
48 50 1 0 0 
SMALL
USER_CHARGES


@<TRIPOS>ATOM
  1 O       -2.6870     0.2680     0.4530 O.2   1 <1>  -0.5700 
  2 C       -2.6080     1.0440    -0.4830 C.2   1 <1>   0.5440 
  3 N       -3.4420     0.7930    -1.5440 N.am  1 <1>  -0.6600 
  4 C       -1.7250     2.1940    -0.4520 C.ar  1 <1>   0.0860 
  5 C       -4.8390     1.3220    -1.4470 C.3   1 <1>   0.1400 
  6 C       -3.3930    -0.5770    -2.1560 C.3   1 <1>   0.1400 
  7 C       -1.5440     3.0040    -1.5740 C.ar  1 <1>   0.1600 
  8 C       -1.0210     2.5480     0.6920 C.ar  1 <1>  -0.1500 
  9 C       -5.7480     0.3880    -0.5980 C.3   1 <1>   0.4230 
 10 C       -4.4820    -1.5180    -1.5830 C.3   1 <1>   0.3430 
 11 N       -0.7790     4.0790    -1.6410 N.ar  1 <1>  -0.6200 
 12 C       -0.2090     3.6620     0.6510 C.ar  1 <1>  -0.1440 
 13 N       -5.0920    -0.9490    -0.3310 N.4   1 <1>  -0.9590 
 14 C       -7.1350     0.2000    -1.2530 C.3   1 <1>   0.1200 
 15 C       -0.1290     4.3840    -0.5300 C.ar  1 <1>   0.1600 
 16 C        0.5790     4.0870     1.8780 C.3   1 <1>  -0.0970 
 17 C       -6.0180    -1.8460     0.4320 C.3   1 <1>   0.4230 
 18 O       -7.9300    -0.6670    -0.4940 O.3   1 <1>  -0.5600 
 19 C       -7.3920    -1.9440    -0.2750 C.3   1 <1>   0.1200 
 20 C       -5.3660    -3.2150     0.6780 C.3   1 <1>  -0.1600 
 21 C       -6.1080    -4.0340     1.7460 C.3   1 <1>  -0.1600 
 22 C       -5.3820    -5.3530     2.0220 C.3   1 <1>  -0.2400 
 23 H       -4.8280     2.3030    -1.0010 H     1 <1>   0.0800 
 24 H       -5.2380     1.4310    -2.4410 H     1 <1>   0.0800 
 25 H       -3.5040    -0.5010    -3.2250 H     1 <1>   0.0800 
 26 H       -2.4260    -1.0130    -1.9680 H     1 <1>   0.0800 
 27 H       -2.0670     2.7470    -2.4780 H     1 <1>   0.1500 
 28 H       -1.1110     1.9610     1.5900 H     1 <1>   0.1500 
 29 H       -5.9130     0.8780     0.3470 H     1 <1>   0.0800 
 30 H       -4.0300    -2.4740    -1.3770 H     1 <1>   0.0800 
 31 H       -5.2470    -1.6710    -2.3240 H     1 <1>   0.0800 
 32 H       -4.2720    -0.7160     0.2700 H     1 <1>   0.4500 
 33 H       -7.0500    -0.1990    -2.2490 H     1 <1>   0.0800 
 34 H       -7.6510     1.1440    -1.3070 H     1 <1>   0.0800 
 35 H        0.5020     5.2570    -0.5650 H     1 <1>   0.1500 
 36 H        0.8230     3.2340     2.4860 H     1 <1>   0.0800 
 37 H       -0.0030     4.7760     2.4660 H     1 <1>   0.0800 
 38 H        1.4970     4.5680     1.5900 H     1 <1>   0.0800 
 39 H       -6.1940    -1.3980     1.3970 H     1 <1>   0.0800 
 40 H       -8.0910    -2.4800     0.3430 H     1 <1>   0.0800 
 41 H       -7.3120    -2.4540    -1.2180 H     1 <1>   0.0800 
 42 H       -5.3390    -3.7860    -0.2330 H     1 <1>   0.0800 
 43 H       -4.3570    -3.0620     1.0200 H     1 <1>   0.0800 
 44 H       -6.1690    -3.4730     2.6650 H     1 <1>   0.0800 
 45 H       -7.1110    -4.2580     1.4250 H     1 <1>   0.0800 
 46 H       -4.3830    -5.1720     2.3810 H     1 <1>   0.0800 
 47 H       -5.3260    -5.9530     1.1300 H     1 <1>   0.0800 
 48 H       -5.9120    -5.9150     2.7730 H     1 <1>   0.0800 
@<TRIPOS>BOND
  1   1   2  2   
  2   2   3  am  
  3   2   4  1   
  4   3   5  1   
  5   3   6  1   
  6   4   7  ar  
  7   4   8  ar  
  8   5   9  1   
  9   5  23  1   
 10   5  24  1   
 11   6  10  1   
 12   6  25  1   
 13   6  26  1   
 14   7  11  ar  
 15   7  27  1   
 16   8  12  ar  
 17   8  28  1   
 18   9  13  1   
 19   9  14  1   
 20   9  29  1   
 21  10  13  1   
 22  10  30  1   
 23  10  31  1   
 24  11  15  ar  
 25  12  15  ar  
 26  12  16  1   
 27  13  17  1   
 28  13  32  1   
 29  14  18  1   
 30  14  33  1   
 31  14  34  1   
 32  15  35  1   
 33  16  36  1   
 34  16  37  1   
 35  16  38  1   
 36  17  19  1   
 37  17  20  1   
 38  17  39  1   
 39  18  19  1   
 40  19  40  1   
 41  19  41  1   
 42  20  21  1   
 43  20  42  1   
 44  20  43  1   
 45  21  22  1   
 46  21  44  1   
 47  21  45  1   
 48  22  46  1   
 49  22  47  1   
 50  22  48  1   
@<TRIPOS>SUBSTRUCTURE
  1 ****   1 GROUP 4 **** **** 0

# MOE 2024.06 (io_trps.svl 2023.06)
