@<TRIPOS>MOLECULE
NONAME
53 55 1 0 0 
SMALL
USER_CHARGES


@<TRIPOS>ATOM
  1 O       -0.7610     0.4530    -1.8820 O.2   1 <1>  -0.5700 
  2 C       -1.5060     1.1320    -1.2010 C.2   1 <1>   0.5440 
  3 N       -2.2980     0.5160    -0.2560 N.am  1 <1>  -0.6600 
  4 C       -1.5340     2.5680    -1.4030 C.ar  1 <1>   0.0860 
  5 C       -2.4540    -0.9700    -0.2000 C.3   1 <1>   0.1400 
  6 C       -2.8510     1.2090     0.9470 C.3   1 <1>   0.1400 
  7 C       -0.3810     3.3260    -1.4580 C.ar  1 <1>  -0.1500 
  8 C       -2.7140     3.2820    -1.5640 C.ar  1 <1>  -0.1500 
  9 C       -1.9810    -1.5150     1.1570 C.3   1 <1>   0.1200 
 10 C       -2.3610     0.5300     2.2380 C.3   1 <1>   0.1200 
 11 C       -0.4320     4.7000    -1.6480 C.ar  1 <1>   0.4100 
 12 C       -2.6750     4.6490    -1.7440 C.ar  1 <1>   0.1600 
 13 O       -2.6210    -0.8440     2.2070 O.3   1 <1>  -0.5600 
 14 N       -1.5700     5.3710    -1.7820 N.ar  1 <1>  -0.6200 
 15 N        0.7480     5.4200    -1.7190 N.pl3 1 <1>  -0.8380 
 16 C        0.7560     6.8340    -1.2540 C.3   1 <1>   0.2090 
 17 C        1.6580     5.1180    -2.8590 C.3   1 <1>   0.1290 
 18 C        2.1000     7.1720    -0.6080 C.3   1 <1>  -0.1600 
 19 C        2.0950     8.5890    -0.0240 C.3   1 <1>   0.0210 
 20 C        3.4560     8.9220     0.5630 C.2   1 <1>  -0.1810 
 21 C        4.5250     9.5240    -0.1000 C.2   1 <1>   0.1080 
 22 C        3.9070     8.7110     1.8190 C.2   1 <1>  -0.3320 
 23 N        5.5550     9.6810     0.6680 N.2   1 <1>  -0.7070 
 24 C        4.5340     9.9650    -1.5470 C.3   1 <1>  -0.0590 
 25 N        5.1720     9.1780     1.8540 N.pl3 1 <1>   0.3000 
 26 C        3.2210     8.0810     3.0190 C.3   1 <1>  -0.0600 
 27 H       -1.8960    -1.4450    -0.9880 H     1 <1>   0.0800 
 28 H       -3.4910    -1.2200    -0.3370 H     1 <1>   0.0800 
 29 H       -3.9260     1.1700     0.9150 H     1 <1>   0.0800 
 30 H       -2.5520     2.2410     0.9660 H     1 <1>   0.0800 
 31 H        0.5750     2.8510    -1.3530 H     1 <1>   0.1500 
 32 H       -3.6550     2.7630    -1.5530 H     1 <1>   0.1500 
 33 H       -0.9170    -1.3910     1.2620 H     1 <1>   0.0800 
 34 H       -2.2170    -2.5600     1.2400 H     1 <1>   0.0800 
 35 H       -2.8710     0.9410     3.0910 H     1 <1>   0.0800 
 36 H       -1.3020     0.6780     2.3650 H     1 <1>   0.0800 
 37 H       -3.6020     5.1830    -1.8660 H     1 <1>   0.1500 
 38 H       -0.0270     6.9750    -0.5280 H     1 <1>   0.0800 
 39 H        0.5600     7.4860    -2.0880 H     1 <1>   0.0800 
 40 H        1.3300     4.2370    -3.3830 H     1 <1>   0.0800 
 41 H        2.6550     4.9510    -2.4930 H     1 <1>   0.0800 
 42 H        1.6670     5.9420    -3.5520 H     1 <1>   0.0800 
 43 H        2.8850     7.1000    -1.3370 H     1 <1>   0.0800 
 44 H        2.3000     6.4690     0.1810 H     1 <1>   0.0800 
 45 H        1.3470     8.6640     0.7450 H     1 <1>   0.0800 
 46 H        1.8500     9.3050    -0.7880 H     1 <1>   0.0800 
 47 H        4.1490     9.1840    -2.1740 H     1 <1>   0.0800 
 48 H        5.5410    10.1890    -1.8510 H     1 <1>   0.0800 
 49 H        3.9320    10.8470    -1.6580 H     1 <1>   0.0800 
 50 H        5.7980     9.1670     2.6670 H     1 <1>   0.2700 
 51 H        2.2370     7.7370     2.7560 H     1 <1>   0.0800 
 52 H        3.1310     8.8000     3.8130 H     1 <1>   0.0800 
 53 H        3.7900     7.2390     3.3700 H     1 <1>   0.0800 
@<TRIPOS>BOND
  1   1   2  2   
  2   2   3  am  
  3   2   4  1   
  4   3   5  1   
  5   3   6  1   
  6   4   7  ar  
  7   4   8  ar  
  8   5   9  1   
  9   5  27  1   
 10   5  28  1   
 11   6  10  1   
 12   6  29  1   
 13   6  30  1   
 14   7  11  ar  
 15   7  31  1   
 16   8  12  ar  
 17   8  32  1   
 18   9  13  1   
 19   9  33  1   
 20   9  34  1   
 21  10  13  1   
 22  10  35  1   
 23  10  36  1   
 24  11  14  ar  
 25  11  15  1   
 26  12  14  ar  
 27  12  37  1   
 28  15  16  1   
 29  15  17  1   
 30  16  18  1   
 31  16  38  1   
 32  16  39  1   
 33  17  40  1   
 34  17  41  1   
 35  17  42  1   
 36  18  19  1   
 37  18  43  1   
 38  18  44  1   
 39  19  20  1   
 40  19  45  1   
 41  19  46  1   
 42  20  21  1   
 43  20  22  2   
 44  21  23  2   
 45  21  24  1   
 46  22  25  1   
 47  22  26  1   
 48  23  25  1   
 49  24  47  1   
 50  24  48  1   
 51  24  49  1   
 52  25  50  1   
 53  26  51  1   
 54  26  52  1   
 55  26  53  1   
@<TRIPOS>SUBSTRUCTURE
  1 ****  11 GROUP 4 **** **** 0

# MOE 2024.06 (io_trps.svl 2023.06)
