@<TRIPOS>MOLECULE
NONAME
60 63 1 0 0 
SMALL
USER_CHARGES


@<TRIPOS>ATOM
  1 O       -2.8630     0.2140    -2.6850 O.2   1 <1>  -0.5700 
  2 C       -2.3340     0.7300    -1.7280 C.2   1 <1>   0.5690 
  3 N       -1.7460    -0.0360    -0.7700 N.am  1 <1>  -0.7300 
  4 C       -2.3410     2.2640    -1.5430 C.3   1 <1>   0.2040 
  5 C       -1.6260    -1.5100    -0.7940 C.3   1 <1>   0.2200 
  6 C       -0.9680     2.7190    -0.9860 C.ar  1 <1>  -0.1440 
  7 C       -2.6370     3.0620    -2.8280 C.3   1 <1>  -0.1600 
  8 C       -3.5470     2.6700    -0.6720 C.3   1 <1>  -0.1600 
  9 C       -2.6070    -2.1580     0.1720 C.3   1 <1>  -0.0800 
 10 C       -0.3010    -1.9040    -0.1560 C.3   1 <1>   0.1200 
 11 C       -0.8040     3.4300     0.2000 C.ar  1 <1>  -0.1500 
 12 C        0.1750     2.3830    -1.7060 C.ar  1 <1>  -0.1500 
 13 C       -3.1730     4.4130    -2.3510 C.3   1 <1>  -0.1600 
 14 C       -3.8650     4.1330    -1.0130 C.3   1 <1>  -0.1600 
 15 C       -1.8650    -2.0950     1.5120 C.3   1 <1>   0.1200 
 16 C       -4.0210    -1.5470     0.2030 C.3   1 <1>  -0.0170 
 17 O       -0.5210    -1.8360     1.2200 O.3   1 <1>  -0.5600 
 18 C        0.4530     3.7870     0.6580 C.ar  1 <1>   0.0830 
 19 C        1.4350     2.7510    -1.2690 C.ar  1 <1>  -0.1500 
 20 C       -4.9350    -2.3390     1.1230 C.ar  1 <1>  -0.1430 
 21 O        0.5180     4.4370     1.8470 O.3   1 <1>  -0.3620 
 22 C        1.5850     3.4670    -0.0970 C.ar  1 <1>   0.0830 
 23 C       -5.5590    -3.4960     0.7030 C.ar  1 <1>  -0.1500 
 24 C       -5.1900    -1.9470     2.4220 C.ar  1 <1>  -0.1500 
 25 C        1.1810     3.7640     2.8960 C.3   1 <1>   0.0400 
 26 O        2.8410     3.8310     0.2590 O.3   1 <1>  -0.3630 
 27 C       -6.3790    -4.1890     1.5790 C.ar  1 <1>   0.1600 
 28 C       -6.0270    -2.7120     3.2170 C.ar  1 <1>   0.1600 
 29 C        3.1150     5.2150     0.2450 C.3   1 <1>   0.0400 
 30 N       -6.6260    -3.8250     2.8270 N.ar  1 <1>  -0.6200 
 31 H       -1.2520     0.4170     0.0050 H     1 <1>   0.3700 
 32 H       -1.7240    -1.8820    -1.8000 H     1 <1>   0.0800 
 33 H       -1.7750     3.1720    -3.4620 H     1 <1>   0.0800 
 34 H       -3.4110     2.5700    -3.3920 H     1 <1>   0.0800 
 35 H       -4.3920     2.0720    -0.9680 H     1 <1>   0.0800 
 36 H       -3.3890     2.5040     0.3770 H     1 <1>   0.0800 
 37 H       -2.6960    -3.1950    -0.0970 H     1 <1>   0.0800 
 38 H        0.5070    -1.2470    -0.4290 H     1 <1>   0.0800 
 39 H       -0.0470    -2.9210    -0.4000 H     1 <1>   0.0800 
 40 H       -1.6380     3.7260     0.8060 H     1 <1>   0.1500 
 41 H        0.0910     1.8270    -2.6250 H     1 <1>   0.1500 
 42 H       -2.3490     5.0890    -2.1930 H     1 <1>   0.0800 
 43 H       -3.8470     4.8450    -3.0690 H     1 <1>   0.0800 
 44 H       -4.9290     4.2780    -1.0910 H     1 <1>   0.0800 
 45 H       -3.4800     4.7970    -0.2570 H     1 <1>   0.0800 
 46 H       -1.9350    -3.0240     2.0510 H     1 <1>   0.0800 
 47 H       -2.2230    -1.2890     2.1270 H     1 <1>   0.0800 
 48 H       -4.4300    -1.5460    -0.7930 H     1 <1>   0.0800 
 49 H       -3.9820    -0.5240     0.5350 H     1 <1>   0.0800 
 50 H        2.3080     2.4890    -1.8400 H     1 <1>   0.1500 
 51 H       -5.4160    -3.8650    -0.2960 H     1 <1>   0.1500 
 52 H       -4.7470    -1.0540     2.8250 H     1 <1>   0.1500 
 53 H        1.0300     4.3220     3.8020 H     1 <1>   0.0800 
 54 H        2.2310     3.7040     2.6750 H     1 <1>   0.0800 
 55 H        0.7640     2.7770     2.9950 H     1 <1>   0.0800 
 56 H       -6.8570    -5.0890     1.2330 H     1 <1>   0.1500 
 57 H       -6.2140    -2.3920     4.2280 H     1 <1>   0.1500 
 58 H        4.1600     5.3530     0.4560 H     1 <1>   0.0800 
 59 H        2.5210     5.7050     0.9950 H     1 <1>   0.0800 
 60 H        2.8800     5.6050    -0.7300 H     1 <1>   0.0800 
@<TRIPOS>BOND
  1   1   2  2   
  2   2   3  am  
  3   2   4  1   
  4   3   5  1   
  5   3  31  1   
  6   4   6  1   
  7   4   7  1   
  8   4   8  1   
  9   5   9  1   
 10   5  10  1   
 11   5  32  1   
 12   6  11  ar  
 13   6  12  ar  
 14   7  13  1   
 15   7  33  1   
 16   7  34  1   
 17   8  14  1   
 18   8  35  1   
 19   8  36  1   
 20   9  15  1   
 21   9  16  1   
 22   9  37  1   
 23  10  17  1   
 24  10  38  1   
 25  10  39  1   
 26  11  18  ar  
 27  11  40  1   
 28  12  19  ar  
 29  12  41  1   
 30  13  14  1   
 31  13  42  1   
 32  13  43  1   
 33  14  44  1   
 34  14  45  1   
 35  15  17  1   
 36  15  46  1   
 37  15  47  1   
 38  16  20  1   
 39  16  48  1   
 40  16  49  1   
 41  18  21  1   
 42  18  22  ar  
 43  19  22  ar  
 44  19  50  1   
 45  20  23  ar  
 46  20  24  ar  
 47  21  25  1   
 48  22  26  1   
 49  23  27  ar  
 50  23  51  1   
 51  24  28  ar  
 52  24  52  1   
 53  25  53  1   
 54  25  54  1   
 55  25  55  1   
 56  26  29  1   
 57  27  30  ar  
 58  27  56  1   
 59  28  30  ar  
 60  28  57  1   
 61  29  58  1   
 62  29  59  1   
 63  29  60  1   
@<TRIPOS>SUBSTRUCTURE
  1 ****   3 GROUP 4 **** **** 0

# MOE 2024.06 (io_trps.svl 2023.06)
