@<TRIPOS>MOLECULE
NONAME
49 51 1 0 0 
SMALL
USER_CHARGES


@<TRIPOS>ATOM
  1 F       -1.9330    -0.8940    -0.3620 F     1 <1>  -0.1900 
  2 C       -1.4160    -2.0890    -0.2290 C.ar  1 <1>   0.1900 
  3 C       -0.4180    -2.5210    -1.0850 C.ar  1 <1>   0.1900 
  4 C       -1.8890    -2.9080     0.7800 C.ar  1 <1>  -0.1500 
  5 F        0.0240    -1.7410    -2.0380 F     1 <1>  -0.1900 
  6 C        0.1300    -3.7830    -0.9480 C.ar  1 <1>  -0.1500 
  7 C       -1.3510    -4.1820     0.9240 C.ar  1 <1>  -0.1440 
  8 C       -0.3420    -4.6080     0.0630 C.ar  1 <1>  -0.1500 
  9 C       -1.8560    -5.1150     2.0220 C.3   1 <1>   0.0450 
 10 C       -2.2610    -6.4860     1.4920 C.2   1 <1>   0.5690 
 11 O       -1.6370    -7.4410     1.8890 O.2   1 <1>  -0.5700 
 12 N       -3.2980    -6.6540     0.6020 N.am  1 <1>  -0.6600 
 13 C       -3.5670    -7.9870    -0.0070 C.3   1 <1>   0.1400 
 14 C       -4.2660    -5.5950     0.1990 C.3   1 <1>   0.1400 
 15 C       -4.9860    -8.4620     0.3760 C.3   1 <1>   0.4230 
 16 C       -5.6770    -6.0510     0.5950 C.3   1 <1>  -0.1600 
 17 N       -5.2970    -9.8870    -0.0650 N.4   1 <1>  -0.9590 
 18 C       -6.0820    -7.4250    -0.0140 C.3   1 <1>   0.0000 
 19 C       -6.7590   -10.2180    -0.0800 C.3   1 <1>   0.3430 
 20 C       -4.6640   -10.3210    -1.3550 C.3   1 <1>   0.2630 
 21 C       -7.4430    -7.8620     0.6040 C.3   1 <1>  -0.1600 
 22 C       -6.1960    -7.3180    -1.5620 C.3   1 <1>   0.1200 
 23 C       -7.5250    -9.3660     0.9300 C.3   1 <1>  -0.1600 
 24 O       -7.0060    -6.2610    -1.9430 O.3   1 <1>  -0.6800 
 25 H       -2.6610    -2.5420     1.4340 H     1 <1>   0.1500 
 26 H        0.9080    -4.1090    -1.6150 H     1 <1>   0.1500 
 27 H        0.0850    -5.5920     0.1780 H     1 <1>   0.1500 
 28 H       -2.6910    -4.6830     2.5390 H     1 <1>   0.0800 
 29 H       -1.0700    -5.2460     2.7430 H     1 <1>   0.0800 
 30 H       -3.4600    -7.8960    -1.0730 H     1 <1>   0.0800 
 31 H       -2.8490    -8.7080     0.3400 H     1 <1>   0.0800 
 32 H       -4.0500    -4.6620     0.6850 H     1 <1>   0.0800 
 33 H       -4.2030    -5.4310    -0.8640 H     1 <1>   0.0800 
 34 H       -4.9870    -8.4770     1.4530 H     1 <1>   0.0800 
 35 H       -5.7070    -6.1020     1.6700 H     1 <1>   0.0800 
 36 H       -6.3780    -5.2870     0.3050 H     1 <1>   0.0800 
 37 H       -4.8840   -10.4770     0.6740 H     1 <1>   0.4500 
 38 H       -7.1660   -10.0310    -1.0610 H     1 <1>   0.0800 
 39 H       -6.9010   -11.2640     0.1420 H     1 <1>   0.0800 
 40 H       -5.0190    -9.7160    -2.1730 H     1 <1>   0.0800 
 41 H       -4.9050   -11.3510    -1.5610 H     1 <1>   0.0800 
 42 H       -3.5910   -10.2320    -1.2990 H     1 <1>   0.0800 
 43 H       -7.6340    -7.3260     1.5190 H     1 <1>   0.0800 
 44 H       -8.2490    -7.6050    -0.0610 H     1 <1>   0.0800 
 45 H       -6.6120    -8.2110    -1.9920 H     1 <1>   0.0800 
 46 H       -5.2370    -7.1390    -2.0140 H     1 <1>   0.0800 
 47 H       -8.5590    -9.6680     0.9370 H     1 <1>   0.0800 
 48 H       -7.1370    -9.5550     1.9160 H     1 <1>   0.0800 
 49 H       -7.9340    -6.3820    -1.6610 H     1 <1>   0.4000 
@<TRIPOS>BOND
  1   1   2  1   
  2   2   3  ar  
  3   2   4  ar  
  4   3   5  1   
  5   3   6  ar  
  6   4   7  ar  
  7   4  25  1   
  8   6   8  ar  
  9   6  26  1   
 10   7   8  ar  
 11   7   9  1   
 12   8  27  1   
 13   9  10  1   
 14   9  28  1   
 15   9  29  1   
 16  10  11  2   
 17  10  12  am  
 18  12  13  1   
 19  12  14  1   
 20  13  15  1   
 21  13  30  1   
 22  13  31  1   
 23  14  16  1   
 24  14  32  1   
 25  14  33  1   
 26  15  17  1   
 27  15  18  1   
 28  15  34  1   
 29  16  18  1   
 30  16  35  1   
 31  16  36  1   
 32  17  19  1   
 33  17  20  1   
 34  17  37  1   
 35  18  21  1   
 36  18  22  1   
 37  19  23  1   
 38  19  38  1   
 39  19  39  1   
 40  20  40  1   
 41  20  41  1   
 42  20  42  1   
 43  21  23  1   
 44  21  43  1   
 45  21  44  1   
 46  22  24  1   
 47  22  45  1   
 48  22  46  1   
 49  23  47  1   
 50  23  48  1   
 51  24  49  1   
@<TRIPOS>SUBSTRUCTURE
  1 ****  14 GROUP 4 **** **** 0

# MOE 2024.06 (io_trps.svl 2023.06)
