@<TRIPOS>MOLECULE
NONAME
51 53 1 0 0 
SMALL
USER_CHARGES


@<TRIPOS>ATOM
  1 O        0.3830    -0.0100    -0.7430 O.3   1 <1>  -0.5600 
  2 C        1.5930    -0.7260    -0.8230 C.3   1 <1>   0.2000 
  3 C        0.4900     1.3740    -0.8960 C.3   1 <1>   0.1200 
  4 C        2.6300    -0.1920     0.2030 C.3   1 <1>   0.5660 
  5 C        1.2980    -2.2130    -0.5650 C.3   1 <1>   0.1200 
  6 C        1.3900     1.9580     0.2070 C.3   1 <1>   0.3430 
  7 N        2.7380     1.3010     0.2190 N.4   1 <1>  -0.9590 
  8 C        4.0200    -0.7520    -0.0710 C.ar  1 <1>  -0.1440 
  9 O        1.0710    -2.4300     0.7920 O.3   1 <1>  -0.6800 
 10 C        3.5780     1.7700     1.3520 C.3   1 <1>   0.4870 
 11 C        4.6140    -1.5650     0.8840 C.ar  1 <1>  -0.1500 
 12 C        4.7110    -0.4650    -1.2440 C.ar  1 <1>  -0.1500 
 13 C        3.9160     3.2250     1.1020 C.ar  1 <1>  -0.1440 
 14 C        5.8830    -2.0790     0.6870 C.ar  1 <1>   0.0820 
 15 C        5.9860    -0.9680    -1.4420 C.ar  1 <1>  -0.1500 
 16 C        3.2430     4.2320     1.7800 C.ar  1 <1>  -0.1500 
 17 C        4.9010     3.5590     0.1830 C.ar  1 <1>  -0.1500 
 18 O        6.3780    -2.8820     1.6590 O.3   1 <1>  -0.3620 
 19 C        6.5880    -1.7570    -0.4780 C.ar  1 <1>   0.0820 
 20 C        3.5410     5.5590     1.5290 C.ar  1 <1>  -0.1500 
 21 C        5.1980     4.8870    -0.0660 C.ar  1 <1>  -0.1500 
 22 C        6.6350    -4.2250     1.3060 C.3   1 <1>   0.0400 
 23 O        7.8500    -2.1830    -0.7240 O.3   1 <1>  -0.3630 
 24 C        4.5160     5.8870     0.6040 C.ar  1 <1>  -0.1500 
 25 C        8.8630    -1.7110     0.1380 C.3   1 <1>   0.0400 
 26 H        1.9640    -0.6170    -1.8260 H     1 <1>   0.0800 
 27 H        0.8780     1.5910    -1.8760 H     1 <1>   0.0800 
 28 H       -0.5010     1.7870    -0.8200 H     1 <1>   0.0800 
 29 H        2.3130    -0.5250     1.1780 H     1 <1>   0.0800 
 30 H        2.1370    -2.8230    -0.8590 H     1 <1>   0.0800 
 31 H        0.4270    -2.5200    -1.1180 H     1 <1>   0.0800 
 32 H        0.9010     1.8090     1.1560 H     1 <1>   0.0800 
 33 H        1.4990     3.0190     0.0530 H     1 <1>   0.0800 
 34 H        3.2380     1.5760    -0.6310 H     1 <1>   0.4500 
 35 H        0.6540    -3.3060     0.9370 H     1 <1>   0.4000 
 36 H        3.0510     1.6600     2.2860 H     1 <1>   0.0800 
 37 H        4.4930     1.2020     1.4050 H     1 <1>   0.0800 
 38 H        4.1000    -1.8240     1.7950 H     1 <1>   0.1500 
 39 H        4.2790     0.1440    -2.0190 H     1 <1>   0.1500 
 40 H        6.5290    -0.7490    -2.3450 H     1 <1>   0.1500 
 41 H        2.4860     4.0010     2.5110 H     1 <1>   0.1500 
 42 H        5.4520     2.7970    -0.3430 H     1 <1>   0.1500 
 43 H        3.0200     6.3420     2.0550 H     1 <1>   0.1500 
 44 H        5.9630     5.1480    -0.7780 H     1 <1>   0.1500 
 45 H        6.9090    -4.7600     2.1970 H     1 <1>   0.0800 
 46 H        7.4410    -4.2630     0.5960 H     1 <1>   0.0800 
 47 H        5.7430    -4.6510     0.8810 H     1 <1>   0.0800 
 48 H        4.7490     6.9210     0.4110 H     1 <1>   0.1500 
 49 H        9.8100    -2.0580    -0.2360 H     1 <1>   0.0800 
 50 H        8.7000    -2.0940     1.1280 H     1 <1>   0.0800 
 51 H        8.8420    -0.6360     0.1440 H     1 <1>   0.0800 
@<TRIPOS>BOND
  1   1   2  1   
  2   1   3  1   
  3   2   4  1   
  4   2   5  1   
  5   2  26  1   
  6   3   6  1   
  7   3  27  1   
  8   3  28  1   
  9   4   7  1   
 10   4   8  1   
 11   4  29  1   
 12   5   9  1   
 13   5  30  1   
 14   5  31  1   
 15   6   7  1   
 16   6  32  1   
 17   6  33  1   
 18   7  10  1   
 19   7  34  1   
 20   8  11  ar  
 21   8  12  ar  
 22   9  35  1   
 23  10  13  1   
 24  10  36  1   
 25  10  37  1   
 26  11  14  ar  
 27  11  38  1   
 28  12  15  ar  
 29  12  39  1   
 30  13  16  ar  
 31  13  17  ar  
 32  14  18  1   
 33  14  19  ar  
 34  15  19  ar  
 35  15  40  1   
 36  16  20  ar  
 37  16  41  1   
 38  17  21  ar  
 39  17  42  1   
 40  18  22  1   
 41  19  23  1   
 42  20  24  ar  
 43  20  43  1   
 44  21  24  ar  
 45  21  44  1   
 46  22  45  1   
 47  22  46  1   
 48  22  47  1   
 49  23  25  1   
 50  24  48  1   
 51  25  49  1   
 52  25  50  1   
 53  25  51  1   
@<TRIPOS>SUBSTRUCTURE
  1 ****   8 GROUP 4 **** **** 0

# MOE 2024.06 (io_trps.svl 2023.06)
