@<TRIPOS>MOLECULE
NONAME
67 70 1 0 0 
SMALL
USER_CHARGES


@<TRIPOS>ATOM
  1 O       -3.2590     1.1260    -1.3510 O.2   1 <1>  -0.5700 
  2 C       -3.1480     1.7270    -0.3010 C.2   1 <1>   0.5440 
  3 N       -3.4200     1.0180     0.8350 N.am  1 <1>  -0.6600 
  4 C       -2.8210     3.1450    -0.2730 C.ar  1 <1>   0.0860 
  5 C       -2.5360    -0.1270     1.2180 C.3   1 <1>   0.3210 
  6 C       -4.7030     1.2010     1.5860 C.3   1 <1>   0.1400 
  7 C       -2.8620     3.9140    -1.4370 C.ar  1 <1>  -0.1500 
  8 C       -2.4520     3.8010     0.9040 C.ar  1 <1>  -0.1500 
  9 C       -3.1150    -1.4970     0.8660 C.2   1 <1>   0.0460 
 10 C       -5.8380     0.2970     1.0570 C.3   1 <1>   0.3430 
 11 C       -2.5590     5.2620    -1.4310 C.ar  1 <1>  -0.1500 
 12 C       -2.1460     5.1500     0.9180 C.ar  1 <1>  -0.1500 
 13 N       -3.9810    -2.1250     1.6910 N.2   1 <1>  -0.5650 
 14 C       -2.8300    -2.2740    -0.2070 C.2   1 <1>  -0.3320 
 15 N       -5.8060     0.1790    -0.4350 N.4   1 <1>  -0.9590 
 16 C       -2.1920     5.8920    -0.2520 C.ar  1 <1>  -0.1430 
 17 C       -4.1680    -3.2760     1.1310 C.2   1 <1>   0.0360 
 18 N       -3.5000    -3.4290    -0.0300 N.pl3 1 <1>   0.0330 
 19 C       -1.9290    -2.0260    -1.4060 C.3   1 <1>  -0.0600 
 20 C       -6.4860     1.3020    -1.1390 C.3   1 <1>   0.2630 
 21 C       -6.2990    -1.1500    -0.8820 C.3   1 <1>   0.2630 
 22 C       -1.8390     7.3690    -0.2480 C.3   1 <1>   0.4860 
 23 N       -0.3650     7.5060    -0.1360 N.4   1 <1>  -0.9590 
 24 C        0.0420     8.9150     0.1080 C.3   1 <1>   0.4870 
 25 C        0.3670     6.9550    -1.3150 C.3   1 <1>   0.3430 
 26 C        1.5490     8.9990     0.2850 C.ar  1 <1>  -0.1430 
 27 C        1.8570     6.8220    -0.9900 C.3   1 <1>  -0.0170 
 28 C        2.4000     8.0300    -0.2390 C.ar  1 <1>  -0.1430 
 29 C        2.0830    10.0760     0.9770 C.ar  1 <1>  -0.1500 
 30 C        3.7690     8.1510    -0.0640 C.ar  1 <1>  -0.1500 
 31 C        3.4500    10.1900     1.1470 C.ar  1 <1>  -0.1500 
 32 C        4.2940     9.2280     0.6260 C.ar  1 <1>  -0.1500 
 33 H       -2.3450    -0.0940     2.2760 H     1 <1>   0.0800 
 34 H       -1.5900    -0.0190     0.7190 H     1 <1>   0.0800 
 35 H       -5.0160     2.2270     1.5040 H     1 <1>   0.0800 
 36 H       -4.5440     0.9930     2.6300 H     1 <1>   0.0800 
 37 H       -3.1360     3.4410    -2.3660 H     1 <1>   0.1500 
 38 H       -2.4010     3.2450     1.8250 H     1 <1>   0.1500 
 39 H       -6.7930     0.6730     1.3840 H     1 <1>   0.0800 
 40 H       -5.7180    -0.6780     1.4930 H     1 <1>   0.0800 
 41 H       -2.6130     5.8100    -2.3590 H     1 <1>   0.1500 
 42 H       -1.8730     5.6090     1.8540 H     1 <1>   0.1500 
 43 H       -4.7870     0.2230    -0.6810 H     1 <1>   0.4500 
 44 H       -4.7880    -4.0570     1.5390 H     1 <1>   0.1500 
 45 H       -3.4760    -4.2620    -0.6270 H     1 <1>   0.2700 
 46 H       -1.5040    -1.0400    -1.3700 H     1 <1>   0.0800 
 47 H       -2.4910    -2.1130    -2.3190 H     1 <1>   0.0800 
 48 H       -1.1260    -2.7410    -1.4230 H     1 <1>   0.0800 
 49 H       -7.5400     1.3030    -0.9150 H     1 <1>   0.0800 
 50 H       -6.3550     1.2010    -2.2040 H     1 <1>   0.0800 
 51 H       -6.0600     2.2430    -0.8330 H     1 <1>   0.0800 
 52 H       -7.3420    -1.2660    -0.6390 H     1 <1>   0.0800 
 53 H       -5.7380    -1.9290    -0.3940 H     1 <1>   0.0800 
 54 H       -6.1720    -1.2530    -1.9470 H     1 <1>   0.0800 
 55 H       -2.3220     7.8440     0.5910 H     1 <1>   0.0800 
 56 H       -2.1910     7.8350    -1.1540 H     1 <1>   0.0800 
 57 H       -0.0540     6.9680     0.6820 H     1 <1>   0.4500 
 58 H       -0.4380     9.2900     0.9970 H     1 <1>   0.0800 
 59 H       -0.2480     9.5350    -0.7250 H     1 <1>   0.0800 
 60 H        0.2450     7.6150    -2.1580 H     1 <1>   0.0800 
 61 H       -0.0200     5.9850    -1.5830 H     1 <1>   0.0800 
 62 H        2.4030     6.6890    -1.9080 H     1 <1>   0.0800 
 63 H        2.0110     5.9410    -0.3930 H     1 <1>   0.0800 
 64 H        1.4480    10.8410     1.3900 H     1 <1>   0.1500 
 65 H        4.4410     7.4080    -0.4620 H     1 <1>   0.1500 
 66 H        3.8620    11.0280     1.6850 H     1 <1>   0.1500 
 67 H        5.3590     9.3170     0.7590 H     1 <1>   0.1500 
@<TRIPOS>BOND
  1   1   2  2   
  2   2   3  am  
  3   2   4  1   
  4   3   5  1   
  5   3   6  1   
  6   4   7  ar  
  7   4   8  ar  
  8   5   9  1   
  9   5  33  1   
 10   5  34  1   
 11   6  10  1   
 12   6  35  1   
 13   6  36  1   
 14   7  11  ar  
 15   7  37  1   
 16   8  12  ar  
 17   8  38  1   
 18   9  13  1   
 19   9  14  2   
 20  10  15  1   
 21  10  39  1   
 22  10  40  1   
 23  11  16  ar  
 24  11  41  1   
 25  12  16  ar  
 26  12  42  1   
 27  13  17  2   
 28  14  18  1   
 29  14  19  1   
 30  15  20  1   
 31  15  21  1   
 32  15  43  1   
 33  16  22  1   
 34  17  18  1   
 35  17  44  1   
 36  18  45  1   
 37  19  46  1   
 38  19  47  1   
 39  19  48  1   
 40  20  49  1   
 41  20  50  1   
 42  20  51  1   
 43  21  52  1   
 44  21  53  1   
 45  21  54  1   
 46  22  23  1   
 47  22  55  1   
 48  22  56  1   
 49  23  24  1   
 50  23  25  1   
 51  23  57  1   
 52  24  26  1   
 53  24  58  1   
 54  24  59  1   
 55  25  27  1   
 56  25  60  1   
 57  25  61  1   
 58  26  28  ar  
 59  26  29  ar  
 60  27  28  1   
 61  27  62  1   
 62  27  63  1   
 63  28  30  ar  
 64  29  31  ar  
 65  29  64  1   
 66  30  32  ar  
 67  30  65  1   
 68  31  32  ar  
 69  31  66  1   
 70  32  67  1   
@<TRIPOS>SUBSTRUCTURE
  1 ****   4 GROUP 4 **** **** 0

# MOE 2024.06 (io_trps.svl 2023.06)
