@<TRIPOS>MOLECULE
NONAME
15 15 1 0 0 
SMALL
USER_CHARGES


@<TRIPOS>ATOM
  1 O        0.9090     7.4720     0.0060 O.3   1 <1>  -0.6800 
  2 C       -0.3580     6.9040     0.0020 C.3   1 <1>   0.2580 
  3 C       -0.2540     5.3860    -0.0010 C.2   1 <1>  -0.1380 
  4 C        0.8320     4.6020    -0.0010 C.2   1 <1>  -0.2880 
  5 C       -1.4210     4.5590    -0.0050 C.2   1 <1>  -0.1500 
  6 C        0.4570     3.1280    -0.0050 C.3   1 <1>   0.1160 
  7 C       -1.0590     3.2710    -0.0070 C.2   1 <1>  -0.2880 
  8 H        0.8450     8.4450     0.0080 H     1 <1>   0.4000 
  9 H       -0.8760     7.2410    -0.8780 H     1 <1>   0.0800 
 10 H       -0.8790     7.2370     0.8820 H     1 <1>   0.0800 
 11 H        1.8680     4.8920     0.0020 H     1 <1>   0.1500 
 12 H       -2.4170     4.9650    -0.0070 H     1 <1>   0.1500 
 13 H        0.8070     2.6300     0.8820 H     1 <1>   0.0800 
 14 H        0.8100     2.6340    -0.8920 H     1 <1>   0.0800 
 15 H       -1.6740     2.3880    -0.0110 H     1 <1>   0.1500 
@<TRIPOS>BOND
  1   1   2  1   
  2   1   8  1   
  3   2   3  1   
  4   2   9  1   
  5   2  10  1   
  6   3   4  2   
  7   3   5  1   
  8   4   6  1   
  9   4  11  1   
 10   5   7  2   
 11   5  12  1   
 12   6   7  1   
 13   6  13  1   
 14   6  14  1   
 15   7  15  1   
@<TRIPOS>SUBSTRUCTURE
  1 ****   3 GROUP 4 **** **** 0

# MOE 2024.06 (io_trps.svl 2023.06)
