@<TRIPOS>MOLECULE
NONAME
47 49 1 0 0 
SMALL
USER_CHARGES


@<TRIPOS>ATOM
  1 CL       2.6980     0.3900    -1.2870 Cl    1 <1>  -0.1770 
  2 C        1.3240     1.3380    -0.7630 C.ar  1 <1>   0.1770 
  3 C        1.4330     2.2890     0.2480 C.ar  1 <1>  -0.1440 
  4 C        0.1220     1.1000    -1.4060 C.ar  1 <1>  -0.1500 
  5 C        0.2930     3.0060     0.5910 C.ar  1 <1>  -0.1500 
  6 C        2.7360     2.5810     0.9940 C.3   1 <1>   0.3640 
  7 C       -1.0020     1.8200    -1.0470 C.ar  1 <1>  -0.1500 
  8 C       -0.9130     2.7740    -0.0490 C.ar  1 <1>  -0.1500 
  9 N        3.1610     1.3440     1.6950 N.am  1 <1>  -0.7300 
 10 C        3.8430     3.1850     0.0810 C.3   1 <1>   0.2610 
 11 C        4.4030     0.8230     1.6050 C.2   1 <1>   0.5690 
 12 O        5.1510     2.9020     0.5720 O.3   1 <1>  -0.5600 
 13 C        3.6470     4.7020    -0.0540 C.2   1 <1>   0.5690 
 14 O        4.6930    -0.1870     2.1950 O.2   1 <1>  -0.5700 
 15 C        5.4360     1.5290     0.7260 C.3   1 <1>   0.1810 
 16 O        2.5460     5.1520    -0.2690 O.2   1 <1>  -0.5700 
 17 N        4.7190     5.5210     0.0720 N.am  1 <1>  -0.7300 
 18 C        4.7200     6.9760    -0.1250 C.3   1 <1>   0.3210 
 19 C        6.0840     7.3670    -0.6500 C.2   1 <1>  -0.1810 
 20 C        7.1420     7.9370    -0.0280 C.2   1 <1>  -0.3320 
 21 C        6.5030     7.1820    -1.9620 C.2   1 <1>   0.1390 
 22 N        8.1160     8.0690    -0.9610 N.pl3 1 <1>   0.3140 
 23 C        7.2850     8.3680     1.4250 C.3   1 <1>  -0.0600 
 24 N        7.7140     7.5990    -2.1560 N.2   1 <1>  -0.7070 
 25 C        9.4670     8.6450    -0.7900 C.3   1 <1>   0.0960 
 26 C       10.4780     7.5760    -0.3530 C.3   1 <1>  -0.2400 
 27 H        0.0700     0.3560    -2.1800 H     1 <1>   0.1500 
 28 H        0.3340     3.7620     1.3580 H     1 <1>   0.1500 
 29 H        2.5280     3.3110     1.7580 H     1 <1>   0.0800 
 30 H       -1.9410     1.6410    -1.5420 H     1 <1>   0.1500 
 31 H       -1.7850     3.3410     0.2290 H     1 <1>   0.1500 
 32 H        2.4590     0.8400     2.2390 H     1 <1>   0.3700 
 33 H        3.7760     2.7680    -0.9050 H     1 <1>   0.0800 
 34 H        5.4590     1.0710    -0.2450 H     1 <1>   0.0800 
 35 H        6.4070     1.4430     1.1780 H     1 <1>   0.0800 
 36 H        5.6380     5.1040     0.2550 H     1 <1>   0.3700 
 37 H        3.9540     7.2560    -0.8280 H     1 <1>   0.0800 
 38 H        4.5230     7.4640     0.8130 H     1 <1>   0.0800 
 39 H        5.8980     6.7410    -2.7370 H     1 <1>   0.1500 
 40 H        6.3980     8.1290     1.9830 H     1 <1>   0.0800 
 41 H        7.4460     9.4300     1.4820 H     1 <1>   0.0800 
 42 H        8.1160     7.8620     1.8820 H     1 <1>   0.0800 
 43 H        9.7680     9.0660    -1.7320 H     1 <1>   0.0800 
 44 H        9.4180     9.4350    -0.0650 H     1 <1>   0.0800 
 45 H       10.5280     6.7970    -1.0940 H     1 <1>   0.0800 
 46 H       10.1920     7.1510     0.5920 H     1 <1>   0.0800 
 47 H       11.4540     8.0160    -0.2530 H     1 <1>   0.0800 
@<TRIPOS>BOND
  1   1   2  1   
  2   2   3  ar  
  3   2   4  ar  
  4   3   5  ar  
  5   3   6  1   
  6   4   7  ar  
  7   4  27  1   
  8   5   8  ar  
  9   5  28  1   
 10   6   9  1   
 11   6  10  1   
 12   6  29  1   
 13   7   8  ar  
 14   7  30  1   
 15   8  31  1   
 16   9  11  am  
 17   9  32  1   
 18  10  12  1   
 19  10  13  1   
 20  10  33  1   
 21  11  14  2   
 22  11  15  1   
 23  12  15  1   
 24  13  16  2   
 25  13  17  am  
 26  15  34  1   
 27  15  35  1   
 28  17  18  1   
 29  17  36  1   
 30  18  19  1   
 31  18  37  1   
 32  18  38  1   
 33  19  20  2   
 34  19  21  1   
 35  20  22  1   
 36  20  23  1   
 37  21  24  2   
 38  21  39  1   
 39  22  24  1   
 40  22  25  1   
 41  23  40  1   
 42  23  41  1   
 43  23  42  1   
 44  25  26  1   
 45  25  43  1   
 46  25  44  1   
 47  26  45  1   
 48  26  46  1   
 49  26  47  1   
@<TRIPOS>SUBSTRUCTURE
  1 ****  13 GROUP 4 **** **** 0

# MOE 2024.06 (io_trps.svl 2023.06)
