@<TRIPOS>MOLECULE
NONAME
46 48 1 0 0 
SMALL
USER_CHARGES


@<TRIPOS>ATOM
  1 O        1.0180     0.0200     1.6660 O.2   1 <1>  -0.5700 
  2 C        1.6410    -0.5660     0.8020 C.2   1 <1>   0.5440 
  3 N        2.4640     0.1480    -0.0400 N.am  1 <1>  -0.6600 
  4 C        1.5340    -2.0030     0.6980 C.ar  1 <1>   0.0860 
  5 C        3.3230    -0.4730    -1.0980 C.3   1 <1>   0.1400 
  6 C        2.6360     1.6180     0.1030 C.3   1 <1>   0.1400 
  7 C        0.6400    -2.6440    -0.1550 C.ar  1 <1>  -0.1440 
  8 C        2.3770    -2.7980     1.4680 C.ar  1 <1>   0.1600 
  9 C        4.7830    -0.6230    -0.6450 C.3   1 <1>   0.1400 
 10 C        3.6740     1.9530     1.1830 C.3   1 <1>  -0.1600 
 11 C        0.6770    -4.0230    -0.1820 C.ar  1 <1>  -0.1500 
 12 C       -0.3410    -1.8630    -1.0170 C.3   1 <1>  -0.0960 
 13 N        2.4340    -4.1200     1.4440 N.ar  1 <1>  -0.6200 
 14 N        5.3610     0.6720    -0.1600 N.am  1 <1>  -0.6600 
 15 C        4.9170     1.0510     1.2120 C.3   1 <1>   0.1400 
 16 C        1.5790    -4.7030     0.6200 C.ar  1 <1>   0.1600 
 17 C        6.1800     1.4180    -0.9730 C.2   1 <1>   0.5690 
 18 O        6.3930     1.0750    -2.1140 O.2   1 <1>  -0.5700 
 19 C        6.8510     2.6930    -0.4580 C.3   1 <1>  -0.0190 
 20 C        7.2260     3.7420    -1.5320 C.3   1 <1>  -0.0220 
 21 C        8.1440     2.4120     0.3350 C.3   1 <1>  -0.0220 
 22 C        8.4980     4.3360    -0.9780 C.2   1 <1>  -0.2880 
 23 C        8.9930     3.6200     0.0240 C.2   1 <1>  -0.2880 
 24 H        3.2970     0.1370    -1.9840 H     1 <1>   0.0800 
 25 H        2.9420    -1.4410    -1.3720 H     1 <1>   0.0800 
 26 H        1.6910     2.0710     0.3560 H     1 <1>   0.0800 
 27 H        2.9530     2.0320    -0.8390 H     1 <1>   0.0800 
 28 H        3.0510    -2.2980     2.1420 H     1 <1>   0.1500 
 29 H        5.3640    -0.9990    -1.4700 H     1 <1>   0.0800 
 30 H        4.8410    -1.3590     0.1380 H     1 <1>   0.0800 
 31 H        3.1930     1.8930     2.1440 H     1 <1>   0.0800 
 32 H        3.9750     2.9760     1.0560 H     1 <1>   0.0800 
 33 H        0.0130    -4.5800    -0.8180 H     1 <1>   0.1500 
 34 H       -0.9470    -1.2260    -0.3960 H     1 <1>   0.0800 
 35 H       -0.9900    -2.5250    -1.5610 H     1 <1>   0.0800 
 36 H        0.1910    -1.2490    -1.7220 H     1 <1>   0.0800 
 37 H        4.6780     0.1550     1.7590 H     1 <1>   0.0800 
 38 H        5.7130     1.5390     1.7450 H     1 <1>   0.0800 
 39 H        1.5950    -5.7790     0.5840 H     1 <1>   0.1500 
 40 H        6.1750     3.1950     0.2060 H     1 <1>   0.0800 
 41 H        6.4530     4.4820    -1.6360 H     1 <1>   0.0800 
 42 H        7.4340     3.2970    -2.4890 H     1 <1>   0.0800 
 43 H        8.6350     1.5230    -0.0200 H     1 <1>   0.0800 
 44 H        7.9470     2.3280     1.3890 H     1 <1>   0.0800 
 45 H        8.8910     5.2330    -1.4260 H     1 <1>   0.1500 
 46 H        9.8900     3.7880     0.5960 H     1 <1>   0.1500 
@<TRIPOS>BOND
  1   1   2  2   
  2   2   3  am  
  3   2   4  1   
  4   3   5  1   
  5   3   6  1   
  6   4   7  ar  
  7   4   8  ar  
  8   5   9  1   
  9   5  24  1   
 10   5  25  1   
 11   6  10  1   
 12   6  26  1   
 13   6  27  1   
 14   7  11  ar  
 15   7  12  1   
 16   8  13  ar  
 17   8  28  1   
 18   9  14  1   
 19   9  29  1   
 20   9  30  1   
 21  10  15  1   
 22  10  31  1   
 23  10  32  1   
 24  11  16  ar  
 25  11  33  1   
 26  12  34  1   
 27  12  35  1   
 28  12  36  1   
 29  13  16  ar  
 30  14  15  1   
 31  14  17  am  
 32  15  37  1   
 33  15  38  1   
 34  16  39  1   
 35  17  18  2   
 36  17  19  1   
 37  19  20  1   
 38  19  21  1   
 39  19  40  1   
 40  20  22  1   
 41  20  41  1   
 42  20  42  1   
 43  21  23  1   
 44  21  43  1   
 45  21  44  1   
 46  22  23  2   
 47  22  45  1   
 48  23  46  1   
@<TRIPOS>SUBSTRUCTURE
  1 ****   9 GROUP 4 **** **** 0

# MOE 2024.06 (io_trps.svl 2023.06)
