@<TRIPOS>MOLECULE
NONAME
45 46 1 0 0 
SMALL
USER_CHARGES


@<TRIPOS>ATOM
  1 CL       1.6320     1.0060    -0.1210 Cl    1 <1>  -0.1770 
  2 C        1.6110    -0.6570    -0.6420 C.ar  1 <1>   0.1770 
  3 C        1.7910    -1.6580     0.2990 C.ar  1 <1>  -0.1500 
  4 C        1.4100    -0.9430    -1.9820 C.ar  1 <1>  -0.1500 
  5 C        1.7600    -2.9880    -0.0980 C.ar  1 <1>  -0.1440 
  6 C        1.3840    -2.2650    -2.3930 C.ar  1 <1>  -0.1500 
  7 C        1.5560    -3.2600    -1.4460 C.ar  1 <1>   0.1900 
  8 C        1.9430    -4.1110     0.9110 C.3   1 <1>   0.2540 
  9 F        1.5120    -4.5030    -1.8540 F     1 <1>  -0.1900 
 10 N        0.6460    -4.7770     1.1180 N.3   1 <1>  -0.8100 
 11 C        0.7910    -6.1880     1.5110 C.3   1 <1>   0.2900 
 12 C       -0.2780    -4.0030     1.9920 C.3   1 <1>   0.1100 
 13 C       -0.1370    -6.9560     0.6050 C.2   1 <1>  -0.3320 
 14 C       -1.7630    -4.3160     1.7030 C.3   1 <1>   0.3430 
 15 N        0.0180    -6.9930    -0.7330 N.pl3 1 <1>   0.0330 
 16 C       -1.2360    -7.6900     0.8830 C.2   1 <1>   0.0770 
 17 N       -1.9750    -4.4980     0.2390 N.4   1 <1>  -0.9590 
 18 C       -1.0250    -7.7190    -1.1880 C.2   1 <1>   0.0060 
 19 N       -1.8080    -8.1380    -0.2490 N.2   1 <1>  -0.5650 
 20 C       -1.8500    -3.2330    -0.5390 C.3   1 <1>   0.2630 
 21 C       -3.2310    -5.2420    -0.0740 C.3   1 <1>   0.2630 
 22 C       -1.2370    -8.0130    -2.6580 C.3   1 <1>  -0.0600 
 23 H        1.9530    -1.3840     1.3270 H     1 <1>   0.1500 
 24 H        1.2820    -0.1390    -2.6870 H     1 <1>   0.1500 
 25 H        1.2370    -2.5200    -3.4290 H     1 <1>   0.1500 
 26 H        2.3280    -3.7370     1.8460 H     1 <1>   0.0800 
 27 H        2.6630    -4.8040     0.5080 H     1 <1>   0.0800 
 28 H        0.5310    -6.3370     2.5460 H     1 <1>   0.0800 
 29 H        1.7970    -6.5430     1.3620 H     1 <1>   0.0800 
 30 H       -0.1350    -2.9500     1.8230 H     1 <1>   0.0800 
 31 H       -0.0580    -4.1870     3.0300 H     1 <1>   0.0800 
 32 H       -2.3950    -3.5320     2.0870 H     1 <1>   0.0800 
 33 H       -2.0180    -5.2310     2.2120 H     1 <1>   0.0800 
 34 H        0.7640    -6.5530    -1.2850 H     1 <1>   0.2700 
 35 H       -1.6630    -7.9160     1.8470 H     1 <1>   0.1500 
 36 H       -1.1670    -5.1080    -0.0140 H     1 <1>   0.4500 
 37 H       -2.6360    -2.5470    -0.2700 H     1 <1>   0.0800 
 38 H       -1.9150    -3.4390    -1.5950 H     1 <1>   0.0800 
 39 H       -0.8980    -2.7680    -0.3420 H     1 <1>   0.0800 
 40 H       -4.0950    -4.6530     0.1880 H     1 <1>   0.0800 
 41 H       -3.2630    -6.1690     0.4740 H     1 <1>   0.0800 
 42 H       -3.2720    -5.4760    -1.1250 H     1 <1>   0.0800 
 43 H       -1.3160    -7.0990    -3.2160 H     1 <1>   0.0800 
 44 H       -2.1410    -8.5800    -2.7900 H     1 <1>   0.0800 
 45 H       -0.4150    -8.5910    -3.0380 H     1 <1>   0.0800 
@<TRIPOS>BOND
  1   1   2  1   
  2   2   3  ar  
  3   2   4  ar  
  4   3   5  ar  
  5   3  23  1   
  6   4   6  ar  
  7   4  24  1   
  8   5   7  ar  
  9   5   8  1   
 10   6   7  ar  
 11   6  25  1   
 12   7   9  1   
 13   8  10  1   
 14   8  26  1   
 15   8  27  1   
 16  10  11  1   
 17  10  12  1   
 18  11  13  1   
 19  11  28  1   
 20  11  29  1   
 21  12  14  1   
 22  12  30  1   
 23  12  31  1   
 24  13  15  1   
 25  13  16  2   
 26  14  17  1   
 27  14  32  1   
 28  14  33  1   
 29  15  18  1   
 30  15  34  1   
 31  16  19  1   
 32  16  35  1   
 33  17  20  1   
 34  17  21  1   
 35  17  36  1   
 36  18  19  2   
 37  18  22  1   
 38  20  37  1   
 39  20  38  1   
 40  20  39  1   
 41  21  40  1   
 42  21  41  1   
 43  21  42  1   
 44  22  43  1   
 45  22  44  1   
 46  22  45  1   
@<TRIPOS>SUBSTRUCTURE
  1 ****  10 GROUP 4 **** **** 0

# MOE 2024.06 (io_trps.svl 2023.06)
