@<TRIPOS>MOLECULE
NONAME
43 45 1 0 0 
SMALL
USER_CHARGES


@<TRIPOS>ATOM
  1 CL       1.5360     0.5220    -1.4450 Cl    1 <1>  -0.1770 
  2 C        2.6160    -0.4060    -0.4320 C.ar  1 <1>   0.1770 
  3 C        3.3550     0.2140     0.5620 C.ar  1 <1>   0.0860 
  4 C        2.7250    -1.7680    -0.6460 C.ar  1 <1>   0.1600 
  5 C        3.2920     1.6300     0.8320 C.2   1 <1>   0.5440 
  6 C        4.1650    -0.6370     1.3020 C.ar  1 <1>  -0.1500 
  7 N        3.5120    -2.5750     0.0510 N.ar  1 <1>  -0.6200 
  8 O        2.7430     1.9950     1.8520 O.2   1 <1>  -0.5700 
  9 N        3.8750     2.5640    -0.0030 N.am  1 <1>  -0.6600 
 10 C        4.2090    -1.9890     1.0140 C.ar  1 <1>   0.1600 
 11 C        4.7290     2.1880    -1.1700 C.3   1 <1>   0.1400 
 12 C        3.7460     4.0270     0.2620 C.3   1 <1>   0.1400 
 13 C        6.1790     1.9190    -0.7390 C.3   1 <1>   0.1400 
 14 C        5.0930     4.7630     0.2350 C.3   1 <1>  -0.1600 
 15 N        6.9060     3.1500    -0.2940 N.am  1 <1>  -0.6600 
 16 C        6.2640     3.9470     0.7940 C.3   1 <1>   0.1400 
 17 C        8.2120     3.3700    -0.6890 C.2   1 <1>   0.7150 
 18 O        8.8190     2.4560    -1.2210 O.2   1 <1>  -0.5700 
 19 C        8.8740     4.6330    -0.4760 C.2   1 <1>  -0.2370 
 20 N       10.1780     4.7480    -0.0590 N.pl3 1 <1>   0.0480 
 21 C        8.3870     5.9060    -0.6430 C.2   1 <1>  -0.1500 
 22 C       10.4760     6.0660     0.0420 C.2   1 <1>  -0.3020 
 23 C       11.1190     3.6480     0.2300 C.3   1 <1>   0.0160 
 24 C        9.3940     6.8060    -0.3110 C.2   1 <1>  -0.1500 
 25 H        2.1340    -2.2120    -1.4290 H     1 <1>   0.1500 
 26 H        4.7570    -0.2370     2.1060 H     1 <1>   0.1500 
 27 H        4.8490    -2.6260     1.6040 H     1 <1>   0.1500 
 28 H        4.7120     2.9700    -1.9100 H     1 <1>   0.0800 
 29 H        4.3360     1.3050    -1.6380 H     1 <1>   0.0800 
 30 H        3.2980     4.1840     1.2280 H     1 <1>   0.0800 
 31 H        3.0830     4.4590    -0.4680 H     1 <1>   0.0800 
 32 H        6.6890     1.4850    -1.5820 H     1 <1>   0.0800 
 33 H        6.1940     1.1930     0.0530 H     1 <1>   0.0800 
 34 H        4.9830     5.6530     0.8280 H     1 <1>   0.0800 
 35 H        5.3140     5.0830    -0.7670 H     1 <1>   0.0800 
 36 H        5.9250     3.2900     1.5770 H     1 <1>   0.0800 
 37 H        6.9850     4.6140     1.2330 H     1 <1>   0.0800 
 38 H        7.4050     6.1850    -0.9780 H     1 <1>   0.1500 
 39 H       11.4430     6.4180     0.3550 H     1 <1>   0.1500 
 40 H       10.6560     2.9510     0.9030 H     1 <1>   0.0800 
 41 H       12.0130     4.0410     0.6760 H     1 <1>   0.0800 
 42 H       11.3650     3.1460    -0.6880 H     1 <1>   0.0800 
 43 H        9.3120     7.8790    -0.3410 H     1 <1>   0.1500 
@<TRIPOS>BOND
  1   1   2  1   
  2   2   3  ar  
  3   2   4  ar  
  4   3   5  1   
  5   3   6  ar  
  6   4   7  ar  
  7   4  25  1   
  8   5   8  2   
  9   5   9  am  
 10   6  10  ar  
 11   6  26  1   
 12   7  10  ar  
 13   9  11  1   
 14   9  12  1   
 15  10  27  1   
 16  11  13  1   
 17  11  28  1   
 18  11  29  1   
 19  12  14  1   
 20  12  30  1   
 21  12  31  1   
 22  13  15  1   
 23  13  32  1   
 24  13  33  1   
 25  14  16  1   
 26  14  34  1   
 27  14  35  1   
 28  15  16  1   
 29  15  17  am  
 30  16  36  1   
 31  16  37  1   
 32  17  18  2   
 33  17  19  1   
 34  19  20  1   
 35  19  21  2   
 36  20  22  1   
 37  20  23  1   
 38  21  24  1   
 39  21  38  1   
 40  22  24  2   
 41  22  39  1   
 42  23  40  1   
 43  23  41  1   
 44  23  42  1   
 45  24  43  1   
@<TRIPOS>SUBSTRUCTURE
  1 ****  13 GROUP 4 **** **** 0

# MOE 2024.06 (io_trps.svl 2023.06)
