@<TRIPOS>MOLECULE
NONAME
57 60 1 0 0 
SMALL
USER_CHARGES


@<TRIPOS>ATOM
  1 F       -3.4770    -3.1780     0.3030 F     1 <1>  -0.1900 
  2 C       -4.1900    -2.0840     0.3740 C.ar  1 <1>   0.1900 
  3 C       -4.3820    -1.2620    -0.7400 C.ar  1 <1>   0.0830 
  4 C       -4.7310    -1.7720     1.6060 C.ar  1 <1>  -0.1500 
  5 O       -3.9140    -1.5030    -1.9940 O.3   1 <1>  -0.3630 
  6 C       -5.1140    -0.0990    -0.5710 C.ar  1 <1>  -0.1500 
  7 C       -5.4760    -0.6160     1.7400 C.ar  1 <1>  -0.1500 
  8 C       -3.8230    -2.8250    -2.4850 C.3   1 <1>   0.0400 
  9 C       -5.6840     0.2400     0.6560 C.ar  1 <1>   0.0530 
 10 C       -6.4940     1.4180     0.7970 C.2   1 <1>   0.0870 
 11 O       -6.1210     2.5850     0.3400 O.3   1 <1>  -0.0190 
 12 C       -7.7230     1.5770     1.3420 C.2   1 <1>  -0.0860 
 13 N       -7.0190     3.5150     0.5510 N.2   1 <1>  -0.4100 
 14 C       -7.9950     2.9340     1.1620 C.2   1 <1>   0.3720 
 15 C       -8.5640     0.5650     1.8850 C.2   1 <1>   0.7160 
 16 N       -9.1810     3.5760     1.5570 N.pl3 1 <1>  -0.8210 
 17 O       -8.4700     0.2600     3.0610 O.2   1 <1>  -0.5700 
 18 N       -9.4090    -0.1530     1.0710 N.am  1 <1>  -0.6600 
 19 C       -9.5720     3.3760     2.9830 C.3   1 <1>   0.1290 
 20 C       -9.3480     4.9840     1.0970 C.3   1 <1>   0.1290 
 21 C       -9.6000    -1.6100     1.2740 C.3   1 <1>   0.1400 
 22 C       -9.8550     0.3430    -0.2570 C.3   1 <1>   0.1400 
 23 C       -8.7700    -2.3630     0.2210 C.3   1 <1>  -0.0800 
 24 C       -9.0810    -0.3920    -1.3570 C.3   1 <1>  -0.1600 
 25 C       -9.1730    -1.9180    -1.2030 C.3   1 <1>  -0.1600 
 26 C       -8.9130    -3.8810     0.4210 C.3   1 <1>   0.0960 
 27 N       -8.0570    -4.6300    -0.5210 N.pl3 1 <1>   0.0480 
 28 C       -6.7080    -4.7190    -0.5260 C.2   1 <1>   0.0360 
 29 C       -8.4490    -5.3590    -1.5820 C.2   1 <1>  -0.3020 
 30 N       -6.2300    -5.4320    -1.4940 N.2   1 <1>  -0.5650 
 31 C       -7.3260    -5.8380    -2.1600 C.2   1 <1>   0.0770 
 32 H       -4.5640    -2.4230     2.4460 H     1 <1>   0.1500 
 33 H       -5.2560     0.5510    -1.4160 H     1 <1>   0.1500 
 34 H       -5.9010    -0.3660     2.6990 H     1 <1>   0.1500 
 35 H       -3.7360    -2.7810    -3.5550 H     1 <1>   0.0800 
 36 H       -4.7120    -3.3660    -2.2150 H     1 <1>   0.0800 
 37 H       -2.9490    -3.2970    -2.0730 H     1 <1>   0.0800 
 38 H      -10.2540     2.5460     3.0560 H     1 <1>   0.0800 
 39 H      -10.0560     4.2530     3.3760 H     1 <1>   0.0800 
 40 H       -8.7030     3.1640     3.5840 H     1 <1>   0.0800 
 41 H       -9.1430     5.0510     0.0420 H     1 <1>   0.0800 
 42 H       -8.6660     5.6270     1.6260 H     1 <1>   0.0800 
 43 H      -10.3580     5.3110     1.2700 H     1 <1>   0.0800 
 44 H      -10.6460    -1.8460     1.1730 H     1 <1>   0.0800 
 45 H       -9.2850    -1.8930     2.2650 H     1 <1>   0.0800 
 46 H       -9.7060     1.4060    -0.3410 H     1 <1>   0.0800 
 47 H      -10.9090     0.1530    -0.3640 H     1 <1>   0.0800 
 48 H       -7.7370    -2.1060     0.3850 H     1 <1>   0.0800 
 49 H       -8.0500    -0.0860    -1.3210 H     1 <1>   0.0800 
 50 H       -9.4690    -0.1010    -2.3170 H     1 <1>   0.0800 
 51 H      -10.1820    -2.2330    -1.4070 H     1 <1>   0.0800 
 52 H       -8.5290    -2.3770    -1.9340 H     1 <1>   0.0800 
 53 H       -9.9350    -4.1800     0.2700 H     1 <1>   0.0800 
 54 H       -8.6250    -4.1480     1.4220 H     1 <1>   0.0800 
 55 H       -6.1020    -4.2300     0.2160 H     1 <1>   0.1500 
 56 H       -9.4760    -5.4960    -1.8650 H     1 <1>   0.1500 
 57 H       -7.2480    -6.4650    -3.0340 H     1 <1>   0.1500 
@<TRIPOS>BOND
  1   1   2  1   
  2   2   3  ar  
  3   2   4  ar  
  4   3   5  1   
  5   3   6  ar  
  6   4   7  ar  
  7   4  32  1   
  8   5   8  1   
  9   6   9  ar  
 10   6  33  1   
 11   7   9  ar  
 12   7  34  1   
 13   8  35  1   
 14   8  36  1   
 15   8  37  1   
 16   9  10  1   
 17  10  11  1   
 18  10  12  2   
 19  11  13  1   
 20  12  14  1   
 21  12  15  1   
 22  13  14  2   
 23  14  16  1   
 24  15  17  2   
 25  15  18  am  
 26  16  19  1   
 27  16  20  1   
 28  18  21  1   
 29  18  22  1   
 30  19  38  1   
 31  19  39  1   
 32  19  40  1   
 33  20  41  1   
 34  20  42  1   
 35  20  43  1   
 36  21  23  1   
 37  21  44  1   
 38  21  45  1   
 39  22  24  1   
 40  22  46  1   
 41  22  47  1   
 42  23  25  1   
 43  23  26  1   
 44  23  48  1   
 45  24  25  1   
 46  24  49  1   
 47  24  50  1   
 48  25  51  1   
 49  25  52  1   
 50  26  27  1   
 51  26  53  1   
 52  26  54  1   
 53  27  28  1   
 54  27  29  1   
 55  28  30  2   
 56  28  55  1   
 57  29  31  2   
 58  29  56  1   
 59  30  31  1   
 60  31  57  1   
@<TRIPOS>SUBSTRUCTURE
  1 ****   9 GROUP 4 **** **** 0

# MOE 2024.06 (io_trps.svl 2023.06)
