@<TRIPOS>MOLECULE
NONAME
41 43 1 0 0 
SMALL
USER_CHARGES


@<TRIPOS>ATOM
  1 S       -0.3480    -0.4930    -1.0360 S.o2  1 <1>   1.4470 
  2 O       -1.1760    -1.6760    -1.1560 O.2   1 <1>  -0.6500 
  3 O       -0.2500     0.3940    -2.1740 O.2   1 <1>  -0.6500 
  4 N       -0.9150     0.3930     0.3010 N.am  1 <1>  -0.8490 
  5 C        1.2860    -1.0540    -0.4880 C.ar  1 <1>  -0.0090 
  6 C       -2.2610     0.0730     0.8160 C.3   1 <1>   0.1960 
  7 C       -0.6040     1.8260     0.3190 C.3   1 <1>   0.1960 
  8 C        2.4190    -0.2540    -0.5960 C.ar  1 <1>   0.1900 
  9 C        1.4540    -2.3130     0.0900 C.ar  1 <1>  -0.1500 
 10 C       -3.4240     0.8850     0.1790 C.3   1 <1>   0.0000 
 11 C       -1.6870     2.6540    -0.3820 C.3   1 <1>  -0.1600 
 12 F        2.3280     0.9390    -1.1140 F     1 <1>  -0.1900 
 13 C        3.6730    -0.6520    -0.1720 C.ar  1 <1>  -0.1500 
 14 C        2.6960    -2.7470     0.5270 C.ar  1 <1>  -0.1500 
 15 C       -4.7150     0.5360     0.9530 C.3   1 <1>   0.2000 
 16 C       -3.0710     2.3900     0.2230 C.3   1 <1>  -0.1600 
 17 C       -3.7720     0.4130    -1.2470 C.3   1 <1>  -0.1600 
 18 C        3.7850    -1.9070     0.3860 C.ar  1 <1>   0.1900 
 19 O       -5.6980     1.4800     0.7110 O.3   1 <1>  -0.6800 
 20 C       -5.2000    -0.7830     0.3530 C.3   1 <1>  -0.1600 
 21 C       -4.6540    -0.8290    -1.0820 C.3   1 <1>  -0.1600 
 22 F        4.9540    -2.3140     0.7970 F     1 <1>  -0.1900 
 23 H       -2.4490    -0.9830     0.7310 H     1 <1>   0.0800 
 24 H       -2.2520     0.2930     1.8690 H     1 <1>   0.0800 
 25 H       -0.5330     2.1470     1.3440 H     1 <1>   0.0800 
 26 H        0.3480     2.0110    -0.1450 H     1 <1>   0.0800 
 27 H        0.6000    -2.9630     0.1980 H     1 <1>   0.1500 
 28 H       -1.4470     3.6970    -0.2800 H     1 <1>   0.0800 
 29 H       -1.6910     2.4290    -1.4330 H     1 <1>   0.0800 
 30 H        4.5290    -0.0100    -0.2740 H     1 <1>   0.1500 
 31 H        2.8220    -3.7200     0.9700 H     1 <1>   0.1500 
 32 H       -4.5700     0.4810     2.0190 H     1 <1>   0.0800 
 33 H       -3.8060     2.9700    -0.3070 H     1 <1>   0.0800 
 34 H       -3.0770     2.7220     1.2470 H     1 <1>   0.0800 
 35 H       -4.3460     1.1740    -1.7460 H     1 <1>   0.0800 
 36 H       -2.9130     0.2130    -1.8580 H     1 <1>   0.0800 
 37 H       -5.8750     1.5070    -0.2480 H     1 <1>   0.4000 
 38 H       -4.7780    -1.5990     0.9120 H     1 <1>   0.0800 
 39 H       -6.2730    -0.8720     0.3870 H     1 <1>   0.0800 
 40 H       -4.0630    -1.7200    -1.2200 H     1 <1>   0.0800 
 41 H       -5.4510    -0.8290    -1.8060 H     1 <1>   0.0800 
@<TRIPOS>BOND
  1   1   2  2   
  2   1   3  2   
  3   1   4  am  
  4   1   5  1   
  5   4   6  1   
  6   4   7  1   
  7   5   8  ar  
  8   5   9  ar  
  9   6  10  1   
 10   6  23  1   
 11   6  24  1   
 12   7  11  1   
 13   7  25  1   
 14   7  26  1   
 15   8  12  1   
 16   8  13  ar  
 17   9  14  ar  
 18   9  27  1   
 19  10  15  1   
 20  10  16  1   
 21  10  17  1   
 22  11  16  1   
 23  11  28  1   
 24  11  29  1   
 25  13  18  ar  
 26  13  30  1   
 27  14  18  ar  
 28  14  31  1   
 29  15  19  1   
 30  15  20  1   
 31  15  32  1   
 32  16  33  1   
 33  16  34  1   
 34  17  21  1   
 35  17  35  1   
 36  17  36  1   
 37  18  22  1   
 38  19  37  1   
 39  20  21  1   
 40  20  38  1   
 41  20  39  1   
 42  21  40  1   
 43  21  41  1   
@<TRIPOS>SUBSTRUCTURE
  1 ****   4 GROUP 4 **** **** 0

# MOE 2024.06 (io_trps.svl 2023.06)
