@<TRIPOS>MOLECULE
NONAME
50 51 1 0 0 
SMALL
USER_CHARGES


@<TRIPOS>ATOM
  1 S        0.4610     0.9610     0.3470 S.o2  1 <1>   1.3330 
  2 O        0.3870     2.1940     1.1000 O.2   1 <1>  -0.6500 
  3 O        0.1590    -0.2950     0.9960 O.2   1 <1>  -0.6500 
  4 N       -0.5450     1.1020    -1.0120 N.am  1 <1>  -0.8490 
  5 C        2.1000     0.8680    -0.3640 C.3   1 <1>  -0.0550 
  6 C       -0.8630    -0.1840    -1.6410 C.3   1 <1>   0.1160 
  7 C       -1.7810     1.8330    -0.7170 C.3   1 <1>   0.1160 
  8 C        3.1990     0.7640     0.7060 C.3   1 <1>  -0.0800 
  9 C        4.5910     0.9750     0.1410 C.3   1 <1>   0.2200 
 10 C        3.3190    -0.5930     1.3830 C.3   1 <1>   0.1200 
 11 N        4.9390     2.4060     0.2420 N.am  1 <1>  -0.7300 
 12 C        5.4770     0.0720     1.0020 C.3   1 <1>   0.1200 
 13 O        4.6250    -0.6290     1.8590 O.3   1 <1>  -0.5600 
 14 C        4.8480     3.3010    -0.7780 C.2   1 <1>   0.7160 
 15 O        4.7270     2.8840    -1.9150 O.2   1 <1>  -0.5700 
 16 C        4.8630     4.7110    -0.4640 C.2   1 <1>  -0.0860 
 17 C        4.0440     5.4000     0.4010 C.2   1 <1>  -0.3320 
 18 C        5.7450     5.6730    -0.9850 C.2   1 <1>  -0.1810 
 19 N        4.4020     6.6950     0.4250 N.pl3 1 <1>   0.0330 
 20 C        2.8740     4.8760     1.2190 C.3   1 <1>  -0.0600 
 21 C        5.4580     6.8960    -0.4240 C.2   1 <1>  -0.2370 
 22 C        6.8180     5.3300    -2.0080 C.3   1 <1>  -0.0590 
 23 C        6.0610     8.1900    -0.6060 C.2   1 <1>   0.5940 
 24 O        7.0520     8.3950    -1.2580 O.2   1 <1>  -0.5700 
 25 C        5.4340     9.3950     0.0630 C.3   1 <1>  -0.1790 
 26 H        2.1650     0.0320    -1.0320 H     1 <1>   0.0800 
 27 H        2.2660     1.7590    -0.9410 H     1 <1>   0.0800 
 28 H       -1.4260    -0.0240    -2.5450 H     1 <1>   0.0800 
 29 H       -1.4420    -0.7990    -0.9710 H     1 <1>   0.0800 
 30 H        0.0430    -0.7070    -1.8950 H     1 <1>   0.0800 
 31 H       -2.3840     1.9200    -1.6040 H     1 <1>   0.0800 
 32 H       -1.5480     2.8260    -0.3710 H     1 <1>   0.0800 
 33 H       -2.3440     1.3230     0.0480 H     1 <1>   0.0800 
 34 H        3.0130     1.4870     1.4830 H     1 <1>   0.0800 
 35 H        4.6510     0.6450    -0.8840 H     1 <1>   0.0800 
 36 H        3.1960    -1.4030     0.6840 H     1 <1>   0.0800 
 37 H        2.6350    -0.7100     2.2080 H     1 <1>   0.0800 
 38 H        5.0090     2.7910     1.1840 H     1 <1>   0.3700 
 39 H        6.1740     0.6320     1.5990 H     1 <1>   0.0800 
 40 H        6.0000    -0.6440     0.3930 H     1 <1>   0.0800 
 41 H        3.9460     7.4250     0.9830 H     1 <1>   0.2700 
 42 H        2.6230     3.8710     0.9330 H     1 <1>   0.0800 
 43 H        2.0040     5.4870     1.0580 H     1 <1>   0.0800 
 44 H        3.1140     4.8850     2.2670 H     1 <1>   0.0800 
 45 H        7.4930     4.6010    -1.5980 H     1 <1>   0.0800 
 46 H        7.3850     6.1930    -2.2980 H     1 <1>   0.0800 
 47 H        6.3590     4.9180    -2.8890 H     1 <1>   0.0800 
 48 H        4.4050     9.4820    -0.2300 H     1 <1>   0.0800 
 49 H        5.9520    10.2870    -0.2370 H     1 <1>   0.0800 
 50 H        5.5060     9.2990     1.1300 H     1 <1>   0.0800 
@<TRIPOS>BOND
  1   1   2  2   
  2   1   3  2   
  3   1   4  am  
  4   1   5  1   
  5   4   6  1   
  6   4   7  1   
  7   5   8  1   
  8   5  26  1   
  9   5  27  1   
 10   6  28  1   
 11   6  29  1   
 12   6  30  1   
 13   7  31  1   
 14   7  32  1   
 15   7  33  1   
 16   8   9  1   
 17   8  10  1   
 18   8  34  1   
 19   9  11  1   
 20   9  12  1   
 21   9  35  1   
 22  10  13  1   
 23  10  36  1   
 24  10  37  1   
 25  11  14  am  
 26  11  38  1   
 27  12  13  1   
 28  12  39  1   
 29  12  40  1   
 30  14  15  2   
 31  14  16  1   
 32  16  17  2   
 33  16  18  1   
 34  17  19  1   
 35  17  20  1   
 36  18  21  2   
 37  18  22  1   
 38  19  21  1   
 39  19  41  1   
 40  20  42  1   
 41  20  43  1   
 42  20  44  1   
 43  21  23  1   
 44  22  45  1   
 45  22  46  1   
 46  22  47  1   
 47  23  24  2   
 48  23  25  1   
 49  25  48  1   
 50  25  49  1   
 51  25  50  1   
@<TRIPOS>SUBSTRUCTURE
  1 ****  14 GROUP 4 **** **** 0

# MOE 2024.06 (io_trps.svl 2023.06)
