@<TRIPOS>MOLECULE
NONAME
53 55 1 0 0 
SMALL
USER_CHARGES


@<TRIPOS>ATOM
  1 O       -2.7310     1.3330    -2.6160 O.2   1 <1>  -0.5700 
  2 C       -2.2960     1.5500    -1.5130 C.2   1 <1>   0.5690 
  3 N       -2.1150     0.5610    -0.6060 N.am  1 <1>  -0.7300 
  4 C       -1.9320     2.9660    -1.1280 C.3   1 <1>  -0.0990 
  5 C       -2.4060    -0.8690    -0.8490 C.3   1 <1>   0.2200 
  6 C       -0.5340     3.3320    -1.6380 C.3   1 <1>  -0.0160 
  7 C       -3.6670    -1.2560    -0.0960 C.3   1 <1>  -0.0800 
  8 C       -1.3550    -1.7280    -0.1570 C.3   1 <1>   0.1200 
  9 C       -0.1700     4.7450    -1.2150 C.ar  1 <1>  -0.1440 
 10 C       -3.1280    -1.5670     1.3060 C.3   1 <1>   0.1200 
 11 C       -4.3570    -2.4740    -0.7400 C.3   1 <1>  -0.0160 
 12 O       -1.7590    -1.8260     1.1760 O.3   1 <1>  -0.5600 
 13 C        0.5400     4.9660    -0.0440 C.ar  1 <1>  -0.1500 
 14 C       -0.5460     5.8270    -1.9970 C.ar  1 <1>  -0.1500 
 15 C       -5.6340    -2.8460    -0.0020 C.ar  1 <1>  -0.1440 
 16 C        0.8760     6.2520     0.3470 C.ar  1 <1>   0.0820 
 17 C       -0.2290     7.1170    -1.6070 C.ar  1 <1>  -0.1500 
 18 C       -5.7090    -3.9470     0.8270 C.ar  1 <1>  -0.1500 
 19 C       -6.7870    -2.0980    -0.1270 C.ar  1 <1>  -0.1500 
 20 O        1.6030     6.3880     1.4830 O.3   1 <1>  -0.3620 
 21 C        0.4660     7.3420    -0.4300 C.ar  1 <1>   0.0820 
 22 C       -6.8980    -4.2350     1.4770 C.ar  1 <1>   0.1600 
 23 C       -7.9250    -2.4730     0.5670 C.ar  1 <1>   0.1600 
 24 C        2.9090     6.9020     1.3310 C.3   1 <1>   0.0400 
 25 O        0.7120     8.6300    -0.0850 O.3   1 <1>  -0.3630 
 26 N       -8.0080    -3.5230     1.3680 N.ar  1 <1>  -0.6200 
 27 C        0.0710     9.0960     1.0820 C.3   1 <1>   0.0400 
 28 H       -1.7600     0.7650     0.3300 H     1 <1>   0.3700 
 29 H       -2.6570     3.6340    -1.5560 H     1 <1>   0.0800 
 30 H       -1.9700     3.0730    -0.0600 H     1 <1>   0.0800 
 31 H       -2.4630    -1.0660    -1.9070 H     1 <1>   0.0800 
 32 H       -0.5120     3.2570    -2.7120 H     1 <1>   0.0800 
 33 H        0.1900     2.6380    -1.2490 H     1 <1>   0.0800 
 34 H       -4.3670    -0.4400    -0.0670 H     1 <1>   0.0800 
 35 H       -0.3690    -1.3010    -0.2080 H     1 <1>   0.0800 
 36 H       -1.3440    -2.7220    -0.5690 H     1 <1>   0.0800 
 37 H       -3.6010    -2.4180     1.7620 H     1 <1>   0.0800 
 38 H       -3.2350    -0.7130     1.9520 H     1 <1>   0.0800 
 39 H       -3.6900    -3.3180    -0.7550 H     1 <1>   0.0800 
 40 H       -4.6080    -2.2410    -1.7610 H     1 <1>   0.0800 
 41 H        0.8470     4.1440     0.5750 H     1 <1>   0.1500 
 42 H       -1.0920     5.6700    -2.9120 H     1 <1>   0.1500 
 43 H       -0.5240     7.9560    -2.2100 H     1 <1>   0.1500 
 44 H       -4.8560    -4.5840     0.9770 H     1 <1>   0.1500 
 45 H       -6.8120    -1.2290    -0.7580 H     1 <1>   0.1500 
 46 H       -6.9380    -5.0970     2.1210 H     1 <1>   0.1500 
 47 H       -8.8150    -1.8780     0.4570 H     1 <1>   0.1500 
 48 H        3.4060     6.8440     2.2820 H     1 <1>   0.0800 
 49 H        2.8540     7.9260     1.0070 H     1 <1>   0.0800 
 50 H        3.4330     6.3080     0.6030 H     1 <1>   0.0800 
 51 H        0.2560    10.1510     1.1690 H     1 <1>   0.0800 
 52 H        0.4710     8.5830     1.9380 H     1 <1>   0.0800 
 53 H       -0.9850     8.9120     0.9960 H     1 <1>   0.0800 
@<TRIPOS>BOND
  1   1   2  2   
  2   2   3  am  
  3   2   4  1   
  4   3   5  1   
  5   3  28  1   
  6   4   6  1   
  7   4  29  1   
  8   4  30  1   
  9   5   7  1   
 10   5   8  1   
 11   5  31  1   
 12   6   9  1   
 13   6  32  1   
 14   6  33  1   
 15   7  10  1   
 16   7  11  1   
 17   7  34  1   
 18   8  12  1   
 19   8  35  1   
 20   8  36  1   
 21   9  13  ar  
 22   9  14  ar  
 23  10  12  1   
 24  10  37  1   
 25  10  38  1   
 26  11  15  1   
 27  11  39  1   
 28  11  40  1   
 29  13  16  ar  
 30  13  41  1   
 31  14  17  ar  
 32  14  42  1   
 33  15  18  ar  
 34  15  19  ar  
 35  16  20  1   
 36  16  21  ar  
 37  17  21  ar  
 38  17  43  1   
 39  18  22  ar  
 40  18  44  1   
 41  19  23  ar  
 42  19  45  1   
 43  20  24  1   
 44  21  25  1   
 45  22  26  ar  
 46  22  46  1   
 47  23  26  ar  
 48  23  47  1   
 49  24  48  1   
 50  24  49  1   
 51  24  50  1   
 52  25  27  1   
 53  27  51  1   
 54  27  52  1   
 55  27  53  1   
@<TRIPOS>SUBSTRUCTURE
  1 ****   3 GROUP 4 **** **** 0

# MOE 2024.06 (io_trps.svl 2023.06)
