@<TRIPOS>MOLECULE
NONAME
59 60 1 0 0 
SMALL
USER_CHARGES


@<TRIPOS>ATOM
  1 O        0.0270     0.4970    -0.6070 O.2   1 <1>  -0.5700 
  2 C        0.0010     1.6910    -0.4210 C.2   1 <1>   0.5690 
  3 N       -1.1630     2.3640    -0.1560 N.am  1 <1>  -0.6600 
  4 C        1.3200     2.4600    -0.5210 C.3   1 <1>   0.1810 
  5 C       -1.1710     3.8510     0.0510 C.3   1 <1>   0.3640 
  6 C       -2.4540     1.6570     0.0840 C.3   1 <1>   0.0600 
  7 O        1.2790     3.7180     0.1050 O.3   1 <1>  -0.5600 
  8 C       -2.2700     4.4910    -0.8120 C.ar  1 <1>  -0.1430 
  9 C        0.1830     4.5220    -0.2860 C.3   1 <1>   0.2610 
 10 C       -3.2040     5.3910    -0.2980 C.ar  1 <1>  -0.1430 
 11 C       -2.3200     4.1690    -2.1650 C.ar  1 <1>  -0.1500 
 12 C        0.2510     5.9040     0.3840 C.2   1 <1>   0.5690 
 13 C       -4.1470     5.9560    -1.1450 C.ar  1 <1>  -0.1500 
 14 C       -3.2420     5.7900     1.1720 C.3   1 <1>  -0.0960 
 15 C       -3.2650     4.7340    -3.0000 C.ar  1 <1>  -0.1500 
 16 O        0.1830     5.9490     1.5930 O.2   1 <1>  -0.5700 
 17 N        0.3830     7.0600    -0.3590 N.am  1 <1>  -0.6600 
 18 C       -4.1790     5.6330    -2.4890 C.ar  1 <1>  -0.1500 
 19 C        0.7070     8.3630     0.3180 C.3   1 <1>   0.1400 
 20 C        0.0060     7.1500    -1.8020 C.3   1 <1>   0.0600 
 21 C        2.2280     8.6830     0.4130 C.3   1 <1>   0.0000 
 22 C        2.9010     8.6000    -0.9800 C.3   1 <1>   0.1200 
 23 C        2.9110     7.6420     1.3480 C.3   1 <1>  -0.1600 
 24 C        2.3990    10.1320     0.9560 C.3   1 <1>  -0.1600 
 25 O        2.2850     9.4410    -1.8990 O.3   1 <1>  -0.6800 
 26 C        4.3950     7.8840     1.6730 C.3   1 <1>  -0.2400 
 27 C        1.8730    10.3860     2.3800 C.3   1 <1>  -0.2400 
 28 H        1.5750     2.6020    -1.5550 H     1 <1>   0.0800 
 29 H        2.0980     1.8880    -0.0490 H     1 <1>   0.0800 
 30 H       -1.3700     4.0190     1.0930 H     1 <1>   0.0800 
 31 H       -2.8670     1.9600     1.0300 H     1 <1>   0.0800 
 32 H       -2.3070     0.5910     0.1010 H     1 <1>   0.0800 
 33 H       -3.1550     1.8930    -0.6980 H     1 <1>   0.0800 
 34 H        0.2610     4.6390    -1.3480 H     1 <1>   0.0800 
 35 H       -1.6210     3.4630    -2.5800 H     1 <1>   0.1500 
 36 H       -4.8700     6.6540    -0.7630 H     1 <1>   0.1500 
 37 H       -4.1160     6.3780     1.3890 H     1 <1>   0.0800 
 38 H       -2.3790     6.3780     1.4240 H     1 <1>   0.0800 
 39 H       -3.2720     4.9180     1.8000 H     1 <1>   0.0800 
 40 H       -3.2910     4.4730    -4.0440 H     1 <1>   0.1500 
 41 H       -4.9180     6.0780    -3.1330 H     1 <1>   0.1500 
 42 H        0.2040     9.1640    -0.1950 H     1 <1>   0.0800 
 43 H        0.2960     8.3430     1.3120 H     1 <1>   0.0800 
 44 H       -0.3560     8.1350    -2.0370 H     1 <1>   0.0800 
 45 H       -0.7840     6.4580    -2.0310 H     1 <1>   0.0800 
 46 H        0.8590     6.9310    -2.4200 H     1 <1>   0.0800 
 47 H        2.8570     7.5950    -1.3640 H     1 <1>   0.0800 
 48 H        3.9330     8.8960    -0.9240 H     1 <1>   0.0800 
 49 H        2.3670     7.5840     2.2750 H     1 <1>   0.0800 
 50 H        2.8360     6.6670     0.8970 H     1 <1>   0.0800 
 51 H        3.4400    10.4020     0.9270 H     1 <1>   0.0800 
 52 H        1.8960    10.8160     0.2950 H     1 <1>   0.0800 
 53 H        1.3310     9.2490    -1.9340 H     1 <1>   0.4000 
 54 H        4.5330     8.8080     2.2030 H     1 <1>   0.0800 
 55 H        4.9950     7.8980     0.7810 H     1 <1>   0.0800 
 56 H        4.7550     7.0870     2.3000 H     1 <1>   0.0800 
 57 H        2.3780     9.7660     3.0980 H     1 <1>   0.0800 
 58 H        0.8160    10.2040     2.4460 H     1 <1>   0.0800 
 59 H        2.0490    11.4130     2.6490 H     1 <1>   0.0800 
@<TRIPOS>BOND
  1   1   2  2   
  2   2   3  am  
  3   2   4  1   
  4   3   5  1   
  5   3   6  1   
  6   4   7  1   
  7   4  28  1   
  8   4  29  1   
  9   5   8  1   
 10   5   9  1   
 11   5  30  1   
 12   6  31  1   
 13   6  32  1   
 14   6  33  1   
 15   7   9  1   
 16   8  10  ar  
 17   8  11  ar  
 18   9  12  1   
 19   9  34  1   
 20  10  13  ar  
 21  10  14  1   
 22  11  15  ar  
 23  11  35  1   
 24  12  16  2   
 25  12  17  am  
 26  13  18  ar  
 27  13  36  1   
 28  14  37  1   
 29  14  38  1   
 30  14  39  1   
 31  15  18  ar  
 32  15  40  1   
 33  17  19  1   
 34  17  20  1   
 35  18  41  1   
 36  19  21  1   
 37  19  42  1   
 38  19  43  1   
 39  20  44  1   
 40  20  45  1   
 41  20  46  1   
 42  21  22  1   
 43  21  23  1   
 44  21  24  1   
 45  22  25  1   
 46  22  47  1   
 47  22  48  1   
 48  23  26  1   
 49  23  49  1   
 50  23  50  1   
 51  24  27  1   
 52  24  51  1   
 53  24  52  1   
 54  25  53  1   
 55  26  54  1   
 56  26  55  1   
 57  26  56  1   
 58  27  57  1   
 59  27  58  1   
 60  27  59  1   
@<TRIPOS>SUBSTRUCTURE
  1 ****  12 GROUP 4 **** **** 0

# MOE 2024.06 (io_trps.svl 2023.06)
