@<TRIPOS>MOLECULE
NONAME
65 67 1 0 0 
SMALL
USER_CHARGES


@<TRIPOS>ATOM
  1 O        0.1920     0.1280     1.0510 O.2   1 <1>  -0.5700 
  2 C        0.9290    -0.5500     0.3590 C.2   1 <1>   0.5440 
  3 N        0.4710    -1.7590    -0.1310 N.am  1 <1>  -0.6600 
  4 C        2.2670    -0.0670     0.0750 C.ar  1 <1>   0.0860 
  5 C        1.3630    -2.8060    -0.7040 C.3   1 <1>   0.1400 
  6 C       -0.9560    -2.1670     0.0060 C.3   1 <1>   0.1400 
  7 C        2.7100     0.1340    -1.2300 C.ar  1 <1>  -0.1500 
  8 C        3.1610     0.2160     1.1000 C.ar  1 <1>  -0.1500 
  9 C        1.2690    -4.0830     0.1360 C.3   1 <1>  -0.1600 
 10 C       -1.0540    -3.4400     0.8510 C.3   1 <1>  -0.1600 
 11 C        3.9920     0.5780    -1.4980 C.ar  1 <1>  -0.1500 
 12 C        4.4440     0.6590     0.8350 C.ar  1 <1>  -0.1500 
 13 C       -0.1870    -4.5720     0.2720 C.3   1 <1>  -0.0190 
 14 C        4.8900     0.8470    -0.4690 C.ar  1 <1>  -0.1430 
 15 C       -0.3090    -5.8450     1.1250 C.2   1 <1>   0.5690 
 16 C        6.3330     1.3420    -0.7150 C.3   1 <1>   0.1430 
 17 O        0.4580    -5.9780     2.0510 O.2   1 <1>  -0.5700 
 18 N       -1.2660    -6.7930     0.8610 N.am  1 <1>  -0.6600 
 19 C        6.5250     2.7140    -0.0520 C.3   1 <1>  -0.2400 
 20 C        7.3290     0.3400    -0.1120 C.3   1 <1>  -0.2400 
 21 C        6.6750     1.4950    -2.2070 C.3   1 <1>  -0.2400 
 22 C       -1.4390    -7.9680     1.7770 C.3   1 <1>   0.3210 
 23 C       -2.2310    -6.7540    -0.2790 C.3   1 <1>   0.1400 
 24 C       -1.2160    -9.2910     1.0510 C.2   1 <1>   0.0460 
 25 C       -1.5960    -7.3130    -1.5590 C.3   1 <1>   0.1200 
 26 N       -2.2460    -9.9690     0.4980 N.2   1 <1>  -0.5650 
 27 C       -0.0480    -9.9480     0.8580 C.2   1 <1>  -0.3320 
 28 O       -2.5040    -7.2080    -2.6010 O.3   1 <1>  -0.6800 
 29 C       -1.6870   -11.0200    -0.0080 C.2   1 <1>   0.0360 
 30 N       -0.3520   -11.0670     0.1770 N.pl3 1 <1>   0.0330 
 31 C        1.3670    -9.5840     1.2760 C.3   1 <1>  -0.0600 
 32 H        2.3870    -2.4770    -0.7210 H     1 <1>   0.0800 
 33 H        1.0590    -3.0090    -1.7170 H     1 <1>   0.0800 
 34 H       -1.3630    -2.3440    -0.9740 H     1 <1>   0.0800 
 35 H       -1.5360    -1.3850     0.4660 H     1 <1>   0.0800 
 36 H        2.0310    -0.0610    -2.0410 H     1 <1>   0.1500 
 37 H        2.8370     0.0840     2.1180 H     1 <1>   0.1500 
 38 H        1.6820    -3.8830     1.1100 H     1 <1>   0.0800 
 39 H        1.8670    -4.8530    -0.3180 H     1 <1>   0.0800 
 40 H       -2.0820    -3.7530     0.8980 H     1 <1>   0.0800 
 41 H       -0.7360    -3.2160     1.8550 H     1 <1>   0.0800 
 42 H        4.2660     0.7100    -2.5280 H     1 <1>   0.1500 
 43 H        5.0950     0.8600     1.6660 H     1 <1>   0.1500 
 44 H       -0.5320    -4.7820    -0.7210 H     1 <1>   0.0800 
 45 H        6.3900     2.6540     1.0120 H     1 <1>   0.0800 
 46 H        5.8080     3.4140    -0.4430 H     1 <1>   0.0800 
 47 H        7.5130     3.0930    -0.2420 H     1 <1>   0.0800 
 48 H        7.2020     0.2580     0.9510 H     1 <1>   0.0800 
 49 H        8.3410     0.6470    -0.3040 H     1 <1>   0.0800 
 50 H        7.1780    -0.6330    -0.5450 H     1 <1>   0.0800 
 51 H        6.0230     2.2120    -2.6720 H     1 <1>   0.0800 
 52 H        6.5790     0.5520    -2.7150 H     1 <1>   0.0800 
 53 H        7.6870     1.8370    -2.3300 H     1 <1>   0.0800 
 54 H       -2.4340    -7.9560     2.1860 H     1 <1>   0.0800 
 55 H       -0.7550    -7.9120     2.6040 H     1 <1>   0.0800 
 56 H       -2.5520    -5.7420    -0.4500 H     1 <1>   0.0800 
 57 H       -3.0990    -7.3400    -0.0310 H     1 <1>   0.0800 
 58 H       -1.3320    -8.3500    -1.4470 H     1 <1>   0.0800 
 59 H       -0.7210    -6.7510    -1.8310 H     1 <1>   0.0800 
 60 H       -3.2090    -7.8790    -2.4980 H     1 <1>   0.4000 
 61 H       -2.2190   -11.7960    -0.5300 H     1 <1>   0.1500 
 62 H        0.2890   -11.8020    -0.1350 H     1 <1>   0.2700 
 63 H        1.3810    -8.6280     1.7710 H     1 <1>   0.0800 
 64 H        2.0050    -9.5250     0.4130 H     1 <1>   0.0800 
 65 H        1.7580   -10.3230     1.9520 H     1 <1>   0.0800 
@<TRIPOS>BOND
  1   1   2  2   
  2   2   3  am  
  3   2   4  1   
  4   3   5  1   
  5   3   6  1   
  6   4   7  ar  
  7   4   8  ar  
  8   5   9  1   
  9   5  32  1   
 10   5  33  1   
 11   6  10  1   
 12   6  34  1   
 13   6  35  1   
 14   7  11  ar  
 15   7  36  1   
 16   8  12  ar  
 17   8  37  1   
 18   9  13  1   
 19   9  38  1   
 20   9  39  1   
 21  10  13  1   
 22  10  40  1   
 23  10  41  1   
 24  11  14  ar  
 25  11  42  1   
 26  12  14  ar  
 27  12  43  1   
 28  13  15  1   
 29  13  44  1   
 30  14  16  1   
 31  15  17  2   
 32  15  18  am  
 33  16  19  1   
 34  16  20  1   
 35  16  21  1   
 36  18  22  1   
 37  18  23  1   
 38  19  45  1   
 39  19  46  1   
 40  19  47  1   
 41  20  48  1   
 42  20  49  1   
 43  20  50  1   
 44  21  51  1   
 45  21  52  1   
 46  21  53  1   
 47  22  24  1   
 48  22  54  1   
 49  22  55  1   
 50  23  25  1   
 51  23  56  1   
 52  23  57  1   
 53  24  26  1   
 54  24  27  2   
 55  25  28  1   
 56  25  58  1   
 57  25  59  1   
 58  26  29  2   
 59  27  30  1   
 60  27  31  1   
 61  28  60  1   
 62  29  30  1   
 63  29  61  1   
 64  30  62  1   
 65  31  63  1   
 66  31  64  1   
 67  31  65  1   
@<TRIPOS>SUBSTRUCTURE
  1 ****   9 GROUP 4 **** **** 0

# MOE 2024.06 (io_trps.svl 2023.06)
