@<TRIPOS>MOLECULE
NONAME
57 59 1 0 0 
SMALL
USER_CHARGES


@<TRIPOS>ATOM
  1 S       -1.0060     2.0730    -1.8040 S.o2  1 <1>   1.3330 
  2 O       -2.2180     2.6510    -2.3330 O.2   1 <1>  -0.6500 
  3 O        0.1600     1.9670    -2.6470 O.2   1 <1>  -0.6500 
  4 N       -0.5790     2.9950    -0.4030 N.am  1 <1>  -0.6930 
  5 C       -1.3630     0.4680    -1.1200 C.3   1 <1>  -0.1350 
  6 C        0.6250     2.8040     0.2710 C.ar  1 <1>   0.1990 
  7 C       -1.6580     3.8250     0.2200 C.3   1 <1>   0.2570 
  8 C        1.8350     3.0870    -0.3500 C.ar  1 <1>  -0.1500 
  9 C        0.6480     2.3300     1.5790 C.ar  1 <1>  -0.1500 
 10 C       -2.9050     3.0410     0.6740 C.2   1 <1>   0.5690 
 11 C        3.0410     2.9050     0.3060 C.ar  1 <1>  -0.1440 
 12 C        1.8450     2.1500     2.2450 C.ar  1 <1>  -0.1500 
 13 O       -2.7130     2.1340     1.4550 O.2   1 <1>  -0.5700 
 14 N       -4.1820     3.3500     0.2570 N.am  1 <1>  -0.6600 
 15 C        3.0410     2.4370     1.6100 C.ar  1 <1>  -0.1500 
 16 C        4.3520     3.2170    -0.3920 C.3   1 <1>  -0.0970 
 17 C       -5.3710     2.6920     0.8910 C.3   1 <1>   0.1400 
 18 C       -4.5560     4.3060    -0.8300 C.3   1 <1>   0.1400 
 19 C       -6.2170     1.9260    -0.1550 C.3   1 <1>   0.0000 
 20 C       -5.4360     3.6190    -1.8820 C.3   1 <1>  -0.1600 
 21 C       -7.4260     1.2390     0.5040 C.3   1 <1>   0.2000 
 22 C       -6.6490     2.9070    -1.2630 C.3   1 <1>  -0.1600 
 23 C       -5.4410     0.7200    -0.7100 C.3   1 <1>  -0.1600 
 24 O       -7.9990     2.0490     1.4870 O.3   1 <1>  -0.5600 
 25 C       -6.8890    -0.0680     1.0990 C.3   1 <1>  -0.1600 
 26 C       -5.5880    -0.3780     0.3460 C.3   1 <1>  -0.1600 
 27 C       -9.2650     1.6500     1.9100 C.3   1 <1>   0.0400 
 28 H       -2.1670     0.5260    -0.4150 H     1 <1>   0.0800 
 29 H       -0.4970     0.0820    -0.6190 H     1 <1>   0.0800 
 30 H       -1.6410    -0.2100    -1.9020 H     1 <1>   0.0800 
 31 H       -1.2570     4.3100     1.0910 H     1 <1>   0.0800 
 32 H       -1.9180     4.6020    -0.4680 H     1 <1>   0.0800 
 33 H        1.8230     3.4530    -1.3610 H     1 <1>   0.1500 
 34 H       -0.2750     2.0970     2.0780 H     1 <1>   0.1500 
 35 H        1.8490     1.7830     3.2570 H     1 <1>   0.1500 
 36 H        3.9700     2.2950     2.1340 H     1 <1>   0.1500 
 37 H        5.0880     2.4710    -0.1510 H     1 <1>   0.0800 
 38 H        4.7130     4.1790    -0.0770 H     1 <1>   0.0800 
 39 H        4.2190     3.2290    -1.4590 H     1 <1>   0.0800 
 40 H       -5.0660     2.0230     1.6760 H     1 <1>   0.0800 
 41 H       -5.9740     3.4570     1.3470 H     1 <1>   0.0800 
 42 H       -5.0970     5.1290    -0.3930 H     1 <1>   0.0800 
 43 H       -3.6930     4.7010    -1.3290 H     1 <1>   0.0800 
 44 H       -5.7760     4.3550    -2.5890 H     1 <1>   0.0800 
 45 H       -4.8370     2.9110    -2.4260 H     1 <1>   0.0800 
 46 H       -8.1640     1.0240    -0.2510 H     1 <1>   0.0800 
 47 H       -7.1930     2.3860    -2.0320 H     1 <1>   0.0800 
 48 H       -7.3090     3.6430    -0.8370 H     1 <1>   0.0800 
 49 H       -5.8990     0.3870    -1.6250 H     1 <1>   0.0800 
 50 H       -4.4100     0.9470    -0.9110 H     1 <1>   0.0800 
 51 H       -6.6750     0.0570     2.1470 H     1 <1>   0.0800 
 52 H       -7.6040    -0.8600     0.9680 H     1 <1>   0.0800 
 53 H       -4.7570    -0.3330     1.0300 H     1 <1>   0.0800 
 54 H       -5.6120    -1.3540    -0.1080 H     1 <1>   0.0800 
 55 H       -9.6060     2.3540     2.6490 H     1 <1>   0.0800 
 56 H       -9.2050     0.6690     2.3480 H     1 <1>   0.0800 
 57 H       -9.9370     1.6520     1.0700 H     1 <1>   0.0800 
@<TRIPOS>BOND
  1   1   2  2   
  2   1   3  2   
  3   1   4  am  
  4   1   5  1   
  5   4   6  1   
  6   4   7  1   
  7   5  28  1   
  8   5  29  1   
  9   5  30  1   
 10   6   8  ar  
 11   6   9  ar  
 12   7  10  1   
 13   7  31  1   
 14   7  32  1   
 15   8  11  ar  
 16   8  33  1   
 17   9  12  ar  
 18   9  34  1   
 19  10  13  2   
 20  10  14  am  
 21  11  15  ar  
 22  11  16  1   
 23  12  15  ar  
 24  12  35  1   
 25  14  17  1   
 26  14  18  1   
 27  15  36  1   
 28  16  37  1   
 29  16  38  1   
 30  16  39  1   
 31  17  19  1   
 32  17  40  1   
 33  17  41  1   
 34  18  20  1   
 35  18  42  1   
 36  18  43  1   
 37  19  21  1   
 38  19  22  1   
 39  19  23  1   
 40  20  22  1   
 41  20  44  1   
 42  20  45  1   
 43  21  24  1   
 44  21  25  1   
 45  21  46  1   
 46  22  47  1   
 47  22  48  1   
 48  23  26  1   
 49  23  49  1   
 50  23  50  1   
 51  24  27  1   
 52  25  26  1   
 53  25  51  1   
 54  25  52  1   
 55  26  53  1   
 56  26  54  1   
 57  27  55  1   
 58  27  56  1   
 59  27  57  1   
@<TRIPOS>SUBSTRUCTURE
  1 ****  10 GROUP 4 **** **** 0

# MOE 2024.06 (io_trps.svl 2023.06)
