@<TRIPOS>MOLECULE
NONAME
55 57 1 0 0 
SMALL
USER_CHARGES


@<TRIPOS>ATOM
  1 O       -0.6000     0.4000     0.7680 O.2   1 <1>  -0.5700 
  2 C       -1.4870     1.2330     0.7580 C.2   1 <1>   0.5440 
  3 N       -2.8040     0.8080     0.7490 N.am  1 <1>  -0.6600 
  4 C       -1.1300     2.6380     0.7390 C.ar  1 <1>   0.0860 
  5 C       -3.9150     1.6980     0.2970 C.3   1 <1>   0.2200 
  6 C       -3.1030    -0.6330     1.0220 C.3   1 <1>   0.0600 
  7 C       -0.3310     3.1550    -0.2760 C.ar  1 <1>  -0.1500 
  8 C       -1.5740     3.5140     1.7270 C.ar  1 <1>  -0.1500 
  9 C       -4.9270     1.9960     1.4010 C.3   1 <1>  -0.1600 
 10 C       -4.7490     1.1200    -0.8470 C.3   1 <1>  -0.1600 
 11 C       -0.0020     4.5050    -0.3240 C.ar  1 <1>   0.0820 
 12 C       -1.2550     4.8590     1.6900 C.ar  1 <1>  -0.1500 
 13 C       -6.1960     2.4290     0.6530 C.3   1 <1>  -0.0800 
 14 C       -6.0750     1.8910    -0.7770 C.3   1 <1>  -0.0800 
 15 O        0.7720     5.0380    -1.3060 O.3   1 <1>  -0.3630 
 16 C       -0.4730     5.3640     0.6650 C.ar  1 <1>  -0.1430 
 17 C       -7.5120     1.8610     1.2030 C.3   1 <1>  -0.1600 
 18 C       -7.3380     1.0500    -1.0190 C.3   1 <1>  -0.1600 
 19 C        1.4050     4.2280    -2.2710 C.3   1 <1>   0.0400 
 20 C       -0.1280     6.8460     0.6340 C.3   1 <1>  -0.0970 
 21 C       -8.3810     1.5790    -0.0280 C.3   1 <1>   0.4230 
 22 N       -9.0110     2.8400    -0.5400 N.4   1 <1>  -0.9590 
 23 C       -9.9330     3.4740     0.4580 C.3   1 <1>   0.2630 
 24 C       -9.7700     2.6310    -1.8160 C.3   1 <1>   0.2630 
 25 H       -3.5160     2.6380    -0.0480 H     1 <1>   0.0800 
 26 H       -4.0910    -0.7550     1.4240 H     1 <1>   0.0800 
 27 H       -2.3960    -1.0260     1.7330 H     1 <1>   0.0800 
 28 H       -3.0160    -1.1960     0.1090 H     1 <1>   0.0800 
 29 H        0.0220     2.4670    -1.0210 H     1 <1>   0.1500 
 30 H       -2.1710     3.1280     2.5340 H     1 <1>   0.1500 
 31 H       -5.1100     1.1110     1.9820 H     1 <1>   0.0800 
 32 H       -4.5730     2.7750     2.0510 H     1 <1>   0.0800 
 33 H       -4.2570     1.2640    -1.7930 H     1 <1>   0.0800 
 34 H       -4.9230     0.0720    -0.6960 H     1 <1>   0.0800 
 35 H       -1.6160     5.5100     2.4670 H     1 <1>   0.1500 
 36 H       -6.2400     3.5060     0.6170 H     1 <1>   0.0800 
 37 H       -6.0410     2.7240    -1.4620 H     1 <1>   0.0800 
 38 H       -7.9600     2.5000     1.9390 H     1 <1>   0.0800 
 39 H       -7.3210     0.9140     1.6780 H     1 <1>   0.0800 
 40 H       -7.1440     0.0250    -0.7540 H     1 <1>   0.0800 
 41 H       -7.6440     1.0580    -2.0480 H     1 <1>   0.0800 
 42 H        2.0040     4.8620    -2.8990 H     1 <1>   0.0800 
 43 H        0.6540     3.7340    -2.8610 H     1 <1>   0.0800 
 44 H        2.0330     3.5130    -1.7690 H     1 <1>   0.0800 
 45 H       -0.5760     7.3690     1.4590 H     1 <1>   0.0800 
 46 H       -0.4810     7.2830    -0.2840 H     1 <1>   0.0800 
 47 H        0.9380     6.9710     0.6850 H     1 <1>   0.0800 
 48 H       -9.1370     0.8390     0.1830 H     1 <1>   0.0800 
 49 H       -8.2340     3.4910    -0.7260 H     1 <1>   0.4500 
 50 H      -10.7070     2.7820     0.7450 H     1 <1>   0.0800 
 51 H      -10.3960     4.3500     0.0330 H     1 <1>   0.0800 
 52 H       -9.3940     3.7770     1.3400 H     1 <1>   0.0800 
 53 H      -10.5350     1.8840    -1.6780 H     1 <1>   0.0800 
 54 H       -9.1110     2.3110    -2.6060 H     1 <1>   0.0800 
 55 H      -10.2390     3.5510    -2.1250 H     1 <1>   0.0800 
@<TRIPOS>BOND
  1   1   2  2   
  2   2   3  am  
  3   2   4  1   
  4   3   5  1   
  5   3   6  1   
  6   4   7  ar  
  7   4   8  ar  
  8   5   9  1   
  9   5  10  1   
 10   5  25  1   
 11   6  26  1   
 12   6  27  1   
 13   6  28  1   
 14   7  11  ar  
 15   7  29  1   
 16   8  12  ar  
 17   8  30  1   
 18   9  13  1   
 19   9  31  1   
 20   9  32  1   
 21  10  14  1   
 22  10  33  1   
 23  10  34  1   
 24  11  15  1   
 25  11  16  ar  
 26  12  16  ar  
 27  12  35  1   
 28  13  14  1   
 29  13  17  1   
 30  13  36  1   
 31  14  18  1   
 32  14  37  1   
 33  15  19  1   
 34  16  20  1   
 35  17  21  1   
 36  17  38  1   
 37  17  39  1   
 38  18  21  1   
 39  18  40  1   
 40  18  41  1   
 41  19  42  1   
 42  19  43  1   
 43  19  44  1   
 44  20  45  1   
 45  20  46  1   
 46  20  47  1   
 47  21  22  1   
 48  21  48  1   
 49  22  23  1   
 50  22  24  1   
 51  22  49  1   
 52  23  50  1   
 53  23  51  1   
 54  23  52  1   
 55  24  53  1   
 56  24  54  1   
 57  24  55  1   
@<TRIPOS>SUBSTRUCTURE
  1 ****   5 GROUP 4 **** **** 0

# MOE 2024.06 (io_trps.svl 2023.06)
