@<TRIPOS>MOLECULE
C12H18N2O4
36 36 1 0 0 
SMALL
USER_CHARGES


@<TRIPOS>ATOM
  1 O       -1.9390    -1.7590     0.9090 O.co2 1 <1>  -0.9000 
  2 C       -1.9570    -0.5170     0.9450 C.2   1 <1>   0.9060 
  3 O       -1.0760     0.1780     1.4450 O.co2 1 <1>  -0.9000 
  4 C       -3.1700     0.1310     0.2550 C.3   1 <1>   0.3170 
  5 N       -3.7880    -0.8910    -0.6510 N.4   1 <1>  -0.8530 
  6 C       -4.1830     0.6380     1.3000 C.3   1 <1>  -0.1600 
  7 C       -5.4840     1.2110     0.7100 C.3   1 <1>  -0.1600 
  8 C       -6.6380     0.1970     0.7780 C.3   1 <1>  -0.1600 
  9 C       -7.7650     0.5810    -0.1900 C.3   1 <1>   0.0960 
 10 N       -8.6840    -0.5650    -0.4090 N.pl3 1 <1>   0.0480 
 11 C       -8.4730    -1.6240    -1.2690 C.2   1 <1>  -0.2370 
 12 C       -9.9080    -0.7300     0.1620 C.2   1 <1>  -0.3320 
 13 C       -9.5890    -2.4210    -1.2230 C.2   1 <1>  -0.1500 
 14 C       -7.3000    -1.8560    -2.0600 C.2   1 <1>   0.5950 
 15 C      -10.4840    -1.8620    -0.3220 C.2   1 <1>  -0.1500 
 16 C      -10.5130     0.2160     1.1810 C.3   1 <1>   0.3000 
 17 O       -6.2410    -1.2760    -1.9500 O.2   1 <1>  -0.5700 
 18 O      -10.8060     1.3830     0.5150 O.3   1 <1>  -0.6800 
 19 H       -2.8130     0.9640    -0.3230 H     1 <1>   0.0800 
 20 H       -3.5330    -1.7790    -0.1710 H     1 <1>   0.4500 
 21 H       -3.2950    -0.9310    -1.5410 H     1 <1>   0.4500 
 22 H       -4.8030    -0.8230    -0.8080 H     1 <1>   0.4500 
 23 H       -4.3920    -0.1400     2.0150 H     1 <1>   0.0800 
 24 H       -3.6880     1.4220     1.8490 H     1 <1>   0.0800 
 25 H       -5.7720     2.0840     1.2730 H     1 <1>   0.0800 
 26 H       -5.3110     1.5320    -0.3040 H     1 <1>   0.0800 
 27 H       -7.0270     0.1630     1.7820 H     1 <1>   0.0800 
 28 H       -6.2800    -0.7870     0.5410 H     1 <1>   0.0800 
 29 H       -7.3630     0.8690    -1.1440 H     1 <1>   0.0800 
 30 H       -8.3090     1.4230     0.1970 H     1 <1>   0.0800 
 31 H       -9.7680    -3.3300    -1.7720 H     1 <1>   0.1500 
 32 H       -7.3670    -2.6340    -2.8000 H     1 <1>   0.0600 
 33 H      -11.4500    -2.2710    -0.0720 H     1 <1>   0.1500 
 34 H       -9.8300     0.4360     1.9830 H     1 <1>   0.0800 
 35 H      -11.4290    -0.1820     1.5840 H     1 <1>   0.0800 
 36 H      -11.2610     1.1490    -0.3170 H     1 <1>   0.4000 
@<TRIPOS>BOND
  1   1   2  ar  
  2   2   3  ar  
  3   2   4  1   
  4   4   5  1   
  5   4   6  1   
  6   4  19  1   
  7   5  20  1   
  8   5  21  1   
  9   5  22  1   
 10   6   7  1   
 11   6  23  1   
 12   6  24  1   
 13   7   8  1   
 14   7  25  1   
 15   7  26  1   
 16   8   9  1   
 17   8  27  1   
 18   8  28  1   
 19   9  10  1   
 20   9  29  1   
 21   9  30  1   
 22  10  11  1   
 23  10  12  1   
 24  11  13  2   
 25  11  14  1   
 26  12  15  2   
 27  12  16  1   
 28  13  15  1   
 29  13  31  1   
 30  14  17  2   
 31  14  32  1   
 32  15  33  1   
 33  16  18  1   
 34  16  34  1   
 35  16  35  1   
 36  18  36  1   
@<TRIPOS>SUBSTRUCTURE
  1 ****   8 GROUP 4 **** **** 0

# MOE 2024.06 (io_trps.svl 2023.06)
