@<TRIPOS>MOLECULE
NONAME
59 61 1 0 0 
SMALL
USER_CHARGES


@<TRIPOS>ATOM
  1 O        0.0550     1.8600     1.6990 O.2   1 <1>  -0.5700 
  2 C       -0.0550     2.6160     0.7620 C.2   1 <1>   0.5690 
  3 N       -1.2640     3.1160     0.3640 N.am  1 <1>  -0.6600 
  4 C        1.2160     2.9940     0.0270 C.3   1 <1>  -0.0990 
  5 C       -2.5210     2.6430     1.0400 C.3   1 <1>   0.1400 
  6 C       -1.4390     4.1130    -0.7380 C.3   1 <1>   0.1400 
  7 C        2.3510     2.0730     0.4770 C.3   1 <1>   0.3430 
  8 C       -3.7250     2.5800     0.0700 C.3   1 <1>   0.0000 
  9 C       -2.7400     4.8980    -0.5640 C.3   1 <1>  -0.1600 
 10 N        3.6310     2.3630    -0.2380 N.4   1 <1>  -0.9590 
 11 C       -4.9500     2.0170     0.8220 C.3   1 <1>   0.2000 
 12 C       -3.9830     3.9900    -0.5290 C.3   1 <1>  -0.1600 
 13 C       -3.4910     1.5020    -1.0090 C.3   1 <1>  -0.1600 
 14 C        4.6240     1.2600     0.0270 C.3   1 <1>   0.3430 
 15 C        4.2310     3.6870     0.1670 C.3   1 <1>   0.3430 
 16 O       -6.1120     2.3010     0.0950 O.3   1 <1>  -0.5600 
 17 C       -4.7520     0.4960     0.8380 C.3   1 <1>  -0.1600 
 18 C       -3.8450     0.1630    -0.3540 C.3   1 <1>  -0.1600 
 19 C        6.0190     1.5720    -0.5630 C.3   1 <1>   0.2000 
 20 C        5.6430     3.8970    -0.4280 C.3   1 <1>   0.2000 
 21 C       -7.2860     2.3300     0.8430 C.3   1 <1>   0.0400 
 22 O        6.4590     2.8140    -0.1040 O.3   1 <1>  -0.5600 
 23 C        7.0640     0.5470    -0.1320 C.3   1 <1>  -0.2400 
 24 C        6.3200     5.1430     0.1350 C.3   1 <1>  -0.2400 
 25 H        1.0530     2.8810    -1.0280 H     1 <1>   0.0800 
 26 H        1.4410     4.0170     0.2610 H     1 <1>   0.0800 
 27 H       -2.3540     1.6730     1.4740 H     1 <1>   0.0800 
 28 H       -2.7500     3.3200     1.8440 H     1 <1>   0.0800 
 29 H       -0.6160     4.8060    -0.7440 H     1 <1>   0.0800 
 30 H       -1.4600     3.5970    -1.6820 H     1 <1>   0.0800 
 31 H        2.0530     1.0540     0.2890 H     1 <1>   0.0800 
 32 H        2.4920     2.1770     1.5420 H     1 <1>   0.0800 
 33 H       -2.6780     5.4560     0.3550 H     1 <1>   0.0800 
 34 H       -2.8430     5.6110    -1.3630 H     1 <1>   0.0800 
 35 H        3.4550     2.3820    -1.2510 H     1 <1>   0.4500 
 36 H       -5.0390     2.4390     1.8100 H     1 <1>   0.0800 
 37 H       -4.3850     3.8900    -1.5220 H     1 <1>   0.0800 
 38 H       -4.7340     4.4960     0.0530 H     1 <1>   0.0800 
 39 H       -4.1740     1.6610    -1.8250 H     1 <1>   0.0800 
 40 H       -2.4900     1.4960    -1.4000 H     1 <1>   0.0800 
 41 H        4.7360     1.1210     1.0900 H     1 <1>   0.0800 
 42 H        4.2650     0.3330    -0.3890 H     1 <1>   0.0800 
 43 H        3.5940     4.4950    -0.1500 H     1 <1>   0.0800 
 44 H        4.3120     3.7340     1.2410 H     1 <1>   0.0800 
 45 H       -4.2540     0.2130     1.7480 H     1 <1>   0.0800 
 46 H       -5.6860    -0.0330     0.7820 H     1 <1>   0.0800 
 47 H       -2.9530    -0.3300    -0.0080 H     1 <1>   0.0800 
 48 H       -4.3490    -0.4780    -1.0570 H     1 <1>   0.0800 
 49 H        5.9750     1.6040    -1.6390 H     1 <1>   0.0800 
 50 H        5.5920     3.9740    -1.5010 H     1 <1>   0.0800 
 51 H       -8.1040     2.5240     0.1720 H     1 <1>   0.0800 
 52 H       -7.2210     3.1190     1.5720 H     1 <1>   0.0800 
 53 H       -7.4310     1.3790     1.3250 H     1 <1>   0.0800 
 54 H        7.1560     0.5260     0.9400 H     1 <1>   0.0800 
 55 H        8.0200     0.8000    -0.5580 H     1 <1>   0.0800 
 56 H        6.7930    -0.4350    -0.4760 H     1 <1>   0.0800 
 57 H        6.4200     5.0710     1.2040 H     1 <1>   0.0800 
 58 H        5.7490     6.0230    -0.1010 H     1 <1>   0.0800 
 59 H        7.2990     5.2530    -0.2990 H     1 <1>   0.0800 
@<TRIPOS>BOND
  1   1   2  2   
  2   2   3  am  
  3   2   4  1   
  4   3   5  1   
  5   3   6  1   
  6   4   7  1   
  7   4  25  1   
  8   4  26  1   
  9   5   8  1   
 10   5  27  1   
 11   5  28  1   
 12   6   9  1   
 13   6  29  1   
 14   6  30  1   
 15   7  10  1   
 16   7  31  1   
 17   7  32  1   
 18   8  11  1   
 19   8  12  1   
 20   8  13  1   
 21   9  12  1   
 22   9  33  1   
 23   9  34  1   
 24  10  14  1   
 25  10  15  1   
 26  10  35  1   
 27  11  16  1   
 28  11  17  1   
 29  11  36  1   
 30  12  37  1   
 31  12  38  1   
 32  13  18  1   
 33  13  39  1   
 34  13  40  1   
 35  14  19  1   
 36  14  41  1   
 37  14  42  1   
 38  15  20  1   
 39  15  43  1   
 40  15  44  1   
 41  16  21  1   
 42  17  18  1   
 43  17  45  1   
 44  17  46  1   
 45  18  47  1   
 46  18  48  1   
 47  19  22  1   
 48  19  23  1   
 49  19  49  1   
 50  20  22  1   
 51  20  24  1   
 52  20  50  1   
 53  21  51  1   
 54  21  52  1   
 55  21  53  1   
 56  23  54  1   
 57  23  55  1   
 58  23  56  1   
 59  24  57  1   
 60  24  58  1   
 61  24  59  1   
@<TRIPOS>SUBSTRUCTURE
  1 ****   2 GROUP 4 **** **** 0

# MOE 2024.06 (io_trps.svl 2023.06)
