@<TRIPOS>MOLECULE
NONAME
41 41 1 0 0 
SMALL
USER_CHARGES


@<TRIPOS>ATOM
  1 O        0.0410     0.3120     1.5580 O.co2 1 <1>  -0.9000 
  2 C       -0.7600     0.1010     0.6470 C.2   1 <1>   0.9060 
  3 O       -0.4240    -0.0260    -0.5320 O.co2 1 <1>  -0.9000 
  4 C       -2.2440     0.3260     0.9350 C.3   1 <1>   0.2370 
  5 N       -2.6760     1.7260     0.5380 N.4   1 <1>  -0.9590 
  6 C       -1.8600     2.7470     1.2590 C.3   1 <1>   0.5230 
  7 C       -4.1270     2.0180     0.5990 C.3   1 <1>   0.3430 
  8 C       -1.7050     3.9490     0.3480 C.2   1 <1>   0.0060 
  9 C       -4.8990     1.2260    -0.4720 C.3   1 <1>  -0.0800 
 10 N       -2.5920     4.8910     0.2660 N.2   1 <1>  -0.5650 
 11 N       -0.6360     4.1180    -0.4740 N.pl3 1 <1>   0.0480 
 12 C       -4.3420     1.4580    -1.8880 C.3   1 <1>  -0.2400 
 13 C       -6.3800     1.6260    -0.4360 C.3   1 <1>  -0.2400 
 14 C       -2.0810     5.7300    -0.6520 C.2   1 <1>   0.0770 
 15 C       -0.8970     5.2760    -1.1130 C.2   1 <1>  -0.3020 
 16 C        0.5580     3.2410    -0.6730 C.3   1 <1>   0.1760 
 17 C        1.8430     4.0110    -0.3510 C.3   1 <1>  -0.2400 
 18 C        0.5850     2.7030    -2.1070 C.3   1 <1>  -0.2400 
 19 H       -2.4080     0.1640     1.9850 H     1 <1>   0.0800 
 20 H       -2.7940    -0.4060     0.3740 H     1 <1>   0.0800 
 21 H       -2.3830     1.8250    -0.4470 H     1 <1>   0.4500 
 22 H       -0.8850     2.3660     1.5110 H     1 <1>   0.0800 
 23 H       -2.3530     3.0410     2.1700 H     1 <1>   0.0800 
 24 H       -4.2830     3.0710     0.4220 H     1 <1>   0.0800 
 25 H       -4.5090     1.7820     1.5780 H     1 <1>   0.0800 
 26 H       -4.8400     0.1760    -0.2410 H     1 <1>   0.0800 
 27 H       -4.3140     2.5100    -2.1190 H     1 <1>   0.0800 
 28 H       -4.9640     0.9680    -2.6170 H     1 <1>   0.0800 
 29 H       -3.3500     1.0540    -1.9880 H     1 <1>   0.0800 
 30 H       -6.5000     2.6700    -0.6730 H     1 <1>   0.0800 
 31 H       -6.7980     1.4460     0.5400 H     1 <1>   0.0800 
 32 H       -6.9410     1.0490    -1.1510 H     1 <1>   0.0800 
 33 H       -2.5970     6.6320    -0.9390 H     1 <1>   0.1500 
 34 H       -0.2390     5.7060    -1.8470 H     1 <1>   0.1500 
 35 H        0.4980     2.4040    -0.0020 H     1 <1>   0.0800 
 36 H        1.9790     4.8360    -1.0280 H     1 <1>   0.0800 
 37 H        2.6890     3.3530    -0.4420 H     1 <1>   0.0800 
 38 H        1.8120     4.3790     0.6590 H     1 <1>   0.0800 
 39 H        0.6890     3.4990    -2.8210 H     1 <1>   0.0800 
 40 H       -0.3140     2.1490    -2.3100 H     1 <1>   0.0800 
 41 H        1.4130     2.0260    -2.2200 H     1 <1>   0.0800 
@<TRIPOS>BOND
  1   1   2  ar  
  2   2   3  ar  
  3   2   4  1   
  4   4   5  1   
  5   4  19  1   
  6   4  20  1   
  7   5   6  1   
  8   5   7  1   
  9   5  21  1   
 10   6   8  1   
 11   6  22  1   
 12   6  23  1   
 13   7   9  1   
 14   7  24  1   
 15   7  25  1   
 16   8  10  2   
 17   8  11  1   
 18   9  12  1   
 19   9  13  1   
 20   9  26  1   
 21  10  14  1   
 22  11  15  1   
 23  11  16  1   
 24  12  27  1   
 25  12  28  1   
 26  12  29  1   
 27  13  30  1   
 28  13  31  1   
 29  13  32  1   
 30  14  15  2   
 31  14  33  1   
 32  15  34  1   
 33  16  17  1   
 34  16  18  1   
 35  16  35  1   
 36  17  36  1   
 37  17  37  1   
 38  17  38  1   
 39  18  39  1   
 40  18  40  1   
 41  18  41  1   
@<TRIPOS>SUBSTRUCTURE
  1 ****   5 GROUP 4 **** **** 0

# MOE 2024.06 (io_trps.svl 2023.06)
