@<TRIPOS>MOLECULE
NONAME
44 46 1 0 0 
SMALL
USER_CHARGES


@<TRIPOS>ATOM
  1 F       -1.4360    -1.8420    -2.1310 F     1 <1>  -0.1900 
  2 C       -1.8050    -1.9380    -0.8780 C.ar  1 <1>   0.1900 
  3 C       -2.2200    -3.1660    -0.3770 C.ar  1 <1>   0.0820 
  4 C       -1.7590    -0.7970    -0.1020 C.ar  1 <1>  -0.1500 
  5 O       -2.2480    -4.2530    -1.1830 O.3   1 <1>  -0.3630 
  6 C       -2.6250    -3.2540     0.9590 C.ar  1 <1>   0.0860 
  7 C       -2.1420    -0.8850     1.2260 C.ar  1 <1>  -0.1500 
  8 C       -1.1710    -5.1580    -1.0690 C.3   1 <1>   0.0400 
  9 C       -3.0920    -4.4950     1.5310 C.2   1 <1>   0.5440 
 10 C       -2.5660    -2.0980     1.7420 C.ar  1 <1>  -0.1500 
 11 O       -2.3780    -5.1070     2.3020 O.2   1 <1>  -0.5700 
 12 N       -4.3330    -5.0020     1.2290 N.am  1 <1>  -0.6600 
 13 C       -5.2740    -4.4130     0.2390 C.3   1 <1>   0.1400 
 14 C       -4.7290    -6.3970     1.5470 C.3   1 <1>   0.1400 
 15 C       -6.4040    -5.4370     0.1120 C.3   1 <1>   0.2000 
 16 C       -5.7440    -6.7730     0.4610 C.3   1 <1>  -0.0800 
 17 O       -7.3580    -5.1570     1.0780 O.3   1 <1>  -0.6800 
 18 C       -5.0440    -7.3760    -0.7730 C.3   1 <1>   0.0210 
 19 C       -4.3810    -8.6980    -0.4450 C.2   1 <1>   0.1080 
 20 N       -5.0520    -9.7890    -0.2450 N.2   1 <1>  -0.7070 
 21 C       -3.0100    -8.8920    -0.3130 C.2   1 <1>  -0.1500 
 22 N       -4.1160   -10.7190     0.0210 N.pl3 1 <1>   0.3000 
 23 C       -2.8710   -10.2000    -0.0140 C.2   1 <1>  -0.3320 
 24 C       -1.6070   -10.9960     0.2500 C.3   1 <1>  -0.0600 
 25 H       -1.4290     0.1340    -0.5270 H     1 <1>   0.1500 
 26 H       -2.1090    -0.0100     1.8540 H     1 <1>   0.1500 
 27 H       -1.3110    -5.9400    -1.7930 H     1 <1>   0.0800 
 28 H       -1.1580    -5.5730    -0.0770 H     1 <1>   0.0800 
 29 H       -0.2540    -4.6330    -1.2680 H     1 <1>   0.0800 
 30 H       -2.8590    -2.1650     2.7760 H     1 <1>   0.1500 
 31 H       -5.6390    -3.4530     0.5610 H     1 <1>   0.0800 
 32 H       -4.7770    -4.3090    -0.7090 H     1 <1>   0.0800 
 33 H       -3.8740    -7.0520     1.5640 H     1 <1>   0.0800 
 34 H       -5.1950    -6.4150     2.5170 H     1 <1>   0.0800 
 35 H       -6.8840    -5.4240    -0.8510 H     1 <1>   0.0800 
 36 H       -6.4630    -7.4850     0.8270 H     1 <1>   0.0800 
 37 H       -6.9180    -5.0900     1.9480 H     1 <1>   0.4000 
 38 H       -4.3030    -6.6980    -1.1590 H     1 <1>   0.0800 
 39 H       -5.7700    -7.5510    -1.5470 H     1 <1>   0.0800 
 40 H       -2.2500    -8.1400    -0.4260 H     1 <1>   0.1500 
 41 H       -4.3610   -11.6960     0.2220 H     1 <1>   0.2700 
 42 H       -0.7440   -10.3590     0.1670 H     1 <1>   0.0800 
 43 H       -1.5130   -11.7940    -0.4660 H     1 <1>   0.0800 
 44 H       -1.6290   -11.4130     1.2410 H     1 <1>   0.0800 
@<TRIPOS>BOND
  1   1   2  1   
  2   2   3  ar  
  3   2   4  ar  
  4   3   5  1   
  5   3   6  ar  
  6   4   7  ar  
  7   4  25  1   
  8   5   8  1   
  9   6   9  1   
 10   6  10  ar  
 11   7  10  ar  
 12   7  26  1   
 13   8  27  1   
 14   8  28  1   
 15   8  29  1   
 16   9  11  2   
 17   9  12  am  
 18  10  30  1   
 19  12  13  1   
 20  12  14  1   
 21  13  15  1   
 22  13  31  1   
 23  13  32  1   
 24  14  16  1   
 25  14  33  1   
 26  14  34  1   
 27  15  16  1   
 28  15  17  1   
 29  15  35  1   
 30  16  18  1   
 31  16  36  1   
 32  17  37  1   
 33  18  19  1   
 34  18  38  1   
 35  18  39  1   
 36  19  20  2   
 37  19  21  1   
 38  20  22  1   
 39  21  23  2   
 40  21  40  1   
 41  22  23  1   
 42  22  41  1   
 43  23  24  1   
 44  24  42  1   
 45  24  43  1   
 46  24  44  1   
@<TRIPOS>SUBSTRUCTURE
  1 ****  12 GROUP 4 **** **** 0

# MOE 2024.06 (io_trps.svl 2023.06)
