@<TRIPOS>MOLECULE
NONAME
37 38 1 0 0 
SMALL
USER_CHARGES


@<TRIPOS>ATOM
  1 O        0.1870    -0.3630     0.6920 O.2   1 <1>  -0.5700 
  2 C        1.2100    -0.7870     0.1930 C.2   1 <1>   0.7160 
  3 N        2.2110     0.0640    -0.1980 N.am  1 <1>  -0.4940 
  4 C        1.3920    -2.1980    -0.0200 C.2   1 <1>  -0.0860 
  5 C        2.4190     1.4550    -0.0190 C.2   1 <1>  -0.0880 
  6 C        2.4630    -3.0050     0.1490 C.2   1 <1>  -0.0400 
  7 C        0.4480    -3.1010    -0.4840 C.2   1 <1>   0.1080 
  8 N        1.4850     2.4510     0.0300 N.pl3 1 <1>   0.3140 
  9 C        3.6230     2.0630     0.1130 C.2   1 <1>  -0.1810 
 10 O        2.2110    -4.2420    -0.2020 O.3   1 <1>  -0.0190 
 11 C        3.8490    -2.7030     0.6890 C.3   1 <1>  -0.0600 
 12 N        0.9560    -4.2700    -0.5860 N.2   1 <1>  -0.4100 
 13 C       -0.9910    -2.7830    -0.8360 C.3   1 <1>  -0.0590 
 14 N        2.0650     3.6590     0.1930 N.2   1 <1>  -0.7070 
 15 C        0.0320     2.3800    -0.1720 C.3   1 <1>   0.0160 
 16 C        3.3360     3.4190     0.2450 C.2   1 <1>   0.1080 
 17 C        5.0110     1.4430     0.1250 C.3   1 <1>  -0.0590 
 18 C        4.3510     4.5340     0.4270 C.3   1 <1>   0.0210 
 19 C        4.8130     5.0880    -0.9240 C.3   1 <1>  -0.2400 
 20 H        2.9980    -0.4180    -0.6280 H     1 <1>   0.3700 
 21 H        3.9060    -1.7050     1.0820 H     1 <1>   0.0800 
 22 H        4.5800    -2.8230    -0.0910 H     1 <1>   0.0800 
 23 H        4.0790    -3.3910     1.4830 H     1 <1>   0.0800 
 24 H       -1.0280    -1.9900    -1.5600 H     1 <1>   0.0800 
 25 H       -1.5210    -2.4770     0.0480 H     1 <1>   0.0800 
 26 H       -1.4720    -3.6520    -1.2450 H     1 <1>   0.0800 
 27 H       -0.1900     1.6440    -0.9200 H     1 <1>   0.0800 
 28 H       -0.3260     3.3400    -0.4940 H     1 <1>   0.0800 
 29 H       -0.4370     2.1160     0.7570 H     1 <1>   0.0800 
 30 H        4.9630     0.3870    -0.0590 H     1 <1>   0.0800 
 31 H        5.4720     1.6050     1.0830 H     1 <1>   0.0800 
 32 H        5.6190     1.8970    -0.6360 H     1 <1>   0.0800 
 33 H        5.1950     4.1690     0.9830 H     1 <1>   0.0800 
 34 H        3.8950     5.3220     0.9990 H     1 <1>   0.0800 
 35 H        5.2780     4.3130    -1.5070 H     1 <1>   0.0800 
 36 H        5.5170     5.8870    -0.7770 H     1 <1>   0.0800 
 37 H        3.9660     5.4660    -1.4680 H     1 <1>   0.0800 
@<TRIPOS>BOND
  1   1   2  2   
  2   2   3  am  
  3   2   4  1   
  4   3   5  1   
  5   3  20  1   
  6   4   6  2   
  7   4   7  1   
  8   5   8  1   
  9   5   9  2   
 10   6  10  1   
 11   6  11  1   
 12   7  12  2   
 13   7  13  1   
 14   8  14  1   
 15   8  15  1   
 16   9  16  1   
 17   9  17  1   
 18  10  12  1   
 19  11  21  1   
 20  11  22  1   
 21  11  23  1   
 22  13  24  1   
 23  13  25  1   
 24  13  26  1   
 25  14  16  2   
 26  15  27  1   
 27  15  28  1   
 28  15  29  1   
 29  16  18  1   
 30  17  30  1   
 31  17  31  1   
 32  17  32  1   
 33  18  19  1   
 34  18  33  1   
 35  18  34  1   
 36  19  35  1   
 37  19  36  1   
 38  19  37  1   
@<TRIPOS>SUBSTRUCTURE
  1 ****   3 GROUP 4 **** **** 0

# MOE 2024.06 (io_trps.svl 2023.06)
