@<TRIPOS>MOLECULE
NONAME
58 61 1 0 0 
SMALL
USER_CHARGES


@<TRIPOS>ATOM
  1 S        1.7800    -1.5760    -0.2110 S.o2  1 <1>   1.5760 
  2 O        1.9780    -2.4470    -1.3460 O.2   1 <1>  -0.6500 
  3 O        2.8140    -1.4040     0.7790 O.2   1 <1>  -0.6500 
  4 N        1.1820    -0.0930    -0.7530 N.am  1 <1>  -0.8490 
  5 N        0.4260    -2.1190     0.5960 N.am  1 <1>  -0.9140 
  6 C        0.9110     0.9050     0.2900 C.3   1 <1>   0.1960 
  7 C        1.9060     0.4620    -1.8970 C.3   1 <1>   0.1960 
  8 C       -0.6290    -2.5900    -0.2860 C.3   1 <1>   0.2760 
  9 C        2.1670     1.6630     0.7440 C.3   1 <1>  -0.1600 
 10 C        3.2220     1.1200    -1.4680 C.3   1 <1>  -0.1600 
 11 C       -1.9360    -2.5700     0.4930 C.3   1 <1>  -0.0800 
 12 C       -0.4720    -4.0840    -0.5710 C.3   1 <1>   0.1200 
 13 C        2.9700     2.2300    -0.4380 C.3   1 <1>  -0.0800 
 14 C       -1.9250    -3.9340     1.2000 C.3   1 <1>   0.1200 
 15 C       -3.1500    -2.4170    -0.4480 C.3   1 <1>  -0.0170 
 16 O       -0.9710    -4.7290     0.5590 O.3   1 <1>  -0.5600 
 17 C        4.2940     2.8490     0.0270 C.3   1 <1>   0.1200 
 18 C       -4.5280    -2.3420     0.2230 C.ar  1 <1>  -0.1430 
 19 O        4.0170     3.9130     0.8800 O.3   1 <1>  -0.5600 
 20 C       -5.7010    -2.3870    -0.5720 C.ar  1 <1>   0.0000 
 21 C       -4.7010    -2.2220     1.5740 C.ar  1 <1>  -0.1500 
 22 C        5.1500     4.5100     1.4220 C.3   1 <1>   0.0400 
 23 C       -6.9540    -2.3330     0.0870 C.ar  1 <1>   0.3100 
 24 C       -5.7050    -2.4780    -1.9840 C.ar  1 <1>  -0.1500 
 25 C       -5.9880    -2.1690     2.1240 C.ar  1 <1>   0.1600 
 26 N       -7.0790    -2.2250     1.4320 N.ar  1 <1>  -0.6200 
 27 C       -8.1310    -2.3890    -0.6780 C.ar  1 <1>  -0.1500 
 28 C       -6.8700    -2.5270    -2.7010 C.ar  1 <1>  -0.1500 
 29 C       -8.1000    -2.4850    -2.0420 C.ar  1 <1>  -0.1500 
 30 H        0.7540    -2.9370     1.1050 H     1 <1>   0.4200 
 31 H        0.2090     1.6190    -0.1040 H     1 <1>   0.0800 
 32 H        0.4460     0.4340     1.1400 H     1 <1>   0.0800 
 33 H        2.0990    -0.3100    -2.6240 H     1 <1>   0.0800 
 34 H        1.2830     1.2020    -2.3710 H     1 <1>   0.0800 
 35 H       -0.6750    -1.9940    -1.1840 H     1 <1>   0.0800 
 36 H        1.8650     2.4700     1.3880 H     1 <1>   0.0800 
 37 H        2.7890     1.0150     1.3340 H     1 <1>   0.0800 
 38 H        3.8830     0.3740    -1.0610 H     1 <1>   0.0800 
 39 H        3.6990     1.5370    -2.3370 H     1 <1>   0.0800 
 40 H       -1.9370    -1.7580     1.1980 H     1 <1>   0.0800 
 41 H        0.5450    -4.3890    -0.7380 H     1 <1>   0.0800 
 42 H       -1.0750    -4.3780    -1.4110 H     1 <1>   0.0800 
 43 H        2.3900     3.0030    -0.9130 H     1 <1>   0.0800 
 44 H       -2.8780    -4.4340     1.1510 H     1 <1>   0.0800 
 45 H       -1.6240    -3.8320     2.2280 H     1 <1>   0.0800 
 46 H       -3.1540    -3.2490    -1.1300 H     1 <1>   0.0800 
 47 H       -3.0210    -1.5190    -1.0280 H     1 <1>   0.0800 
 48 H        4.8520     3.2240    -0.8140 H     1 <1>   0.0800 
 49 H        4.8820     2.1200     0.5600 H     1 <1>   0.0800 
 50 H       -3.8820    -2.1640     2.2640 H     1 <1>   0.1500 
 51 H        4.8300     5.3190     2.0550 H     1 <1>   0.0800 
 52 H        5.7660     4.8910     0.6270 H     1 <1>   0.0800 
 53 H        5.6880     3.7830     2.0060 H     1 <1>   0.0800 
 54 H       -4.7740    -2.5070    -2.5180 H     1 <1>   0.1500 
 55 H       -6.0740    -2.0770     3.1940 H     1 <1>   0.1500 
 56 H       -9.0650    -2.3520    -0.1480 H     1 <1>   0.1500 
 57 H       -6.8540    -2.5980    -3.7750 H     1 <1>   0.1500 
 58 H       -9.0100    -2.5260    -2.6150 H     1 <1>   0.1500 
@<TRIPOS>BOND
  1   1   2  2   
  2   1   3  2   
  3   1   4  am  
  4   1   5  am  
  5   4   6  1   
  6   4   7  1   
  7   5   8  1   
  8   5  30  1   
  9   6   9  1   
 10   6  31  1   
 11   6  32  1   
 12   7  10  1   
 13   7  33  1   
 14   7  34  1   
 15   8  11  1   
 16   8  12  1   
 17   8  35  1   
 18   9  13  1   
 19   9  36  1   
 20   9  37  1   
 21  10  13  1   
 22  10  38  1   
 23  10  39  1   
 24  11  14  1   
 25  11  15  1   
 26  11  40  1   
 27  12  16  1   
 28  12  41  1   
 29  12  42  1   
 30  13  17  1   
 31  13  43  1   
 32  14  16  1   
 33  14  44  1   
 34  14  45  1   
 35  15  18  1   
 36  15  46  1   
 37  15  47  1   
 38  17  19  1   
 39  17  48  1   
 40  17  49  1   
 41  18  20  ar  
 42  18  21  ar  
 43  19  22  1   
 44  20  23  ar  
 45  20  24  ar  
 46  21  25  ar  
 47  21  50  1   
 48  22  51  1   
 49  22  52  1   
 50  22  53  1   
 51  23  26  ar  
 52  23  27  ar  
 53  24  28  ar  
 54  24  54  1   
 55  25  26  ar  
 56  25  55  1   
 57  27  29  ar  
 58  27  56  1   
 59  28  29  ar  
 60  28  57  1   
 61  29  58  1   
@<TRIPOS>SUBSTRUCTURE
  1 ****   8 GROUP 4 **** **** 0

# MOE 2024.06 (io_trps.svl 2023.06)
