@<TRIPOS>MOLECULE
NONAME
54 56 1 0 0 
SMALL
USER_CHARGES


@<TRIPOS>ATOM
  1 O       -0.4300     0.2980    -1.0830 O.2   1 <1>  -0.5700 
  2 C       -0.3360     1.4740    -0.7830 C.2   1 <1>   0.6900 
  3 N       -1.4460     2.2810    -0.8260 N.am  1 <1>  -0.6600 
  4 N        0.8580     2.0250    -0.4220 N.am  1 <1>  -0.5470 
  5 C       -1.5430     3.5890    -0.1130 C.3   1 <1>   0.1400 
  6 C       -2.6790     1.7900    -1.5080 C.3   1 <1>   0.1400 
  7 C        2.1460     1.5070    -0.2010 C.ar  1 <1>   0.1170 
  8 C       -2.9340     3.7190     0.5090 C.3   1 <1>  -0.1600 
  9 C       -3.6120     2.9590    -1.8280 C.3   1 <1>  -0.1600 
 10 C        3.2150     2.4070    -0.1180 C.ar  1 <1>   0.0820 
 11 C        2.4020     0.1480    -0.0490 C.ar  1 <1>  -0.1500 
 12 C       -4.0550     3.7280    -0.5630 C.3   1 <1>   0.2800 
 13 O        2.9260     3.7370    -0.2610 O.3   1 <1>  -0.3630 
 14 C        4.5040     1.9350     0.1050 C.ar  1 <1>  -0.1500 
 15 C        3.6860    -0.3210     0.1700 C.ar  1 <1>  -0.1440 
 16 O       -4.1980     5.0470    -1.0060 O.3   1 <1>  -0.5600 
 17 C       -5.3990     3.1500    -0.0210 C.3   1 <1>  -0.1600 
 18 C        3.9530     4.7040    -0.3070 C.3   1 <1>   0.0400 
 19 C        4.7360     0.5780     0.2470 C.ar  1 <1>  -0.1500 
 20 C        3.9370    -1.8100     0.3280 C.3   1 <1>  -0.0970 
 21 C       -4.8610     6.0320    -0.2460 C.3   1 <1>   0.1200 
 22 C       -6.5360     4.1680     0.1570 C.3   1 <1>   0.2800 
 23 C       -5.9590     5.4960     0.6910 C.3   1 <1>   0.2000 
 24 O       -7.1170     4.3980    -1.0770 O.3   1 <1>  -0.6800 
 25 C       -7.6590     3.6090     1.0370 C.3   1 <1>  -0.2400 
 26 O       -5.4120     5.3140     1.9650 O.3   1 <1>  -0.6800 
 27 H        0.8560     3.0400    -0.4480 H     1 <1>   0.3700 
 28 H       -0.8030     3.6450     0.6670 H     1 <1>   0.0800 
 29 H       -1.3750     4.3930    -0.8100 H     1 <1>   0.0800 
 30 H       -2.4030     1.2860    -2.4190 H     1 <1>   0.0800 
 31 H       -3.1750     1.0790    -0.8680 H     1 <1>   0.0800 
 32 H       -2.9640     4.6090     1.1060 H     1 <1>   0.0800 
 33 H       -3.0500     2.8810     1.1720 H     1 <1>   0.0800 
 34 H       -4.4620     2.6020    -2.3790 H     1 <1>   0.0800 
 35 H       -3.0770     3.6200    -2.4880 H     1 <1>   0.0800 
 36 H        1.5900    -0.5530    -0.1000 H     1 <1>   0.1500 
 37 H        5.3420     2.6010     0.1750 H     1 <1>   0.1500 
 38 H       -5.7490     2.3390    -0.6330 H     1 <1>   0.0800 
 39 H       -5.2120     2.7020     0.9360 H     1 <1>   0.0800 
 40 H        3.5010     5.6650    -0.4740 H     1 <1>   0.0800 
 41 H        4.6180     4.4680    -1.1200 H     1 <1>   0.0800 
 42 H        4.4760     4.7040     0.6330 H     1 <1>   0.0800 
 43 H        5.7370     0.2230     0.4200 H     1 <1>   0.1500 
 44 H        4.9060    -2.0710    -0.0560 H     1 <1>   0.0800 
 45 H        3.1960    -2.3740    -0.2100 H     1 <1>   0.0800 
 46 H        3.8890    -2.0780     1.3680 H     1 <1>   0.0800 
 47 H       -4.1290     6.5950     0.3050 H     1 <1>   0.0800 
 48 H       -5.3190     6.6920    -0.9600 H     1 <1>   0.0800 
 49 H       -6.7430     6.2250     0.7940 H     1 <1>   0.0800 
 50 H       -7.4480     3.5610    -1.4480 H     1 <1>   0.4000 
 51 H       -7.2930     3.4090     2.0280 H     1 <1>   0.0800 
 52 H       -8.0460     2.6920     0.6310 H     1 <1>   0.0800 
 53 H       -8.4560     4.3270     1.1190 H     1 <1>   0.0800 
 54 H       -4.6690     4.6860     1.9110 H     1 <1>   0.4000 
@<TRIPOS>BOND
  1   1   2  2   
  2   2   3  am  
  3   2   4  am  
  4   3   5  1   
  5   3   6  1   
  6   4   7  1   
  7   4  27  1   
  8   5   8  1   
  9   5  28  1   
 10   5  29  1   
 11   6   9  1   
 12   6  30  1   
 13   6  31  1   
 14   7  10  ar  
 15   7  11  ar  
 16   8  12  1   
 17   8  32  1   
 18   8  33  1   
 19   9  12  1   
 20   9  34  1   
 21   9  35  1   
 22  10  13  1   
 23  10  14  ar  
 24  11  15  ar  
 25  11  36  1   
 26  12  16  1   
 27  12  17  1   
 28  13  18  1   
 29  14  19  ar  
 30  14  37  1   
 31  15  19  ar  
 32  15  20  1   
 33  16  21  1   
 34  17  22  1   
 35  17  38  1   
 36  17  39  1   
 37  18  40  1   
 38  18  41  1   
 39  18  42  1   
 40  19  43  1   
 41  20  44  1   
 42  20  45  1   
 43  20  46  1   
 44  21  23  1   
 45  21  47  1   
 46  21  48  1   
 47  22  23  1   
 48  22  24  1   
 49  22  25  1   
 50  23  26  1   
 51  23  49  1   
 52  24  50  1   
 53  25  51  1   
 54  25  52  1   
 55  25  53  1   
 56  26  54  1   
@<TRIPOS>SUBSTRUCTURE
  1 ****   3 GROUP 4 **** **** 0

# MOE 2024.06 (io_trps.svl 2023.06)
