@<TRIPOS>MOLECULE
NONAME
41 43 1 0 0 
SMALL
USER_CHARGES


@<TRIPOS>ATOM
  1 S        0.1500    -0.0470     1.5060 S.o2  1 <1>   1.5000 
  2 O        0.6000     1.1930     2.1030 O.2   1 <1>  -0.6500 
  3 O       -0.3530    -1.0970     2.3650 O.2   1 <1>  -0.6500 
  4 N       -1.0820     0.3630     0.4160 N.am  1 <1>  -0.8490 
  5 C        1.4640    -0.7130     0.4540 C.2   1 <1>  -0.0220 
  6 C       -2.3520     0.6180     1.1120 C.3   1 <1>   0.1960 
  7 C       -0.7200     1.5060    -0.4220 C.3   1 <1>   0.1960 
  8 S        1.0220    -1.8560    -0.8130 S.3   1 <1>  -0.0800 
  9 C        2.8010    -0.5240     0.4350 C.2   1 <1>  -0.1500 
 10 C       -3.5250     0.7700     0.1140 C.3   1 <1>   0.0000 
 11 C       -1.7780     1.7130    -1.5070 C.3   1 <1>  -0.1600 
 12 C        2.6890    -2.0250    -1.3290 C.2   1 <1>  -0.1100 
 13 C        3.4990    -1.2610    -0.5740 C.2   1 <1>  -0.1810 
 14 C       -4.8580     1.1110     0.8110 C.3   1 <1>   0.2000 
 15 C       -3.1820     1.8870    -0.9050 C.3   1 <1>  -0.1600 
 16 C       -3.8460    -0.5560    -0.6090 C.3   1 <1>  -0.1600 
 17 C        5.0030    -1.1470    -0.7190 C.3   1 <1>  -0.0590 
 18 O       -5.0060     0.3650     1.9670 O.3   1 <1>  -0.6800 
 19 C       -5.9440     0.6520    -0.1600 C.3   1 <1>  -0.1600 
 20 C       -5.3460    -0.5270    -0.9390 C.3   1 <1>  -0.1600 
 21 H       -2.5640    -0.2030     1.7770 H     1 <1>   0.0800 
 22 H       -2.2660     1.5070     1.7150 H     1 <1>   0.0800 
 23 H       -0.6350     2.3960     0.1830 H     1 <1>   0.0800 
 24 H        0.2320     1.3290    -0.8940 H     1 <1>   0.0800 
 25 H        3.3310     0.1240     1.1120 H     1 <1>   0.1500 
 26 H       -1.5260     2.5840    -2.0850 H     1 <1>   0.0800 
 27 H       -1.7570     0.8690    -2.1740 H     1 <1>   0.0800 
 28 H        2.8870    -2.6880    -2.1530 H     1 <1>   0.1500 
 29 H       -4.9450     2.1520     1.0750 H     1 <1>   0.0800 
 30 H       -3.9060     1.9170    -1.7000 H     1 <1>   0.0800 
 31 H       -3.2130     2.8380    -0.4010 H     1 <1>   0.0800 
 32 H       -3.2490    -0.7050    -1.4900 H     1 <1>   0.0800 
 33 H       -3.6540    -1.3810     0.0560 H     1 <1>   0.0800 
 34 H        5.2770    -0.1280    -0.9260 H     1 <1>   0.0800 
 35 H        5.3510    -1.7690    -1.5240 H     1 <1>   0.0800 
 36 H        5.4840    -1.4590     0.1910 H     1 <1>   0.0800 
 37 H       -5.0350    -0.5820     1.7310 H     1 <1>   0.4000 
 38 H       -6.8600     0.3960     0.3440 H     1 <1>   0.0800 
 39 H       -6.1520     1.4540    -0.8470 H     1 <1>   0.0800 
 40 H       -5.8090    -1.4540    -0.6440 H     1 <1>   0.0800 
 41 H       -5.4980    -0.3870    -1.9960 H     1 <1>   0.0800 
@<TRIPOS>BOND
  1   1   2  2   
  2   1   3  2   
  3   1   4  am  
  4   1   5  1   
  5   4   6  1   
  6   4   7  1   
  7   5   8  1   
  8   5   9  2   
  9   6  10  1   
 10   6  21  1   
 11   6  22  1   
 12   7  11  1   
 13   7  23  1   
 14   7  24  1   
 15   8  12  1   
 16   9  13  1   
 17   9  25  1   
 18  10  14  1   
 19  10  15  1   
 20  10  16  1   
 21  11  15  1   
 22  11  26  1   
 23  11  27  1   
 24  12  13  2   
 25  12  28  1   
 26  13  17  1   
 27  14  18  1   
 28  14  19  1   
 29  14  29  1   
 30  15  30  1   
 31  15  31  1   
 32  16  20  1   
 33  16  32  1   
 34  16  33  1   
 35  17  34  1   
 36  17  35  1   
 37  17  36  1   
 38  18  37  1   
 39  19  20  1   
 40  19  38  1   
 41  19  39  1   
 42  20  40  1   
 43  20  41  1   
@<TRIPOS>SUBSTRUCTURE
  1 ****   4 GROUP 4 **** **** 0

# MOE 2024.06 (io_trps.svl 2023.06)
