@<TRIPOS>MOLECULE
NONAME
58 59 1 0 0 
SMALL
USER_CHARGES


@<TRIPOS>ATOM
  1 F       -0.7190     0.3230    -1.0660 F     1 <1>  -0.1900 
  2 C       -1.9770     0.5270    -0.7690 C.ar  1 <1>   0.1900 
  3 C       -2.7930     1.3680    -1.5340 C.ar  1 <1>   0.0830 
  4 C       -2.4600    -0.1320     0.3450 C.ar  1 <1>  -0.1500 
  5 O       -2.4370     2.0700    -2.6480 O.3   1 <1>  -0.3630 
  6 C       -4.1110     1.5190    -1.1360 C.ar  1 <1>  -0.1500 
  7 C       -3.7820     0.0400     0.7130 C.ar  1 <1>  -0.1500 
  8 C       -1.1410     2.0240    -3.2030 C.3   1 <1>   0.0400 
  9 C       -4.6370     0.8630    -0.0210 C.ar  1 <1>   0.0530 
 10 C       -6.0160     1.0520     0.3510 C.2   1 <1>   0.0870 
 11 O       -6.5330     2.2530     0.3070 O.3   1 <1>  -0.0190 
 12 C       -7.0060     0.2100     0.7600 C.2   1 <1>  -0.0860 
 13 N       -7.7860     2.2840     0.6660 N.2   1 <1>  -0.4100 
 14 C       -8.0980     1.0710     0.9540 C.2   1 <1>   0.3720 
 15 C       -7.0180    -1.2140     0.9040 C.2   1 <1>   0.7160 
 16 N       -9.3800     0.7030     1.4150 N.pl3 1 <1>  -0.8210 
 17 O       -6.0710    -1.9110     0.6040 O.2   1 <1>  -0.5700 
 18 N       -8.1510    -1.8390     1.3190 N.am  1 <1>  -0.7300 
 19 C      -10.4800     1.4860     0.7690 C.3   1 <1>   0.1290 
 20 C       -9.4680     0.8580     2.8990 C.3   1 <1>   0.1290 
 21 C       -8.4310    -3.3030     1.2740 C.3   1 <1>   0.1400 
 22 C       -9.0180    -3.8260    -0.0790 C.3   1 <1>   0.5030 
 23 N      -10.1050    -2.9580    -0.6690 N.4   1 <1>  -0.9590 
 24 C       -7.9050    -4.0190    -1.1210 C.3   1 <1>  -0.2400 
 25 C       -9.6330    -5.2120     0.1580 C.3   1 <1>  -0.2400 
 26 C       -9.6300    -1.6770    -1.2860 C.3   1 <1>   0.3430 
 27 C      -11.2200    -2.6720     0.2960 C.3   1 <1>   0.2630 
 28 C      -10.6680    -1.1580    -2.2740 C.3   1 <1>  -0.2400 
 29 H       -1.8100    -0.7730     0.9130 H     1 <1>   0.1500 
 30 H       -4.7470     2.1660    -1.7140 H     1 <1>   0.1500 
 31 H       -4.1550    -0.4710     1.5830 H     1 <1>   0.1500 
 32 H       -1.1280     2.6560    -4.0730 H     1 <1>   0.0800 
 33 H       -0.9160     1.0110    -3.4860 H     1 <1>   0.0800 
 34 H       -0.4350     2.3890    -2.4780 H     1 <1>   0.0800 
 35 H       -8.9220    -1.1950     1.5540 H     1 <1>   0.3700 
 36 H      -10.3560     1.4840    -0.3000 H     1 <1>   0.0800 
 37 H      -10.4630     2.5080     1.1100 H     1 <1>   0.0800 
 38 H      -11.4360     1.0540     1.0110 H     1 <1>   0.0800 
 39 H       -8.6910     0.2880     3.3810 H     1 <1>   0.0800 
 40 H      -10.4230     0.5110     3.2560 H     1 <1>   0.0800 
 41 H       -9.3490     1.8940     3.1720 H     1 <1>   0.0800 
 42 H       -9.1100    -3.5380     2.0750 H     1 <1>   0.0800 
 43 H       -7.5190    -3.8370     1.4840 H     1 <1>   0.0800 
 44 H      -10.4910    -3.5120    -1.4420 H     1 <1>   0.4500 
 45 H       -7.3380    -3.1230    -1.2800 H     1 <1>   0.0800 
 46 H       -8.3040    -4.3580    -2.0600 H     1 <1>   0.0800 
 47 H       -7.2040    -4.7590    -0.7760 H     1 <1>   0.0800 
 48 H      -10.3820    -5.1960     0.9280 H     1 <1>   0.0800 
 49 H       -8.8700    -5.9000     0.4810 H     1 <1>   0.0800 
 50 H      -10.0630    -5.6060    -0.7460 H     1 <1>   0.0800 
 51 H       -8.7100    -1.8330    -1.8230 H     1 <1>   0.0800 
 52 H       -9.4490    -0.9370    -0.5250 H     1 <1>   0.0800 
 53 H      -10.8610    -2.0610     1.1090 H     1 <1>   0.0800 
 54 H      -11.6210    -3.5860     0.6990 H     1 <1>   0.0800 
 55 H      -12.0200    -2.1460    -0.1980 H     1 <1>   0.0800 
 56 H      -10.8800    -1.8920    -3.0300 H     1 <1>   0.0800 
 57 H      -10.2730    -0.2850    -2.7640 H     1 <1>   0.0800 
 58 H      -11.5770    -0.8670    -1.7810 H     1 <1>   0.0800 
@<TRIPOS>BOND
  1   1   2  1   
  2   2   3  ar  
  3   2   4  ar  
  4   3   5  1   
  5   3   6  ar  
  6   4   7  ar  
  7   4  29  1   
  8   5   8  1   
  9   6   9  ar  
 10   6  30  1   
 11   7   9  ar  
 12   7  31  1   
 13   8  32  1   
 14   8  33  1   
 15   8  34  1   
 16   9  10  1   
 17  10  11  1   
 18  10  12  2   
 19  11  13  1   
 20  12  14  1   
 21  12  15  1   
 22  13  14  2   
 23  14  16  1   
 24  15  17  2   
 25  15  18  am  
 26  16  19  1   
 27  16  20  1   
 28  18  21  1   
 29  18  35  1   
 30  19  36  1   
 31  19  37  1   
 32  19  38  1   
 33  20  39  1   
 34  20  40  1   
 35  20  41  1   
 36  21  22  1   
 37  21  42  1   
 38  21  43  1   
 39  22  23  1   
 40  22  24  1   
 41  22  25  1   
 42  23  26  1   
 43  23  27  1   
 44  23  44  1   
 45  24  45  1   
 46  24  46  1   
 47  24  47  1   
 48  25  48  1   
 49  25  49  1   
 50  25  50  1   
 51  26  28  1   
 52  26  51  1   
 53  26  52  1   
 54  27  53  1   
 55  27  54  1   
 56  27  55  1   
 57  28  56  1   
 58  28  57  1   
 59  28  58  1   
@<TRIPOS>SUBSTRUCTURE
  1 ****  12 GROUP 4 **** **** 0

# MOE 2024.06 (io_trps.svl 2023.06)
