@<TRIPOS>MOLECULE
NONAME
44 46 1 0 0 
SMALL
USER_CHARGES


@<TRIPOS>ATOM
  1 O       -0.2400     0.1440     0.4000 O.2   1 <1>  -0.5700 
  2 C       -1.2900     0.7560     0.3850 C.2   1 <1>   0.5440 
  3 N       -2.4640     0.0480     0.2530 N.am  1 <1>  -0.6600 
  4 C       -1.2880     2.2030     0.4850 C.ar  1 <1>   0.0860 
  5 C       -3.7610     0.6350    -0.1660 C.3   1 <1>   0.1400 
  6 C       -2.4880    -1.4290     0.1190 C.3   1 <1>   0.1400 
  7 C       -0.5070     2.9770    -0.3700 C.ar  1 <1>  -0.1500 
  8 C       -2.0610     2.8730     1.4290 C.ar  1 <1>  -0.1500 
  9 C       -4.5730    -0.5470    -0.6960 C.3   1 <1>   0.2000 
 10 C       -3.9660    -1.7880    -0.0450 C.3   1 <1>  -0.0800 
 11 C       -0.5040     4.3610    -0.3110 C.ar  1 <1>  -0.1440 
 12 C       -2.0690     4.2530     1.4990 C.ar  1 <1>  -0.1500 
 13 O       -5.9130    -0.4420    -0.3550 O.3   1 <1>  -0.6800 
 14 C       -4.2190    -3.0670    -0.8610 C.3   1 <1>  -0.0170 
 15 C       -1.2960     5.0080     0.6310 C.ar  1 <1>  -0.1430 
 16 C        0.3740     5.1390    -1.2810 C.3   1 <1>  -0.0970 
 17 C       -3.6590    -4.2980    -0.1660 C.ar  1 <1>   0.1670 
 18 C       -1.3300     6.5260     0.7360 C.3   1 <1>  -0.0970 
 19 N       -2.3740    -4.5510    -0.3570 N.ar  1 <1>  -0.6200 
 20 C       -4.4890    -5.0890     0.6260 C.ar  1 <1>   0.1600 
 21 C       -1.9790    -5.6330     0.2920 C.ar  1 <1>   0.1600 
 22 N       -4.0960    -6.1710     1.2780 N.ar  1 <1>  -0.6200 
 23 C       -2.8110    -6.4160     1.0830 C.ar  1 <1>   0.1600 
 24 H       -4.2420     1.0780     0.6880 H     1 <1>   0.0800 
 25 H       -3.6120     1.3730    -0.9350 H     1 <1>   0.0800 
 26 H       -1.9210    -1.7120    -0.7520 H     1 <1>   0.0800 
 27 H       -2.0570    -1.9000     0.9870 H     1 <1>   0.0800 
 28 H        0.1080     2.4640    -1.0890 H     1 <1>   0.1500 
 29 H       -2.6570     2.3010     2.1170 H     1 <1>   0.1500 
 30 H       -4.4960    -0.5890    -1.7690 H     1 <1>   0.0800 
 31 H       -4.3730    -1.9080     0.9430 H     1 <1>   0.0800 
 32 H       -2.6800     4.7390     2.2400 H     1 <1>   0.1500 
 33 H       -6.0150    -0.3910     0.6150 H     1 <1>   0.4000 
 34 H       -3.7690    -2.9790    -1.8350 H     1 <1>   0.0800 
 35 H       -5.2780    -3.1900    -1.0060 H     1 <1>   0.0800 
 36 H        0.9210     4.4750    -1.9260 H     1 <1>   0.0800 
 37 H        1.0810     5.7390    -0.7380 H     1 <1>   0.0800 
 38 H       -0.2330     5.7810    -1.8950 H     1 <1>   0.0800 
 39 H       -2.0040     6.8450     1.5100 H     1 <1>   0.0800 
 40 H       -1.6580     6.9530    -0.1940 H     1 <1>   0.0800 
 41 H       -0.3490     6.9000     0.9680 H     1 <1>   0.0800 
 42 H       -5.5240    -4.8130     0.7280 H     1 <1>   0.1500 
 43 H       -0.9450    -5.9150     0.1940 H     1 <1>   0.1500 
 44 H       -2.3960    -7.2790     1.5730 H     1 <1>   0.1500 
@<TRIPOS>BOND
  1   1   2  2   
  2   2   3  am  
  3   2   4  1   
  4   3   5  1   
  5   3   6  1   
  6   4   7  ar  
  7   4   8  ar  
  8   5   9  1   
  9   5  24  1   
 10   5  25  1   
 11   6  10  1   
 12   6  26  1   
 13   6  27  1   
 14   7  11  ar  
 15   7  28  1   
 16   8  12  ar  
 17   8  29  1   
 18   9  10  1   
 19   9  13  1   
 20   9  30  1   
 21  10  14  1   
 22  10  31  1   
 23  11  15  ar  
 24  11  16  1   
 25  12  15  ar  
 26  12  32  1   
 27  13  33  1   
 28  14  17  1   
 29  14  34  1   
 30  14  35  1   
 31  15  18  1   
 32  16  36  1   
 33  16  37  1   
 34  16  38  1   
 35  17  19  ar  
 36  17  20  ar  
 37  18  39  1   
 38  18  40  1   
 39  18  41  1   
 40  19  21  ar  
 41  20  22  ar  
 42  20  42  1   
 43  21  23  ar  
 44  21  43  1   
 45  22  23  ar  
 46  23  44  1   
@<TRIPOS>SUBSTRUCTURE
  1 ****   3 GROUP 4 **** **** 0

# MOE 2024.06 (io_trps.svl 2023.06)
