@<TRIPOS>MOLECULE
NONAME
53 54 1 0 0 
SMALL
USER_CHARGES


@<TRIPOS>ATOM
  1 F       -0.3140     0.8790    -1.2700 F     1 <1>  -0.1900 
  2 C       -1.5720     1.0230    -0.9410 C.ar  1 <1>   0.1900 
  3 C       -2.4150     1.9220    -1.6050 C.ar  1 <1>   0.0830 
  4 C       -2.0270     0.2400     0.1020 C.ar  1 <1>  -0.1500 
  5 O       -2.0860     2.7440    -2.6420 O.3   1 <1>  -0.3630 
  6 C       -3.7310     2.0010    -1.1810 C.ar  1 <1>  -0.1500 
  7 C       -3.3470     0.3450     0.5000 C.ar  1 <1>  -0.1500 
  8 C       -0.7990     2.7800    -3.2180 C.3   1 <1>   0.0400 
  9 C       -4.2290     1.2220    -0.1340 C.ar  1 <1>   0.0530 
 10 C       -5.6060     1.3400     0.2740 C.2   1 <1>   0.0870 
 11 O       -6.1560     2.5260     0.3390 O.3   1 <1>  -0.0190 
 12 C       -6.5560     0.4400     0.6470 C.2   1 <1>  -0.0860 
 13 N       -7.4000     2.4920     0.7340 N.2   1 <1>  -0.4100 
 14 C       -7.6680     1.2480     0.9250 C.2   1 <1>   0.3720 
 15 C       -6.5120    -0.9890     0.7310 C.2   1 <1>   0.7160 
 16 N       -8.9290     0.7890     1.3390 N.pl3 1 <1>  -0.8210 
 17 O       -5.6170    -1.6330     0.2160 O.2   1 <1>  -0.5700 
 18 N       -7.4930    -1.6650     1.3800 N.am  1 <1>  -0.7300 
 19 C       -9.6380     1.6840     2.2970 C.3   1 <1>   0.1290 
 20 C       -9.8150     0.3850     0.2100 C.3   1 <1>   0.1290 
 21 C       -7.8270    -3.0940     1.1530 C.3   1 <1>   0.2810 
 22 C       -8.8210    -3.2550    -0.0250 C.2   1 <1>   0.5690 
 23 C       -8.3710    -3.6620     2.4750 C.3   1 <1>  -0.1600 
 24 O       -9.9390    -2.8050     0.1170 O.2   1 <1>  -0.5700 
 25 N       -8.4520    -3.8700    -1.2030 N.am  1 <1>  -0.6600 
 26 C       -8.6220    -5.1760     2.4100 C.3   1 <1>  -0.2400 
 27 C       -7.0580    -4.2860    -1.5250 C.3   1 <1>   0.0600 
 28 C       -9.4350    -4.1110    -2.2980 C.3   1 <1>   0.0600 
 29 H       -1.3570    -0.4420     0.5940 H     1 <1>   0.1500 
 30 H       -4.3900     2.6870    -1.6820 H     1 <1>   0.1500 
 31 H       -3.7020    -0.2640     1.3140 H     1 <1>   0.1500 
 32 H       -0.8100     3.4970    -4.0180 H     1 <1>   0.0800 
 33 H       -0.5610     1.8050    -3.6060 H     1 <1>   0.0800 
 34 H       -0.0880     3.0810    -2.4690 H     1 <1>   0.0800 
 35 H       -8.3010    -1.0780     1.6370 H     1 <1>   0.3700 
 36 H       -8.9640     1.9870     3.0800 H     1 <1>   0.0800 
 37 H      -10.4710     1.1640     2.7380 H     1 <1>   0.0800 
 38 H       -9.9960     2.5640     1.7890 H     1 <1>   0.0800 
 39 H       -9.2640    -0.2010    -0.5070 H     1 <1>   0.0800 
 40 H      -10.2060     1.2570    -0.2860 H     1 <1>   0.0800 
 41 H      -10.6320    -0.2120     0.5780 H     1 <1>   0.0800 
 42 H       -6.9200    -3.6220     0.9290 H     1 <1>   0.0800 
 43 H       -9.2920    -3.1640     2.7250 H     1 <1>   0.0800 
 44 H       -7.6580    -3.4650     3.2570 H     1 <1>   0.0800 
 45 H       -9.3730    -5.4060     1.6740 H     1 <1>   0.0800 
 46 H       -8.9670    -5.5300     3.3660 H     1 <1>   0.0800 
 47 H       -7.7160    -5.7000     2.1590 H     1 <1>   0.0800 
 48 H       -6.3670    -3.5010    -1.2750 H     1 <1>   0.0800 
 49 H       -6.9610    -4.4930    -2.5770 H     1 <1>   0.0800 
 50 H       -6.8050    -5.1740    -0.9720 H     1 <1>   0.0800 
 51 H      -10.4360    -3.8870    -1.9740 H     1 <1>   0.0800 
 52 H       -9.3990    -5.1440    -2.5980 H     1 <1>   0.0800 
 53 H       -9.1980    -3.4870    -3.1410 H     1 <1>   0.0800 
@<TRIPOS>BOND
  1   1   2  1   
  2   2   3  ar  
  3   2   4  ar  
  4   3   5  1   
  5   3   6  ar  
  6   4   7  ar  
  7   4  29  1   
  8   5   8  1   
  9   6   9  ar  
 10   6  30  1   
 11   7   9  ar  
 12   7  31  1   
 13   8  32  1   
 14   8  33  1   
 15   8  34  1   
 16   9  10  1   
 17  10  11  1   
 18  10  12  2   
 19  11  13  1   
 20  12  14  1   
 21  12  15  1   
 22  13  14  2   
 23  14  16  1   
 24  15  17  2   
 25  15  18  am  
 26  16  19  1   
 27  16  20  1   
 28  18  21  1   
 29  18  35  1   
 30  19  36  1   
 31  19  37  1   
 32  19  38  1   
 33  20  39  1   
 34  20  40  1   
 35  20  41  1   
 36  21  22  1   
 37  21  23  1   
 38  21  42  1   
 39  22  24  2   
 40  22  25  am  
 41  23  26  1   
 42  23  43  1   
 43  23  44  1   
 44  25  27  1   
 45  25  28  1   
 46  26  45  1   
 47  26  46  1   
 48  26  47  1   
 49  27  48  1   
 50  27  49  1   
 51  27  50  1   
 52  28  51  1   
 53  28  52  1   
 54  28  53  1   
@<TRIPOS>SUBSTRUCTURE
  1 ****  15 GROUP 4 **** **** 0

# MOE 2024.06 (io_trps.svl 2023.06)
