@<TRIPOS>MOLECULE
NONAME
53 55 1 0 0 
SMALL
USER_CHARGES


@<TRIPOS>ATOM
  1 O        1.5800     0.6720     1.1680 O.2   1 <1>  -0.5700 
  2 C        2.5310     0.0950     0.6710 C.2   1 <1>   0.7150 
  3 N        2.7250     0.2170    -0.6940 N.am  1 <1>  -0.6600 
  4 C        3.4150    -0.6690     1.5250 C.2   1 <1>   0.0550 
  5 C        3.4000    -0.8290    -1.5200 C.3   1 <1>   0.1400 
  6 C        2.0120     1.2700    -1.4670 C.3   1 <1>   0.1400 
  7 O        4.7180    -0.7170     1.2840 O.3   1 <1>  -0.2800 
  8 C        3.1640    -1.3790     2.6460 C.2   1 <1>   0.0460 
  9 C        4.8600    -0.4850    -1.8690 C.3   1 <1>   0.1100 
 10 C        2.8650     1.8290    -2.6110 C.3   1 <1>  -0.1600 
 11 C        5.1620    -1.4430     2.2870 C.2   1 <1>   0.2980 
 12 N        4.2980    -1.8780     3.1250 N.2   1 <1>  -0.5650 
 13 C        1.8610    -1.6480     3.3710 C.3   1 <1>  -0.0590 
 14 N        5.1010     0.7670    -2.6370 N.3   1 <1>  -0.8100 
 15 C        4.3430     1.9800    -2.2460 C.3   1 <1>   0.1100 
 16 C        6.6490    -1.6980     2.3670 C.3   1 <1>  -0.0600 
 17 C        6.5690     0.9680    -2.8960 C.3   1 <1>   0.2510 
 18 C        7.4480     1.3850    -1.6860 C.2   1 <1>   0.5690 
 19 C        6.7550     1.9000    -4.1010 C.3   1 <1>  -0.2400 
 20 O        8.6360     1.5280    -1.8540 O.2   1 <1>  -0.5700 
 21 N        6.8420     1.5410    -0.4680 N.am  1 <1>  -0.5470 
 22 C        7.3080     1.8070     0.8260 C.ar  1 <1>   0.1170 
 23 C        8.6570     1.8670     1.1620 C.ar  1 <1>  -0.1500 
 24 C        6.3690     1.9990     1.8340 C.ar  1 <1>  -0.1500 
 25 C        9.0540     2.1060     2.4650 C.ar  1 <1>  -0.1500 
 26 C        6.7610     2.2360     3.1390 C.ar  1 <1>  -0.1500 
 27 C        8.1070     2.2900     3.4570 C.ar  1 <1>  -0.1500 
 28 H        2.8470    -0.9840    -2.4300 H     1 <1>   0.0800 
 29 H        3.3890    -1.7620    -0.9820 H     1 <1>   0.0800 
 30 H        1.7600     2.0820    -0.8040 H     1 <1>   0.0800 
 31 H        1.0920     0.8680    -1.8550 H     1 <1>   0.0800 
 32 H        5.2380    -1.3040    -2.4570 H     1 <1>   0.0800 
 33 H        5.4340    -0.4800    -0.9650 H     1 <1>   0.0800 
 34 H        2.4710     2.7980    -2.8590 H     1 <1>   0.0800 
 35 H        2.7640     1.2190    -3.4910 H     1 <1>   0.0800 
 36 H        1.0280    -1.2240     2.8420 H     1 <1>   0.0800 
 37 H        1.9020    -1.2180     4.3550 H     1 <1>   0.0800 
 38 H        1.7110    -2.7080     3.4620 H     1 <1>   0.0800 
 39 H        4.4450     2.1940    -1.1970 H     1 <1>   0.0800 
 40 H        4.7160     2.8300    -2.7870 H     1 <1>   0.0800 
 41 H        6.9840    -2.1830     1.4700 H     1 <1>   0.0800 
 42 H        6.8670    -2.3260     3.2110 H     1 <1>   0.0800 
 43 H        7.1710    -0.7660     2.4810 H     1 <1>   0.0800 
 44 H        6.9600     0.0160    -3.2110 H     1 <1>   0.0800 
 45 H        6.5880     2.9260    -3.8300 H     1 <1>   0.0800 
 46 H        6.0900     1.6180    -4.8980 H     1 <1>   0.0800 
 47 H        7.7660     1.8210    -4.4580 H     1 <1>   0.0800 
 48 H        5.8360     1.3680    -0.5300 H     1 <1>   0.3700 
 49 H        9.4090     1.7260     0.4080 H     1 <1>   0.1500 
 50 H        5.3210     1.9600     1.6030 H     1 <1>   0.1500 
 51 H       10.1020     2.1510     2.7060 H     1 <1>   0.1500 
 52 H        6.0200     2.3780     3.9070 H     1 <1>   0.1500 
 53 H        8.4150     2.4750     4.4720 H     1 <1>   0.1500 
@<TRIPOS>BOND
  1   1   2  2   
  2   2   3  am  
  3   2   4  1   
  4   3   5  1   
  5   3   6  1   
  6   4   7  1   
  7   4   8  2   
  8   5   9  1   
  9   5  28  1   
 10   5  29  1   
 11   6  10  1   
 12   6  30  1   
 13   6  31  1   
 14   7  11  1   
 15   8  12  1   
 16   8  13  1   
 17   9  14  1   
 18   9  32  1   
 19   9  33  1   
 20  10  15  1   
 21  10  34  1   
 22  10  35  1   
 23  11  12  2   
 24  11  16  1   
 25  13  36  1   
 26  13  37  1   
 27  13  38  1   
 28  14  15  1   
 29  14  17  1   
 30  15  39  1   
 31  15  40  1   
 32  16  41  1   
 33  16  42  1   
 34  16  43  1   
 35  17  18  1   
 36  17  19  1   
 37  17  44  1   
 38  18  20  2   
 39  18  21  am  
 40  19  45  1   
 41  19  46  1   
 42  19  47  1   
 43  21  22  1   
 44  21  48  1   
 45  22  23  ar  
 46  22  24  ar  
 47  23  25  ar  
 48  23  49  1   
 49  24  26  ar  
 50  24  50  1   
 51  25  27  ar  
 52  25  51  1   
 53  26  27  ar  
 54  26  52  1   
 55  27  53  1   
@<TRIPOS>SUBSTRUCTURE
  1 ****   7 GROUP 4 **** **** 0

# MOE 2024.06 (io_trps.svl 2023.06)
