@<TRIPOS>MOLECULE
NONAME
54 57 1 0 0 
SMALL
USER_CHARGES


@<TRIPOS>ATOM
  1 S       -0.3330     0.8890     2.2670 S.3   1 <1>  -0.0800 
  2 C       -1.1360     1.5430     0.8470 C.2   1 <1>  -0.1400 
  3 C       -1.6180    -0.2930     2.4830 C.2   1 <1>  -0.1100 
  4 C       -2.2800     0.8930     0.6040 C.2   1 <1>  -0.1810 
  5 C       -0.5530     2.6870     0.0330 C.3   1 <1>   0.4600 
  6 C       -2.5610    -0.1600     1.5300 C.2   1 <1>  -0.1500 
  7 C       -3.1310     1.3040    -0.5760 C.3   1 <1>   0.0210 
  8 O       -1.3570     2.9180    -1.0990 O.3   1 <1>  -0.5600 
  9 C       -0.5140     3.9840     0.8530 C.3   1 <1>  -0.1600 
 10 C        0.8240     2.2940    -0.5290 C.3   1 <1>  -0.1600 
 11 C       -2.7570     2.7430    -0.9880 C.3   1 <1>   0.1200 
 12 C        0.4650     4.9530     0.2100 C.3   1 <1>   0.3430 
 13 C        1.9470     2.9020     0.2970 C.3   1 <1>   0.3430 
 14 N        1.8630     4.3970     0.2620 N.4   1 <1>  -0.9590 
 15 C        2.6550     4.9940     1.3730 C.3   1 <1>   0.4860 
 16 C        2.8190     6.4780     1.1080 C.ar  1 <1>  -0.1430 
 17 C        3.6030     6.9100     0.0490 C.ar  1 <1>  -0.1500 
 18 C        2.1900     7.4140     1.9140 C.ar  1 <1>  -0.1500 
 19 C        3.7560     8.2620    -0.2210 C.ar  1 <1>  -0.1430 
 20 C        2.3350     8.7650     1.6530 C.ar  1 <1>  -0.1500 
 21 C        3.1140     9.1980     0.5840 C.ar  1 <1>   0.0830 
 22 C        4.6180     8.6990    -1.4010 C.3   1 <1>   0.2630 
 23 O        3.2800    10.5110     0.2800 O.3   1 <1>  -0.3630 
 24 O        5.8180     8.0090    -1.3530 O.3   1 <1>  -0.6800 
 25 C        2.7210    11.5410     1.0630 C.3   1 <1>   0.1200 
 26 C        3.1370    12.8750     0.4510 C.3   1 <1>  -0.2400 
 27 H       -1.5330    -0.9740     3.3110 H     1 <1>   0.1500 
 28 H       -3.4490    -0.7620     1.4380 H     1 <1>   0.1500 
 29 H       -4.1720     1.2690    -0.3120 H     1 <1>   0.0800 
 30 H       -2.9660     0.6310    -1.3980 H     1 <1>   0.0800 
 31 H       -0.2070     3.7880     1.8640 H     1 <1>   0.0800 
 32 H       -1.4920     4.4240     0.9010 H     1 <1>   0.0800 
 33 H        0.9260     2.6240    -1.5480 H     1 <1>   0.0800 
 34 H        0.9230     1.2230    -0.5280 H     1 <1>   0.0800 
 35 H       -3.1320     3.4410    -0.2600 H     1 <1>   0.0800 
 36 H       -3.1940     2.9770    -1.9420 H     1 <1>   0.0800 
 37 H        0.4180     5.9120     0.7000 H     1 <1>   0.0800 
 38 H        0.1730     5.0940    -0.8190 H     1 <1>   0.0800 
 39 H        2.9020     2.5750    -0.0830 H     1 <1>   0.0800 
 40 H        1.8510     2.5530     1.3130 H     1 <1>   0.0800 
 41 H        2.3210     4.7240    -0.6000 H     1 <1>   0.4500 
 42 H        3.6300     4.5370     1.4220 H     1 <1>   0.0800 
 43 H        2.1550     4.8380     2.3150 H     1 <1>   0.0800 
 44 H        4.1140     6.2010    -0.5810 H     1 <1>   0.1500 
 45 H        1.5850     7.1090     2.7510 H     1 <1>   0.1500 
 46 H        1.8340     9.4670     2.2940 H     1 <1>   0.1500 
 47 H        4.8410     9.7520    -1.3820 H     1 <1>   0.0800 
 48 H        4.1330     8.4610    -2.3320 H     1 <1>   0.0800 
 49 H        6.2980     8.2680    -0.5420 H     1 <1>   0.4000 
 50 H        3.0970    11.4500     2.0670 H     1 <1>   0.0800 
 51 H        1.6500    11.4360     1.0510 H     1 <1>   0.0800 
 52 H        4.2080    12.9650     0.4520 H     1 <1>   0.0800 
 53 H        2.7240    13.6840     1.0260 H     1 <1>   0.0800 
 54 H        2.7710    12.9490    -0.5580 H     1 <1>   0.0800 
@<TRIPOS>BOND
  1   1   2  1   
  2   1   3  1   
  3   2   4  2   
  4   2   5  1   
  5   3   6  2   
  6   3  27  1   
  7   4   6  1   
  8   4   7  1   
  9   5   8  1   
 10   5   9  1   
 11   5  10  1   
 12   6  28  1   
 13   7  11  1   
 14   7  29  1   
 15   7  30  1   
 16   8  11  1   
 17   9  12  1   
 18   9  31  1   
 19   9  32  1   
 20  10  13  1   
 21  10  33  1   
 22  10  34  1   
 23  11  35  1   
 24  11  36  1   
 25  12  14  1   
 26  12  37  1   
 27  12  38  1   
 28  13  14  1   
 29  13  39  1   
 30  13  40  1   
 31  14  15  1   
 32  14  41  1   
 33  15  16  1   
 34  15  42  1   
 35  15  43  1   
 36  16  17  ar  
 37  16  18  ar  
 38  17  19  ar  
 39  17  44  1   
 40  18  20  ar  
 41  18  45  1   
 42  19  21  ar  
 43  19  22  1   
 44  20  21  ar  
 45  20  46  1   
 46  21  23  1   
 47  22  24  1   
 48  22  47  1   
 49  22  48  1   
 50  23  25  1   
 51  24  49  1   
 52  25  26  1   
 53  25  50  1   
 54  25  51  1   
 55  26  52  1   
 56  26  53  1   
 57  26  54  1   
@<TRIPOS>SUBSTRUCTURE
  1 ****  12 GROUP 4 **** **** 0

# MOE 2024.06 (io_trps.svl 2023.06)
