@<TRIPOS>MOLECULE
NONAME
56 59 1 0 0 
SMALL
USER_CHARGES


@<TRIPOS>ATOM
  1 O       -1.6430    -5.4460    -0.2590 O.2   1 <1>  -0.5700 
  2 C       -0.4870    -5.2220    -0.5270 C.2   1 <1>   0.5690 
  3 N        0.0790    -5.5250    -1.7350 N.am  1 <1>  -0.6600 
  4 C        0.4010    -4.5830     0.5220 C.3   1 <1>  -0.0990 
  5 C        1.5110    -5.2290    -1.9900 C.3   1 <1>   0.1400 
  6 C       -0.6760    -6.1840    -2.8330 C.3   1 <1>   0.0600 
  7 C        1.2550    -3.4590    -0.0960 C.3   1 <1>  -0.0800 
  8 C        1.8600    -3.8210    -1.4740 C.3   1 <1>  -0.0800 
  9 C        2.4250    -3.0240     0.7970 C.3   1 <1>  -0.1600 
 10 C        3.3720    -3.5920    -1.3510 C.3   1 <1>  -0.1600 
 11 C        3.5190    -2.6170    -0.1890 C.3   1 <1>   0.2200 
 12 N        4.9050    -2.6090     0.3760 N.am  1 <1>  -0.6600 
 13 C        5.7650    -1.5810     0.0340 C.2   1 <1>   0.5690 
 14 C        5.3270    -3.7850     1.2010 C.3   1 <1>   0.0600 
 15 O        5.4620    -0.7920    -0.8350 O.2   1 <1>  -0.5700 
 16 C        7.1320    -1.4240     0.7330 C.3   1 <1>   0.2680 
 17 C        7.6180     0.0280     0.8320 C.ar  1 <1>  -0.1440 
 18 C        8.2210    -2.3250     0.1320 C.ar  1 <1>  -0.1440 
 19 C        8.1810     0.6690    -0.2640 C.ar  1 <1>  -0.1500 
 20 C        7.5050     0.7250     2.0280 C.ar  1 <1>  -0.1500 
 21 C        9.2580    -2.7670     0.9410 C.ar  1 <1>  -0.1500 
 22 C        8.1970    -2.7170    -1.2010 C.ar  1 <1>  -0.1500 
 23 C        8.6270     1.9750    -0.1660 C.ar  1 <1>  -0.1500 
 24 C        7.9510     2.0320     2.1280 C.ar  1 <1>  -0.1500 
 25 C       10.2460    -3.5950     0.4350 C.ar  1 <1>  -0.1500 
 26 C        9.1830    -3.5440    -1.7090 C.ar  1 <1>  -0.1500 
 27 C        8.5130     2.6580     1.0310 C.ar  1 <1>  -0.1500 
 28 C       10.2070    -3.9860    -0.8910 C.ar  1 <1>  -0.1500 
 29 H       -0.2060    -4.1910     1.3170 H     1 <1>   0.0800 
 30 H        1.0280    -5.3560     0.9270 H     1 <1>   0.0800 
 31 H        2.1040    -5.9700    -1.4800 H     1 <1>   0.0800 
 32 H        1.7240    -5.2910    -3.0430 H     1 <1>   0.0800 
 33 H       -0.2090    -7.1200    -3.0860 H     1 <1>   0.0800 
 34 H       -0.6920    -5.5460    -3.6980 H     1 <1>   0.0800 
 35 H       -1.6920    -6.3770    -2.5300 H     1 <1>   0.0800 
 36 H        0.6120    -2.6070    -0.2480 H     1 <1>   0.0800 
 37 H        1.4780    -3.1120    -2.1900 H     1 <1>   0.0800 
 38 H        2.7380    -3.8540     1.4020 H     1 <1>   0.0800 
 39 H        2.1500    -2.2020     1.4330 H     1 <1>   0.0800 
 40 H        3.7850    -3.1760    -2.2530 H     1 <1>   0.0800 
 41 H        3.8700    -4.5160    -1.1230 H     1 <1>   0.0800 
 42 H        3.2680    -1.6320    -0.5510 H     1 <1>   0.0800 
 43 H        4.8140    -4.6740     0.8840 H     1 <1>   0.0800 
 44 H        5.0990    -3.6020     2.2360 H     1 <1>   0.0800 
 45 H        6.3820    -3.9690     1.0980 H     1 <1>   0.0800 
 46 H        6.9830    -1.7550     1.7420 H     1 <1>   0.0800 
 47 H        8.2710     0.1510    -1.2030 H     1 <1>   0.1500 
 48 H        7.0680     0.2590     2.8930 H     1 <1>   0.1500 
 49 H        9.3080    -2.4640     1.9730 H     1 <1>   0.1500 
 50 H        7.4150    -2.3790    -1.8600 H     1 <1>   0.1500 
 51 H        9.0610     2.4580    -1.0250 H     1 <1>   0.1500 
 52 H        7.8580     2.5630     3.0590 H     1 <1>   0.1500 
 53 H       11.0450    -3.9310     1.0710 H     1 <1>   0.1500 
 54 H        9.1540    -3.8410    -2.7430 H     1 <1>   0.1500 
 55 H        8.8600     3.6740     1.1060 H     1 <1>   0.1500 
 56 H       10.9750    -4.6280    -1.2870 H     1 <1>   0.1500 
@<TRIPOS>BOND
  1   1   2  2   
  2   2   3  am  
  3   2   4  1   
  4   3   5  1   
  5   3   6  1   
  6   4   7  1   
  7   4  29  1   
  8   4  30  1   
  9   5   8  1   
 10   5  31  1   
 11   5  32  1   
 12   6  33  1   
 13   6  34  1   
 14   6  35  1   
 15   7   8  1   
 16   7   9  1   
 17   7  36  1   
 18   8  10  1   
 19   8  37  1   
 20   9  11  1   
 21   9  38  1   
 22   9  39  1   
 23  10  11  1   
 24  10  40  1   
 25  10  41  1   
 26  11  12  1   
 27  11  42  1   
 28  12  13  am  
 29  12  14  1   
 30  13  15  2   
 31  13  16  1   
 32  14  43  1   
 33  14  44  1   
 34  14  45  1   
 35  16  17  1   
 36  16  18  1   
 37  16  46  1   
 38  17  19  ar  
 39  17  20  ar  
 40  18  21  ar  
 41  18  22  ar  
 42  19  23  ar  
 43  19  47  1   
 44  20  24  ar  
 45  20  48  1   
 46  21  25  ar  
 47  21  49  1   
 48  22  26  ar  
 49  22  50  1   
 50  23  27  ar  
 51  23  51  1   
 52  24  27  ar  
 53  24  52  1   
 54  25  28  ar  
 55  25  53  1   
 56  26  28  ar  
 57  26  54  1   
 58  27  55  1   
 59  28  56  1   
@<TRIPOS>SUBSTRUCTURE
  1 ****  12 GROUP 4 **** **** 0

# MOE 2024.06 (io_trps.svl 2023.06)
