@<TRIPOS>MOLECULE
NONAME
59 63 1 0 0 
SMALL
USER_CHARGES


@<TRIPOS>ATOM
  1 O       -0.9450     0.2440    -1.4500 O.2   1 <1>  -0.5740 
  2 C       -1.1750     0.5190    -0.2900 C.2   1 <1>   0.5400 
  3 N       -1.6400    -0.4680     0.5280 N.am  1 <1>  -0.7330 
  4 C       -0.9720     1.8780     0.1860 C.ar  1 <1>   0.0800 
  5 C       -1.8540    -1.8840     0.1400 C.3   1 <1>   0.2140 
  6 C       -0.7270     2.9060    -0.7230 C.ar  1 <1>  -0.1150 
  7 C       -1.0090     2.2150     1.5550 C.ar  1 <1>  -0.1560 
  8 C       -3.3380    -2.1990     0.0020 C.3   1 <1>  -0.0860 
  9 C       -1.4990    -2.7660     1.3290 C.3   1 <1>   0.1140 
 10 C       -0.5310     4.2020    -0.2720 C.ar  1 <1>   0.3040 
 11 C       -0.8150     3.5090     2.0020 C.ar  1 <1>  -0.1150 
 12 C       -3.7670    -2.4920     1.4450 C.3   1 <1>   0.1140 
 13 C       -4.1900    -1.1320    -0.7110 C.3   1 <1>  -0.0230 
 14 O       -2.5940    -2.6670     2.1880 O.3   1 <1>  -0.5640 
 15 N       -0.2780     5.3810    -0.9390 N.pl3 1 <1>  -0.7030 
 16 C       -0.5720     4.5130     1.0710 C.ar  1 <1>   0.3040 
 17 C       -5.6340    -1.5890    -0.8430 C.ar  1 <1>  -0.1500 
 18 C       -0.1830     6.3750    -0.0590 C.cat 1 <1>   1.0690 
 19 N       -0.3350     5.8780     1.1880 N.pl3 1 <1>  -0.7670 
 20 C       -6.6230    -1.1520     0.0150 C.ar  1 <1>  -0.1560 
 21 C       -6.0300    -2.4670    -1.8310 C.ar  1 <1>  -0.1560 
 22 N        0.0270     7.6580    -0.4180 N.pl3 1 <1>  -0.5950 
 23 C       -0.0540     6.5220     2.5010 C.3   1 <1>   0.2690 
 24 C       -7.9210    -1.6070    -0.1490 C.ar  1 <1>   0.1540 
 25 C       -7.3560    -2.8590    -1.9080 C.ar  1 <1>   0.1540 
 26 C       -0.4010     8.8470     0.3910 C.3   1 <1>   0.1620 
 27 C        0.6460     8.0590    -1.7260 C.3   1 <1>   0.1620 
 28 N       -8.3120    -2.4520    -1.0890 N.ar  1 <1>  -0.6230 
 29 C       -1.1910     9.8520    -0.4650 C.3   1 <1>   0.1140 
 30 C       -0.2190     9.0960    -2.4600 C.3   1 <1>   0.1140 
 31 O       -0.4750    10.1750    -1.6160 O.3   1 <1>  -0.5640 
 32 H       -1.9230    -0.2840     1.4920 H     1 <1>   0.3650 
 33 H       -1.2880    -2.1340    -0.7410 H     1 <1>   0.0740 
 34 H       -0.6880     2.6960    -1.7780 H     1 <1>   0.1440 
 35 H       -1.1880     1.4390     2.2810 H     1 <1>   0.1440 
 36 H       -3.4270    -3.1180    -0.5500 H     1 <1>   0.0740 
 37 H       -0.6060    -2.4470     1.8360 H     1 <1>   0.0740 
 38 H       -1.4060    -3.7950     1.0280 H     1 <1>   0.0740 
 39 H       -0.8520     3.7370     3.0520 H     1 <1>   0.1440 
 40 H       -4.3600    -3.3890     1.5080 H     1 <1>   0.0740 
 41 H       -4.3070    -1.6670     1.8770 H     1 <1>   0.0740 
 42 H       -3.7830    -0.9480    -1.6900 H     1 <1>   0.0740 
 43 H       -4.1620    -0.2040    -0.1700 H     1 <1>   0.0740 
 44 H       -0.2310     5.4880    -1.9480 H     1 <1>   0.4460 
 45 H       -6.3980    -0.4650     0.8090 H     1 <1>   0.1440 
 46 H       -5.3200    -2.8490    -2.5410 H     1 <1>   0.1440 
 47 H        0.3870     5.8090     3.1770 H     1 <1>   0.0740 
 48 H       -0.9700     6.8890     2.9340 H     1 <1>   0.0740 
 49 H        0.6390     7.3370     2.3850 H     1 <1>   0.0740 
 50 H       -8.6780    -1.2550     0.5310 H     1 <1>   0.1440 
 51 H       -7.6460    -3.5450    -2.6860 H     1 <1>   0.1440 
 52 H       -1.0320     8.5480     1.2070 H     1 <1>   0.0740 
 53 H        0.4680     9.3400     0.7920 H     1 <1>   0.0740 
 54 H        1.6100     8.4990    -1.5360 H     1 <1>   0.0740 
 55 H        0.8010     7.2100    -2.3670 H     1 <1>   0.0740 
 56 H       -1.3530    10.7640     0.0850 H     1 <1>   0.0740 
 57 H       -2.1480     9.4520    -0.7530 H     1 <1>   0.0740 
 58 H       -1.1560     8.6750    -2.7810 H     1 <1>   0.0740 
 59 H        0.3030     9.4750    -3.3230 H     1 <1>   0.0740 
@<TRIPOS>BOND
  1   1   2  2   
  2   2   3  am  
  3   2   4  1   
  4   3   5  1   
  5   3  32  1   
  6   4   6  ar  
  7   4   7  ar  
  8   5   8  1   
  9   5   9  1   
 10   5  33  1   
 11   6  10  ar  
 12   6  34  1   
 13   7  11  ar  
 14   7  35  1   
 15   8  12  1   
 16   8  13  1   
 17   8  36  1   
 18   9  14  1   
 19   9  37  1   
 20   9  38  1   
 21  10  15  1   
 22  10  16  ar  
 23  11  16  ar  
 24  11  39  1   
 25  12  14  1   
 26  12  40  1   
 27  12  41  1   
 28  13  17  1   
 29  13  42  1   
 30  13  43  1   
 31  15  18  ar  
 32  15  44  1   
 33  16  19  1   
 34  17  20  ar  
 35  17  21  ar  
 36  18  19  ar  
 37  18  22  ar  
 38  19  23  1   
 39  20  24  ar  
 40  20  45  1   
 41  21  25  ar  
 42  21  46  1   
 43  22  26  1   
 44  22  27  1   
 45  23  47  1   
 46  23  48  1   
 47  23  49  1   
 48  24  28  ar  
 49  24  50  1   
 50  25  28  ar  
 51  25  51  1   
 52  26  29  1   
 53  26  52  1   
 54  26  53  1   
 55  27  30  1   
 56  27  54  1   
 57  27  55  1   
 58  29  31  1   
 59  29  56  1   
 60  29  57  1   
 61  30  31  1   
 62  30  58  1   
 63  30  59  1   
@<TRIPOS>SUBSTRUCTURE
  1 ****   4 GROUP 4 **** **** 0

# MOE 2024.06 (io_trps.svl 2023.06)
