@<TRIPOS>MOLECULE
NONAME
56 58 1 0 0 
SMALL
USER_CHARGES


@<TRIPOS>ATOM
  1 S        0.5790    -0.9840     1.0300 S.3   1 <1>  -0.4600 
  2 C        0.6880    -1.0810    -0.7940 C.3   1 <1>   0.1310 
  3 C       -0.4760     0.4630     1.3090 C.3   1 <1>  -0.0100 
  4 C        1.7070    -2.1340    -1.2250 C.2   1 <1>   0.5690 
  5 O        2.5900    -1.7730    -1.9670 O.2   1 <1>  -0.5700 
  6 N        1.6280    -3.4380    -0.7880 N.am  1 <1>  -0.6600 
  7 C        2.8150    -4.3730    -0.8690 C.3   1 <1>   0.2200 
  8 C        0.3110    -4.0290    -0.3980 C.3   1 <1>   0.1400 
  9 C        2.6830    -5.5850     0.1040 C.3   1 <1>   0.0000 
 10 C        4.1680    -3.6350    -0.6840 C.3   1 <1>   0.3430 
 11 C        0.2380    -5.4990    -0.8090 C.3   1 <1>  -0.1600 
 12 C        3.9070    -6.5430    -0.0840 C.3   1 <1>  -0.1600 
 13 C        1.3820    -6.3670    -0.2500 C.3   1 <1>  -0.1600 
 14 C        2.5700    -5.1290     1.6010 C.3   1 <1>   0.1200 
 15 N        5.2570    -4.4940    -0.1040 N.4   1 <1>  -0.9590 
 16 C        5.2010    -5.8820    -0.5880 C.3   1 <1>   0.3430 
 17 O        3.7880    -4.7790     2.1810 O.3   1 <1>  -0.6800 
 18 C        6.5910    -3.8280    -0.1830 C.3   1 <1>   0.5240 
 19 C        6.5450    -2.4870     0.5410 C.2   1 <1>   0.1080 
 20 N        6.0830    -1.4110    -0.0190 N.2   1 <1>  -0.7070 
 21 C        6.9320    -2.2640     1.8570 C.2   1 <1>  -0.1500 
 22 N        6.1400    -0.4630     0.9350 N.pl3 1 <1>   0.3140 
 23 C        6.6560    -0.9610     2.0760 C.2   1 <1>  -0.3020 
 24 C        5.6330     0.9060     0.7060 C.3   1 <1>   0.0960 
 25 C        4.1000     0.9400     0.7640 C.3   1 <1>  -0.2400 
 26 H       -0.2900    -1.3070    -1.1730 H     1 <1>   0.0800 
 27 H        0.9960    -0.1120    -1.1410 H     1 <1>   0.0800 
 28 H       -0.5910     0.5840     2.3720 H     1 <1>   0.0800 
 29 H       -1.4270     0.2800     0.8410 H     1 <1>   0.0800 
 30 H        0.0100     1.3200     0.8790 H     1 <1>   0.0800 
 31 H        2.8210    -4.7650    -1.8710 H     1 <1>   0.0800 
 32 H        0.1600    -3.9300     0.6630 H     1 <1>   0.0800 
 33 H       -0.4890    -3.5010    -0.8880 H     1 <1>   0.0800 
 34 H        4.0060    -2.7970    -0.0250 H     1 <1>   0.0800 
 35 H        4.4790    -3.2390    -1.6360 H     1 <1>   0.0800 
 36 H       -0.7080    -5.9090    -0.4990 H     1 <1>   0.0800 
 37 H        0.2570    -5.5380    -1.8850 H     1 <1>   0.0800 
 38 H        3.6840    -7.3200    -0.7940 H     1 <1>   0.0800 
 39 H        4.1130    -7.0500     0.8430 H     1 <1>   0.0800 
 40 H        1.5750    -7.1150    -0.9990 H     1 <1>   0.0800 
 41 H        1.0270    -6.9030     0.6140 H     1 <1>   0.0800 
 42 H        2.1700    -5.9300     2.2000 H     1 <1>   0.0800 
 43 H        1.9180    -4.2810     1.7070 H     1 <1>   0.0800 
 44 H        5.0030    -4.5340     0.9040 H     1 <1>   0.4500 
 45 H        5.2160    -5.8830    -1.6670 H     1 <1>   0.0800 
 46 H        6.0520    -6.4420    -0.2340 H     1 <1>   0.0800 
 47 H        3.6350    -4.4690     3.1020 H     1 <1>   0.4000 
 48 H        7.3430    -4.4480     0.2730 H     1 <1>   0.0800 
 49 H        6.8580    -3.6560    -1.2120 H     1 <1>   0.0800 
 50 H        7.3480    -2.9800     2.5440 H     1 <1>   0.1500 
 51 H        6.7900    -0.3710     2.9650 H     1 <1>   0.1500 
 52 H        6.0500     1.5580     1.4520 H     1 <1>   0.0800 
 53 H        5.9710     1.2290    -0.2620 H     1 <1>   0.0800 
 54 H        3.7510     0.6100     1.7270 H     1 <1>   0.0800 
 55 H        3.6880     0.3030     0.0010 H     1 <1>   0.0800 
 56 H        3.7500     1.9420     0.5970 H     1 <1>   0.0800 
@<TRIPOS>BOND
  1   1   2  1   
  2   1   3  1   
  3   2   4  1   
  4   2  26  1   
  5   2  27  1   
  6   3  28  1   
  7   3  29  1   
  8   3  30  1   
  9   4   5  2   
 10   4   6  am  
 11   6   7  1   
 12   6   8  1   
 13   7   9  1   
 14   7  10  1   
 15   7  31  1   
 16   8  11  1   
 17   8  32  1   
 18   8  33  1   
 19   9  12  1   
 20   9  13  1   
 21   9  14  1   
 22  10  15  1   
 23  10  34  1   
 24  10  35  1   
 25  11  13  1   
 26  11  36  1   
 27  11  37  1   
 28  12  16  1   
 29  12  38  1   
 30  12  39  1   
 31  13  40  1   
 32  13  41  1   
 33  14  17  1   
 34  14  42  1   
 35  14  43  1   
 36  15  16  1   
 37  15  18  1   
 38  15  44  1   
 39  16  45  1   
 40  16  46  1   
 41  17  47  1   
 42  18  19  1   
 43  18  48  1   
 44  18  49  1   
 45  19  20  2   
 46  19  21  1   
 47  20  22  1   
 48  21  23  2   
 49  21  50  1   
 50  22  23  1   
 51  22  24  1   
 52  23  51  1   
 53  24  25  1   
 54  24  52  1   
 55  24  53  1   
 56  25  54  1   
 57  25  55  1   
 58  25  56  1   
@<TRIPOS>SUBSTRUCTURE
  1 ****  10 GROUP 4 **** **** 0

# MOE 2024.06 (io_trps.svl 2023.06)
