@<TRIPOS>MOLECULE
NONAME
49 52 1 0 0 
SMALL
USER_CHARGES


@<TRIPOS>ATOM
  1 S        0.4280     0.0120     0.2200 S.3   1 <1>  -0.0800 
  2 C       -0.2310    -1.5580     0.6170 C.ar  1 <1>   0.0400 
  3 C        1.5200    -0.7580    -0.9260 C.2   1 <1>   0.1980 
  4 C        0.4280    -2.5060    -0.1420 C.ar  1 <1>   0.2270 
  5 C       -1.2310    -1.8740     1.5160 C.ar  1 <1>  -0.1500 
  6 N        1.4090    -2.0200    -1.0040 N.2   1 <1>  -0.5650 
  7 C        2.4620     0.1460    -1.6860 C.3   1 <1>  -0.0600 
  8 C        0.0710    -3.8350     0.0050 C.ar  1 <1>  -0.1500 
  9 C       -1.5740    -3.2080     1.6440 C.ar  1 <1>  -0.1500 
 10 C       -0.9400    -4.2100     0.8900 C.ar  1 <1>   0.0860 
 11 C       -1.3250    -5.6030     1.0270 C.2   1 <1>   0.5440 
 12 O       -0.4770    -6.4780     1.0200 O.2   1 <1>  -0.5700 
 13 N       -2.6430    -5.9830     1.1380 N.am  1 <1>  -0.6600 
 14 C       -2.9910    -7.3650     1.5770 C.3   1 <1>   0.1400 
 15 C       -3.7180    -5.3390     0.3310 C.3   1 <1>   0.1400 
 16 C       -3.1870    -8.2460     0.3210 C.3   1 <1>   0.4230 
 17 C       -3.9810    -6.2030    -0.9120 C.3   1 <1>  -0.1600 
 18 N       -3.4250    -9.7000     0.6120 N.4   1 <1>  -0.9590 
 19 C       -4.3340    -7.6740    -0.5430 C.3   1 <1>  -0.1060 
 20 C       -3.4840   -10.5110    -0.6300 C.3   1 <1>   0.3430 
 21 C       -2.5250   -10.2940     1.6350 C.3   1 <1>   0.2630 
 22 C       -5.6390    -7.7310     0.2740 C.2   1 <1>   0.9060 
 23 C       -4.4620    -8.4970    -1.8470 C.3   1 <1>  -0.1600 
 24 C       -4.5930   -10.0000    -1.5530 C.3   1 <1>  -0.1600 
 25 O       -5.8000    -8.6600     1.0820 O.co2 1 <1>  -0.9000 
 26 O       -6.4850    -6.8500     0.1290 O.co2 1 <1>  -0.9000 
 27 H       -1.7160    -1.1050     2.0910 H     1 <1>   0.1500 
 28 H        3.0710    -0.4410    -2.3480 H     1 <1>   0.0800 
 29 H        3.0980     0.6710    -0.9980 H     1 <1>   0.0800 
 30 H        1.8990     0.8550    -2.2640 H     1 <1>   0.0800 
 31 H        0.5860    -4.5780    -0.5760 H     1 <1>   0.1500 
 32 H       -2.3470    -3.4920     2.3380 H     1 <1>   0.1500 
 33 H       -2.1930    -7.7470     2.1870 H     1 <1>   0.0800 
 34 H       -3.8870    -7.3340     2.1730 H     1 <1>   0.0800 
 35 H       -4.6140    -5.2540     0.9260 H     1 <1>   0.0800 
 36 H       -3.4310    -4.3490     0.0240 H     1 <1>   0.0800 
 37 H       -2.2740    -8.1700    -0.2460 H     1 <1>   0.0800 
 38 H       -4.7950    -5.7660    -1.4660 H     1 <1>   0.0800 
 39 H       -3.1100    -6.1700    -1.5420 H     1 <1>   0.0800 
 40 H       -4.4120    -9.6650     0.9880 H     1 <1>   0.4500 
 41 H       -2.5370   -10.4560    -1.1410 H     1 <1>   0.0800 
 42 H       -3.6800   -11.5420    -0.3830 H     1 <1>   0.0800 
 43 H       -1.4980   -10.2180     1.3170 H     1 <1>   0.0800 
 44 H       -2.7710   -11.3320     1.7870 H     1 <1>   0.0800 
 45 H       -2.6390    -9.7790     2.5740 H     1 <1>   0.0800 
 46 H       -5.3280    -8.1630    -2.3950 H     1 <1>   0.0800 
 47 H       -3.5970    -8.3360    -2.4670 H     1 <1>   0.0800 
 48 H       -4.5640   -10.5480    -2.4780 H     1 <1>   0.0800 
 49 H       -5.5480   -10.1990    -1.0960 H     1 <1>   0.0800 
@<TRIPOS>BOND
  1   1   2  1   
  2   1   3  1   
  3   2   4  ar  
  4   2   5  ar  
  5   3   6  2   
  6   3   7  1   
  7   4   6  1   
  8   4   8  ar  
  9   5   9  ar  
 10   5  27  1   
 11   7  28  1   
 12   7  29  1   
 13   7  30  1   
 14   8  10  ar  
 15   8  31  1   
 16   9  10  ar  
 17   9  32  1   
 18  10  11  1   
 19  11  12  2   
 20  11  13  am  
 21  13  14  1   
 22  13  15  1   
 23  14  16  1   
 24  14  33  1   
 25  14  34  1   
 26  15  17  1   
 27  15  35  1   
 28  15  36  1   
 29  16  18  1   
 30  16  19  1   
 31  16  37  1   
 32  17  19  1   
 33  17  38  1   
 34  17  39  1   
 35  18  20  1   
 36  18  21  1   
 37  18  40  1   
 38  19  22  1   
 39  19  23  1   
 40  20  24  1   
 41  20  41  1   
 42  20  42  1   
 43  21  43  1   
 44  21  44  1   
 45  21  45  1   
 46  22  25  ar  
 47  22  26  ar  
 48  23  24  1   
 49  23  46  1   
 50  23  47  1   
 51  24  48  1   
 52  24  49  1   
@<TRIPOS>SUBSTRUCTURE
  1 ****  13 GROUP 4 **** **** 0

# MOE 2024.06 (io_trps.svl 2023.06)
