@<TRIPOS>MOLECULE
NONAME
47 48 1 0 0 
SMALL
USER_CHARGES


@<TRIPOS>ATOM
  1 O        0.2080     1.5320     0.1650 O.3   1 <1>  -0.5600 
  2 C       -0.0280     1.8550    -1.1790 C.3   1 <1>   0.2000 
  3 C       -0.2100     0.2580     0.5500 C.3   1 <1>   0.1200 
  4 C        1.0460     2.8920    -1.5510 C.3   1 <1>   0.3430 
  5 C       -1.4370     2.4790    -1.2830 C.3   1 <1>  -0.1600 
  6 C        0.0670     0.1100     2.0450 C.3   1 <1>  -0.1600 
  7 N        0.9590     3.9780    -0.5250 N.4   1 <1>  -0.9590 
  8 C       -1.4100     4.0180    -1.4250 C.3   1 <1>  -0.1600 
  9 C       -0.3620    -1.2700     2.5550 C.3   1 <1>  -0.2400 
 10 C       -0.3450     4.7230    -0.5650 C.3   1 <1>   0.3430 
 11 C        2.1690     4.8590    -0.5380 C.3   1 <1>   0.3430 
 12 C        2.2970     5.7130     0.7270 C.3   1 <1>   0.0960 
 13 N        3.4890     6.5620     0.5980 N.pl3 1 <1>   0.3140 
 14 N        3.9200     6.9620    -0.6120 N.2   1 <1>  -0.7070 
 15 C        4.2730     7.0450     1.5860 C.2   1 <1>  -0.3320 
 16 C        4.9650     7.6880    -0.3700 C.2   1 <1>   0.1080 
 17 C        5.2370     7.7770     0.9890 C.2   1 <1>  -0.1500 
 18 C        4.0790     6.8000     3.0740 C.3   1 <1>  -0.0600 
 19 C        5.7700     8.3490    -1.4640 C.3   1 <1>  -0.0590 
 20 H        0.0670     0.9710    -1.7890 H     1 <1>   0.0800 
 21 H        0.3450    -0.4760    -0.0100 H     1 <1>   0.0800 
 22 H       -1.2630     0.1510     0.3510 H     1 <1>   0.0800 
 23 H        0.8750     3.2800    -2.5410 H     1 <1>   0.0800 
 24 H        2.0150     2.4210    -1.5230 H     1 <1>   0.0800 
 25 H       -2.0240     2.2100    -0.4220 H     1 <1>   0.0800 
 26 H       -1.9350     2.0710    -2.1460 H     1 <1>   0.0800 
 27 H       -0.4750     0.8670     2.5850 H     1 <1>   0.0800 
 28 H        1.1190     0.2400     2.2280 H     1 <1>   0.0800 
 29 H        0.9350     3.4110     0.3440 H     1 <1>   0.4500 
 30 H       -2.3800     4.4190    -1.1840 H     1 <1>   0.0800 
 31 H       -1.2240     4.2720    -2.4550 H     1 <1>   0.0800 
 32 H       -1.4160    -1.4200     2.4010 H     1 <1>   0.0800 
 33 H       -0.1580    -1.3520     3.6090 H     1 <1>   0.0800 
 34 H        0.1780    -2.0480     2.0440 H     1 <1>   0.0800 
 35 H       -0.1890     5.7160    -0.9570 H     1 <1>   0.0800 
 36 H       -0.7200     4.8220     0.4420 H     1 <1>   0.0800 
 37 H        2.1280     5.5110    -1.3970 H     1 <1>   0.0800 
 38 H        3.0560     4.2530    -0.6250 H     1 <1>   0.0800 
 39 H        2.4120     5.0860     1.5910 H     1 <1>   0.0800 
 40 H        1.4480     6.3580     0.8450 H     1 <1>   0.0800 
 41 H        6.0490     8.3220     1.4380 H     1 <1>   0.1500 
 42 H        3.1150     7.1560     3.3910 H     1 <1>   0.0800 
 43 H        4.8330     7.3240     3.6340 H     1 <1>   0.0800 
 44 H        4.1620     5.7510     3.2970 H     1 <1>   0.0800 
 45 H        5.1410     9.0230    -2.0160 H     1 <1>   0.0800 
 46 H        6.1520     7.6000    -2.1330 H     1 <1>   0.0800 
 47 H        6.5920     8.9000    -1.0460 H     1 <1>   0.0800 
@<TRIPOS>BOND
  1   1   2  1   
  2   1   3  1   
  3   2   4  1   
  4   2   5  1   
  5   2  20  1   
  6   3   6  1   
  7   3  21  1   
  8   3  22  1   
  9   4   7  1   
 10   4  23  1   
 11   4  24  1   
 12   5   8  1   
 13   5  25  1   
 14   5  26  1   
 15   6   9  1   
 16   6  27  1   
 17   6  28  1   
 18   7  10  1   
 19   7  11  1   
 20   7  29  1   
 21   8  10  1   
 22   8  30  1   
 23   8  31  1   
 24   9  32  1   
 25   9  33  1   
 26   9  34  1   
 27  10  35  1   
 28  10  36  1   
 29  11  12  1   
 30  11  37  1   
 31  11  38  1   
 32  12  13  1   
 33  12  39  1   
 34  12  40  1   
 35  13  14  1   
 36  13  15  1   
 37  14  16  2   
 38  15  17  2   
 39  15  18  1   
 40  16  17  1   
 41  16  19  1   
 42  17  41  1   
 43  18  42  1   
 44  18  43  1   
 45  18  44  1   
 46  19  45  1   
 47  19  46  1   
 48  19  47  1   
@<TRIPOS>SUBSTRUCTURE
  1 ****  11 GROUP 4 **** **** 0

# MOE 2024.06 (io_trps.svl 2023.06)
