@<TRIPOS>MOLECULE
NONAME
49 50 1 0 0 
SMALL
USER_CHARGES


@<TRIPOS>ATOM
  1 CL       3.6950     1.0010     0.7170 Cl    1 <1>  -0.1770 
  2 C        3.0660     2.6210     0.8370 C.ar  1 <1>   0.1770 
  3 C        1.8010     2.8970     0.3530 C.ar  1 <1>  -0.1500 
  4 C        3.8370     3.6100     1.4190 C.ar  1 <1>  -0.1500 
  5 C        1.3060     4.1870     0.4490 C.ar  1 <1>  -0.1500 
  6 C        3.3310     4.8940     1.5100 C.ar  1 <1>  -0.1500 
  7 C        2.0640     5.2140     1.0190 C.ar  1 <1>   0.0860 
  8 C        1.5600     6.5710     1.1110 C.2   1 <1>   0.5440 
  9 O        1.5280     7.1060     2.2040 O.2   1 <1>  -0.5700 
 10 N        1.1320     7.2790     0.0030 N.am  1 <1>  -0.6600 
 11 C        1.4060     6.8260    -1.4050 C.3   1 <1>   0.1400 
 12 C        0.5630     8.6490     0.1640 C.3   1 <1>   0.1400 
 13 C        2.0160     7.9160    -2.3020 C.3   1 <1>   0.1400 
 14 C        1.6800     9.6960     0.3130 C.3   1 <1>  -0.1600 
 15 N        3.0250     8.7130    -1.5530 N.am  1 <1>  -0.6600 
 16 C        2.5000     9.9690    -0.9560 C.3   1 <1>   0.1400 
 17 C        4.2640     8.1790    -1.2930 C.2   1 <1>   0.5690 
 18 O        4.6450     7.1920    -1.8870 O.2   1 <1>  -0.5700 
 19 C        5.1960     8.8060    -0.2290 C.3   1 <1>   0.2610 
 20 O        5.9420     9.8540    -0.7720 O.3   1 <1>  -0.6800 
 21 C        6.1700     7.7910     0.4030 C.3   1 <1>  -0.1600 
 22 C        7.0200     8.3370     1.5670 C.3   1 <1>  -0.0800 
 23 C        8.0150     7.2630     2.0240 C.3   1 <1>  -0.2400 
 24 C        6.1550     8.7690     2.7600 C.3   1 <1>  -0.2400 
 25 H        1.2170     2.1100    -0.0890 H     1 <1>   0.1500 
 26 H        4.8160     3.3720     1.7940 H     1 <1>   0.1500 
 27 H        0.3190     4.4100     0.0830 H     1 <1>   0.1500 
 28 H        3.9170     5.6710     1.9700 H     1 <1>   0.1500 
 29 H        0.4920     6.4730    -1.8480 H     1 <1>   0.0800 
 30 H        2.1010     6.0050    -1.3960 H     1 <1>   0.0800 
 31 H       -0.0490     8.6660     1.0500 H     1 <1>   0.0800 
 32 H       -0.0710     8.8880    -0.6720 H     1 <1>   0.0800 
 33 H        1.2380     8.5600    -2.6720 H     1 <1>   0.0800 
 34 H        2.4810     7.4540    -3.1560 H     1 <1>   0.0800 
 35 H        2.3350     9.4010     1.1120 H     1 <1>   0.0800 
 36 H        1.2280    10.6220     0.6140 H     1 <1>   0.0800 
 37 H        3.3150    10.6350    -0.7250 H     1 <1>   0.0800 
 38 H        1.8830    10.4690    -1.6830 H     1 <1>   0.0800 
 39 H        4.5830     9.2220     0.5470 H     1 <1>   0.0800 
 40 H        6.4610     9.5100    -1.5250 H     1 <1>   0.4000 
 41 H        6.8160     7.4140    -0.3700 H     1 <1>   0.0800 
 42 H        5.5940     6.9570     0.7590 H     1 <1>   0.0800 
 43 H        7.5830     9.1900     1.2240 H     1 <1>   0.0800 
 44 H        7.4950     6.3920     2.3830 H     1 <1>   0.0800 
 45 H        8.6370     7.6420     2.8150 H     1 <1>   0.0800 
 46 H        8.6510     6.9710     1.2070 H     1 <1>   0.0800 
 47 H        5.5220     7.9620     3.0850 H     1 <1>   0.0800 
 48 H        5.5390     9.6100     2.5000 H     1 <1>   0.0800 
 49 H        6.7800     9.0660     3.5830 H     1 <1>   0.0800 
@<TRIPOS>BOND
  1   1   2  1   
  2   2   3  ar  
  3   2   4  ar  
  4   3   5  ar  
  5   3  25  1   
  6   4   6  ar  
  7   4  26  1   
  8   5   7  ar  
  9   5  27  1   
 10   6   7  ar  
 11   6  28  1   
 12   7   8  1   
 13   8   9  2   
 14   8  10  am  
 15  10  11  1   
 16  10  12  1   
 17  11  13  1   
 18  11  29  1   
 19  11  30  1   
 20  12  14  1   
 21  12  31  1   
 22  12  32  1   
 23  13  15  1   
 24  13  33  1   
 25  13  34  1   
 26  14  16  1   
 27  14  35  1   
 28  14  36  1   
 29  15  16  1   
 30  15  17  am  
 31  16  37  1   
 32  16  38  1   
 33  17  18  2   
 34  17  19  1   
 35  19  20  1   
 36  19  21  1   
 37  19  39  1   
 38  20  40  1   
 39  21  22  1   
 40  21  41  1   
 41  21  42  1   
 42  22  23  1   
 43  22  24  1   
 44  22  43  1   
 45  23  44  1   
 46  23  45  1   
 47  23  46  1   
 48  24  47  1   
 49  24  48  1   
 50  24  49  1   
@<TRIPOS>SUBSTRUCTURE
  1 ****   8 GROUP 4 **** **** 0

# MOE 2024.06 (io_trps.svl 2023.06)
