@<TRIPOS>MOLECULE
NONAME
56 59 1 0 0 
SMALL
USER_CHARGES


@<TRIPOS>ATOM
  1 O       -0.9280     0.3080    -1.5010 O.2   1 <1>  -0.5700 
  2 C       -1.8580     0.9990    -1.1440 C.2   1 <1>   0.5690 
  3 N       -3.1440     0.5230    -1.3400 N.am  1 <1>  -0.6600 
  4 C       -1.4910     2.3610    -0.4700 C.3   1 <1>   0.0610 
  5 C       -3.3410    -0.7450    -2.1150 C.3   1 <1>   0.3200 
  6 C       -4.4190     1.0800    -0.7780 C.3   1 <1>   0.1400 
  7 C       -2.2480     3.5660    -1.0970 C.3   1 <1>  -0.1600 
  8 C        0.0270     2.6660    -0.6600 C.3   1 <1>  -0.1600 
  9 C       -1.7320     2.3130     1.0630 C.3   1 <1>  -0.1600 
 10 C       -3.9530    -1.8090    -1.2240 C.2   1 <1>  -0.3320 
 11 C       -5.3300     1.6300    -1.8810 C.3   1 <1>   0.1200 
 12 C       -1.8680     4.8960    -0.4180 C.3   1 <1>   0.0000 
 13 C        0.4560     3.9910     0.0030 C.3   1 <1>   0.0000 
 14 C       -1.3530     3.6480     1.7270 C.3   1 <1>  -0.0800 
 15 N       -3.3280    -2.3790    -0.1740 N.pl3 1 <1>   0.0480 
 16 C       -5.1810    -2.3710    -1.2920 C.2   1 <1>   0.0770 
 17 O       -6.4330     2.2410    -1.3020 O.3   1 <1>  -0.6800 
 18 C       -0.3610     5.1400    -0.6150 C.3   1 <1>  -0.1600 
 19 C       -2.1690     4.7890     1.0920 C.3   1 <1>  -0.1600 
 20 C       -2.6710     6.0490    -1.0340 C.3   1 <1>  -0.2400 
 21 C        0.1460     3.9130     1.5090 C.3   1 <1>  -0.1600 
 22 C        1.9550     4.2330    -0.2150 C.3   1 <1>  -0.2400 
 23 C       -4.2340    -3.2460     0.3310 C.2   1 <1>   0.0360 
 24 C       -1.9610    -2.1280     0.3200 C.3   1 <1>   0.0160 
 25 N       -5.3580    -3.2690    -0.3090 N.2   1 <1>  -0.5650 
 26 H       -2.4170    -1.1170    -2.5230 H     1 <1>   0.0800 
 27 H       -3.9910    -0.5540    -2.9490 H     1 <1>   0.0800 
 28 H       -4.2240     1.8630    -0.0790 H     1 <1>   0.0800 
 29 H       -4.9400     0.3070    -0.2400 H     1 <1>   0.0800 
 30 H       -3.3070     3.4530    -1.0120 H     1 <1>   0.0800 
 31 H       -2.0200     3.6170    -2.1470 H     1 <1>   0.0800 
 32 H        0.2530     2.7030    -1.7120 H     1 <1>   0.0800 
 33 H        0.6110     1.8650    -0.2390 H     1 <1>   0.0800 
 34 H       -1.1400     1.5220     1.4890 H     1 <1>   0.0800 
 35 H       -2.7530     2.0960     1.2980 H     1 <1>   0.0800 
 36 H       -5.6860     0.8470    -2.5270 H     1 <1>   0.0800 
 37 H       -4.8130     2.3730    -2.4620 H     1 <1>   0.0800 
 38 H       -1.5590     3.5990     2.7830 H     1 <1>   0.0800 
 39 H       -5.9630    -2.1730    -2.0060 H     1 <1>   0.1500 
 40 H       -7.0100     1.5840    -0.8650 H     1 <1>   0.4000 
 41 H       -0.0810     6.0710    -0.1540 H     1 <1>   0.0800 
 42 H       -0.1400     5.2170    -1.6650 H     1 <1>   0.0800 
 43 H       -3.2190     4.6110     1.2460 H     1 <1>   0.0800 
 44 H       -1.9220     5.7170     1.5780 H     1 <1>   0.0800 
 45 H       -2.4710     6.1270    -2.0880 H     1 <1>   0.0800 
 46 H       -2.4080     6.9820    -0.5680 H     1 <1>   0.0800 
 47 H       -3.7270     5.8890    -0.8990 H     1 <1>   0.0800 
 48 H        0.4220     4.8360     1.9890 H     1 <1>   0.0800 
 49 H        0.7210     3.1250     1.9620 H     1 <1>   0.0800 
 50 H        2.1780     4.2860    -1.2660 H     1 <1>   0.0800 
 51 H        2.5310     3.4320     0.2140 H     1 <1>   0.0800 
 52 H        2.2580     5.1560     0.2450 H     1 <1>   0.0800 
 53 H       -4.0200    -3.8560     1.1910 H     1 <1>   0.1500 
 54 H       -1.2720    -2.1590    -0.5050 H     1 <1>   0.0800 
 55 H       -1.6910    -2.8780     1.0400 H     1 <1>   0.0800 
 56 H       -1.9230    -1.1570     0.7780 H     1 <1>   0.0800 
@<TRIPOS>BOND
  1   1   2  2   
  2   2   3  am  
  3   2   4  1   
  4   3   5  1   
  5   3   6  1   
  6   4   7  1   
  7   4   8  1   
  8   4   9  1   
  9   5  10  1   
 10   5  26  1   
 11   5  27  1   
 12   6  11  1   
 13   6  28  1   
 14   6  29  1   
 15   7  12  1   
 16   7  30  1   
 17   7  31  1   
 18   8  13  1   
 19   8  32  1   
 20   8  33  1   
 21   9  14  1   
 22   9  34  1   
 23   9  35  1   
 24  10  15  1   
 25  10  16  2   
 26  11  17  1   
 27  11  36  1   
 28  11  37  1   
 29  12  18  1   
 30  12  19  1   
 31  12  20  1   
 32  13  18  1   
 33  13  21  1   
 34  13  22  1   
 35  14  19  1   
 36  14  21  1   
 37  14  38  1   
 38  15  23  1   
 39  15  24  1   
 40  16  25  1   
 41  16  39  1   
 42  17  40  1   
 43  18  41  1   
 44  18  42  1   
 45  19  43  1   
 46  19  44  1   
 47  20  45  1   
 48  20  46  1   
 49  20  47  1   
 50  21  48  1   
 51  21  49  1   
 52  22  50  1   
 53  22  51  1   
 54  22  52  1   
 55  23  25  2   
 56  23  53  1   
 57  24  54  1   
 58  24  55  1   
 59  24  56  1   
@<TRIPOS>SUBSTRUCTURE
  1 ****   2 GROUP 4 **** **** 0

# MOE 2024.06 (io_trps.svl 2023.06)
