@<TRIPOS>MOLECULE
NONAME
50 51 1 0 0 
SMALL
USER_CHARGES


@<TRIPOS>ATOM
  1 O        2.2850     0.7770    -2.1680 O.3   1 <1>  -0.6800 
  2 C        2.4950     1.2860    -0.9000 C.3   1 <1>   0.1200 
  3 C        3.1480     2.6670    -1.0580 C.3   1 <1>   0.3430 
  4 N        3.3600     3.3730     0.2530 N.4   1 <1>  -0.9590 
  5 C        3.7320     4.8070    -0.0200 C.3   1 <1>   0.3430 
  6 C        4.3960     2.6790     1.0870 C.3   1 <1>   0.2630 
  7 C        3.7490     5.6950     1.2400 C.3   1 <1>   0.2090 
  8 N        3.9340     7.1210     0.8650 N.pl3 1 <1>  -0.8690 
  9 C        5.0870     7.7050     0.4650 C.ar  1 <1>   0.4100 
 10 N        6.1200     6.9090     0.2760 N.ar  1 <1>  -0.6200 
 11 C        5.1490     9.1090     0.2730 C.ar  1 <1>  -0.1440 
 12 C        7.2700     7.4740    -0.0700 C.ar  1 <1>   0.7710 
 13 C        6.3520     9.6520    -0.0700 C.ar  1 <1>   0.2180 
 14 C        3.8720     9.9400     0.4560 C.3   1 <1>  -0.0970 
 15 N        7.3890     8.8000    -0.2380 N.ar  1 <1>  -0.1790 
 16 N        8.3650     6.6970    -0.2560 N.pl3 1 <1>  -0.8380 
 17 C        6.6480    11.1320    -0.2850 C.3   1 <1>  -0.0970 
 18 C        9.7220     7.1160    -0.7130 C.3   1 <1>   0.2090 
 19 C        8.3530     5.2320     0.0020 C.3   1 <1>   0.2090 
 20 C       10.4660     5.8170    -0.9890 C.3   1 <1>  -0.1600 
 21 C        9.8100     4.7980    -0.0670 C.3   1 <1>  -0.1600 
 22 H        1.8530    -0.1040    -2.1440 H     1 <1>   0.4000 
 23 H        3.1370     0.6020    -0.3730 H     1 <1>   0.0800 
 24 H        1.5390     1.3610    -0.4120 H     1 <1>   0.0800 
 25 H        2.5040     3.2640    -1.6840 H     1 <1>   0.0800 
 26 H        4.0910     2.5500    -1.5660 H     1 <1>   0.0800 
 27 H        2.4590     3.3660     0.7540 H     1 <1>   0.4500 
 28 H        3.0200     5.2300    -0.7090 H     1 <1>   0.0800 
 29 H        4.7050     4.8490    -0.4820 H     1 <1>   0.0800 
 30 H        5.3440     2.6670     0.5730 H     1 <1>   0.0800 
 31 H        4.1020     1.6620     1.2870 H     1 <1>   0.0800 
 32 H        4.5230     3.1850     2.0310 H     1 <1>   0.0800 
 33 H        4.5540     5.4000     1.8900 H     1 <1>   0.0800 
 34 H        2.8180     5.5970     1.7710 H     1 <1>   0.0800 
 35 H        3.1360     7.7280     1.0880 H     1 <1>   0.4000 
 36 H        3.0530     9.4860    -0.0740 H     1 <1>   0.0800 
 37 H        3.9660    10.9390     0.0750 H     1 <1>   0.0800 
 38 H        3.6170     9.9990     1.5000 H     1 <1>   0.0800 
 39 H        8.3150     9.1230    -0.4880 H     1 <1>   0.4570 
 40 H        5.9750    11.7540     0.2750 H     1 <1>   0.0800 
 41 H        6.5550    11.3790    -1.3290 H     1 <1>   0.0800 
 42 H        7.6440    11.3750     0.0410 H     1 <1>   0.0800 
 43 H       10.2200     7.6520     0.0780 H     1 <1>   0.0800 
 44 H        9.6770     7.7190    -1.6040 H     1 <1>   0.0800 
 45 H        7.7850     4.7410    -0.7710 H     1 <1>   0.0800 
 46 H        7.9280     5.0070     0.9660 H     1 <1>   0.0800 
 47 H       11.5220     5.9120    -0.8070 H     1 <1>   0.0800 
 48 H       10.3150     5.5330    -2.0160 H     1 <1>   0.0800 
 49 H        9.9130     3.7910    -0.4310 H     1 <1>   0.0800 
 50 H       10.2440     4.8600     0.9160 H     1 <1>   0.0800 
@<TRIPOS>BOND
  1   1   2  1   
  2   1  22  1   
  3   2   3  1   
  4   2  23  1   
  5   2  24  1   
  6   3   4  1   
  7   3  25  1   
  8   3  26  1   
  9   4   5  1   
 10   4   6  1   
 11   4  27  1   
 12   5   7  1   
 13   5  28  1   
 14   5  29  1   
 15   6  30  1   
 16   6  31  1   
 17   6  32  1   
 18   7   8  1   
 19   7  33  1   
 20   7  34  1   
 21   8   9  1   
 22   8  35  1   
 23   9  10  ar  
 24   9  11  ar  
 25  10  12  ar  
 26  11  13  ar  
 27  11  14  1   
 28  12  15  ar  
 29  12  16  1   
 30  13  15  ar  
 31  13  17  1   
 32  14  36  1   
 33  14  37  1   
 34  14  38  1   
 35  15  39  1   
 36  16  18  1   
 37  16  19  1   
 38  17  40  1   
 39  17  41  1   
 40  17  42  1   
 41  18  20  1   
 42  18  43  1   
 43  18  44  1   
 44  19  21  1   
 45  19  45  1   
 46  19  46  1   
 47  20  21  1   
 48  20  47  1   
 49  20  48  1   
 50  21  49  1   
 51  21  50  1   
@<TRIPOS>SUBSTRUCTURE
  1 ****  10 GROUP 4 **** **** 0

# MOE 2024.06 (io_trps.svl 2023.06)
