@<TRIPOS>MOLECULE
NONAME
44 46 1 0 0 
SMALL
USER_CHARGES


@<TRIPOS>ATOM
  1 O        0.4060    -0.3100     0.9890 O.2   1 <1>  -0.5700 
  2 C        1.2190    -0.6320     0.1540 C.2   1 <1>   0.5690 
  3 N        2.1460     0.2610    -0.3290 N.am  1 <1>  -0.6600 
  4 C        1.1990    -2.0720    -0.3500 C.3   1 <1>  -0.0990 
  5 C        2.1560     1.6770     0.1380 C.3   1 <1>   0.1400 
  6 C        3.2100    -0.0520    -1.3250 C.3   1 <1>   0.1400 
  7 C        0.0290    -2.9210     0.1870 C.3   1 <1>  -0.1600 
  8 C        3.5180     2.0040     0.7570 C.3   1 <1>  -0.1600 
  9 C        4.5830     0.2560    -0.7210 C.3   1 <1>  -0.1600 
 10 C        0.0950    -4.3640    -0.3340 C.3   1 <1>   0.0960 
 11 C        4.6620     1.7060    -0.2230 C.3   1 <1>   0.0640 
 12 N       -1.0750    -5.1480     0.1070 N.pl3 1 <1>   0.3140 
 13 C        6.0220     1.9950     0.4070 C.ar  1 <1>  -0.1440 
 14 N       -1.9800    -5.6200    -0.7690 N.2   1 <1>  -0.7070 
 15 C       -1.3840    -5.5080     1.3690 C.2   1 <1>  -0.3020 
 16 C        6.4700     1.3530     1.5460 C.ar  1 <1>  -0.1500 
 17 C        6.8860     2.9240    -0.1390 C.ar  1 <1>  -0.1500 
 18 C       -2.8450    -6.2610    -0.0430 C.2   1 <1>   0.1390 
 19 C       -2.5250    -6.2270     1.3080 C.2   1 <1>  -0.1500 
 20 C        7.7170     1.6610     2.0650 C.ar  1 <1>   0.1600 
 21 C        8.1130     3.1590     0.4590 C.ar  1 <1>   0.1600 
 22 N        8.5500     2.5490     1.5480 N.ar  1 <1>  -0.6200 
 23 H        2.1280    -2.5330    -0.0670 H     1 <1>   0.0800 
 24 H        1.1390    -2.0500    -1.4230 H     1 <1>   0.0800 
 25 H        1.3820     1.8480     0.8680 H     1 <1>   0.0800 
 26 H        1.9660     2.3240    -0.7000 H     1 <1>   0.0800 
 27 H        3.0530     0.5530    -2.2020 H     1 <1>   0.0800 
 28 H        3.1800    -1.0830    -1.6260 H     1 <1>   0.0800 
 29 H       -0.9000    -2.4720    -0.1240 H     1 <1>   0.0800 
 30 H        0.0590    -2.9250     1.2630 H     1 <1>   0.0800 
 31 H        3.6300     1.4230     1.6550 H     1 <1>   0.0800 
 32 H        3.5420     3.0420     1.0340 H     1 <1>   0.0800 
 33 H        5.3440     0.0910    -1.4620 H     1 <1>   0.0800 
 34 H        4.7630    -0.4250     0.0920 H     1 <1>   0.0800 
 35 H        0.9820    -4.8520     0.0220 H     1 <1>   0.0800 
 36 H        0.1080    -4.3670    -1.4090 H     1 <1>   0.0800 
 37 H        4.5380     2.3530    -1.0750 H     1 <1>   0.0800 
 38 H       -0.7900    -5.2360     2.2220 H     1 <1>   0.1500 
 39 H        5.8640     0.6150     2.0370 H     1 <1>   0.1500 
 40 H        6.6200     3.4720    -1.0240 H     1 <1>   0.1500 
 41 H       -3.7070    -6.7600    -0.4530 H     1 <1>   0.1500 
 42 H       -3.0830    -6.6830     2.1050 H     1 <1>   0.1500 
 43 H        8.0450     1.1490     2.9530 H     1 <1>   0.1500 
 44 H        8.7710     3.8870     0.0170 H     1 <1>   0.1500 
@<TRIPOS>BOND
  1   1   2  2   
  2   2   3  am  
  3   2   4  1   
  4   3   5  1   
  5   3   6  1   
  6   4   7  1   
  7   4  23  1   
  8   4  24  1   
  9   5   8  1   
 10   5  25  1   
 11   5  26  1   
 12   6   9  1   
 13   6  27  1   
 14   6  28  1   
 15   7  10  1   
 16   7  29  1   
 17   7  30  1   
 18   8  11  1   
 19   8  31  1   
 20   8  32  1   
 21   9  11  1   
 22   9  33  1   
 23   9  34  1   
 24  10  12  1   
 25  10  35  1   
 26  10  36  1   
 27  11  13  1   
 28  11  37  1   
 29  12  14  1   
 30  12  15  1   
 31  13  16  ar  
 32  13  17  ar  
 33  14  18  2   
 34  15  19  2   
 35  15  38  1   
 36  16  20  ar  
 37  16  39  1   
 38  17  21  ar  
 39  17  40  1   
 40  18  19  1   
 41  18  41  1   
 42  19  42  1   
 43  20  22  ar  
 44  20  43  1   
 45  21  22  ar  
 46  21  44  1   
@<TRIPOS>SUBSTRUCTURE
  1 ****   3 GROUP 4 **** **** 0

# MOE 2024.06 (io_trps.svl 2023.06)
