@<TRIPOS>MOLECULE
NONAME
67 69 1 0 0 
SMALL
USER_CHARGES


@<TRIPOS>ATOM
  1 O       -0.9640    -0.8980    -1.2860 O.2   1 <1>  -0.5700 
  2 C       -0.6250    -1.8780    -0.6720 C.2   1 <1>   0.4230 
  3 C        0.7650    -2.2620    -0.5070 C.ar  1 <1>   0.0860 
  4 C       -1.7350    -2.7290    -0.0500 C.3   1 <1>  -0.0990 
  5 C        1.1690    -3.4570     0.0930 C.ar  1 <1>  -0.1500 
  6 C        1.7830    -1.4240    -0.9590 C.ar  1 <1>  -0.1500 
  7 C       -3.1340    -2.0890    -0.1740 C.3   1 <1>  -0.1600 
  8 C        2.5050    -3.7830     0.2330 C.ar  1 <1>  -0.1500 
  9 C        3.1200    -1.7480    -0.8210 C.ar  1 <1>  -0.1500 
 10 C       -4.2300    -2.9540     0.4470 C.3   1 <1>   0.3430 
 11 C        3.5120    -2.9390    -0.2190 C.ar  1 <1>  -0.1440 
 12 N       -5.5180    -2.2140     0.4460 N.4   1 <1>  -0.9590 
 13 C        4.9910    -3.3480    -0.0390 C.3   1 <1>   0.1430 
 14 C       -6.5480    -2.8250     1.3200 C.3   1 <1>   0.3430 
 15 C       -6.0640    -1.9270    -0.9150 C.3   1 <1>   0.3430 
 16 C        5.2970    -3.5320     1.4550 C.3   1 <1>  -0.2400 
 17 C        5.2520    -4.6690    -0.7790 C.3   1 <1>  -0.2400 
 18 C        5.9790    -2.3060    -0.5890 C.3   1 <1>  -0.2400 
 19 C       -7.6630    -1.8090     1.5900 C.3   1 <1>  -0.1600 
 20 C       -7.4210    -1.2180    -0.8310 C.3   1 <1>  -0.1600 
 21 C       -7.7380    -0.6530     0.5690 C.3   1 <1>   0.2800 
 22 O       -6.6690     0.2190     0.8900 O.3   1 <1>  -0.5600 
 23 C       -9.1260     0.0530     0.6530 C.3   1 <1>   0.2000 
 24 C       -6.9370     1.5710     1.1480 C.3   1 <1>   0.1200 
 25 O      -10.1440    -0.7830     0.1820 O.3   1 <1>  -0.6800 
 26 C       -9.1720     1.4600    -0.0180 C.3   1 <1>   0.2800 
 27 C       -7.7930     2.1380     0.0160 C.3   1 <1>  -0.1600 
 28 O      -10.0220     2.2280     0.7530 O.3   1 <1>  -0.6800 
 29 C       -9.7630     1.5100    -1.4350 C.3   1 <1>  -0.2400 
 30 H       -1.7370    -3.6870    -0.5410 H     1 <1>   0.0800 
 31 H       -1.5060    -2.8760     0.9900 H     1 <1>   0.0800 
 32 H        0.4440    -4.1570     0.4600 H     1 <1>   0.1500 
 33 H        1.5200    -0.4920    -1.4320 H     1 <1>   0.1500 
 34 H       -3.3400    -1.9340    -1.2180 H     1 <1>   0.0800 
 35 H       -3.1130    -1.1300     0.3160 H     1 <1>   0.0800 
 36 H        2.7580    -4.7160     0.7030 H     1 <1>   0.1500 
 37 H        3.8410    -1.0460    -1.1960 H     1 <1>   0.1500 
 38 H       -3.9550    -3.1910     1.4620 H     1 <1>   0.0800 
 39 H       -4.3300    -3.8770    -0.1020 H     1 <1>   0.0800 
 40 H       -5.3670    -1.2680     0.8490 H     1 <1>   0.4500 
 41 H       -6.9600    -3.6940     0.8320 H     1 <1>   0.0800 
 42 H       -6.1130    -3.1340     2.2560 H     1 <1>   0.0800 
 43 H       -5.3750    -1.2860    -1.4410 H     1 <1>   0.0800 
 44 H       -6.1680    -2.8410    -1.4760 H     1 <1>   0.0800 
 45 H        6.3320    -3.7800     1.6040 H     1 <1>   0.0800 
 46 H        4.7010    -4.3180     1.8800 H     1 <1>   0.0800 
 47 H        5.0830    -2.6220     1.9880 H     1 <1>   0.0800 
 48 H        6.2860    -4.9520    -0.6970 H     1 <1>   0.0800 
 49 H        5.0080    -4.5600    -1.8210 H     1 <1>   0.0800 
 50 H        4.6560    -5.4660    -0.3740 H     1 <1>   0.0800 
 51 H        6.9940    -2.6300    -0.4430 H     1 <1>   0.0800 
 52 H        5.8550    -1.3650    -0.0840 H     1 <1>   0.0800 
 53 H        5.8260    -2.1600    -1.6440 H     1 <1>   0.0800 
 54 H       -7.5500    -1.4010     2.5790 H     1 <1>   0.0800 
 55 H       -8.5900    -2.3540     1.5880 H     1 <1>   0.0800 
 56 H       -8.1850    -1.9230    -1.1090 H     1 <1>   0.0800 
 57 H       -7.4440    -0.4370    -1.5650 H     1 <1>   0.0800 
 58 H       -9.3270     0.1920     1.7020 H     1 <1>   0.0800 
 59 H       -7.4360     1.6560     2.0990 H     1 <1>   0.0800 
 60 H       -5.9940     2.0880     1.2030 H     1 <1>   0.0800 
 61 H      -11.0010    -0.3200     0.2910 H     1 <1>   0.4000 
 62 H       -7.2690     1.9660    -0.9070 H     1 <1>   0.0800 
 63 H       -7.8950     3.2030     0.1300 H     1 <1>   0.0800 
 64 H      -10.1770     3.0890     0.3200 H     1 <1>   0.4000 
 65 H       -9.2120     0.8710    -2.0970 H     1 <1>   0.0800 
 66 H       -9.7210     2.5100    -1.8290 H     1 <1>   0.0800 
 67 H      -10.7870     1.1810    -1.4360 H     1 <1>   0.0800 
@<TRIPOS>BOND
  1   1   2  2   
  2   2   3  1   
  3   2   4  1   
  4   3   5  ar  
  5   3   6  ar  
  6   4   7  1   
  7   4  30  1   
  8   4  31  1   
  9   5   8  ar  
 10   5  32  1   
 11   6   9  ar  
 12   6  33  1   
 13   7  10  1   
 14   7  34  1   
 15   7  35  1   
 16   8  11  ar  
 17   8  36  1   
 18   9  11  ar  
 19   9  37  1   
 20  10  12  1   
 21  10  38  1   
 22  10  39  1   
 23  11  13  1   
 24  12  14  1   
 25  12  15  1   
 26  12  40  1   
 27  13  16  1   
 28  13  17  1   
 29  13  18  1   
 30  14  19  1   
 31  14  41  1   
 32  14  42  1   
 33  15  20  1   
 34  15  43  1   
 35  15  44  1   
 36  16  45  1   
 37  16  46  1   
 38  16  47  1   
 39  17  48  1   
 40  17  49  1   
 41  17  50  1   
 42  18  51  1   
 43  18  52  1   
 44  18  53  1   
 45  19  21  1   
 46  19  54  1   
 47  19  55  1   
 48  20  21  1   
 49  20  56  1   
 50  20  57  1   
 51  21  22  1   
 52  21  23  1   
 53  22  24  1   
 54  23  25  1   
 55  23  26  1   
 56  23  58  1   
 57  24  27  1   
 58  24  59  1   
 59  24  60  1   
 60  25  61  1   
 61  26  27  1   
 62  26  28  1   
 63  26  29  1   
 64  27  62  1   
 65  27  63  1   
 66  28  64  1   
 67  29  65  1   
 68  29  66  1   
 69  29  67  1   
@<TRIPOS>SUBSTRUCTURE
  1 ****   7 GROUP 4 **** **** 0

# MOE 2024.06 (io_trps.svl 2023.06)
