@<TRIPOS>MOLECULE
NONAME
60 63 1 0 0 
SMALL
USER_CHARGES


@<TRIPOS>ATOM
  1 F       -0.8240     1.0690    -0.0850 F     1 <1>  -0.1900 
  2 C       -2.0310     1.1270    -0.5800 C.ar  1 <1>   0.1900 
  3 C       -3.0380     0.4160     0.0390 C.ar  1 <1>  -0.1500 
  4 C       -2.2490     1.9020    -1.7050 C.ar  1 <1>  -0.1500 
  5 C       -4.3260     0.4720    -0.4830 C.ar  1 <1>   0.1000 
  6 C       -3.5320     1.9610    -2.2230 C.ar  1 <1>  -0.1500 
  7 N       -5.3860    -0.2200     0.0970 N.pl3 1 <1>  -0.8380 
  8 C       -4.5550     1.2510    -1.6140 C.ar  1 <1>  -0.1500 
  9 C       -6.2660     0.5490     0.9930 C.3   1 <1>   0.2090 
 10 C       -5.1830    -1.6210     0.4980 C.3   1 <1>   0.2090 
 11 C       -7.6520    -0.0850     0.9210 C.3   1 <1>  -0.1600 
 12 C       -6.5360    -2.3180     0.3980 C.3   1 <1>  -0.1600 
 13 C       -7.6130    -1.5940     1.2280 C.3   1 <1>   0.4230 
 14 N       -8.9700    -2.1830     0.9570 N.4   1 <1>  -0.9590 
 15 C       -9.0470    -3.6900     0.9490 C.3   1 <1>   0.3430 
 16 C      -10.0520    -1.5520     1.7820 C.3   1 <1>   0.3430 
 17 C      -10.4280    -4.2730     0.4990 C.3   1 <1>   0.4230 
 18 C      -11.4050    -2.2750     1.6550 C.3   1 <1>  -0.1600 
 19 N      -10.4260    -5.2320    -0.6880 N.4   1 <1>  -0.9590 
 20 C      -11.5660    -3.2140     0.4290 C.3   1 <1>   0.0000 
 21 C      -11.8110    -5.5730    -1.1700 C.3   1 <1>   0.3430 
 22 C       -9.5860    -4.8100    -1.8610 C.3   1 <1>   0.2630 
 23 C      -12.9020    -3.9970     0.5650 C.3   1 <1>  -0.1600 
 24 C      -11.6630    -2.3690    -0.8830 C.3   1 <1>   0.1200 
 25 C      -12.8550    -5.4130    -0.0570 C.3   1 <1>  -0.1600 
 26 O      -10.4410    -1.8640    -1.3120 O.3   1 <1>  -0.6800 
 27 H       -2.8200    -0.1640     0.9140 H     1 <1>   0.1500 
 28 H       -1.4360     2.4410    -2.1570 H     1 <1>   0.1500 
 29 H       -3.7330     2.5550    -3.0980 H     1 <1>   0.1500 
 30 H       -5.5490     1.2940    -2.0180 H     1 <1>   0.1500 
 31 H       -5.8770     0.5190     1.9980 H     1 <1>   0.0800 
 32 H       -6.3070     1.5780     0.6740 H     1 <1>   0.0800 
 33 H       -4.4710    -2.0890    -0.1640 H     1 <1>   0.0800 
 34 H       -4.7970    -1.6620     1.5040 H     1 <1>   0.0800 
 35 H       -8.0340     0.0820    -0.0710 H     1 <1>   0.0800 
 36 H       -8.2760     0.4350     1.6230 H     1 <1>   0.0800 
 37 H       -6.3970    -3.3240     0.7470 H     1 <1>   0.0800 
 38 H       -6.8160    -2.3360    -0.6400 H     1 <1>   0.0800 
 39 H       -7.3680    -1.7190     2.2710 H     1 <1>   0.0800 
 40 H       -9.2040    -1.8930    -0.0160 H     1 <1>   0.4500 
 41 H       -8.2850    -4.0900     0.3050 H     1 <1>   0.0800 
 42 H       -8.8470    -4.0410     1.9480 H     1 <1>   0.0800 
 43 H       -9.7590    -1.5290     2.8200 H     1 <1>   0.0800 
 44 H      -10.1830    -0.5310     1.4600 H     1 <1>   0.0800 
 45 H      -10.7090    -4.8870     1.3380 H     1 <1>   0.0800 
 46 H      -11.5370    -2.8440     2.5600 H     1 <1>   0.0800 
 47 H      -12.1870    -1.5340     1.6590 H     1 <1>   0.0800 
 48 H      -10.0350    -6.1250    -0.3480 H     1 <1>   0.4500 
 49 H      -12.0820    -4.9240    -1.9870 H     1 <1>   0.0800 
 50 H      -11.8310    -6.5860    -1.5440 H     1 <1>   0.0800 
 51 H       -9.9830    -3.9150    -2.3100 H     1 <1>   0.0800 
 52 H       -9.5790    -5.5860    -2.6100 H     1 <1>   0.0800 
 53 H       -8.5690    -4.6250    -1.5610 H     1 <1>   0.0800 
 54 H      -13.1740    -4.1140     1.6020 H     1 <1>   0.0800 
 55 H      -13.7050    -3.4350     0.1140 H     1 <1>   0.0800 
 56 H      -12.3280    -1.5330    -0.7320 H     1 <1>   0.0800 
 57 H      -12.0650    -2.9520    -1.6930 H     1 <1>   0.0800 
 58 H      -13.8280    -5.6540    -0.4530 H     1 <1>   0.0800 
 59 H      -12.6520    -6.1420     0.7100 H     1 <1>   0.0800 
 60 H      -10.5830    -1.2570    -2.0770 H     1 <1>   0.4000 
@<TRIPOS>BOND
  1   1   2  1   
  2   2   3  ar  
  3   2   4  ar  
  4   3   5  ar  
  5   3  27  1   
  6   4   6  ar  
  7   4  28  1   
  8   5   7  1   
  9   5   8  ar  
 10   6   8  ar  
 11   6  29  1   
 12   7   9  1   
 13   7  10  1   
 14   8  30  1   
 15   9  11  1   
 16   9  31  1   
 17   9  32  1   
 18  10  12  1   
 19  10  33  1   
 20  10  34  1   
 21  11  13  1   
 22  11  35  1   
 23  11  36  1   
 24  12  13  1   
 25  12  37  1   
 26  12  38  1   
 27  13  14  1   
 28  13  39  1   
 29  14  15  1   
 30  14  16  1   
 31  14  40  1   
 32  15  17  1   
 33  15  41  1   
 34  15  42  1   
 35  16  18  1   
 36  16  43  1   
 37  16  44  1   
 38  17  19  1   
 39  17  20  1   
 40  17  45  1   
 41  18  20  1   
 42  18  46  1   
 43  18  47  1   
 44  19  21  1   
 45  19  22  1   
 46  19  48  1   
 47  20  23  1   
 48  20  24  1   
 49  21  25  1   
 50  21  49  1   
 51  21  50  1   
 52  22  51  1   
 53  22  52  1   
 54  22  53  1   
 55  23  25  1   
 56  23  54  1   
 57  23  55  1   
 58  24  26  1   
 59  24  56  1   
 60  24  57  1   
 61  25  58  1   
 62  25  59  1   
 63  26  60  1   
@<TRIPOS>SUBSTRUCTURE
  1 ****  13 GROUP 4 **** **** 0

# MOE 2024.06 (io_trps.svl 2023.06)
