@<TRIPOS>MOLECULE
NONAME
52 53 1 0 0 
SMALL
USER_CHARGES


@<TRIPOS>ATOM
  1 O       -0.4220     3.6730    -1.9670 O.co2 1 <1>  -0.9000 
  2 C       -0.4490     2.5380    -1.4630 C.2   1 <1>   0.9060 
  3 O       -0.3590     1.5210    -2.1450 O.co2 1 <1>  -0.9000 
  4 C       -0.5560     2.4470     0.0570 C.3   1 <1>  -0.1060 
  5 C       -1.9280     3.0860     0.4290 C.3   1 <1>   0.2000 
  6 C        0.6030     3.3140     0.5670 C.3   1 <1>   0.3430 
  7 C       -0.3280     0.9860     0.5660 C.3   1 <1>  -0.1600 
  8 O       -2.8550     2.1450     0.8280 O.3   1 <1>  -0.6800 
  9 C       -1.8180     4.1200     1.5500 C.3   1 <1>  -0.1600 
 10 N        0.2890     4.7520     0.3480 N.4   1 <1>  -0.9590 
 11 C       -0.2810     0.7990     2.0950 C.3   1 <1>  -0.1600 
 12 C       -0.8540     5.2490     1.1680 C.3   1 <1>   0.3430 
 13 C        1.4890     5.6120     0.3310 C.3   1 <1>   0.3430 
 14 C       -0.1090    -0.6800     2.4510 C.3   1 <1>  -0.2400 
 15 C        1.1970     6.8730    -0.4820 C.3   1 <1>  -0.1600 
 16 C        2.4660     7.7210    -0.6470 C.3   1 <1>  -0.1600 
 17 C        2.2070     8.9590    -1.5130 C.3   1 <1>  -0.0170 
 18 C        3.4860     9.7640    -1.6650 C.ar  1 <1>  -0.1430 
 19 C        4.3740     9.4750    -2.6910 C.ar  1 <1>  -0.1500 
 20 C        3.7810    10.7890    -0.7800 C.ar  1 <1>  -0.1500 
 21 C        5.5430    10.2040    -2.8300 C.ar  1 <1>  -0.1500 
 22 C        4.9490    11.5190    -0.9180 C.ar  1 <1>  -0.1500 
 23 C        5.8310    11.2260    -1.9440 C.ar  1 <1>  -0.1500 
 24 H       -2.3530     3.5770    -0.4330 H     1 <1>   0.0800 
 25 H        1.4970     3.0430     0.0290 H     1 <1>   0.0800 
 26 H        0.7650     3.1420     1.6160 H     1 <1>   0.0800 
 27 H       -1.0970     0.3520     0.1560 H     1 <1>   0.0800 
 28 H        0.5990     0.6230     0.1520 H     1 <1>   0.0800 
 29 H       -2.9270     1.4530     0.1380 H     1 <1>   0.4000 
 30 H       -2.7860     4.5420     1.7520 H     1 <1>   0.0800 
 31 H       -1.4700     3.6450     2.4490 H     1 <1>   0.0800 
 32 H       -0.0450     4.7140    -0.6540 H     1 <1>   0.4500 
 33 H        0.5390     1.3460     2.5230 H     1 <1>   0.0800 
 34 H       -1.1920     1.1530     2.5440 H     1 <1>   0.0800 
 35 H       -0.4880     5.7160     2.0670 H     1 <1>   0.0800 
 36 H       -1.3890     5.9910     0.5980 H     1 <1>   0.0800 
 37 H        1.7840     5.8660     1.3350 H     1 <1>   0.0800 
 38 H        2.2990     5.0800    -0.1420 H     1 <1>   0.0800 
 39 H        0.8040    -1.0660     2.0320 H     1 <1>   0.0800 
 40 H       -0.9340    -1.2550     2.0670 H     1 <1>   0.0800 
 41 H       -0.0760    -0.8030     3.5190 H     1 <1>   0.0800 
 42 H        0.8410     6.5850    -1.4570 H     1 <1>   0.0800 
 43 H        0.4410     7.4610     0.0060 H     1 <1>   0.0800 
 44 H        2.8270     8.0370     0.3170 H     1 <1>   0.0800 
 45 H        3.2380     7.1310    -1.1130 H     1 <1>   0.0800 
 46 H        1.4460     9.5730    -1.0630 H     1 <1>   0.0800 
 47 H        1.8540     8.6610    -2.4850 H     1 <1>   0.0800 
 48 H        4.1590     8.6820    -3.3850 H     1 <1>   0.1500 
 49 H        3.1030    11.0260     0.0210 H     1 <1>   0.1500 
 50 H        6.2270     9.9760    -3.6280 H     1 <1>   0.1500 
 51 H        5.1720    12.3140    -0.2290 H     1 <1>   0.1500 
 52 H        6.7390    11.7940    -2.0520 H     1 <1>   0.1500 
@<TRIPOS>BOND
  1   1   2  ar  
  2   2   3  ar  
  3   2   4  1   
  4   4   5  1   
  5   4   6  1   
  6   4   7  1   
  7   5   8  1   
  8   5   9  1   
  9   5  24  1   
 10   6  10  1   
 11   6  25  1   
 12   6  26  1   
 13   7  11  1   
 14   7  27  1   
 15   7  28  1   
 16   8  29  1   
 17   9  12  1   
 18   9  30  1   
 19   9  31  1   
 20  10  12  1   
 21  10  13  1   
 22  10  32  1   
 23  11  14  1   
 24  11  33  1   
 25  11  34  1   
 26  12  35  1   
 27  12  36  1   
 28  13  15  1   
 29  13  37  1   
 30  13  38  1   
 31  14  39  1   
 32  14  40  1   
 33  14  41  1   
 34  15  16  1   
 35  15  42  1   
 36  15  43  1   
 37  16  17  1   
 38  16  44  1   
 39  16  45  1   
 40  17  18  1   
 41  17  46  1   
 42  17  47  1   
 43  18  19  ar  
 44  18  20  ar  
 45  19  21  ar  
 46  19  48  1   
 47  20  22  ar  
 48  20  49  1   
 49  21  23  ar  
 50  21  50  1   
 51  22  23  ar  
 52  22  51  1   
 53  23  52  1   
@<TRIPOS>SUBSTRUCTURE
  1 ****  13 GROUP 4 **** **** 0

# MOE 2024.06 (io_trps.svl 2023.06)
