@<TRIPOS>MOLECULE
NONAME
44 48 1 0 0 
SMALL
USER_CHARGES


@<TRIPOS>ATOM
  1 S       -0.2200     0.5930    -2.4790 S.3   1 <1>  -0.0800 
  2 C       -1.1210     1.1800    -1.0890 C.2   1 <1>  -0.1400 
  3 C       -1.4520    -0.6190    -2.8050 C.2   1 <1>  -0.1100 
  4 C       -2.2590     0.4900    -0.9370 C.2   1 <1>  -0.1810 
  5 C       -0.6300     2.3250    -0.2100 C.3   1 <1>   0.4600 
  6 C       -2.4530    -0.5430    -1.9080 C.2   1 <1>  -0.1500 
  7 C       -3.1990     0.8430     0.1930 C.3   1 <1>   0.0210 
  8 O       -1.4980     2.4410     0.9020 O.3   1 <1>  -0.5600 
  9 C        0.7610     2.0240     0.3580 C.3   1 <1>  -0.1600 
 10 C       -0.6170     3.6550    -0.9750 C.3   1 <1>  -0.1600 
 11 C       -2.8800     2.2680     0.6870 C.3   1 <1>   0.1200 
 12 C        1.2810     3.1800     1.2110 C.3   1 <1>   0.1400 
 13 C       -0.0850     4.7990    -0.1110 C.3   1 <1>   0.1400 
 14 N        1.2630     4.4360     0.4080 N.am  1 <1>  -0.6600 
 15 C        2.4270     5.0990     0.0680 C.2   1 <1>   0.5440 
 16 O        3.4920     4.5280     0.2160 O.2   1 <1>  -0.5700 
 17 C        2.4200     6.4430    -0.4730 C.ar  1 <1>   0.0860 
 18 C        1.6920     7.4670     0.1180 C.ar  1 <1>  -0.1500 
 19 C        3.1720     6.7440    -1.6290 C.ar  1 <1>  -0.1500 
 20 C        1.6880     8.7390    -0.4380 C.ar  1 <1>   0.2270 
 21 C        3.1840     8.0020    -2.1860 C.ar  1 <1>  -0.1500 
 22 N        1.0310     9.8600    -0.0280 N.2   1 <1>  -0.5650 
 23 C        2.4260     9.0020    -1.5760 C.ar  1 <1>  -0.1520 
 24 C        1.3700    10.7570    -0.8850 C.2   1 <1>   0.0360 
 25 N        2.2130    10.3110    -1.8510 N.pl3 1 <1>   0.0330 
 26 H       -1.2920    -1.2700    -3.6460 H     1 <1>   0.1500 
 27 H       -3.3250    -1.1720    -1.8870 H     1 <1>   0.1500 
 28 H       -3.0800     0.1410     0.9980 H     1 <1>   0.0800 
 29 H       -4.2180     0.8040    -0.1470 H     1 <1>   0.0800 
 30 H        1.4550     1.8580    -0.4450 H     1 <1>   0.0800 
 31 H        0.7180     1.1240     0.9430 H     1 <1>   0.0800 
 32 H       -1.6010     3.8870    -1.3340 H     1 <1>   0.0800 
 33 H        0.0190     3.5570    -1.8360 H     1 <1>   0.0800 
 34 H       -3.3820     2.4580     1.6190 H     1 <1>   0.0800 
 35 H       -3.2070     2.9960    -0.0340 H     1 <1>   0.0800 
 36 H        2.2780     2.9600     1.5540 H     1 <1>   0.0800 
 37 H        0.6550     3.3090     2.0770 H     1 <1>   0.0800 
 38 H       -0.7480     4.9730     0.7210 H     1 <1>   0.0800 
 39 H       -0.0460     5.6950    -0.7040 H     1 <1>   0.0800 
 40 H        1.1220     7.2950     1.0120 H     1 <1>   0.1500 
 41 H        3.7490     5.9500    -2.0710 H     1 <1>   0.1500 
 42 H        3.7630     8.2160    -3.0680 H     1 <1>   0.1500 
 43 H        1.0290    11.7780    -0.8610 H     1 <1>   0.1500 
 44 H        2.6100    10.8490    -2.6250 H     1 <1>   0.2700 
@<TRIPOS>BOND
  1   1   2  1   
  2   1   3  1   
  3   2   4  2   
  4   2   5  1   
  5   3   6  2   
  6   3  26  1   
  7   4   6  1   
  8   4   7  1   
  9   5   8  1   
 10   5   9  1   
 11   5  10  1   
 12   6  27  1   
 13   7  11  1   
 14   7  28  1   
 15   7  29  1   
 16   8  11  1   
 17   9  12  1   
 18   9  30  1   
 19   9  31  1   
 20  10  13  1   
 21  10  32  1   
 22  10  33  1   
 23  11  34  1   
 24  11  35  1   
 25  12  14  1   
 26  12  36  1   
 27  12  37  1   
 28  13  14  1   
 29  13  38  1   
 30  13  39  1   
 31  14  15  am  
 32  15  16  2   
 33  15  17  1   
 34  17  18  ar  
 35  17  19  ar  
 36  18  20  ar  
 37  18  40  1   
 38  19  21  ar  
 39  19  41  1   
 40  20  22  1   
 41  20  23  ar  
 42  21  23  ar  
 43  21  42  1   
 44  22  24  2   
 45  23  25  1   
 46  24  25  1   
 47  24  43  1   
 48  25  44  1   
@<TRIPOS>SUBSTRUCTURE
  1 ****  13 GROUP 4 **** **** 0

# MOE 2024.06 (io_trps.svl 2023.06)
