@<TRIPOS>MOLECULE
NONAME
54 56 1 0 0 
SMALL
USER_CHARGES


@<TRIPOS>ATOM
  1 O        0.3110    -1.6860    -1.6400 O.2   1 <1>  -0.5700 
  2 C        1.4400    -2.0530    -1.4160 C.2   1 <1>   0.5690 
  3 N        2.4170    -2.1120    -2.3710 N.am  1 <1>  -0.6600 
  4 C        1.8060    -2.4780    -0.0090 C.3   1 <1>  -0.0990 
  5 C        3.7770    -2.6000    -2.0280 C.3   1 <1>   0.1400 
  6 C        2.1800    -1.7310    -3.7880 C.3   1 <1>   0.0600 
  7 C        3.1580    -1.8680     0.4010 C.3   1 <1>  -0.0800 
  8 C        4.2450    -1.9900    -0.6930 C.3   1 <1>  -0.0800 
  9 C        3.7440    -2.4960     1.6750 C.3   1 <1>  -0.1600 
 10 C        5.3930    -2.7760    -0.0520 C.3   1 <1>  -0.1600 
 11 C        5.2530    -2.4800     1.4370 C.3   1 <1>   0.2200 
 12 N        6.0400    -3.4220     2.2920 N.am  1 <1>  -0.6600 
 13 C        7.2270    -3.0740     2.9040 C.2   1 <1>   0.5690 
 14 C        5.5170    -4.8170     2.4430 C.3   1 <1>   0.0600 
 15 O        7.8290    -3.8600     3.5980 O.2   1 <1>  -0.5700 
 16 C        7.8510    -1.6870     2.7600 C.3   1 <1>   0.0440 
 17 C        8.2610    -1.3600     1.3270 C.ar  1 <1>  -0.1440 
 18 C        7.7780    -0.2270     0.6910 C.ar  1 <1>  -0.1500 
 19 C        9.1120    -2.2070     0.6370 C.ar  1 <1>  -0.1500 
 20 C        8.1090     0.0550    -0.6230 C.ar  1 <1>   0.0820 
 21 C        9.4550    -1.9400    -0.6770 C.ar  1 <1>  -0.1500 
 22 O        7.5500     1.1920    -1.1250 O.3   1 <1>  -0.3630 
 23 C        8.9520    -0.8170    -1.3310 C.ar  1 <1>   0.0820 
 24 C        8.2740     2.0150    -2.0120 C.3   1 <1>   0.0400 
 25 O        9.2430    -0.5650    -2.6410 O.3   1 <1>  -0.3630 
 26 C       10.0940    -1.4010    -3.3950 C.3   1 <1>   0.0400 
 27 H        1.0370    -2.1650     0.6740 H     1 <1>   0.0800 
 28 H        1.8540    -3.5510     0.0050 H     1 <1>   0.0800 
 29 H        3.7390    -3.6730    -1.9530 H     1 <1>   0.0800 
 30 H        4.4750    -2.3410    -2.8050 H     1 <1>   0.0800 
 31 H        2.3700    -2.5740    -4.4290 H     1 <1>   0.0800 
 32 H        2.8330    -0.9200    -4.0600 H     1 <1>   0.0800 
 33 H        1.1610    -1.4130    -3.9280 H     1 <1>   0.0800 
 34 H        3.0010    -0.8160     0.5790 H     1 <1>   0.0800 
 35 H        4.6070    -0.9970    -0.9030 H     1 <1>   0.0800 
 36 H        3.3810    -3.5010     1.7740 H     1 <1>   0.0800 
 37 H        3.4800    -1.9310     2.5510 H     1 <1>   0.0800 
 38 H        6.3460    -2.4620    -0.4370 H     1 <1>   0.0800 
 39 H        5.2660    -3.8280    -0.2320 H     1 <1>   0.0800 
 40 H        5.5770    -1.4700     1.6050 H     1 <1>   0.0800 
 41 H        5.0900    -5.1670     1.5220 H     1 <1>   0.0800 
 42 H        4.7670    -4.8370     3.2140 H     1 <1>   0.0800 
 43 H        6.3080    -5.4930     2.7200 H     1 <1>   0.0800 
 44 H        7.1590    -0.9580     3.1360 H     1 <1>   0.0800 
 45 H        8.7270    -1.6400     3.3810 H     1 <1>   0.0800 
 46 H        7.1280     0.4550     1.2080 H     1 <1>   0.1500 
 47 H        9.5050    -3.0860     1.1210 H     1 <1>   0.1500 
 48 H       10.1130    -2.6290    -1.1690 H     1 <1>   0.1500 
 49 H        7.8560     3.0040    -1.9680 H     1 <1>   0.0800 
 50 H        8.1770     1.6230    -3.0080 H     1 <1>   0.0800 
 51 H        9.3070     2.0370    -1.7100 H     1 <1>   0.0800 
 52 H       10.1710    -0.9910    -4.3860 H     1 <1>   0.0800 
 53 H        9.6650    -2.3860    -3.4410 H     1 <1>   0.0800 
 54 H       11.0640    -1.4210    -2.9310 H     1 <1>   0.0800 
@<TRIPOS>BOND
  1   1   2  2   
  2   2   3  am  
  3   2   4  1   
  4   3   5  1   
  5   3   6  1   
  6   4   7  1   
  7   4  27  1   
  8   4  28  1   
  9   5   8  1   
 10   5  29  1   
 11   5  30  1   
 12   6  31  1   
 13   6  32  1   
 14   6  33  1   
 15   7   8  1   
 16   7   9  1   
 17   7  34  1   
 18   8  10  1   
 19   8  35  1   
 20   9  11  1   
 21   9  36  1   
 22   9  37  1   
 23  10  11  1   
 24  10  38  1   
 25  10  39  1   
 26  11  12  1   
 27  11  40  1   
 28  12  13  am  
 29  12  14  1   
 30  13  15  2   
 31  13  16  1   
 32  14  41  1   
 33  14  42  1   
 34  14  43  1   
 35  16  17  1   
 36  16  44  1   
 37  16  45  1   
 38  17  18  ar  
 39  17  19  ar  
 40  18  20  ar  
 41  18  46  1   
 42  19  21  ar  
 43  19  47  1   
 44  20  22  1   
 45  20  23  ar  
 46  21  23  ar  
 47  21  48  1   
 48  22  24  1   
 49  23  25  1   
 50  24  49  1   
 51  24  50  1   
 52  24  51  1   
 53  25  26  1   
 54  26  52  1   
 55  26  53  1   
 56  26  54  1   
@<TRIPOS>SUBSTRUCTURE
  1 ****  10 GROUP 4 **** **** 0

# MOE 2024.06 (io_trps.svl 2023.06)
