@<TRIPOS>MOLECULE
NONAME
44 45 1 0 0 
SMALL
USER_CHARGES


@<TRIPOS>ATOM
  1 O        1.3250    -0.2440     2.9670 O.2   1 <1>  -0.5750 
  2 C        1.6280    -0.9380     2.0330 C.2   1 <1>   0.8490 
  3 N        2.0960    -0.3990     0.8790 N.pl3 1 <1>  -0.7340 
  4 C        1.4890    -2.4550     2.1110 C.3   1 <1>  -0.0280 
  5 C        2.2950     0.8890     0.6070 C.cat 1 <1>   1.0690 
  6 C        2.8360    -3.1580     1.8070 C.3   1 <1>  -0.1680 
  7 C        0.3520    -2.9530     1.1860 C.3   1 <1>  -0.1680 
  8 N        2.0320     1.8990     1.4130 N.pl3 1 <1>  -0.7040 
  9 N        2.7950     1.3500    -0.5400 N.pl3 1 <1>  -0.7680 
 10 C        2.6800    -4.6740     1.7200 C.3   1 <1>   0.1320 
 11 C        0.2870    -4.4800     1.1110 C.3   1 <1>   0.1320 
 12 C        2.3650     3.0700     0.7780 C.2   1 <1>   0.1920 
 13 C        2.8390     2.7320    -0.4350 C.2   1 <1>   0.1920 
 14 C        3.2550     0.6170    -1.7530 C.3   1 <1>   0.2670 
 15 N        1.6290    -4.9700     0.7190 N.am  1 <1>  -0.6650 
 16 C        1.9150    -5.6420    -0.4490 C.2   1 <1>   0.5640 
 17 O        3.0600    -5.7660    -0.8240 O.2   1 <1>  -0.5750 
 18 C        0.8220    -6.2060    -1.3680 C.3   1 <1>   0.1730 
 19 O       -0.1710    -6.9160    -0.6720 O.3   1 <1>  -0.5650 
 20 C       -1.1180    -7.5110    -1.4900 C.3   1 <1>   0.1110 
 21 C       -2.1590    -8.1610    -0.5880 C.3   1 <1>  -0.2480 
 22 H        2.3270    -1.0610     0.1520 H     1 <1>   0.4440 
 23 H        1.2160    -2.7070     3.1220 H     1 <1>   0.0710 
 24 H        3.5500    -2.9280     2.5790 H     1 <1>   0.0710 
 25 H        3.2480    -2.8280     0.8710 H     1 <1>   0.0710 
 26 H        0.4870    -2.5820     0.1860 H     1 <1>   0.0710 
 27 H       -0.5930    -2.5840     1.5450 H     1 <1>   0.0710 
 28 H        1.6450     1.7500     2.3540 H     1 <1>   0.4440 
 29 H        2.3860    -5.0800     2.6730 H     1 <1>   0.0710 
 30 H        3.6150    -5.1290     1.4390 H     1 <1>   0.0710 
 31 H       -0.4640    -4.7700     0.3990 H     1 <1>   0.0710 
 32 H        0.0210    -4.8980     2.0670 H     1 <1>   0.0710 
 33 H        2.2440     4.0450     1.2270 H     1 <1>   0.1420 
 34 H        3.2010     3.3750    -1.2240 H     1 <1>   0.1420 
 35 H        3.3460    -0.4370    -1.5580 H     1 <1>   0.0710 
 36 H        4.2180     0.9900    -2.0610 H     1 <1>   0.0710 
 37 H        2.5540     0.7650    -2.5570 H     1 <1>   0.0710 
 38 H        1.2780    -6.8750    -2.0760 H     1 <1>   0.0710 
 39 H        0.3530    -5.3970    -1.8970 H     1 <1>   0.0710 
 40 H       -0.6320    -8.2500    -2.1050 H     1 <1>   0.0710 
 41 H       -1.5730    -6.7550    -2.1080 H     1 <1>   0.0710 
 42 H       -1.6940    -8.9080     0.0310 H     1 <1>   0.0710 
 43 H       -2.9160    -8.6330    -1.1870 H     1 <1>   0.0710 
 44 H       -2.6240    -7.4180     0.0340 H     1 <1>   0.0710 
@<TRIPOS>BOND
  1   1   2  2   
  2   2   3  1   
  3   2   4  1   
  4   3   5  ar  
  5   3  22  1   
  6   4   6  1   
  7   4   7  1   
  8   4  23  1   
  9   5   8  ar  
 10   5   9  ar  
 11   6  10  1   
 12   6  24  1   
 13   6  25  1   
 14   7  11  1   
 15   7  26  1   
 16   7  27  1   
 17   8  12  1   
 18   8  28  1   
 19   9  13  1   
 20   9  14  1   
 21  10  15  1   
 22  10  29  1   
 23  10  30  1   
 24  11  15  1   
 25  11  31  1   
 26  11  32  1   
 27  12  13  2   
 28  12  33  1   
 29  13  34  1   
 30  14  35  1   
 31  14  36  1   
 32  14  37  1   
 33  15  16  am  
 34  16  17  2   
 35  16  18  1   
 36  18  19  1   
 37  18  38  1   
 38  18  39  1   
 39  19  20  1   
 40  20  21  1   
 41  20  40  1   
 42  20  41  1   
 43  21  42  1   
 44  21  43  1   
 45  21  44  1   
@<TRIPOS>SUBSTRUCTURE
  1 ****   7 GROUP 4 **** **** 0

# MOE 2024.06 (io_trps.svl 2023.06)
