@<TRIPOS>MOLECULE
NONAME
48 50 1 0 0 
SMALL
USER_CHARGES


@<TRIPOS>ATOM
  1 O        1.4860    -1.5680     0.0910 O.co2 1 <1>  -0.9000 
  2 C        1.8640    -0.6820     0.8690 C.2   1 <1>   0.9060 
  3 O        1.5790    -0.7020     2.0690 O.co2 1 <1>  -0.9000 
  4 C        2.8070     0.4130     0.3400 C.3   1 <1>  -0.1060 
  5 C        3.4210    -0.0710    -1.0010 C.3   1 <1>   0.2000 
  6 C        3.9590     0.6280     1.3640 C.3   1 <1>  -0.1600 
  7 C        2.0260     1.7370     0.0640 C.3   1 <1>  -0.1600 
  8 O        3.9800    -1.3330    -0.8280 O.3   1 <1>  -0.6800 
  9 C        4.5510     0.8510    -1.4690 C.3   1 <1>   0.3430 
 10 C        5.1210     1.4580     0.8260 C.3   1 <1>   0.3430 
 11 C        1.2930     2.3500     1.2700 C.3   1 <1>  -0.1600 
 12 N        5.6270     0.8380    -0.4330 N.4   1 <1>  -0.9590 
 13 C        0.5480     3.6260     0.8660 C.3   1 <1>  -0.2400 
 14 C        6.9190     1.3950    -0.9210 C.3   1 <1>   0.4860 
 15 C        6.7710     2.8710    -1.2590 C.ar  1 <1>  -0.1440 
 16 C        7.0100     3.8830    -0.2990 C.ar  1 <1>   0.0000 
 17 C        6.3900     3.2610    -2.5120 C.ar  1 <1>  -0.1500 
 18 C        6.7580     5.2220    -0.6840 C.ar  1 <1>   0.3100 
 19 C        7.4900     3.6500     1.0120 C.ar  1 <1>  -0.1500 
 20 C        6.1990     4.6180    -2.7970 C.ar  1 <1>   0.1600 
 21 N        6.3530     5.5650    -1.9300 N.ar  1 <1>  -0.6200 
 22 C        6.9400     6.2470     0.2570 C.ar  1 <1>  -0.1500 
 23 C        7.6640     4.6730     1.9030 C.ar  1 <1>  -0.1500 
 24 C        7.3800     5.9870     1.5270 C.ar  1 <1>  -0.1500 
 25 H        2.6570    -0.1550    -1.7560 H     1 <1>   0.0800 
 26 H        4.3390    -0.3340     1.6660 H     1 <1>   0.0800 
 27 H        3.5800     1.0810     2.2620 H     1 <1>   0.0800 
 28 H        2.6820     2.4880    -0.3340 H     1 <1>   0.0800 
 29 H        1.2820     1.5290    -0.6890 H     1 <1>   0.0800 
 30 H        3.2170    -1.9060    -0.5190 H     1 <1>   0.4000 
 31 H        4.1810     1.8510    -1.6160 H     1 <1>   0.0800 
 32 H        4.9260     0.4800    -2.4070 H     1 <1>   0.0800 
 33 H        5.9020     1.4860     1.5670 H     1 <1>   0.0800 
 34 H        4.7920     2.4670     0.6360 H     1 <1>   0.0800 
 35 H        0.5800     1.6440     1.6630 H     1 <1>   0.0800 
 36 H        1.9830     2.5900     2.0570 H     1 <1>   0.0800 
 37 H        5.7200    -0.1750    -0.2360 H     1 <1>   0.4500 
 38 H       -0.1810     3.4090     0.1040 H     1 <1>   0.0800 
 39 H        1.2340     4.3660     0.4940 H     1 <1>   0.0800 
 40 H        0.0340     4.0320     1.7190 H     1 <1>   0.0800 
 41 H        7.6850     1.2610    -0.1770 H     1 <1>   0.0800 
 42 H        7.2250     0.8590    -1.8050 H     1 <1>   0.0800 
 43 H        6.2220     2.5570    -3.3070 H     1 <1>   0.1500 
 44 H        7.7380     2.6550     1.3300 H     1 <1>   0.1500 
 45 H        5.8980     4.8920    -3.7960 H     1 <1>   0.1500 
 46 H        6.7260     7.2520    -0.0570 H     1 <1>   0.1500 
 47 H        8.0270     4.4890     2.9020 H     1 <1>   0.1500 
 48 H        7.5170     6.7850     2.2380 H     1 <1>   0.1500 
@<TRIPOS>BOND
  1   1   2  ar  
  2   2   3  ar  
  3   2   4  1   
  4   4   5  1   
  5   4   6  1   
  6   4   7  1   
  7   5   8  1   
  8   5   9  1   
  9   5  25  1   
 10   6  10  1   
 11   6  26  1   
 12   6  27  1   
 13   7  11  1   
 14   7  28  1   
 15   7  29  1   
 16   8  30  1   
 17   9  12  1   
 18   9  31  1   
 19   9  32  1   
 20  10  12  1   
 21  10  33  1   
 22  10  34  1   
 23  11  13  1   
 24  11  35  1   
 25  11  36  1   
 26  12  14  1   
 27  12  37  1   
 28  13  38  1   
 29  13  39  1   
 30  13  40  1   
 31  14  15  1   
 32  14  41  1   
 33  14  42  1   
 34  15  16  ar  
 35  15  17  ar  
 36  16  18  ar  
 37  16  19  ar  
 38  17  20  ar  
 39  17  43  1   
 40  18  21  ar  
 41  18  22  ar  
 42  19  23  ar  
 43  19  44  1   
 44  20  21  ar  
 45  20  45  1   
 46  22  24  ar  
 47  22  46  1   
 48  23  24  ar  
 49  23  47  1   
 50  24  48  1   
@<TRIPOS>SUBSTRUCTURE
  1 ****  10 GROUP 4 **** **** 0

# MOE 2024.06 (io_trps.svl 2023.06)
