@<TRIPOS>MOLECULE
NONAME
53 55 1 0 0 
SMALL
USER_CHARGES


@<TRIPOS>ATOM
  1 S       -2.0400    -0.4380    -0.6080 S.3   1 <1>  -0.0800 
  2 C       -0.9410     0.8330    -0.1330 C.2   1 <1>   0.1980 
  3 C       -1.2490    -1.5030     0.5190 C.2   1 <1>  -0.1400 
  4 N       -0.0930     0.4960     0.7550 N.2   1 <1>  -0.5650 
  5 C       -1.1000     2.1870    -0.8100 C.3   1 <1>   0.5230 
  6 C       -0.2610    -0.8260     1.1310 C.2   1 <1>   0.0460 
  7 C       -1.7850    -2.9210     0.6050 C.3   1 <1>  -0.0600 
  8 N        0.0710     3.0600    -0.4760 N.4   1 <1>  -0.9590 
  9 C        0.6910    -1.3460     2.1890 C.3   1 <1>  -0.0590 
 10 C       -0.2150     4.5090    -0.6390 C.3   1 <1>   0.3430 
 11 C        1.3010     2.6170    -1.1900 C.3   1 <1>   0.3430 
 12 C        0.9610     5.3220    -0.1030 C.3   1 <1>  -0.1600 
 13 C        2.5020     3.3960    -0.6600 C.3   1 <1>  -0.1600 
 14 C        2.2990     4.9210    -0.7550 C.3   1 <1>  -0.0190 
 15 C        3.4660     5.6570    -0.1000 C.2   1 <1>   0.5690 
 16 O        3.6280     5.5340     1.0880 O.2   1 <1>  -0.5700 
 17 N        4.2830     6.4260    -0.8650 N.am  1 <1>  -0.7300 
 18 C        5.4700     7.1520    -0.3450 C.3   1 <1>   0.1400 
 19 C        5.1140     8.6120    -0.0690 C.3   1 <1>  -0.0170 
 20 C        6.3420     9.3660     0.4130 C.ar  1 <1>  -0.1440 
 21 C        7.1030    10.1160    -0.4710 C.ar  1 <1>  -0.1500 
 22 C        6.7150     9.3040     1.7470 C.ar  1 <1>  -0.1500 
 23 C        8.2230    10.7970    -0.0270 C.ar  1 <1>  -0.1500 
 24 C        7.8360     9.9840     2.1930 C.ar  1 <1>  -0.1500 
 25 C        8.5910    10.7310     1.3060 C.ar  1 <1>  -0.1500 
 26 H       -2.0110     2.6370    -0.4520 H     1 <1>   0.0800 
 27 H       -1.1770     2.0540    -1.8760 H     1 <1>   0.0800 
 28 H       -1.7050    -3.4020    -0.3530 H     1 <1>   0.0800 
 29 H       -2.8190    -2.9030     0.8990 H     1 <1>   0.0800 
 30 H       -1.2340    -3.4960     1.3250 H     1 <1>   0.0800 
 31 H        0.2530     2.8610     0.5230 H     1 <1>   0.4500 
 32 H        0.4890    -2.3750     2.4200 H     1 <1>   0.0800 
 33 H        0.5860    -0.7640     3.0870 H     1 <1>   0.0800 
 34 H        1.7030    -1.2630     1.8390 H     1 <1>   0.0800 
 35 H       -1.1090     4.7750    -0.0960 H     1 <1>   0.0800 
 36 H       -0.3680     4.7380    -1.6820 H     1 <1>   0.0800 
 37 H        1.1940     2.7860    -2.2490 H     1 <1>   0.0800 
 38 H        1.4640     1.5620    -1.0260 H     1 <1>   0.0800 
 39 H        1.0190     5.1860     0.9640 H     1 <1>   0.0800 
 40 H        0.7780     6.3680    -0.2780 H     1 <1>   0.0800 
 41 H        3.3780     3.1160    -1.2180 H     1 <1>   0.0800 
 42 H        2.6760     3.1130     0.3640 H     1 <1>   0.0800 
 43 H        2.2660     5.1960    -1.7950 H     1 <1>   0.0800 
 44 H        4.1160     6.5330    -1.8660 H     1 <1>   0.3700 
 45 H        6.2680     7.0980    -1.0660 H     1 <1>   0.0800 
 46 H        5.8110     6.6890     0.5660 H     1 <1>   0.0800 
 47 H        4.3500     8.6570     0.6870 H     1 <1>   0.0800 
 48 H        4.7360     9.0730    -0.9630 H     1 <1>   0.0800 
 49 H        6.8280    10.1760    -1.5090 H     1 <1>   0.1500 
 50 H        6.1350     8.7250     2.4450 H     1 <1>   0.1500 
 51 H        8.8090    11.3780    -0.7170 H     1 <1>   0.1500 
 52 H        8.1190     9.9310     3.2290 H     1 <1>   0.1500 
 53 H        9.4610    11.2600     1.6520 H     1 <1>   0.1500 
@<TRIPOS>BOND
  1   1   2  1   
  2   1   3  1   
  3   2   4  2   
  4   2   5  1   
  5   3   6  2   
  6   3   7  1   
  7   4   6  1   
  8   5   8  1   
  9   5  26  1   
 10   5  27  1   
 11   6   9  1   
 12   7  28  1   
 13   7  29  1   
 14   7  30  1   
 15   8  10  1   
 16   8  11  1   
 17   8  31  1   
 18   9  32  1   
 19   9  33  1   
 20   9  34  1   
 21  10  12  1   
 22  10  35  1   
 23  10  36  1   
 24  11  13  1   
 25  11  37  1   
 26  11  38  1   
 27  12  14  1   
 28  12  39  1   
 29  12  40  1   
 30  13  14  1   
 31  13  41  1   
 32  13  42  1   
 33  14  15  1   
 34  14  43  1   
 35  15  16  2   
 36  15  17  am  
 37  17  18  1   
 38  17  44  1   
 39  18  19  1   
 40  18  45  1   
 41  18  46  1   
 42  19  20  1   
 43  19  47  1   
 44  19  48  1   
 45  20  21  ar  
 46  20  22  ar  
 47  21  23  ar  
 48  21  49  1   
 49  22  24  ar  
 50  22  50  1   
 51  23  25  ar  
 52  23  51  1   
 53  24  25  ar  
 54  24  52  1   
 55  25  53  1   
@<TRIPOS>SUBSTRUCTURE
  1 ****  14 GROUP 4 **** **** 0

# MOE 2024.06 (io_trps.svl 2023.06)
