@<TRIPOS>MOLECULE
NONAME
53 56 1 0 0 
SMALL
USER_CHARGES


@<TRIPOS>ATOM
  1 O       -2.1780     0.6200    -2.5770 O.2   1 <1>  -0.5700 
  2 C       -1.9150     0.9540    -1.4490 C.2   1 <1>   0.5690 
  3 N       -1.7060     0.0530    -0.4620 N.am  1 <1>  -0.7300 
  4 C       -1.8090     2.4250    -1.1270 C.3   1 <1>  -0.0990 
  5 C       -1.7440    -1.4180    -0.6330 C.3   1 <1>   0.2200 
  6 C       -0.4760     2.9890    -1.6280 C.3   1 <1>   0.0200 
  7 C       -3.0090    -2.0120    -0.0280 C.3   1 <1>  -0.0800 
  8 C       -0.6880    -2.0380     0.2700 C.3   1 <1>   0.1200 
  9 C       -0.3190     4.4370    -1.2180 C.2   1 <1>   0.2980 
 10 C       -2.6420    -2.1770     1.4520 C.3   1 <1>   0.1200 
 11 C       -4.3090    -1.2240    -0.2770 C.3   1 <1>  -0.0170 
 12 O       -1.2550    -2.0190     1.5440 O.3   1 <1>  -0.5600 
 13 O       -1.0080     5.3520    -1.8480 O.3   1 <1>  -0.0190 
 14 N        0.4300     4.8590    -0.2870 N.2   1 <1>  -0.5650 
 15 C       -5.5080    -1.9610     0.2980 C.ar  1 <1>  -0.1440 
 16 N       -0.6710     6.4570    -1.2610 N.2   1 <1>  -0.4100 
 17 C        0.1820     6.1730    -0.3420 C.2   1 <1>   0.4620 
 18 C       -6.0550    -1.6330     1.5220 C.ar  1 <1>  -0.1500 
 19 C       -6.1120    -3.0010    -0.3800 C.ar  1 <1>  -0.1500 
 20 C        0.7880     7.1360     0.5610 C.ar  1 <1>   0.0540 
 21 C       -7.1430    -2.3450     1.9980 C.ar  1 <1>   0.1600 
 22 C       -7.1990    -3.6480     0.1860 C.ar  1 <1>   0.1600 
 23 C        2.1600     7.1830     0.8520 C.ar  1 <1>  -0.1440 
 24 C       -0.0360     8.0770     1.1810 C.ar  1 <1>  -0.1500 
 25 N       -7.7270    -3.3460     1.3610 N.ar  1 <1>  -0.6200 
 26 C        2.6560     8.1250     1.7390 C.ar  1 <1>  -0.1500 
 27 C        3.1460     6.2180     0.2030 C.3   1 <1>  -0.0970 
 28 C        0.4630     9.0170     2.0610 C.ar  1 <1>  -0.1500 
 29 C        1.8150     9.0400     2.3440 C.ar  1 <1>  -0.1500 
 30 H       -1.4970     0.3470     0.4950 H     1 <1>   0.3700 
 31 H       -2.6240     2.9410    -1.6020 H     1 <1>   0.0800 
 32 H       -1.8920     2.5710    -0.0660 H     1 <1>   0.0800 
 33 H       -1.6100    -1.6870    -1.6680 H     1 <1>   0.0800 
 34 H       -0.4200     2.9120    -2.7000 H     1 <1>   0.0800 
 35 H        0.3360     2.4200    -1.2090 H     1 <1>   0.0800 
 36 H       -3.1340    -2.9990    -0.4370 H     1 <1>   0.0800 
 37 H        0.2370    -1.4890     0.2740 H     1 <1>   0.0800 
 38 H       -0.5070    -3.0650     0.0020 H     1 <1>   0.0800 
 39 H       -2.9090    -3.1530     1.8220 H     1 <1>   0.0800 
 40 H       -3.0970    -1.4200     2.0660 H     1 <1>   0.0800 
 41 H       -4.4470    -1.0890    -1.3360 H     1 <1>   0.0800 
 42 H       -4.2480    -0.2470     0.1670 H     1 <1>   0.0800 
 43 H       -5.6470    -0.8320     2.1110 H     1 <1>   0.1500 
 44 H       -5.7500    -3.3130    -1.3420 H     1 <1>   0.1500 
 45 H       -7.5560    -2.0750     2.9560 H     1 <1>   0.1500 
 46 H       -7.6570    -4.4560    -0.3580 H     1 <1>   0.1500 
 47 H       -1.0910     8.0670     0.9650 H     1 <1>   0.1500 
 48 H        3.7070     8.1570     1.9660 H     1 <1>   0.1500 
 49 H        4.1600     6.5410     0.3520 H     1 <1>   0.0800 
 50 H        2.9660     6.1570    -0.8550 H     1 <1>   0.0800 
 51 H        3.0340     5.2380     0.6330 H     1 <1>   0.0800 
 52 H       -0.1970     9.7290     2.5250 H     1 <1>   0.1500 
 53 H        2.2110     9.7680     3.0310 H     1 <1>   0.1500 
@<TRIPOS>BOND
  1   1   2  2   
  2   2   3  am  
  3   2   4  1   
  4   3   5  1   
  5   3  30  1   
  6   4   6  1   
  7   4  31  1   
  8   4  32  1   
  9   5   7  1   
 10   5   8  1   
 11   5  33  1   
 12   6   9  1   
 13   6  34  1   
 14   6  35  1   
 15   7  10  1   
 16   7  11  1   
 17   7  36  1   
 18   8  12  1   
 19   8  37  1   
 20   8  38  1   
 21   9  13  1   
 22   9  14  2   
 23  10  12  1   
 24  10  39  1   
 25  10  40  1   
 26  11  15  1   
 27  11  41  1   
 28  11  42  1   
 29  13  16  1   
 30  14  17  1   
 31  15  18  ar  
 32  15  19  ar  
 33  16  17  2   
 34  17  20  1   
 35  18  21  ar  
 36  18  43  1   
 37  19  22  ar  
 38  19  44  1   
 39  20  23  ar  
 40  20  24  ar  
 41  21  25  ar  
 42  21  45  1   
 43  22  25  ar  
 44  22  46  1   
 45  23  26  ar  
 46  23  27  1   
 47  24  28  ar  
 48  24  47  1   
 49  26  29  ar  
 50  26  48  1   
 51  27  49  1   
 52  27  50  1   
 53  27  51  1   
 54  28  29  ar  
 55  28  52  1   
 56  29  53  1   
@<TRIPOS>SUBSTRUCTURE
  1 ****   4 GROUP 4 **** **** 0

# MOE 2024.06 (io_trps.svl 2023.06)
