@<TRIPOS>MOLECULE
NONAME
50 52 1 0 0 
SMALL
USER_CHARGES


@<TRIPOS>ATOM
  1 O        0.0440    -1.8810     2.2480 O.3   1 <1>  -0.8500 
  2 C       -0.0430    -2.5470     1.2020 C.2   1 <1>  -0.1500 
  3 C       -1.0270    -2.3410     0.2340 C.2   1 <1>  -0.1240 
  4 C        0.9090    -3.5730     0.9760 C.2   1 <1>  -0.1500 
  5 C       -1.0610    -3.1440    -0.9170 C.2   1 <1>   0.6160 
  6 C       -2.0620    -1.2390     0.4670 C.3   1 <1>   0.2020 
  7 C        0.8740    -4.3600    -0.1270 C.2   1 <1>  -0.0290 
  8 O       -1.8890    -2.9700    -1.8370 O.2   1 <1>  -0.5700 
  9 N       -0.1230    -4.1810    -1.0880 N.am  1 <1>  -0.4690 
 10 C       -3.4540    -1.8490     0.6640 C.ar  1 <1>  -0.1440 
 11 C       -1.9580    -0.1240    -0.5860 C.3   1 <1>  -0.0990 
 12 C        1.9250    -5.4390    -0.3280 C.3   1 <1>  -0.1020 
 13 C       -0.2100    -5.0470    -2.2990 C.3   1 <1>   0.0600 
 14 C       -4.4280    -1.8690    -0.3260 C.ar  1 <1>  -0.1500 
 15 C       -3.7290    -2.4200     1.9070 C.ar  1 <1>  -0.1500 
 16 C       -2.9670     0.9750    -0.3490 C.2   1 <1>   0.6590 
 17 C       -5.6640    -2.4310    -0.0470 C.ar  1 <1>   0.1170 
 18 C       -4.9610    -2.9860     2.1850 C.ar  1 <1>  -0.1500 
 19 O       -3.7810     1.2750    -1.1880 O.2   1 <1>  -0.5700 
 20 O       -2.9020     1.6020     0.8190 O.3   1 <1>  -0.4300 
 21 N       -6.8030    -2.5700    -0.8300 N.am  1 <1>  -0.4770 
 22 C       -5.9310    -2.9820     1.1940 C.ar  1 <1>   0.1170 
 23 C       -3.8220     2.6090     1.1740 C.3   1 <1>   0.0400 
 24 C       -7.7450    -3.2030    -0.0680 C.2   1 <1>   0.6900 
 25 C       -6.9420    -2.1230    -2.2310 C.3   1 <1>   0.0600 
 26 N       -7.2360    -3.4620     1.1760 N.am  1 <1>  -0.4770 
 27 O       -8.8740    -3.4940    -0.4400 O.2   1 <1>  -0.5700 
 28 C       -7.9230    -4.1630     2.2790 C.3   1 <1>   0.0600 
 29 H        1.6530    -3.6740     1.7420 H     1 <1>   0.1500 
 30 H       -1.8290    -0.7560     1.3980 H     1 <1>   0.0800 
 31 H       -2.1020    -0.5140    -1.5730 H     1 <1>   0.0800 
 32 H       -0.9730     0.2990    -0.5370 H     1 <1>   0.0800 
 33 H        2.4260    -5.2980    -1.2680 H     1 <1>   0.0800 
 34 H        1.4670    -6.4100    -0.3030 H     1 <1>   0.0800 
 35 H        2.6590    -5.3940     0.4550 H     1 <1>   0.0800 
 36 H       -1.2220    -5.0890    -2.6610 H     1 <1>   0.0800 
 37 H        0.0940    -6.0500    -2.0700 H     1 <1>   0.0800 
 38 H        0.4210    -4.6420    -3.0690 H     1 <1>   0.0800 
 39 H       -4.2430    -1.4660    -1.3040 H     1 <1>   0.1500 
 40 H       -2.9510    -2.4210     2.6570 H     1 <1>   0.1500 
 41 H       -5.1610    -3.4230     3.1440 H     1 <1>   0.1500 
 42 H       -3.5750     2.9610     2.1590 H     1 <1>   0.0800 
 43 H       -4.8130     2.1880     1.1670 H     1 <1>   0.0800 
 44 H       -3.7520     3.4110     0.4610 H     1 <1>   0.0800 
 45 H       -6.7610    -1.0650    -2.2880 H     1 <1>   0.0800 
 46 H       -7.9350    -2.3350    -2.5870 H     1 <1>   0.0800 
 47 H       -6.2250    -2.6410    -2.8430 H     1 <1>   0.0800 
 48 H       -7.9560    -3.5250     3.1430 H     1 <1>   0.0800 
 49 H       -7.3900    -5.0650     2.5170 H     1 <1>   0.0800 
 50 H       -8.9280    -4.4120     1.9840 H     1 <1>   0.0800 
@<TRIPOS>BOND
  1   1   2  1   
  2   2   3  2   
  3   2   4  1   
  4   3   5  1   
  5   3   6  1   
  6   4   7  2   
  7   4  29  1   
  8   5   8  2   
  9   5   9  am  
 10   6  10  1   
 11   6  11  1   
 12   6  30  1   
 13   7   9  1   
 14   7  12  1   
 15   9  13  1   
 16  10  14  ar  
 17  10  15  ar  
 18  11  16  1   
 19  11  31  1   
 20  11  32  1   
 21  12  33  1   
 22  12  34  1   
 23  12  35  1   
 24  13  36  1   
 25  13  37  1   
 26  13  38  1   
 27  14  17  ar  
 28  14  39  1   
 29  15  18  ar  
 30  15  40  1   
 31  16  19  2   
 32  16  20  1   
 33  17  21  1   
 34  17  22  ar  
 35  18  22  ar  
 36  18  41  1   
 37  20  23  1   
 38  21  24  am  
 39  21  25  1   
 40  22  26  1   
 41  23  42  1   
 42  23  43  1   
 43  23  44  1   
 44  24  26  am  
 45  24  27  2   
 46  25  45  1   
 47  25  46  1   
 48  25  47  1   
 49  26  28  1   
 50  28  48  1   
 51  28  49  1   
 52  28  50  1   
@<TRIPOS>SUBSTRUCTURE
  1 ****  10 GROUP 4 **** **** 0

# MOE 2024.06 (io_trps.svl 2023.06)
