@<TRIPOS>MOLECULE
NONAME
45 47 1 0 0 
SMALL
USER_CHARGES


@<TRIPOS>ATOM
  1 CL       0.9390    -1.1180    -0.8580 Cl    1 <1>  -0.1770 
  2 C        2.1140     0.1380    -0.5440 C.ar  1 <1>   0.1770 
  3 C        2.2790     1.1780    -1.4450 C.ar  1 <1>   0.1600 
  4 C        2.8750     0.0800     0.6040 C.ar  1 <1>  -0.1500 
  5 N        3.1440     2.1760    -1.2950 N.ar  1 <1>  -0.6200 
  6 C        3.7680     1.1110     0.7570 C.ar  1 <1>   0.1900 
  7 C        3.8840     2.1480    -0.1900 C.ar  1 <1>   0.4100 
  8 F        4.5320     1.0990     1.8250 F     1 <1>  -0.1900 
  9 N        4.7710     3.2040    -0.0680 N.pl3 1 <1>  -0.8380 
 10 C        4.6320     4.1290     1.0850 C.3   1 <1>   0.4330 
 11 C        6.1980     2.9450    -0.3560 C.3   1 <1>   0.2090 
 12 C        3.6340     5.2640     0.8360 C.ar  1 <1>  -0.1430 
 13 C        6.0440     4.6580     1.3210 C.3   1 <1>  -0.1600 
 14 C        6.9590     3.5480     0.8170 C.3   1 <1>  -0.1600 
 15 C        3.1480     5.5590    -0.4310 C.ar  1 <1>  -0.1500 
 16 C        3.1920     6.0240     1.9090 C.ar  1 <1>  -0.1500 
 17 C        2.2450     6.5870    -0.6220 C.ar  1 <1>  -0.1500 
 18 C        2.2900     7.0570     1.7230 C.ar  1 <1>  -0.1500 
 19 C        1.8150     7.3490     0.4530 C.ar  1 <1>  -0.1430 
 20 C        0.8410     8.4870     0.2360 C.3   1 <1>   0.4860 
 21 N        1.5990     9.7710     0.2690 N.4   1 <1>  -0.9590 
 22 C        0.6830    10.9500     0.3110 C.3   1 <1>   0.2630 
 23 C        2.5630     9.8680    -0.8730 C.3   1 <1>   0.2630 
 24 H        1.6680     1.1870    -2.3300 H     1 <1>   0.1500 
 25 H        2.7750    -0.7140     1.3200 H     1 <1>   0.1500 
 26 H        4.3170     3.5700     1.9490 H     1 <1>   0.0800 
 27 H        6.4590     3.4480    -1.2720 H     1 <1>   0.0800 
 28 H        6.3970     1.8910    -0.4590 H     1 <1>   0.0800 
 29 H        6.2120     4.8920     2.3560 H     1 <1>   0.0800 
 30 H        6.1910     5.5450     0.7300 H     1 <1>   0.0800 
 31 H        7.9260     3.9130     0.5200 H     1 <1>   0.0800 
 32 H        7.0820     2.7960     1.5770 H     1 <1>   0.0800 
 33 H        3.4690     4.9760    -1.2800 H     1 <1>   0.1500 
 34 H        3.5500     5.8070     2.9020 H     1 <1>   0.1500 
 35 H        1.8860     6.7740    -1.6200 H     1 <1>   0.1500 
 36 H        1.9650     7.6200     2.5810 H     1 <1>   0.1500 
 37 H        0.1000     8.4720     1.0190 H     1 <1>   0.0800 
 38 H        0.3410     8.3700    -0.7120 H     1 <1>   0.0800 
 39 H        2.1570     9.7400     1.1350 H     1 <1>   0.4500 
 40 H        0.0840    10.9920    -0.5840 H     1 <1>   0.0800 
 41 H        1.2530    11.8630     0.3860 H     1 <1>   0.0800 
 42 H        0.0270    10.8860     1.1640 H     1 <1>   0.0800 
 43 H        2.0370     9.8490    -1.8130 H     1 <1>   0.0800 
 44 H        3.2550     9.0400    -0.8490 H     1 <1>   0.0800 
 45 H        3.1280    10.7840    -0.8100 H     1 <1>   0.0800 
@<TRIPOS>BOND
  1   1   2  1   
  2   2   3  ar  
  3   2   4  ar  
  4   3   5  ar  
  5   3  24  1   
  6   4   6  ar  
  7   4  25  1   
  8   5   7  ar  
  9   6   7  ar  
 10   6   8  1   
 11   7   9  1   
 12   9  10  1   
 13   9  11  1   
 14  10  12  1   
 15  10  13  1   
 16  10  26  1   
 17  11  14  1   
 18  11  27  1   
 19  11  28  1   
 20  12  15  ar  
 21  12  16  ar  
 22  13  14  1   
 23  13  29  1   
 24  13  30  1   
 25  14  31  1   
 26  14  32  1   
 27  15  17  ar  
 28  15  33  1   
 29  16  18  ar  
 30  16  34  1   
 31  17  19  ar  
 32  17  35  1   
 33  18  19  ar  
 34  18  36  1   
 35  19  20  1   
 36  20  21  1   
 37  20  37  1   
 38  20  38  1   
 39  21  22  1   
 40  21  23  1   
 41  21  39  1   
 42  22  40  1   
 43  22  41  1   
 44  22  42  1   
 45  23  43  1   
 46  23  44  1   
 47  23  45  1   
@<TRIPOS>SUBSTRUCTURE
  1 ****  12 GROUP 4 **** **** 0

# MOE 2024.06 (io_trps.svl 2023.06)
