@<TRIPOS>MOLECULE
NONAME
47 49 1 0 0 
SMALL
USER_CHARGES


@<TRIPOS>ATOM
  1 O        0.3570     0.5270     0.1940 O.3   1 <1>  -0.5600 
  2 C        0.3350     1.8600     0.6240 C.3   1 <1>   0.2950 
  3 C        1.5690    -0.1440     0.3690 C.3   1 <1>   0.2000 
  4 C       -1.0660     2.4520     0.3960 C.3   1 <1>  -0.1950 
  5 C        1.3930     2.6680    -0.1610 C.3   1 <1>   0.3430 
  6 C        2.6760     0.5660    -0.4460 C.3   1 <1>   0.3430 
  7 C        1.3450    -1.5920    -0.0800 C.3   1 <1>  -0.1600 
  8 C       -2.3130     1.6360     0.5360 C.3   1 <1>  -0.2000 
  9 C       -1.8850     2.1340    -0.8170 C.3   1 <1>  -0.2000 
 10 N        2.7630     2.0330    -0.1250 N.4   1 <1>  -0.9590 
 11 C        2.5730    -2.4870     0.1510 C.3   1 <1>  -0.1600 
 12 C        3.7060     2.7450    -1.0220 C.3   1 <1>   0.5240 
 13 C        2.2740    -3.9370    -0.2480 C.3   1 <1>  -0.1600 
 14 C        3.8670     4.1590    -0.4940 C.2   1 <1>  -0.1810 
 15 C        3.4930    -4.8340    -0.0220 C.3   1 <1>  -0.2400 
 16 C        3.3810     5.3100    -1.0320 C.2   1 <1>  -0.3020 
 17 C        4.5580     4.5200     0.6680 C.2   1 <1>  -0.1500 
 18 N        3.7460     6.3600    -0.2500 N.pl3 1 <1>   0.0330 
 19 C        4.4670     5.8760     0.8000 C.2   1 <1>  -0.1320 
 20 C        5.0000     6.7290     1.8180 C.1   1 <1>   0.5370 
 21 N        5.4050     7.4200     2.6270 N.1   1 <1>  -0.5570 
 22 H        0.5530     1.8780     1.6780 H     1 <1>   0.0800 
 23 H        1.8100    -0.1350     1.4190 H     1 <1>   0.0800 
 24 H       -1.1310     3.4600     0.7690 H     1 <1>   0.1000 
 25 H        1.4390     3.6670     0.2410 H     1 <1>   0.0800 
 26 H        1.0540     2.7440    -1.1800 H     1 <1>   0.0800 
 27 H        2.4520     0.4340    -1.4920 H     1 <1>   0.0800 
 28 H        3.6210     0.0890    -0.2480 H     1 <1>   0.0800 
 29 H        0.5160    -1.9930     0.4780 H     1 <1>   0.0800 
 30 H        1.0790    -1.6070    -1.1240 H     1 <1>   0.0800 
 31 H       -2.2400     0.5800     0.7340 H     1 <1>   0.1000 
 32 H       -3.1800     2.0800     0.9960 H     1 <1>   0.1000 
 33 H       -2.4720     2.9090    -1.2800 H     1 <1>   0.1000 
 34 H       -1.5450     1.3980    -1.5260 H     1 <1>   0.1000 
 35 H        3.1270     2.1460     0.8280 H     1 <1>   0.4500 
 36 H        3.4090    -2.1380    -0.4300 H     1 <1>   0.0800 
 37 H        2.8480    -2.4620     1.1920 H     1 <1>   0.0800 
 38 H        4.6660     2.2540    -1.0300 H     1 <1>   0.0800 
 39 H        3.3210     2.7700    -2.0280 H     1 <1>   0.0800 
 40 H        1.4490    -4.3120     0.3350 H     1 <1>   0.0800 
 41 H        1.9920    -3.9810    -1.2870 H     1 <1>   0.0800 
 42 H        3.7800    -4.8300     1.0150 H     1 <1>   0.0800 
 43 H        4.3270    -4.5010    -0.6150 H     1 <1>   0.0800 
 44 H        3.2600    -5.8460    -0.3040 H     1 <1>   0.0800 
 45 H        2.8030     5.4510    -1.9310 H     1 <1>   0.1500 
 46 H        5.0770     3.8530     1.3370 H     1 <1>   0.1500 
 47 H        3.5340     7.3540    -0.4180 H     1 <1>   0.2700 
@<TRIPOS>BOND
  1   1   2  1   
  2   1   3  1   
  3   2   4  1   
  4   2   5  1   
  5   2  22  1   
  6   3   6  1   
  7   3   7  1   
  8   3  23  1   
  9   4   8  1   
 10   4   9  1   
 11   4  24  1   
 12   5  10  1   
 13   5  25  1   
 14   5  26  1   
 15   6  10  1   
 16   6  27  1   
 17   6  28  1   
 18   7  11  1   
 19   7  29  1   
 20   7  30  1   
 21   8   9  1   
 22   8  31  1   
 23   8  32  1   
 24   9  33  1   
 25   9  34  1   
 26  10  12  1   
 27  10  35  1   
 28  11  13  1   
 29  11  36  1   
 30  11  37  1   
 31  12  14  1   
 32  12  38  1   
 33  12  39  1   
 34  13  15  1   
 35  13  40  1   
 36  13  41  1   
 37  14  16  2   
 38  14  17  1   
 39  15  42  1   
 40  15  43  1   
 41  15  44  1   
 42  16  18  1   
 43  16  45  1   
 44  17  19  2   
 45  17  46  1   
 46  18  19  1   
 47  18  47  1   
 48  19  20  1   
 49  20  21  3   
@<TRIPOS>SUBSTRUCTURE
  1 ****  10 GROUP 4 **** **** 0

# MOE 2024.06 (io_trps.svl 2023.06)
