@<TRIPOS>MOLECULE
NONAME
51 53 1 0 0 
SMALL
USER_CHARGES


@<TRIPOS>ATOM
  1 S        0.7880    -0.0300    -1.4560 S.o2  1 <1>   1.3330 
  2 O        0.4970    -0.0170    -2.8720 O.2   1 <1>  -0.6500 
  3 O        1.9650    -0.7230    -0.9790 O.2   1 <1>  -0.6500 
  4 N       -0.5670    -0.7090    -0.6860 N.am  1 <1>  -0.8490 
  5 C        0.8190     1.6660    -0.8480 C.3   1 <1>  -0.0550 
  6 C       -0.4310    -2.1570    -0.4990 C.3   1 <1>   0.1160 
  7 C       -1.8340    -0.4160    -1.3660 C.3   1 <1>   0.1160 
  8 C        1.4180     1.9230     0.5550 C.3   1 <1>  -0.0800 
  9 C        2.9230     1.6540     0.6370 C.3   1 <1>   0.2200 
 10 C        0.8330     1.1070     1.7150 C.3   1 <1>   0.1200 
 11 N        3.6360     2.9080     0.9760 N.am  1 <1>  -0.7300 
 12 C        3.0360     0.6490     1.7810 C.3   1 <1>   0.1200 
 13 O        1.9040     0.8590     2.5630 O.3   1 <1>  -0.5600 
 14 C        4.0080     3.8800     0.0870 C.2   1 <1>   0.5440 
 15 O        3.6580     3.7320    -1.0720 O.2   1 <1>  -0.5700 
 16 C        4.7660     5.0530     0.5470 C.ar  1 <1>   0.3960 
 17 N        4.5750     5.4360     1.8080 N.ar  1 <1>  -0.6200 
 18 C        5.6640     5.7530    -0.2640 C.ar  1 <1>  -0.1440 
 19 C        5.2500     6.4870     2.2050 C.ar  1 <1>   0.7200 
 20 C        6.2900     6.8580     0.2820 C.ar  1 <1>   0.1670 
 21 C        5.9560     5.3270    -1.7090 C.3   1 <1>  -0.0170 
 22 N        6.0840     7.2320     1.5180 N.ar  1 <1>  -0.6200 
 23 N        5.0480     6.8660     3.4660 N.pl3 1 <1>  -0.9000 
 24 C        7.2770     7.7160    -0.4990 C.3   1 <1>  -0.0170 
 25 C        7.2170     5.9700    -2.2960 C.3   1 <1>  -0.1600 
 26 C        7.2310     7.4720    -2.0110 C.3   1 <1>  -0.1600 
 27 H        1.3900     2.2530    -1.5430 H     1 <1>   0.0800 
 28 H       -0.1790     2.0560    -0.8690 H     1 <1>   0.0800 
 29 H       -1.3000    -2.5540    -0.0030 H     1 <1>   0.0800 
 30 H        0.4300    -2.3720     0.1120 H     1 <1>   0.0800 
 31 H       -0.3100    -2.6480    -1.4510 H     1 <1>   0.0800 
 32 H       -2.6610    -0.7860    -0.7840 H     1 <1>   0.0800 
 33 H       -1.8560    -0.8780    -2.3400 H     1 <1>   0.0800 
 34 H       -1.9540     0.6470    -1.4880 H     1 <1>   0.0800 
 35 H        1.2380     2.9590     0.7830 H     1 <1>   0.0800 
 36 H        3.3350     1.2460    -0.2710 H     1 <1>   0.0800 
 37 H        0.4480     0.1530     1.4070 H     1 <1>   0.0800 
 38 H        0.0760     1.6470     2.2560 H     1 <1>   0.0800 
 39 H        3.7250     3.1150     1.9750 H     1 <1>   0.3700 
 40 H        3.9210     0.7840     2.3760 H     1 <1>   0.0800 
 41 H        2.9950    -0.3590     1.4050 H     1 <1>   0.0800 
 42 H        6.0720     4.2580    -1.7630 H     1 <1>   0.0800 
 43 H        5.1110     5.5960    -2.3200 H     1 <1>   0.0800 
 44 H        4.1870     6.5440     3.8980 H     1 <1>   0.4000 
 45 H        5.3420     7.8150     3.6820 H     1 <1>   0.4000 
 46 H        7.0760     8.7550    -0.3030 H     1 <1>   0.0800 
 47 H        8.2640     7.5000    -0.1320 H     1 <1>   0.0800 
 48 H        8.0900     5.5130    -1.8610 H     1 <1>   0.0800 
 49 H        7.2460     5.7970    -3.3580 H     1 <1>   0.0800 
 50 H        6.3430     7.9240    -2.4210 H     1 <1>   0.0800 
 51 H        8.0850     7.9310    -2.4770 H     1 <1>   0.0800 
@<TRIPOS>BOND
  1   1   2  2   
  2   1   3  2   
  3   1   4  am  
  4   1   5  1   
  5   4   6  1   
  6   4   7  1   
  7   5   8  1   
  8   5  27  1   
  9   5  28  1   
 10   6  29  1   
 11   6  30  1   
 12   6  31  1   
 13   7  32  1   
 14   7  33  1   
 15   7  34  1   
 16   8   9  1   
 17   8  10  1   
 18   8  35  1   
 19   9  11  1   
 20   9  12  1   
 21   9  36  1   
 22  10  13  1   
 23  10  37  1   
 24  10  38  1   
 25  11  14  am  
 26  11  39  1   
 27  12  13  1   
 28  12  40  1   
 29  12  41  1   
 30  14  15  2   
 31  14  16  1   
 32  16  17  ar  
 33  16  18  ar  
 34  17  19  ar  
 35  18  20  ar  
 36  18  21  1   
 37  19  22  ar  
 38  19  23  1   
 39  20  22  ar  
 40  20  24  1   
 41  21  25  1   
 42  21  42  1   
 43  21  43  1   
 44  23  44  1   
 45  23  45  1   
 46  24  26  1   
 47  24  46  1   
 48  24  47  1   
 49  25  26  1   
 50  25  48  1   
 51  25  49  1   
 52  26  50  1   
 53  26  51  1   
@<TRIPOS>SUBSTRUCTURE
  1 ****  14 GROUP 4 **** **** 0

# MOE 2024.06 (io_trps.svl 2023.06)
