@<TRIPOS>MOLECULE
NONAME
43 45 1 0 0 
SMALL
USER_CHARGES


@<TRIPOS>ATOM
  1 O       -0.3530     0.3410     0.7060 O.2   1 <1>  -0.5700 
  2 C       -1.3940     0.9290     0.4690 C.2   1 <1>   0.5440 
  3 N       -2.5450     0.1880     0.3150 N.am  1 <1>  -0.6600 
  4 C       -1.4050     2.3690     0.3460 C.ar  1 <1>   0.0860 
  5 C       -3.7700     0.6850    -0.3650 C.3   1 <1>   0.1400 
  6 C       -2.5450    -1.3000     0.3240 C.3   1 <1>   0.1400 
  7 C       -0.6060     3.0190    -0.6100 C.ar  1 <1>   0.1000 
  8 C       -2.2140     3.1470     1.1760 C.ar  1 <1>  -0.1500 
  9 C       -4.7410    -0.4910    -0.3030 C.3   1 <1>   0.2000 
 10 C       -3.8240    -1.7100    -0.4150 C.3   1 <1>  -0.0800 
 11 N        0.2440     2.3060    -1.4400 N.pl3 1 <1>  -0.9000 
 12 C       -0.6580     4.4030    -0.7310 C.ar  1 <1>  -0.1500 
 13 C       -2.2470     4.5200     1.0460 C.ar  1 <1>   0.0830 
 14 O       -5.3430    -0.4760     0.9480 O.3   1 <1>  -0.6800 
 15 C       -4.4250    -3.0430     0.0700 C.3   1 <1>   0.0210 
 16 C       -1.4730     5.1550     0.0900 C.ar  1 <1>  -0.1500 
 17 O       -3.0310     5.2650     1.8470 O.3   1 <1>  -0.5330 
 18 C       -3.4220    -4.1730    -0.0670 C.2   1 <1>   0.1080 
 19 N       -2.8810    -4.5010    -1.2000 N.2   1 <1>  -0.7070 
 20 C       -2.9670    -4.9640     0.9820 C.2   1 <1>  -0.1500 
 21 N       -2.0560    -5.5210    -0.8990 N.pl3 1 <1>   0.3000 
 22 C       -2.0910    -5.8210     0.4160 C.2   1 <1>  -0.3320 
 23 C       -1.2710    -6.9230     1.0620 C.3   1 <1>  -0.0600 
 24 H       -4.1780     1.5590     0.1120 H     1 <1>   0.0800 
 25 H       -3.5330     0.9120    -1.3910 H     1 <1>   0.0800 
 26 H       -1.6710    -1.6930    -0.1700 H     1 <1>   0.0800 
 27 H       -2.5570    -1.6450     1.3440 H     1 <1>   0.0800 
 28 H       -2.8120     2.6560     1.9220 H     1 <1>   0.1500 
 29 H       -5.5070    -0.4550    -1.0580 H     1 <1>   0.0800 
 30 H       -3.5630    -1.8260    -1.4520 H     1 <1>   0.0800 
 31 H        0.4760     1.3590    -1.0960 H     1 <1>   0.4000 
 32 H        1.0760     2.7880    -1.7890 H     1 <1>   0.4000 
 33 H       -0.0540     4.8900    -1.4750 H     1 <1>   0.1500 
 34 H       -4.6390    -0.3970     1.6220 H     1 <1>   0.4000 
 35 H       -5.2920    -3.2800    -0.5190 H     1 <1>   0.0800 
 36 H       -4.7300    -2.9710     1.0980 H     1 <1>   0.0800 
 37 H       -1.5150     6.2260     0.0000 H     1 <1>   0.1500 
 38 H       -3.5000     4.7390     2.5190 H     1 <1>   0.4500 
 39 H       -3.2660    -4.8870     2.0120 H     1 <1>   0.1500 
 40 H       -1.4840    -5.9880    -1.6130 H     1 <1>   0.2700 
 41 H       -1.4730    -6.9640     2.1180 H     1 <1>   0.0800 
 42 H       -0.2210    -6.7360     0.9220 H     1 <1>   0.0800 
 43 H       -1.5200    -7.8750     0.6280 H     1 <1>   0.0800 
@<TRIPOS>BOND
  1   1   2  2   
  2   2   3  am  
  3   2   4  1   
  4   3   5  1   
  5   3   6  1   
  6   4   7  ar  
  7   4   8  ar  
  8   5   9  1   
  9   5  24  1   
 10   5  25  1   
 11   6  10  1   
 12   6  26  1   
 13   6  27  1   
 14   7  11  1   
 15   7  12  ar  
 16   8  13  ar  
 17   8  28  1   
 18   9  10  1   
 19   9  14  1   
 20   9  29  1   
 21  10  15  1   
 22  10  30  1   
 23  11  31  1   
 24  11  32  1   
 25  12  16  ar  
 26  12  33  1   
 27  13  16  ar  
 28  13  17  1   
 29  14  34  1   
 30  15  18  1   
 31  15  35  1   
 32  15  36  1   
 33  16  37  1   
 34  17  38  1   
 35  18  19  2   
 36  18  20  1   
 37  19  21  1   
 38  20  22  2   
 39  20  39  1   
 40  21  22  1   
 41  21  40  1   
 42  22  23  1   
 43  23  41  1   
 44  23  42  1   
 45  23  43  1   
@<TRIPOS>SUBSTRUCTURE
  1 ****   3 GROUP 4 **** **** 0

# MOE 2024.06 (io_trps.svl 2023.06)
