@<TRIPOS>MOLECULE
NONAME
57 61 1 0 0 
SMALL
USER_CHARGES


@<TRIPOS>ATOM
  1 CL       2.6260    -0.1230    -1.1260 Cl    1 <1>  -0.1770 
  2 C        2.0090    -1.5980    -0.4280 C.ar  1 <1>   0.1770 
  3 C        0.7380    -1.5940     0.1300 C.ar  1 <1>  -0.1500 
  4 C        2.7970    -2.7370    -0.4480 C.ar  1 <1>  -0.1500 
  5 C        0.2280    -2.7620     0.6830 C.ar  1 <1>  -0.1440 
  6 C        2.2820    -3.8940     0.1100 C.ar  1 <1>  -0.1440 
  7 C        1.0250    -3.8940     0.6580 C.ar  1 <1>   0.0830 
  8 C       -1.1460    -2.8340     1.3090 C.3   1 <1>   0.4870 
  9 C        2.8760    -5.2710     0.2440 C.3   1 <1>   0.1440 
 10 O        0.6630    -5.0920     1.1450 O.3   1 <1>  -0.3630 
 11 N       -2.1530    -3.0550     0.2360 N.4   1 <1>  -0.9590 
 12 C        1.7540    -6.0020     1.0240 C.3   1 <1>   0.1200 
 13 C        4.1860    -5.2250     1.0400 C.3   1 <1>  -0.2400 
 14 C        3.0990    -5.8920    -1.1400 C.3   1 <1>  -0.2400 
 15 C       -3.5420    -2.8200     0.7550 C.3   1 <1>   0.3430 
 16 C       -2.0140    -4.4260    -0.3420 C.3   1 <1>   0.3430 
 17 C       -4.6080    -2.9810    -0.3430 C.3   1 <1>   0.1440 
 18 C       -3.0160    -4.6200    -1.4830 C.3   1 <1>  -0.1600 
 19 C       -5.9680    -2.8630     0.3010 C.ar  1 <1>   0.1670 
 20 C       -4.4640    -4.3530    -1.0340 C.3   1 <1>  -0.1600 
 21 C       -4.6220    -1.8120    -1.3650 C.3   1 <1>  -0.1600 
 22 N       -6.3210    -3.4760     1.4070 N.ar  1 <1>  -0.6200 
 23 C       -6.7890    -2.0280    -0.3930 C.ar  1 <1>  -0.1430 
 24 C       -6.1030    -1.4570    -1.6080 C.3   1 <1>  -0.0170 
 25 C       -7.5680    -3.2250     1.7880 C.ar  1 <1>   0.4770 
 26 C       -8.0570    -1.8350     0.0950 C.ar  1 <1>   0.1600 
 27 N       -8.4560    -2.4370     1.1970 N.ar  1 <1>  -0.6200 
 28 C       -8.0400    -3.9120     3.0470 C.3   1 <1>  -0.0970 
 29 H        0.1770    -0.6760     0.1240 H     1 <1>   0.1500 
 30 H        3.7800    -2.7120    -0.8850 H     1 <1>   0.1500 
 31 H       -1.3480    -1.9090     1.8240 H     1 <1>   0.0800 
 32 H       -1.1800    -3.6390     2.0250 H     1 <1>   0.0800 
 33 H       -1.9500    -2.3830    -0.5130 H     1 <1>   0.4500 
 34 H        2.0720    -6.2660     2.0170 H     1 <1>   0.0800 
 35 H        1.4090    -6.8810     0.5100 H     1 <1>   0.0800 
 36 H        4.0280    -4.7520     1.9940 H     1 <1>   0.0800 
 37 H        4.9310    -4.6640     0.5040 H     1 <1>   0.0800 
 38 H        4.5610    -6.2190     1.2060 H     1 <1>   0.0800 
 39 H        2.1820    -5.8980    -1.7020 H     1 <1>   0.0800 
 40 H        3.4530    -6.9030    -1.0470 H     1 <1>   0.0800 
 41 H        3.8290    -5.3250    -1.6910 H     1 <1>   0.0800 
 42 H       -3.6220    -1.8320     1.1770 H     1 <1>   0.0800 
 43 H       -3.7570    -3.5300     1.5370 H     1 <1>   0.0800 
 44 H       -2.1930    -5.1640     0.4240 H     1 <1>   0.0800 
 45 H       -1.0140    -4.5730    -0.7180 H     1 <1>   0.0800 
 46 H       -2.9410    -5.6320    -1.8400 H     1 <1>   0.0800 
 47 H       -2.7500    -3.9760    -2.3030 H     1 <1>   0.0800 
 48 H       -5.1320    -4.4180    -1.8760 H     1 <1>   0.0800 
 49 H       -4.7560    -5.1240    -0.3390 H     1 <1>   0.0800 
 50 H       -4.1260    -2.0520    -2.2890 H     1 <1>   0.0800 
 51 H       -4.1430    -0.9490    -0.9350 H     1 <1>   0.0800 
 52 H       -6.4740    -1.9450    -2.4940 H     1 <1>   0.0800 
 53 H       -6.2520    -0.3940    -1.6890 H     1 <1>   0.0800 
 54 H       -8.7510    -1.1870    -0.4130 H     1 <1>   0.1500 
 55 H       -7.3460    -4.6750     3.3450 H     1 <1>   0.0800 
 56 H       -8.9990    -4.3610     2.8740 H     1 <1>   0.0800 
 57 H       -8.1290    -3.1880     3.8340 H     1 <1>   0.0800 
@<TRIPOS>BOND
  1   1   2  1   
  2   2   3  ar  
  3   2   4  ar  
  4   3   5  ar  
  5   3  29  1   
  6   4   6  ar  
  7   4  30  1   
  8   5   7  ar  
  9   5   8  1   
 10   6   7  ar  
 11   6   9  1   
 12   7  10  1   
 13   8  11  1   
 14   8  31  1   
 15   8  32  1   
 16   9  12  1   
 17   9  13  1   
 18   9  14  1   
 19  10  12  1   
 20  11  15  1   
 21  11  16  1   
 22  11  33  1   
 23  12  34  1   
 24  12  35  1   
 25  13  36  1   
 26  13  37  1   
 27  13  38  1   
 28  14  39  1   
 29  14  40  1   
 30  14  41  1   
 31  15  17  1   
 32  15  42  1   
 33  15  43  1   
 34  16  18  1   
 35  16  44  1   
 36  16  45  1   
 37  17  19  1   
 38  17  20  1   
 39  17  21  1   
 40  18  20  1   
 41  18  46  1   
 42  18  47  1   
 43  19  22  ar  
 44  19  23  ar  
 45  20  48  1   
 46  20  49  1   
 47  21  24  1   
 48  21  50  1   
 49  21  51  1   
 50  22  25  ar  
 51  23  24  1   
 52  23  26  ar  
 53  24  52  1   
 54  24  53  1   
 55  25  27  ar  
 56  25  28  1   
 57  26  27  ar  
 58  26  54  1   
 59  28  55  1   
 60  28  56  1   
 61  28  57  1   
@<TRIPOS>SUBSTRUCTURE
  1 ****  11 GROUP 4 **** **** 0

# MOE 2024.06 (io_trps.svl 2023.06)
