@<TRIPOS>MOLECULE
NONAME
53 56 1 0 0 
SMALL
USER_CHARGES


@<TRIPOS>ATOM
  1 O       -0.0530    -0.1810    -2.0710 O.2   1 <1>  -0.5700 
  2 C       -0.7990     0.6140    -1.5460 C.2   1 <1>   0.5690 
  3 N       -1.8200     0.2370    -0.6930 N.am  1 <1>  -0.4770 
  4 C       -0.5710     2.0970    -1.8870 C.3   1 <1>   0.1710 
  5 C       -2.2250    -1.0500    -0.3140 C.ar  1 <1>   0.1170 
  6 C       -2.6640     1.2300     0.0300 C.3   1 <1>   0.1400 
  7 N       -0.2670     3.0070    -0.7410 N.3   1 <1>  -0.8100 
  8 C       -3.2970    -1.0090     0.5530 C.ar  1 <1>  -0.1430 
  9 C       -1.7040    -2.2840    -0.6860 C.ar  1 <1>  -0.1500 
 10 C       -3.7020     0.4180     0.8190 C.3   1 <1>  -0.0170 
 11 C       -0.2050     4.4070    -1.2160 C.3   1 <1>   0.1100 
 12 C        0.9630     2.5810    -0.0490 C.3   1 <1>   0.1100 
 13 C       -3.8660    -2.1600     1.0620 C.ar  1 <1>  -0.1500 
 14 C       -2.2650    -3.4470    -0.1840 C.ar  1 <1>  -0.1500 
 15 C       -0.0310     5.4550    -0.1030 C.3   1 <1>   0.2090 
 16 C        0.9960     3.1480     1.3720 C.3   1 <1>  -0.1600 
 17 C       -3.3420    -3.3870     0.6880 C.ar  1 <1>  -0.1500 
 18 N        1.3680     5.4710     0.4270 N.pl3 1 <1>  -0.8380 
 19 C        1.7030     4.5010     1.5070 C.3   1 <1>   0.2090 
 20 C        2.2960     6.3390    -0.0410 C.ar  1 <1>   0.1000 
 21 C        2.2980     7.7090     0.2830 C.ar  1 <1>  -0.1430 
 22 C        3.3120     5.8680    -0.8780 C.ar  1 <1>  -0.1500 
 23 C        3.2720     8.5270    -0.2370 C.ar  1 <1>   0.2110 
 24 C        1.2390     8.2810     1.2210 C.3   1 <1>  -0.0970 
 25 C        4.2650     6.7150    -1.3740 C.ar  1 <1>   0.2110 
 26 N        4.2370     8.0330    -1.0530 N.ar  1 <1>  -0.1790 
 27 H       -1.4580     2.4450    -2.3860 H     1 <1>   0.0800 
 28 H        0.2350     2.1490    -2.5980 H     1 <1>   0.0800 
 29 H       -3.1450     1.8910    -0.6690 H     1 <1>   0.0800 
 30 H       -2.0490     1.7970     0.7060 H     1 <1>   0.0800 
 31 H       -0.8700    -2.3400    -1.3600 H     1 <1>   0.1500 
 32 H       -4.6940     0.6070     0.4510 H     1 <1>   0.0800 
 33 H       -3.6520     0.6470     1.8680 H     1 <1>   0.0800 
 34 H       -1.1290     4.6290    -1.7210 H     1 <1>   0.0800 
 35 H        0.5920     4.5190    -1.9310 H     1 <1>   0.0800 
 36 H        1.8370     2.8710    -0.6060 H     1 <1>   0.0800 
 37 H        0.9710     1.5070     0.0380 H     1 <1>   0.0800 
 38 H       -4.7020    -2.1070     1.7370 H     1 <1>   0.1500 
 39 H       -1.8600    -4.4010    -0.4720 H     1 <1>   0.1500 
 40 H       -0.7350     5.2740     0.6900 H     1 <1>   0.0800 
 41 H       -0.2500     6.4200    -0.5230 H     1 <1>   0.0800 
 42 H        1.5250     2.4520     1.9970 H     1 <1>   0.0800 
 43 H       -0.0040     3.2100     1.7630 H     1 <1>   0.0800 
 44 H       -3.7720    -4.2950     1.0740 H     1 <1>   0.1500 
 45 H        2.7670     4.3360     1.5020 H     1 <1>   0.0800 
 46 H        1.4470     4.9360     2.4570 H     1 <1>   0.0800 
 47 H        3.3190     4.8210    -1.1240 H     1 <1>   0.1500 
 48 H        3.2910     9.5790    -0.0020 H     1 <1>   0.1500 
 49 H        1.1460     7.6600     2.0940 H     1 <1>   0.0800 
 50 H        0.2850     8.3180     0.7270 H     1 <1>   0.0800 
 51 H        1.4920     9.2750     1.5440 H     1 <1>   0.0800 
 52 H        5.0470     6.3520    -2.0220 H     1 <1>   0.1500 
 53 H        4.9540     8.6630    -1.4280 H     1 <1>   0.4570 
@<TRIPOS>BOND
  1   1   2  2   
  2   2   3  am  
  3   2   4  1   
  4   3   5  1   
  5   3   6  1   
  6   4   7  1   
  7   4  27  1   
  8   4  28  1   
  9   5   8  ar  
 10   5   9  ar  
 11   6  10  1   
 12   6  29  1   
 13   6  30  1   
 14   7  11  1   
 15   7  12  1   
 16   8  10  1   
 17   8  13  ar  
 18   9  14  ar  
 19   9  31  1   
 20  10  32  1   
 21  10  33  1   
 22  11  15  1   
 23  11  34  1   
 24  11  35  1   
 25  12  16  1   
 26  12  36  1   
 27  12  37  1   
 28  13  17  ar  
 29  13  38  1   
 30  14  17  ar  
 31  14  39  1   
 32  15  18  1   
 33  15  40  1   
 34  15  41  1   
 35  16  19  1   
 36  16  42  1   
 37  16  43  1   
 38  17  44  1   
 39  18  19  1   
 40  18  20  1   
 41  19  45  1   
 42  19  46  1   
 43  20  21  ar  
 44  20  22  ar  
 45  21  23  ar  
 46  21  24  1   
 47  22  25  ar  
 48  22  47  1   
 49  23  26  ar  
 50  23  48  1   
 51  24  49  1   
 52  24  50  1   
 53  24  51  1   
 54  25  26  ar  
 55  25  52  1   
 56  26  53  1   
@<TRIPOS>SUBSTRUCTURE
  1 ****   7 GROUP 4 **** **** 0

# MOE 2024.06 (io_trps.svl 2023.06)
