@<TRIPOS>MOLECULE
NONAME
50 53 1 0 0 
SMALL
USER_CHARGES


@<TRIPOS>ATOM
  1 O        1.1430    -0.6200     1.4900 O.2   1 <1>  -0.5700 
  2 C        1.8610    -0.8600     0.5300 C.2   1 <1>   0.7160 
  3 N        2.6260     0.1880     0.0290 N.am  1 <1>  -0.6600 
  4 C        1.8550    -2.2110    -0.0390 C.2   1 <1>   0.1410 
  5 C        3.3140     0.1090    -1.2980 C.3   1 <1>   0.1400 
  6 C        2.6440     1.5080     0.7300 C.3   1 <1>   0.1400 
  7 N        2.9660    -2.8350    -0.5460 N.2   1 <1>  -0.5650 
  8 C        0.7970    -3.0770    -0.1490 C.2   1 <1>  -0.3320 
  9 C        4.8000    -0.2470    -1.1450 C.3   1 <1>   0.1400 
 10 C        3.9720     2.2700     0.6200 C.3   1 <1>  -0.1600 
 11 C        2.5630    -4.0010    -0.9170 C.2   1 <1>   0.0360 
 12 N        1.2520    -4.2090    -0.7010 N.pl3 1 <1>   0.0330 
 13 C       -0.6620    -2.9050     0.2480 C.3   1 <1>  -0.0600 
 14 N        5.6060     0.8960    -0.6140 N.am  1 <1>  -0.6600 
 15 C        5.2130     1.3820     0.7370 C.3   1 <1>   0.1400 
 16 C        6.6810     1.4120    -1.3130 C.2   1 <1>   0.7160 
 17 O        6.9340     0.9860    -2.4240 O.2   1 <1>  -0.5700 
 18 C        7.5030     2.4530    -0.7520 C.2   1 <1>  -0.0860 
 19 C        8.7130     2.2390    -0.0870 C.2   1 <1>   0.2030 
 20 C        7.3450     3.8080    -0.7040 C.2   1 <1>  -0.3320 
 21 N        9.2480     3.3370     0.3470 N.2   1 <1>  -0.7070 
 22 C        9.3540     0.8730     0.1020 C.3   1 <1>  -0.0140 
 23 N        8.4030     4.3050    -0.0420 N.pl3 1 <1>   0.3000 
 24 C        6.2280     4.6590    -1.2820 C.3   1 <1>  -0.0600 
 25 C        8.6810    -0.1780     0.9340 C.3   1 <1>  -0.2000 
 26 C        9.9300     0.4800     1.4290 C.3   1 <1>  -0.2000 
 27 H        3.2170     1.0420    -1.8240 H     1 <1>   0.0800 
 28 H        2.8390    -0.6430    -1.9030 H     1 <1>   0.0800 
 29 H        2.4490     1.3470     1.7770 H     1 <1>   0.0800 
 30 H        1.8450     2.1180     0.3450 H     1 <1>   0.0800 
 31 H        5.1720    -0.5460    -2.1090 H     1 <1>   0.0800 
 32 H        4.9070    -1.0920    -0.4890 H     1 <1>   0.0800 
 33 H        3.9930     2.9890     1.4180 H     1 <1>   0.0800 
 34 H        4.0010     2.8260    -0.2990 H     1 <1>   0.0800 
 35 H        3.1950    -4.7530    -1.3580 H     1 <1>   0.1500 
 36 H        0.7230    -5.0600    -0.9120 H     1 <1>   0.2700 
 37 H       -0.8590    -1.8980     0.5680 H     1 <1>   0.0800 
 38 H       -0.9040    -3.5690     1.0590 H     1 <1>   0.0800 
 39 H       -1.3050    -3.1230    -0.5860 H     1 <1>   0.0800 
 40 H        5.0190     0.5440     1.3860 H     1 <1>   0.0800 
 41 H        6.0150     1.9500     1.1760 H     1 <1>   0.0800 
 42 H        9.8810     0.5530    -0.7800 H     1 <1>   0.1000 
 43 H        8.5900     5.2960     0.1550 H     1 <1>   0.2700 
 44 H        5.5440     4.0450    -1.8410 H     1 <1>   0.0800 
 45 H        6.6330     5.4010    -1.9460 H     1 <1>   0.0800 
 46 H        5.6860     5.1500    -0.4940 H     1 <1>   0.0800 
 47 H        8.7220    -1.1970     0.5910 H     1 <1>   0.1000 
 48 H        7.7540     0.0560     1.4250 H     1 <1>   0.1000 
 49 H        9.8700     1.1960     2.2300 H     1 <1>   0.1000 
 50 H       10.8510    -0.0750     1.4370 H     1 <1>   0.1000 
@<TRIPOS>BOND
  1   1   2  2   
  2   2   3  am  
  3   2   4  1   
  4   3   5  1   
  5   3   6  1   
  6   4   7  1   
  7   4   8  2   
  8   5   9  1   
  9   5  27  1   
 10   5  28  1   
 11   6  10  1   
 12   6  29  1   
 13   6  30  1   
 14   7  11  2   
 15   8  12  1   
 16   8  13  1   
 17   9  14  1   
 18   9  31  1   
 19   9  32  1   
 20  10  15  1   
 21  10  33  1   
 22  10  34  1   
 23  11  12  1   
 24  11  35  1   
 25  12  36  1   
 26  13  37  1   
 27  13  38  1   
 28  13  39  1   
 29  14  15  1   
 30  14  16  am  
 31  15  40  1   
 32  15  41  1   
 33  16  17  2   
 34  16  18  1   
 35  18  19  1   
 36  18  20  2   
 37  19  21  2   
 38  19  22  1   
 39  20  23  1   
 40  20  24  1   
 41  21  23  1   
 42  22  25  1   
 43  22  26  1   
 44  22  42  1   
 45  23  43  1   
 46  24  44  1   
 47  24  45  1   
 48  24  46  1   
 49  25  26  1   
 50  25  47  1   
 51  25  48  1   
 52  26  49  1   
 53  26  50  1   
@<TRIPOS>SUBSTRUCTURE
  1 ****  14 GROUP 4 **** **** 0

# MOE 2024.06 (io_trps.svl 2023.06)
