@<TRIPOS>MOLECULE
NONAME
56 58 1 0 0 
SMALL
USER_CHARGES


@<TRIPOS>ATOM
  1 F        0.4650     0.4860     1.2480 F     1 <1>  -0.1900 
  2 C        0.4740     1.7740     1.0380 C.ar  1 <1>   0.1900 
  3 C        1.3050     2.5700     1.8020 C.ar  1 <1>  -0.1500 
  4 C       -0.3490     2.2950     0.0580 C.ar  1 <1>  -0.1500 
  5 C        1.3100     3.9360     1.5740 C.ar  1 <1>  -0.1500 
  6 C       -0.3350     3.6630    -0.1620 C.ar  1 <1>  -0.1500 
  7 C        0.4920     4.4850     0.5930 C.ar  1 <1>  -0.1430 
  8 C        0.5100     5.9850     0.3470 C.3   1 <1>  -0.0160 
  9 C        1.6450     6.3450    -0.6120 C.3   1 <1>   0.1400 
 10 N        1.6410     7.8070    -0.8920 N.am  1 <1>  -0.7300 
 11 C        2.4670     8.7030    -0.2810 C.2   1 <1>   0.5690 
 12 O        3.2540     8.3630     0.5710 O.2   1 <1>  -0.5700 
 13 C        2.4350    10.1950    -0.6650 C.3   1 <1>   0.4040 
 14 N        3.6850    10.9440    -0.2640 N.4   1 <1>  -0.9590 
 15 C        3.6010    12.4300    -0.3910 C.3   1 <1>   0.3430 
 16 C        4.9070    10.5020    -0.9780 C.3   1 <1>   0.3430 
 17 C        4.9420    12.9020    -0.9650 C.3   1 <1>   0.0630 
 18 C        5.8530    11.6780    -0.8220 C.3   1 <1>  -0.1600 
 19 C        5.4030    14.2110    -0.3110 C.ar  1 <1>  -0.1430 
 20 C        4.5520    15.3180    -0.3390 C.ar  1 <1>   0.0830 
 21 C        6.6470    14.3350     0.2980 C.ar  1 <1>  -0.1500 
 22 O        3.3710    15.1760    -1.0110 O.3   1 <1>  -0.3620 
 23 C        4.9150    16.5120     0.3060 C.ar  1 <1>   0.0830 
 24 C        7.0220    15.5200     0.9020 C.ar  1 <1>  -0.1500 
 25 C        2.9640    16.1850    -1.9160 C.3   1 <1>   0.0400 
 26 O        4.0280    17.5490     0.3400 O.3   1 <1>  -0.3630 
 27 C        6.1620    16.6000     0.9140 C.ar  1 <1>  -0.1500 
 28 C        4.2850    18.7320     1.0650 C.3   1 <1>   0.0400 
 29 H        1.9300     2.1270     2.5560 H     1 <1>   0.1500 
 30 H       -0.9820     1.6430    -0.5160 H     1 <1>   0.1500 
 31 H        1.9530     4.5670     2.1630 H     1 <1>   0.1500 
 32 H       -0.9730     4.0790    -0.9220 H     1 <1>   0.1500 
 33 H        0.6520     6.4980     1.2820 H     1 <1>   0.0800 
 34 H       -0.4330     6.2920    -0.0680 H     1 <1>   0.0800 
 35 H        1.5290     5.8020    -1.5340 H     1 <1>   0.0800 
 36 H        2.5860     6.0560    -0.1730 H     1 <1>   0.0800 
 37 H        0.9440     8.0950    -1.5840 H     1 <1>   0.3700 
 38 H        1.5850    10.6390    -0.1760 H     1 <1>   0.0800 
 39 H        2.2900    10.2760    -1.7280 H     1 <1>   0.0800 
 40 H        3.8470    10.7070     0.7290 H     1 <1>   0.4500 
 41 H        3.4390    12.8790     0.5760 H     1 <1>   0.0800 
 42 H        2.8020    12.7290    -1.0490 H     1 <1>   0.0800 
 43 H        4.6920    10.3440    -2.0230 H     1 <1>   0.0800 
 44 H        5.3120     9.5960    -0.5510 H     1 <1>   0.0800 
 45 H        4.7960    13.0960    -2.0140 H     1 <1>   0.0800 
 46 H        6.6370    11.6650    -1.5580 H     1 <1>   0.0800 
 47 H        6.2860    11.6220     0.1610 H     1 <1>   0.0800 
 48 H        7.3550    13.5270     0.3150 H     1 <1>   0.1500 
 49 H        7.9890    15.6020     1.3690 H     1 <1>   0.1500 
 50 H        2.3450    15.7360    -2.6700 H     1 <1>   0.0800 
 51 H        3.8340    16.6300    -2.3680 H     1 <1>   0.0800 
 52 H        2.3990    16.9260    -1.3800 H     1 <1>   0.0800 
 53 H        6.4870    17.4980     1.4040 H     1 <1>   0.1500 
 54 H        3.4250    19.3710     0.9750 H     1 <1>   0.0800 
 55 H        5.1460    19.2200     0.6460 H     1 <1>   0.0800 
 56 H        4.4450    18.4810     2.0990 H     1 <1>   0.0800 
@<TRIPOS>BOND
  1   1   2  1   
  2   2   3  ar  
  3   2   4  ar  
  4   3   5  ar  
  5   3  29  1   
  6   4   6  ar  
  7   4  30  1   
  8   5   7  ar  
  9   5  31  1   
 10   6   7  ar  
 11   6  32  1   
 12   7   8  1   
 13   8   9  1   
 14   8  33  1   
 15   8  34  1   
 16   9  10  1   
 17   9  35  1   
 18   9  36  1   
 19  10  11  am  
 20  10  37  1   
 21  11  12  2   
 22  11  13  1   
 23  13  14  1   
 24  13  38  1   
 25  13  39  1   
 26  14  15  1   
 27  14  16  1   
 28  14  40  1   
 29  15  17  1   
 30  15  41  1   
 31  15  42  1   
 32  16  18  1   
 33  16  43  1   
 34  16  44  1   
 35  17  18  1   
 36  17  19  1   
 37  17  45  1   
 38  18  46  1   
 39  18  47  1   
 40  19  20  ar  
 41  19  21  ar  
 42  20  22  1   
 43  20  23  ar  
 44  21  24  ar  
 45  21  48  1   
 46  22  25  1   
 47  23  26  1   
 48  23  27  ar  
 49  24  27  ar  
 50  24  49  1   
 51  25  50  1   
 52  25  51  1   
 53  25  52  1   
 54  26  28  1   
 55  27  53  1   
 56  28  54  1   
 57  28  55  1   
 58  28  56  1   
@<TRIPOS>SUBSTRUCTURE
  1 ****  14 GROUP 4 **** **** 0

# MOE 2024.06 (io_trps.svl 2023.06)
