@<TRIPOS>MOLECULE
NONAME
50 52 1 0 0 
SMALL
USER_CHARGES


@<TRIPOS>ATOM
  1 O       -0.4580    -0.7780     0.9860 O.2   1 <1>  -0.5700 
  2 C       -0.4490    -1.7790     0.2960 C.2   1 <1>   0.5440 
  3 N        0.7210    -2.1330    -0.3200 N.am  1 <1>  -0.7300 
  4 C       -1.6530    -2.5600     0.1210 C.ar  1 <1>   0.0860 
  5 C        2.0030    -1.4150    -0.1840 C.3   1 <1>   0.1400 
  6 C       -2.9060    -1.9910     0.3490 C.ar  1 <1>   0.1600 
  7 C       -1.6420    -3.8970    -0.2750 C.ar  1 <1>  -0.1500 
  8 C        3.1350    -2.4350    -0.1910 C.3   1 <1>  -0.2400 
  9 N       -4.0760    -2.5920     0.2130 N.ar  1 <1>  -0.6200 
 10 C       -2.8470    -4.5400    -0.4200 C.ar  1 <1>  -0.1500 
 11 C       -4.0350    -3.8570    -0.1660 C.ar  1 <1>   0.4100 
 12 N       -5.2600    -4.4340    -0.2900 N.pl3 1 <1>  -0.8690 
 13 C       -5.5500    -5.8390     0.0840 C.3   1 <1>   0.2090 
 14 C       -5.8320    -6.6590    -1.1680 C.3   1 <1>  -0.0170 
 15 C       -6.0180    -8.1070    -0.7800 C.ar  1 <1>   0.4770 
 16 N       -7.2580    -8.4950    -0.5450 N.ar  1 <1>  -0.6200 
 17 N       -4.9170    -8.8310    -0.6980 N.ar  1 <1>  -0.6200 
 18 C       -7.4080    -9.7550    -0.2040 C.ar  1 <1>   0.1670 
 19 C       -5.0810   -10.0880    -0.3530 C.ar  1 <1>   0.1670 
 20 C       -6.3330   -10.6180    -0.0970 C.ar  1 <1>  -0.1430 
 21 C       -8.8410   -10.2030     0.0490 C.3   1 <1>  -0.0170 
 22 C       -3.8090   -10.9110    -0.2590 C.3   1 <1>  -0.0970 
 23 C       -6.5230   -12.0840     0.2940 C.3   1 <1>  -0.0170 
 24 C       -8.9350   -11.5520     0.7730 C.3   1 <1>  -0.1600 
 25 C       -7.9730   -12.5610     0.1420 C.3   1 <1>  -0.1600 
 26 H        0.7160    -2.8850    -1.0090 H     1 <1>   0.3700 
 27 H        2.0160    -0.8560     0.7380 H     1 <1>   0.0800 
 28 H        2.1140    -0.7260    -1.0040 H     1 <1>   0.0800 
 29 H       -2.9320    -0.9610     0.6640 H     1 <1>   0.1500 
 30 H       -0.7190    -4.4160    -0.4560 H     1 <1>   0.1500 
 31 H        3.0210    -3.1210     0.6300 H     1 <1>   0.0800 
 32 H        4.0760    -1.9270    -0.0810 H     1 <1>   0.0800 
 33 H        3.1490    -2.9790    -1.1190 H     1 <1>   0.0800 
 34 H       -2.8880    -5.5660    -0.7310 H     1 <1>   0.1500 
 35 H       -6.0060    -3.7720    -0.0580 H     1 <1>   0.4000 
 36 H       -6.4070    -5.8680     0.7360 H     1 <1>   0.0800 
 37 H       -4.7130    -6.2600     0.6160 H     1 <1>   0.0800 
 38 H       -5.0080    -6.5800    -1.8520 H     1 <1>   0.0800 
 39 H       -6.7200    -6.2960    -1.6510 H     1 <1>   0.0800 
 40 H       -9.3360   -10.2740    -0.9030 H     1 <1>   0.0800 
 41 H       -9.3500    -9.4530     0.6280 H     1 <1>   0.0800 
 42 H       -2.9570   -10.2640    -0.1440 H     1 <1>   0.0800 
 43 H       -3.6840   -11.4840    -1.1590 H     1 <1>   0.0800 
 44 H       -3.8410   -11.5720     0.5870 H     1 <1>   0.0800 
 45 H       -6.2230   -12.2020     1.3210 H     1 <1>   0.0800 
 46 H       -5.8940   -12.7130    -0.3110 H     1 <1>   0.0800 
 47 H       -9.9450   -11.9190     0.7190 H     1 <1>   0.0800 
 48 H       -8.6840   -11.4180     1.8110 H     1 <1>   0.0800 
 49 H       -8.0870   -13.5220     0.6120 H     1 <1>   0.0800 
 50 H       -8.2050   -12.6710    -0.9040 H     1 <1>   0.0800 
@<TRIPOS>BOND
  1   1   2  2   
  2   2   3  am  
  3   2   4  1   
  4   3   5  1   
  5   3  26  1   
  6   4   6  ar  
  7   4   7  ar  
  8   5   8  1   
  9   5  27  1   
 10   5  28  1   
 11   6   9  ar  
 12   6  29  1   
 13   7  10  ar  
 14   7  30  1   
 15   8  31  1   
 16   8  32  1   
 17   8  33  1   
 18   9  11  ar  
 19  10  11  ar  
 20  10  34  1   
 21  11  12  1   
 22  12  13  1   
 23  12  35  1   
 24  13  14  1   
 25  13  36  1   
 26  13  37  1   
 27  14  15  1   
 28  14  38  1   
 29  14  39  1   
 30  15  16  ar  
 31  15  17  ar  
 32  16  18  ar  
 33  17  19  ar  
 34  18  20  ar  
 35  18  21  1   
 36  19  20  ar  
 37  19  22  1   
 38  20  23  1   
 39  21  24  1   
 40  21  40  1   
 41  21  41  1   
 42  22  42  1   
 43  22  43  1   
 44  22  44  1   
 45  23  25  1   
 46  23  45  1   
 47  23  46  1   
 48  24  25  1   
 49  24  47  1   
 50  24  48  1   
 51  25  49  1   
 52  25  50  1   
@<TRIPOS>SUBSTRUCTURE
  1 ****  13 GROUP 4 **** **** 0

# MOE 2024.06 (io_trps.svl 2023.06)
