@<TRIPOS>MOLECULE
NONAME
47 50 1 0 0 
SMALL
USER_CHARGES


@<TRIPOS>ATOM
  1 F       -0.2430     0.3600     0.6870 F     1 <1>  -0.3400 
  2 C       -1.4890     0.4860     0.2580 C.3   1 <1>   0.6800 
  3 F       -1.4800     1.5880    -0.4820 F     1 <1>  -0.3400 
  4 C       -1.8440    -0.7010    -0.6350 C.3   1 <1>  -0.1600 
  5 C       -2.4210     0.6950     1.4470 C.3   1 <1>  -0.1600 
  6 C       -3.3100    -0.6140    -1.0550 C.3   1 <1>   0.1400 
  7 C       -3.8740     0.7320     0.9720 C.3   1 <1>   0.1400 
  8 N       -4.1500    -0.4980     0.1720 N.am  1 <1>  -0.6600 
  9 C       -5.0030    -1.4760     0.6400 C.2   1 <1>   0.5690 
 10 O       -5.5360    -1.3580     1.7220 O.2   1 <1>  -0.5700 
 11 C       -5.3070    -2.7350    -0.1940 C.3   1 <1>   0.2610 
 12 O       -4.1640    -3.5580    -0.3000 O.3   1 <1>  -0.5600 
 13 C       -6.5370    -3.5120     0.3510 C.3   1 <1>   0.3640 
 14 C       -4.3450    -4.6620    -1.1490 C.3   1 <1>   0.1810 
 15 N       -6.5680    -4.9650    -0.0330 N.am  1 <1>  -0.5090 
 16 C       -7.7920    -2.8010    -0.1510 C.ar  1 <1>  -0.1440 
 17 C       -5.5240    -5.5330    -0.7210 C.2   1 <1>   0.5690 
 18 C       -7.5170    -5.8110     0.7420 C.3   1 <1>   0.0490 
 19 C       -8.4990    -1.9640     0.7020 C.ar  1 <1>   0.1600 
 20 C       -8.2420    -2.9540    -1.4510 C.ar  1 <1>  -0.1500 
 21 O       -5.4770    -6.7060    -1.0120 O.2   1 <1>  -0.5700 
 22 C       -8.3070    -6.8620     0.0250 C.3   1 <1>  -0.2000 
 23 C       -9.0010    -5.6670     0.5890 C.3   1 <1>  -0.2000 
 24 N       -9.5880    -1.2890     0.3700 N.ar  1 <1>  -0.6200 
 25 C       -9.3740    -2.2570    -1.8110 C.ar  1 <1>  -0.1500 
 26 C      -10.0000    -1.4510    -0.8760 C.ar  1 <1>   0.1600 
 27 H       -1.2060    -0.7100    -1.4990 H     1 <1>   0.0800 
 28 H       -1.6980    -1.6140    -0.0870 H     1 <1>   0.0800 
 29 H       -2.3100    -0.1230     2.1360 H     1 <1>   0.0800 
 30 H       -2.1710     1.6090     1.9530 H     1 <1>   0.0800 
 31 H       -3.5680    -1.4800    -1.6360 H     1 <1>   0.0800 
 32 H       -3.4670     0.2550    -1.6730 H     1 <1>   0.0800 
 33 H       -4.0430     1.6000     0.3570 H     1 <1>   0.0800 
 34 H       -4.5330     0.7980     1.8220 H     1 <1>   0.0800 
 35 H       -5.5420    -2.3990    -1.1870 H     1 <1>   0.0800 
 36 H       -6.5220    -3.4830     1.4270 H     1 <1>   0.0800 
 37 H       -4.4950    -4.3110    -2.1530 H     1 <1>   0.0800 
 38 H       -3.4440    -5.2490    -1.1160 H     1 <1>   0.0800 
 39 H       -7.1290    -6.0640     1.7150 H     1 <1>   0.1000 
 40 H       -8.1500    -1.8340     1.7140 H     1 <1>   0.1500 
 41 H       -7.7420    -3.5960    -2.1550 H     1 <1>   0.1500 
 42 H       -8.1970    -6.9470    -1.0420 H     1 <1>   0.1000 
 43 H       -8.4440    -7.8150     0.5030 H     1 <1>   0.1000 
 44 H       -9.6250    -5.8060     1.4540 H     1 <1>   0.1000 
 45 H       -9.4300    -4.9760    -0.1130 H     1 <1>   0.1000 
 46 H       -9.7750    -2.3380    -2.8050 H     1 <1>   0.1500 
 47 H      -10.8860    -0.9120    -1.1670 H     1 <1>   0.1500 
@<TRIPOS>BOND
  1   1   2  1   
  2   2   3  1   
  3   2   4  1   
  4   2   5  1   
  5   4   6  1   
  6   4  27  1   
  7   4  28  1   
  8   5   7  1   
  9   5  29  1   
 10   5  30  1   
 11   6   8  1   
 12   6  31  1   
 13   6  32  1   
 14   7   8  1   
 15   7  33  1   
 16   7  34  1   
 17   8   9  am  
 18   9  10  2   
 19   9  11  1   
 20  11  12  1   
 21  11  13  1   
 22  11  35  1   
 23  12  14  1   
 24  13  15  1   
 25  13  16  1   
 26  13  36  1   
 27  14  17  1   
 28  14  37  1   
 29  14  38  1   
 30  15  17  am  
 31  15  18  1   
 32  16  19  ar  
 33  16  20  ar  
 34  17  21  2   
 35  18  22  1   
 36  18  23  1   
 37  18  39  1   
 38  19  24  ar  
 39  19  40  1   
 40  20  25  ar  
 41  20  41  1   
 42  22  23  1   
 43  22  42  1   
 44  22  43  1   
 45  23  44  1   
 46  23  45  1   
 47  24  26  ar  
 48  25  26  ar  
 49  25  46  1   
 50  26  47  1   
@<TRIPOS>SUBSTRUCTURE
  1 ****  11 GROUP 4 **** **** 0

# MOE 2024.06 (io_trps.svl 2023.06)
