@<TRIPOS>MOLECULE
NONAME
57 60 1 0 0 
SMALL
USER_CHARGES


@<TRIPOS>ATOM
  1 O        1.2450     0.2250     1.1190 O.3   1 <1>  -0.6800 
  2 C        1.6860     0.1790    -0.2020 C.3   1 <1>   0.2000 
  3 C        2.5090    -1.0890    -0.4300 C.3   1 <1>  -0.0800 
  4 C        2.7340     1.2770    -0.3970 C.3   1 <1>   0.3430 
  5 C        3.8840    -0.7590     0.1640 C.3   1 <1>   0.3430 
  6 C        1.9160    -2.4010     0.1180 C.3   1 <1>  -0.0170 
  7 N        3.9980     0.7340     0.2020 N.4   1 <1>  -0.9590 
  8 C        2.9110    -3.5360    -0.0590 C.ar  1 <1>  -0.1440 
  9 C        4.1650     1.2150     1.5990 C.3   1 <1>   0.5240 
 10 C        3.1880    -4.0750    -1.3000 C.ar  1 <1>  -0.1500 
 11 C        3.5930    -4.0830     1.0100 C.ar  1 <1>  -0.1500 
 12 C        4.4180     2.7040     1.5510 C.2   1 <1>  -0.1810 
 13 C        4.1240    -5.0900    -1.4120 C.ar  1 <1>   0.1600 
 14 C        4.5090    -5.0990     0.7900 C.ar  1 <1>   0.1600 
 15 C        3.5210     3.6820     1.9620 C.2   1 <1>   0.1390 
 16 C        5.4950     3.3940     1.1140 C.2   1 <1>  -0.3020 
 17 N        4.7980    -5.6040    -0.3970 N.ar  1 <1>  -0.6200 
 18 N        3.9890     4.8730     1.7810 N.2   1 <1>  -0.7070 
 19 N        5.2350     4.7200     1.2640 N.pl3 1 <1>   0.5930 
 20 C        6.0870     5.8050     0.9050 C.ar  1 <1>  -0.0230 
 21 C        5.5520     6.9990     0.4300 C.ar  1 <1>  -0.1500 
 22 C        7.4710     5.7030     1.0140 C.ar  1 <1>  -0.1500 
 23 C        6.3720     8.0500     0.0640 C.ar  1 <1>  -0.1500 
 24 C        8.2900     6.7550     0.6470 C.ar  1 <1>  -0.1500 
 25 C        7.7500     7.9390     0.1660 C.ar  1 <1>  -0.1440 
 26 C        8.6410     9.1110    -0.2430 C.3   1 <1>   0.0630 
 27 C        9.5680     8.7190    -1.3980 C.3   1 <1>  -0.2400 
 28 C        9.4490     9.6260     0.9530 C.3   1 <1>  -0.2400 
 29 H        0.3920    -0.2500     1.2230 H     1 <1>   0.4000 
 30 H        0.8420     0.2850    -0.8640 H     1 <1>   0.0800 
 31 H        2.6460    -1.2060    -1.4910 H     1 <1>   0.0800 
 32 H        2.4220     2.2020     0.0580 H     1 <1>   0.0800 
 33 H        2.8790     1.4380    -1.4520 H     1 <1>   0.0800 
 34 H        4.6680    -1.1990    -0.4320 H     1 <1>   0.0800 
 35 H        3.9450    -1.1590     1.1630 H     1 <1>   0.0800 
 36 H        1.0060    -2.6400    -0.4050 H     1 <1>   0.0800 
 37 H        1.6760    -2.3070     1.1630 H     1 <1>   0.0800 
 38 H        4.8090     1.0700    -0.3330 H     1 <1>   0.4500 
 39 H        3.2810     1.0050     2.1790 H     1 <1>   0.0800 
 40 H        5.0070     0.7260     2.0630 H     1 <1>   0.0800 
 41 H        2.6880    -3.7240    -2.1850 H     1 <1>   0.1500 
 42 H        3.4240    -3.7420     2.0150 H     1 <1>   0.1500 
 43 H        4.3300    -5.5010    -2.3870 H     1 <1>   0.1500 
 44 H        5.0330    -5.5190     1.6330 H     1 <1>   0.1500 
 45 H        2.5440     3.4960     2.3810 H     1 <1>   0.1500 
 46 H        6.4270     3.0500     0.7070 H     1 <1>   0.1500 
 47 H        4.4830     7.1080     0.3490 H     1 <1>   0.1500 
 48 H        7.9220     4.8040     1.3940 H     1 <1>   0.1500 
 49 H        5.9270     8.9590    -0.3010 H     1 <1>   0.1500 
 50 H        9.3570     6.6510     0.7400 H     1 <1>   0.1500 
 51 H        8.0140     9.9170    -0.5860 H     1 <1>   0.0800 
 52 H       10.2540     7.9490    -1.0950 H     1 <1>   0.0800 
 53 H       10.1330     9.5720    -1.7270 H     1 <1>   0.0800 
 54 H        8.9850     8.3540    -2.2250 H     1 <1>   0.0800 
 55 H       10.1310     8.8750     1.3070 H     1 <1>   0.0800 
 56 H        8.7830     9.8900     1.7560 H     1 <1>   0.0800 
 57 H       10.0110    10.4990     0.6740 H     1 <1>   0.0800 
@<TRIPOS>BOND
  1   1   2  1   
  2   1  29  1   
  3   2   3  1   
  4   2   4  1   
  5   2  30  1   
  6   3   5  1   
  7   3   6  1   
  8   3  31  1   
  9   4   7  1   
 10   4  32  1   
 11   4  33  1   
 12   5   7  1   
 13   5  34  1   
 14   5  35  1   
 15   6   8  1   
 16   6  36  1   
 17   6  37  1   
 18   7   9  1   
 19   7  38  1   
 20   8  10  ar  
 21   8  11  ar  
 22   9  12  1   
 23   9  39  1   
 24   9  40  1   
 25  10  13  ar  
 26  10  41  1   
 27  11  14  ar  
 28  11  42  1   
 29  12  15  1   
 30  12  16  2   
 31  13  17  ar  
 32  13  43  1   
 33  14  17  ar  
 34  14  44  1   
 35  15  18  2   
 36  15  45  1   
 37  16  19  1   
 38  16  46  1   
 39  18  19  1   
 40  19  20  1   
 41  20  21  ar  
 42  20  22  ar  
 43  21  23  ar  
 44  21  47  1   
 45  22  24  ar  
 46  22  48  1   
 47  23  25  ar  
 48  23  49  1   
 49  24  25  ar  
 50  24  50  1   
 51  25  26  1   
 52  26  27  1   
 53  26  28  1   
 54  26  51  1   
 55  27  52  1   
 56  27  53  1   
 57  27  54  1   
 58  28  55  1   
 59  28  56  1   
 60  28  57  1   
@<TRIPOS>SUBSTRUCTURE
  1 ****  12 GROUP 4 **** **** 0

# MOE 2024.06 (io_trps.svl 2023.06)
