@<TRIPOS>MOLECULE
NONAME
52 54 1 0 0 
SMALL
USER_CHARGES


@<TRIPOS>ATOM
  1 S        1.2730     1.0750     0.2710 S.o2  1 <1>   1.3330 
  2 O        0.6590     0.1440     1.1860 O.2   1 <1>  -0.6500 
  3 O        2.2060     2.0540     0.7850 O.2   1 <1>  -0.6500 
  4 N        1.9680     0.2530    -1.0340 N.am  1 <1>  -0.8490 
  5 C       -0.0380     2.0430    -0.4740 C.3   1 <1>  -0.0550 
  6 C        1.2670    -0.9910    -1.3780 C.3   1 <1>   0.1160 
  7 C        3.3930    -0.0330    -0.8230 C.3   1 <1>   0.1160 
  8 C       -1.0330     2.6520     0.5480 C.3   1 <1>  -0.0800 
  9 C       -1.7290     3.8690    -0.0510 C.3   1 <1>   0.2000 
 10 C       -0.3760     3.2280     1.8140 C.3   1 <1>   0.3430 
 11 O       -2.9460     4.0560     0.5910 O.3   1 <1>  -0.6800 
 12 C       -0.7860     5.0380     0.2680 C.3   1 <1>   0.3430 
 13 N       -0.0250     4.6470     1.5060 N.4   1 <1>  -0.9590 
 14 C        1.4520     4.8140     1.3440 C.3   1 <1>   0.5230 
 15 C        1.8070     6.2660     1.1360 C.2   1 <1>  -0.1400 
 16 S        3.3980     6.5660     0.4940 S.3   1 <1>  -0.0800 
 17 C        1.2040     7.4520     1.3140 C.2   1 <1>   0.0770 
 18 C        3.0790     8.2970     0.5190 C.2   1 <1>   0.4620 
 19 N        1.9080     8.5830     0.9660 N.2   1 <1>  -0.5650 
 20 N        4.0430     9.1790     0.0880 N.pl3 1 <1>  -0.8220 
 21 C        3.8240    10.6540     0.1700 C.3   1 <1>   0.2090 
 22 C        5.4070     8.8070    -0.4000 C.3   1 <1>   0.2090 
 23 C        4.2930    11.3520    -1.1200 C.3   1 <1>   0.1200 
 24 C        5.7770     9.6180    -1.6560 C.3   1 <1>   0.1200 
 25 O        5.6090    10.9910    -1.4390 O.3   1 <1>  -0.5600 
 26 H        0.4170     2.8170    -1.0610 H     1 <1>   0.0800 
 27 H       -0.5930     1.4210    -1.1500 H     1 <1>   0.0800 
 28 H        1.7040    -1.4300    -2.2600 H     1 <1>   0.0800 
 29 H        0.2280    -0.7940    -1.5790 H     1 <1>   0.0800 
 30 H        1.3340    -1.6990    -0.5670 H     1 <1>   0.0800 
 31 H        3.8050    -0.5290    -1.6860 H     1 <1>   0.0800 
 32 H        3.5260    -0.6630     0.0420 H     1 <1>   0.0800 
 33 H        3.9380     0.8830    -0.6720 H     1 <1>   0.0800 
 34 H       -1.7380     1.8840     0.8200 H     1 <1>   0.0800 
 35 H       -1.9280     3.7800    -1.1070 H     1 <1>   0.0800 
 36 H        0.4780     2.6590     2.1450 H     1 <1>   0.0800 
 37 H       -1.1030     3.2120     2.6100 H     1 <1>   0.0800 
 38 H       -2.8880     4.0430     1.5650 H     1 <1>   0.4000 
 39 H       -1.3420     5.9520     0.4040 H     1 <1>   0.0800 
 40 H       -0.0990     5.1690    -0.5530 H     1 <1>   0.0800 
 41 H       -0.3110     5.2440     2.2930 H     1 <1>   0.4500 
 42 H        1.9730     4.4380     2.2100 H     1 <1>   0.0800 
 43 H        1.7890     4.2550     0.4880 H     1 <1>   0.0800 
 44 H        0.2130     7.6110     1.7060 H     1 <1>   0.1500 
 45 H        2.7830    10.8740     0.3290 H     1 <1>   0.0800 
 46 H        4.3770    11.0480     1.0050 H     1 <1>   0.0800 
 47 H        6.1260     9.0130     0.3740 H     1 <1>   0.0800 
 48 H        5.4640     7.7620    -0.6380 H     1 <1>   0.0800 
 49 H        4.2650    12.4190    -0.9940 H     1 <1>   0.0800 
 50 H        3.6530    11.0840    -1.9420 H     1 <1>   0.0800 
 51 H        5.1590     9.3230    -2.4870 H     1 <1>   0.0800 
 52 H        6.8070     9.4500    -1.9140 H     1 <1>   0.0800 
@<TRIPOS>BOND
  1   1   2  2   
  2   1   3  2   
  3   1   4  am  
  4   1   5  1   
  5   4   6  1   
  6   4   7  1   
  7   5   8  1   
  8   5  26  1   
  9   5  27  1   
 10   6  28  1   
 11   6  29  1   
 12   6  30  1   
 13   7  31  1   
 14   7  32  1   
 15   7  33  1   
 16   8   9  1   
 17   8  10  1   
 18   8  34  1   
 19   9  11  1   
 20   9  12  1   
 21   9  35  1   
 22  10  13  1   
 23  10  36  1   
 24  10  37  1   
 25  11  38  1   
 26  12  13  1   
 27  12  39  1   
 28  12  40  1   
 29  13  14  1   
 30  13  41  1   
 31  14  15  1   
 32  14  42  1   
 33  14  43  1   
 34  15  16  1   
 35  15  17  2   
 36  16  18  1   
 37  17  19  1   
 38  17  44  1   
 39  18  19  2   
 40  18  20  1   
 41  20  21  1   
 42  20  22  1   
 43  21  23  1   
 44  21  45  1   
 45  21  46  1   
 46  22  24  1   
 47  22  47  1   
 48  22  48  1   
 49  23  25  1   
 50  23  49  1   
 51  23  50  1   
 52  24  25  1   
 53  24  51  1   
 54  24  52  1   
@<TRIPOS>SUBSTRUCTURE
  1 ****  14 GROUP 4 **** **** 0

# MOE 2024.06 (io_trps.svl 2023.06)
