@<TRIPOS>MOLECULE
NONAME
60 64 1 0 0 
SMALL
USER_CHARGES


@<TRIPOS>ATOM
  1 O        1.1360    -2.9060     2.0660 O.2   1 <1>  -0.5700 
  2 C        1.6220    -2.4120     1.0610 C.2   1 <1>   0.5440 
  3 N        2.2050    -3.2210     0.1140 N.am  1 <1>  -0.4200 
  4 C        1.5990    -0.9960     0.8210 C.ar  1 <1>   0.0860 
  5 C        2.7360    -2.6610    -1.0250 C.2   1 <1>   0.4500 
  6 C        2.2720    -4.7050     0.2880 C.3   1 <1>   0.2010 
  7 C        2.1690    -0.5370    -0.3730 C.ar  1 <1>   0.1790 
  8 C        1.0420    -0.0670     1.7040 C.ar  1 <1>  -0.1500 
  9 N        2.7350    -1.4090    -1.2820 N.2   1 <1>  -0.6290 
 10 C        1.6280    -5.4570    -0.8750 C.2   1 <1>   0.5690 
 11 C        2.1680     0.8250    -0.6520 C.ar  1 <1>  -0.1500 
 12 C        1.0490     1.2820     1.4140 C.ar  1 <1>  -0.1500 
 13 O        2.3850    -5.9400    -1.6860 O.2   1 <1>  -0.5700 
 14 N        0.2640    -5.5670    -1.0040 N.am  1 <1>  -0.6600 
 15 C        1.6140     1.7300     0.2300 C.ar  1 <1>  -0.1500 
 16 C       -0.3520    -6.2590    -2.1730 C.3   1 <1>   0.1400 
 17 C       -0.7430    -4.9920    -0.0660 C.3   1 <1>   0.1400 
 18 C       -1.2560    -7.3900    -1.6760 C.3   1 <1>  -0.1600 
 19 C       -1.6430    -6.1140     0.4560 C.3   1 <1>  -0.1600 
 20 C       -2.3190    -6.8840    -0.6910 C.3   1 <1>   0.4240 
 21 O       -3.1030    -5.9750    -1.4270 O.3   1 <1>  -0.5600 
 22 C       -3.1630    -8.0590    -0.1530 C.ar  1 <1>  -0.1430 
 23 C       -4.3830    -5.6940    -0.9530 C.3   1 <1>   0.1200 
 24 C       -4.5410    -8.0970    -0.3220 C.ar  1 <1>  -0.1430 
 25 C       -2.5560    -9.1100     0.5240 C.ar  1 <1>  -0.1500 
 26 C       -5.2310    -6.9590    -1.0480 C.3   1 <1>  -0.0170 
 27 C       -5.2840    -9.1580     0.1690 C.ar  1 <1>  -0.1500 
 28 C       -3.2810   -10.1810     1.0170 C.ar  1 <1>   0.0830 
 29 C       -4.6750   -10.2090     0.8500 C.ar  1 <1>   0.0830 
 30 O       -2.5340   -11.1350     1.6430 O.3   1 <1>  -0.3620 
 31 O       -5.4060   -11.2410     1.3660 O.3   1 <1>  -0.3620 
 32 C       -2.9060   -12.4950     1.6090 C.3   1 <1>   0.0400 
 33 C       -6.8160   -11.2350     1.3700 C.3   1 <1>   0.0400 
 34 H        3.1780    -3.3410    -1.7330 H     1 <1>   0.0600 
 35 H        1.8040    -5.0130     1.2040 H     1 <1>   0.0800 
 36 H        3.3060    -4.9940     0.3470 H     1 <1>   0.0800 
 37 H        0.6050    -0.4180     2.6240 H     1 <1>   0.1500 
 38 H        2.6100     1.1600    -1.5730 H     1 <1>   0.1500 
 39 H        0.6170     1.9880     2.1030 H     1 <1>   0.1500 
 40 H        1.6200     2.7820     0.0010 H     1 <1>   0.1500 
 41 H        0.4050    -6.6630    -2.8230 H     1 <1>   0.0800 
 42 H       -0.9290    -5.5480    -2.7390 H     1 <1>   0.0800 
 43 H       -1.3340    -4.2610    -0.5900 H     1 <1>   0.0800 
 44 H       -0.2750    -4.5030     0.7670 H     1 <1>   0.0800 
 45 H       -0.6350    -8.1310    -1.2090 H     1 <1>   0.0800 
 46 H       -1.7440    -7.8590    -2.5100 H     1 <1>   0.0800 
 47 H       -2.3850    -5.7110     1.1190 H     1 <1>   0.0800 
 48 H       -1.0390    -6.7870     1.0350 H     1 <1>   0.0800 
 49 H       -4.7990    -4.9150    -1.5670 H     1 <1>   0.0800 
 50 H       -4.3180    -5.3460     0.0620 H     1 <1>   0.0800 
 51 H       -1.4940    -9.1170     0.6820 H     1 <1>   0.1500 
 52 H       -5.3690    -7.2200    -2.0820 H     1 <1>   0.0800 
 53 H       -6.1960    -6.7700    -0.6150 H     1 <1>   0.0800 
 54 H       -6.3440    -9.1460     0.0110 H     1 <1>   0.1500 
 55 H       -2.0350   -13.0850     1.8280 H     1 <1>   0.0800 
 56 H       -3.2770   -12.7330     0.6280 H     1 <1>   0.0800 
 57 H       -3.6590   -12.6670     2.3550 H     1 <1>   0.0800 
 58 H       -7.1510   -12.1150     1.8890 H     1 <1>   0.0800 
 59 H       -7.1700   -11.2540     0.3550 H     1 <1>   0.0800 
 60 H       -7.1600   -10.3550     1.8850 H     1 <1>   0.0800 
@<TRIPOS>BOND
  1   1   2  2   
  2   2   3  am  
  3   2   4  1   
  4   3   5  1   
  5   3   6  1   
  6   4   7  ar  
  7   4   8  ar  
  8   5   9  2   
  9   5  34  1   
 10   6  10  1   
 11   6  35  1   
 12   6  36  1   
 13   7   9  1   
 14   7  11  ar  
 15   8  12  ar  
 16   8  37  1   
 17  10  13  2   
 18  10  14  am  
 19  11  15  ar  
 20  11  38  1   
 21  12  15  ar  
 22  12  39  1   
 23  14  16  1   
 24  14  17  1   
 25  15  40  1   
 26  16  18  1   
 27  16  41  1   
 28  16  42  1   
 29  17  19  1   
 30  17  43  1   
 31  17  44  1   
 32  18  20  1   
 33  18  45  1   
 34  18  46  1   
 35  19  20  1   
 36  19  47  1   
 37  19  48  1   
 38  20  21  1   
 39  20  22  1   
 40  21  23  1   
 41  22  24  ar  
 42  22  25  ar  
 43  23  26  1   
 44  23  49  1   
 45  23  50  1   
 46  24  26  1   
 47  24  27  ar  
 48  25  28  ar  
 49  25  51  1   
 50  26  52  1   
 51  26  53  1   
 52  27  29  ar  
 53  27  54  1   
 54  28  29  ar  
 55  28  30  1   
 56  29  31  1   
 57  30  32  1   
 58  31  33  1   
 59  32  55  1   
 60  32  56  1   
 61  32  57  1   
 62  33  58  1   
 63  33  59  1   
 64  33  60  1   
@<TRIPOS>SUBSTRUCTURE
  1 ****  17 GROUP 4 **** **** 0

# MOE 2024.06 (io_trps.svl 2023.06)
