@<TRIPOS>MOLECULE
NONAME
53 56 1 0 0 
SMALL
USER_CHARGES


@<TRIPOS>ATOM
  1 O       -4.3730     0.2120    -0.9630 O.2   1 <1>  -0.5700 
  2 C       -4.3100    -0.9860    -0.8690 C.2   1 <1>   0.5690 
  3 N       -4.3800    -1.7360    -1.9920 N.am  1 <1>  -0.7300 
  4 C       -4.1640    -1.5920     0.5100 C.3   1 <1>  -0.0990 
  5 C       -4.3920    -3.2140    -2.1470 C.3   1 <1>   0.1400 
  6 C       -2.9710    -2.5410     0.6210 C.3   1 <1>   0.1400 
  7 C       -3.1850    -3.8870    -1.4740 C.3   1 <1>   0.1400 
  8 N       -3.3100    -3.8590     0.0130 N.am  1 <1>  -0.6600 
  9 C       -3.7970    -4.8820     0.8060 C.2   1 <1>   0.5690 
 10 O       -3.8980    -4.7280     2.0040 O.2   1 <1>  -0.5700 
 11 C       -4.3040    -6.2150     0.2220 C.3   1 <1>   0.2610 
 12 O       -3.4310    -7.2840     0.5090 O.3   1 <1>  -0.5600 
 13 C       -5.7400    -6.4800     0.7290 C.3   1 <1>   0.3640 
 14 C       -3.8270    -8.5020    -0.0700 C.3   1 <1>   0.1810 
 15 N       -6.1740    -7.9130     0.6090 N.am  1 <1>  -0.5090 
 16 C       -6.6450    -5.5380    -0.0670 C.ar  1 <1>  -0.1440 
 17 C       -5.2650    -8.8900     0.2810 C.2   1 <1>   0.5690 
 18 C       -7.4250    -8.2610     1.3370 C.3   1 <1>   0.0490 
 19 C       -7.0450    -4.3350     0.4970 C.ar  1 <1>  -0.1500 
 20 C       -7.0310    -5.8350    -1.3690 C.ar  1 <1>  -0.1500 
 21 O       -5.5390   -10.0680     0.2530 O.2   1 <1>  -0.5700 
 22 C       -8.4000    -9.1970     0.6920 C.3   1 <1>  -0.2000 
 23 C       -8.7650    -7.7620     0.8850 C.3   1 <1>  -0.2000 
 24 C       -7.7950    -3.4280    -0.2310 C.ar  1 <1>  -0.1500 
 25 C       -7.7850    -4.9320    -2.0970 C.ar  1 <1>  -0.1500 
 26 C       -8.1590    -3.7200    -1.5420 C.ar  1 <1>   0.0820 
 27 O       -8.8630    -2.8760    -2.3340 O.3   1 <1>  -0.3620 
 28 C       -9.1500    -1.5570    -1.9230 C.3   1 <1>   0.0400 
 29 H       -4.5260    -1.1960    -2.8480 H     1 <1>   0.3700 
 30 H       -4.0170    -0.7880     1.2070 H     1 <1>   0.0800 
 31 H       -5.0710    -2.0960     0.7860 H     1 <1>   0.0800 
 32 H       -5.3060    -3.6090    -1.7430 H     1 <1>   0.0800 
 33 H       -4.3720    -3.4410    -3.1980 H     1 <1>   0.0800 
 34 H       -2.7220    -2.6730     1.6600 H     1 <1>   0.0800 
 35 H       -2.1090    -2.1160     0.1360 H     1 <1>   0.0800 
 36 H       -2.2840    -3.3790    -1.7720 H     1 <1>   0.0800 
 37 H       -3.0940    -4.8980    -1.8230 H     1 <1>   0.0800 
 38 H       -4.3490    -6.1390    -0.8440 H     1 <1>   0.0800 
 39 H       -5.7960    -6.2210     1.7720 H     1 <1>   0.0800 
 40 H       -3.7220    -8.4280    -1.1370 H     1 <1>   0.0800 
 41 H       -3.1600    -9.2640     0.2900 H     1 <1>   0.0800 
 42 H       -7.2560    -8.3750     2.3950 H     1 <1>   0.1000 
 43 H       -6.7620    -4.0900     1.5080 H     1 <1>   0.1500 
 44 H       -6.7510    -6.7710    -1.8210 H     1 <1>   0.1500 
 45 H       -8.1860    -9.5540    -0.3010 H     1 <1>   0.1000 
 46 H       -8.8780    -9.9400     1.3040 H     1 <1>   0.1000 
 47 H       -9.5040    -7.5250     1.6290 H     1 <1>   0.1000 
 48 H       -8.8730    -7.1640     0.0000 H     1 <1>   0.1000 
 49 H       -8.0820    -2.5040     0.2340 H     1 <1>   0.1500 
 50 H       -8.0880    -5.1600    -3.1030 H     1 <1>   0.1500 
 51 H       -9.6560    -1.0580    -2.7300 H     1 <1>   0.0800 
 52 H       -8.2270    -1.0500    -1.7020 H     1 <1>   0.0800 
 53 H       -9.7890    -1.5910    -1.0580 H     1 <1>   0.0800 
@<TRIPOS>BOND
  1   1   2  2   
  2   2   3  am  
  3   2   4  1   
  4   3   5  1   
  5   3  29  1   
  6   4   6  1   
  7   4  30  1   
  8   4  31  1   
  9   5   7  1   
 10   5  32  1   
 11   5  33  1   
 12   6   8  1   
 13   6  34  1   
 14   6  35  1   
 15   7   8  1   
 16   7  36  1   
 17   7  37  1   
 18   8   9  am  
 19   9  10  2   
 20   9  11  1   
 21  11  12  1   
 22  11  13  1   
 23  11  38  1   
 24  12  14  1   
 25  13  15  1   
 26  13  16  1   
 27  13  39  1   
 28  14  17  1   
 29  14  40  1   
 30  14  41  1   
 31  15  17  am  
 32  15  18  1   
 33  16  19  ar  
 34  16  20  ar  
 35  17  21  2   
 36  18  22  1   
 37  18  23  1   
 38  18  42  1   
 39  19  24  ar  
 40  19  43  1   
 41  20  25  ar  
 42  20  44  1   
 43  22  23  1   
 44  22  45  1   
 45  22  46  1   
 46  23  47  1   
 47  23  48  1   
 48  24  26  ar  
 49  24  49  1   
 50  25  26  ar  
 51  25  50  1   
 52  26  27  1   
 53  27  28  1   
 54  28  51  1   
 55  28  52  1   
 56  28  53  1   
@<TRIPOS>SUBSTRUCTURE
  1 ****  16 GROUP 4 **** **** 0

# MOE 2024.06 (io_trps.svl 2023.06)
