@<TRIPOS>MOLECULE
NONAME
45 48 1 0 0 
SMALL
USER_CHARGES


@<TRIPOS>ATOM
  1 O       -0.4090     0.2710     0.9480 O.2   1 <1>  -0.5700 
  2 C       -1.4150     0.8870     0.6530 C.2   1 <1>   0.5440 
  3 N       -2.5450     0.1760     0.3160 N.am  1 <1>  -0.6600 
  4 C       -1.3970     2.3350     0.6460 C.ar  1 <1>   0.0860 
  5 C       -3.7540     0.7350    -0.3440 C.3   1 <1>   0.1400 
  6 C       -2.5620    -1.3080     0.2300 C.3   1 <1>   0.1400 
  7 C       -0.4700     3.0260    -0.1400 C.ar  1 <1>  -0.1500 
  8 C       -2.2930     3.0830     1.4220 C.ar  1 <1>  -0.1500 
  9 C       -4.7410    -0.4290    -0.3660 C.3   1 <1>   0.2000 
 10 C       -3.8400    -1.6530    -0.5440 C.3   1 <1>  -0.0800 
 11 C       -0.4690     4.4060    -0.1550 C.ar  1 <1>  -0.1440 
 12 C       -2.2900     4.4680     1.4040 C.ar  1 <1>  -0.1500 
 13 O       -5.3590    -0.4850     0.8760 O.3   1 <1>  -0.6800 
 14 C       -4.4640    -3.0020    -0.1440 C.3   1 <1>   0.0210 
 15 C       -1.3660     5.1110     0.6020 C.ar  1 <1>   0.0830 
 16 C        0.3990     5.3790    -0.8960 C.3   1 <1>  -0.0170 
 17 C       -3.4860    -4.1360    -0.3750 C.2   1 <1>   0.1080 
 18 O       -1.2320     6.4360     0.4730 O.3   1 <1>  -0.3630 
 19 C       -0.1640     6.7310    -0.4180 C.3   1 <1>   0.1200 
 20 N       -3.0640    -4.4720    -1.5540 N.2   1 <1>  -0.7070 
 21 C       -2.9280    -4.9230     0.6270 C.2   1 <1>  -0.1500 
 22 N       -2.2170    -5.4950    -1.3340 N.pl3 1 <1>   0.3000 
 23 C       -2.1160    -5.7860    -0.0200 C.2   1 <1>  -0.3320 
 24 C       -1.2370    -6.8860     0.5450 C.3   1 <1>  -0.0600 
 25 H       -4.1570     1.5820     0.1830 H     1 <1>   0.0800 
 26 H       -3.5010     1.0220    -1.3500 H     1 <1>   0.0800 
 27 H       -1.6870    -1.6760    -0.2810 H     1 <1>   0.0800 
 28 H       -2.5860    -1.7170     1.2250 H     1 <1>   0.0800 
 29 H        0.2390     2.4700    -0.7280 H     1 <1>   0.1500 
 30 H       -2.9960     2.5630     2.0480 H     1 <1>   0.1500 
 31 H       -5.4970    -0.3360    -1.1260 H     1 <1>   0.0800 
 32 H       -3.5720    -1.7110    -1.5850 H     1 <1>   0.0800 
 33 H       -2.9770     5.0450     1.9950 H     1 <1>   0.1500 
 34 H       -4.6640    -0.4390     1.5640 H     1 <1>   0.4000 
 35 H       -5.3440    -3.1810    -0.7360 H     1 <1>   0.0800 
 36 H       -4.7560    -2.9950     0.8910 H     1 <1>   0.0800 
 37 H        0.2900     5.2710    -1.9590 H     1 <1>   0.0800 
 38 H        1.4320     5.2730    -0.6190 H     1 <1>   0.0800 
 39 H       -0.5580     7.3090    -1.2350 H     1 <1>   0.0800 
 40 H        0.5730     7.2980     0.1220 H     1 <1>   0.0800 
 41 H       -3.1190    -4.8390     1.6820 H     1 <1>   0.1500 
 42 H       -1.7250    -5.9710    -2.0990 H     1 <1>   0.2700 
 43 H       -1.3290    -6.9190     1.6160 H     1 <1>   0.0800 
 44 H       -0.2070    -6.7040     0.2960 H     1 <1>   0.0800 
 45 H       -1.5320    -7.8400     0.1460 H     1 <1>   0.0800 
@<TRIPOS>BOND
  1   1   2  2   
  2   2   3  am  
  3   2   4  1   
  4   3   5  1   
  5   3   6  1   
  6   4   7  ar  
  7   4   8  ar  
  8   5   9  1   
  9   5  25  1   
 10   5  26  1   
 11   6  10  1   
 12   6  27  1   
 13   6  28  1   
 14   7  11  ar  
 15   7  29  1   
 16   8  12  ar  
 17   8  30  1   
 18   9  10  1   
 19   9  13  1   
 20   9  31  1   
 21  10  14  1   
 22  10  32  1   
 23  11  15  ar  
 24  11  16  1   
 25  12  15  ar  
 26  12  33  1   
 27  13  34  1   
 28  14  17  1   
 29  14  35  1   
 30  14  36  1   
 31  15  18  1   
 32  16  19  1   
 33  16  37  1   
 34  16  38  1   
 35  17  20  2   
 36  17  21  1   
 37  18  19  1   
 38  19  39  1   
 39  19  40  1   
 40  20  22  1   
 41  21  23  2   
 42  21  41  1   
 43  22  23  1   
 44  22  42  1   
 45  23  24  1   
 46  24  43  1   
 47  24  44  1   
 48  24  45  1   
@<TRIPOS>SUBSTRUCTURE
  1 ****   3 GROUP 4 **** **** 0

# MOE 2024.06 (io_trps.svl 2023.06)
