@<TRIPOS>MOLECULE
NONAME
61 64 1 0 0 
SMALL
USER_CHARGES


@<TRIPOS>ATOM
  1 O       -0.7420     0.4700    -0.6840 O.2   1 <1>  -0.5700 
  2 C       -1.7510     0.9420    -0.2060 C.2   1 <1>   0.5690 
  3 N       -2.7790     0.0800     0.1200 N.am  1 <1>  -0.6600 
  4 C       -1.8210     2.4950    -0.0350 C.3   1 <1>   0.2040 
  5 C       -4.2330     0.3770     0.2320 C.3   1 <1>   0.1400 
  6 C       -2.5780    -1.3930     0.0450 C.3   1 <1>   0.1400 
  7 C       -0.4070     3.1010     0.2020 C.ar  1 <1>  -0.1440 
  8 C       -2.6760     2.9940     1.1650 C.3   1 <1>  -0.1600 
  9 C       -2.5360     3.0810    -1.2780 C.3   1 <1>  -0.1600 
 10 C       -4.9330    -0.9420    -0.0840 C.3   1 <1>   0.2000 
 11 C       -3.9420    -2.0200     0.3340 C.3   1 <1>  -0.0800 
 12 C        0.0470     4.2660    -0.4150 C.ar  1 <1>  -0.1500 
 13 C        0.4440     2.4820     1.1130 C.ar  1 <1>  -0.1500 
 14 C       -3.8550     3.7970     0.6040 C.3   1 <1>  -0.1600 
 15 C       -3.4050     4.2370    -0.7830 C.3   1 <1>  -0.1600 
 16 O       -6.1190    -1.0730     0.6200 O.3   1 <1>  -0.6800 
 17 C       -4.1650    -3.3620    -0.3770 C.3   1 <1>   0.0210 
 18 C        1.3030     4.7840    -0.1480 C.ar  1 <1>   0.0830 
 19 C        1.7080     2.9800     1.3780 C.ar  1 <1>  -0.1500 
 20 C       -3.1010    -4.3660     0.0190 C.2   1 <1>   0.1080 
 21 O        1.6450     5.9410    -0.7690 O.3   1 <1>  -0.3630 
 22 C        2.1550     4.1200     0.7380 C.ar  1 <1>   0.0830 
 23 N       -2.9670    -4.8060     1.2320 N.2   1 <1>  -0.7070 
 24 C       -2.1580    -4.9120    -0.8460 C.2   1 <1>  -0.1500 
 25 C        1.8430     7.0630     0.0630 C.3   1 <1>   0.0400 
 26 O        3.4180     4.5370     1.0010 O.3   1 <1>  -0.3630 
 27 N       -1.9260    -5.6570     1.1710 N.pl3 1 <1>   0.3000 
 28 C       -1.4180    -5.7370    -0.0770 C.2   1 <1>  -0.3320 
 29 C        4.3320     4.4370    -0.0690 C.3   1 <1>   0.0400 
 30 C       -0.2370    -6.6090    -0.4630 C.3   1 <1>  -0.0600 
 31 H       -4.4610     0.6780     1.2390 H     1 <1>   0.0800 
 32 H       -4.5350     1.1320    -0.4680 H     1 <1>   0.0800 
 33 H       -2.2390    -1.6510    -0.9440 H     1 <1>   0.0800 
 34 H       -1.8400    -1.7150     0.7620 H     1 <1>   0.0800 
 35 H       -2.9940     2.1990     1.8110 H     1 <1>   0.0800 
 36 H       -2.0930     3.6640     1.7750 H     1 <1>   0.0800 
 37 H       -1.8550     3.3680    -2.0580 H     1 <1>   0.0800 
 38 H       -3.1850     2.3370    -1.7030 H     1 <1>   0.0800 
 39 H       -5.1530    -0.9930    -1.1370 H     1 <1>   0.0800 
 40 H       -3.9990    -2.1720     1.3990 H     1 <1>   0.0800 
 41 H       -0.5580     4.8140    -1.1090 H     1 <1>   0.1500 
 42 H        0.1300     1.5890     1.6250 H     1 <1>   0.1500 
 43 H       -4.7270     3.1730     0.5220 H     1 <1>   0.0800 
 44 H       -4.0950     4.6420     1.2280 H     1 <1>   0.0800 
 45 H       -2.8130     5.1320    -0.6990 H     1 <1>   0.0800 
 46 H       -4.2380     4.4280    -1.4380 H     1 <1>   0.0800 
 47 H       -5.9350    -1.2490     1.5630 H     1 <1>   0.4000 
 48 H       -4.1480    -3.2250    -1.4430 H     1 <1>   0.0800 
 49 H       -5.1270    -3.7570    -0.1060 H     1 <1>   0.0800 
 50 H        2.3550     2.4790     2.0740 H     1 <1>   0.1500 
 51 H       -2.0620    -4.7030    -1.8960 H     1 <1>   0.1500 
 52 H        1.9790     7.9260    -0.5630 H     1 <1>   0.0800 
 53 H        2.7170     6.9080     0.6680 H     1 <1>   0.0800 
 54 H        0.9750     7.1900     0.6850 H     1 <1>   0.0800 
 55 H       -1.5880    -6.1670     1.9960 H     1 <1>   0.2700 
 56 H        5.3050     4.7160     0.2920 H     1 <1>   0.0800 
 57 H        4.0280     5.0990    -0.8590 H     1 <1>   0.0800 
 58 H        4.3450     3.4200    -0.4190 H     1 <1>   0.0800 
 59 H       -0.0240    -6.4990    -1.5110 H     1 <1>   0.0800 
 60 H       -0.4570    -7.6430    -0.2640 H     1 <1>   0.0800 
 61 H        0.6360    -6.3210     0.0950 H     1 <1>   0.0800 
@<TRIPOS>BOND
  1   1   2  2   
  2   2   3  am  
  3   2   4  1   
  4   3   5  1   
  5   3   6  1   
  6   4   7  1   
  7   4   8  1   
  8   4   9  1   
  9   5  10  1   
 10   5  31  1   
 11   5  32  1   
 12   6  11  1   
 13   6  33  1   
 14   6  34  1   
 15   7  12  ar  
 16   7  13  ar  
 17   8  14  1   
 18   8  35  1   
 19   8  36  1   
 20   9  15  1   
 21   9  37  1   
 22   9  38  1   
 23  10  11  1   
 24  10  16  1   
 25  10  39  1   
 26  11  17  1   
 27  11  40  1   
 28  12  18  ar  
 29  12  41  1   
 30  13  19  ar  
 31  13  42  1   
 32  14  15  1   
 33  14  43  1   
 34  14  44  1   
 35  15  45  1   
 36  15  46  1   
 37  16  47  1   
 38  17  20  1   
 39  17  48  1   
 40  17  49  1   
 41  18  21  1   
 42  18  22  ar  
 43  19  22  ar  
 44  19  50  1   
 45  20  23  2   
 46  20  24  1   
 47  21  25  1   
 48  22  26  1   
 49  23  27  1   
 50  24  28  2   
 51  24  51  1   
 52  25  52  1   
 53  25  53  1   
 54  25  54  1   
 55  26  29  1   
 56  27  28  1   
 57  27  55  1   
 58  28  30  1   
 59  29  56  1   
 60  29  57  1   
 61  29  58  1   
 62  30  59  1   
 63  30  60  1   
 64  30  61  1   
@<TRIPOS>SUBSTRUCTURE
  1 ****   2 GROUP 4 **** **** 0

# MOE 2024.06 (io_trps.svl 2023.06)
