@<TRIPOS>MOLECULE
NONAME
52 55 1 0 0 
SMALL
USER_CHARGES


@<TRIPOS>ATOM
  1 O       -2.3200     1.9570    -2.9550 O.2   1 <1>  -0.5700 
  2 C       -1.6280     2.1910    -1.9770 C.2   1 <1>   0.7150 
  3 N       -1.7740     1.3620    -0.8750 N.am  1 <1>  -0.6600 
  4 C       -0.7070     3.3090    -2.0380 C.2   1 <1>   0.0550 
  5 C       -2.4080     0.0170    -1.0420 C.3   1 <1>   0.1400 
  6 C       -1.3590     1.7660     0.5020 C.3   1 <1>   0.1400 
  7 O        0.2900     3.4690    -1.1630 O.3   1 <1>  -0.2800 
  8 C       -0.6480     4.3330    -2.9380 C.2   1 <1>  -0.1500 
  9 C       -3.9280     0.0770    -0.8330 C.3   1 <1>   0.1400 
 10 C       -2.3100     1.3000     1.6130 C.3   1 <1>  -0.1600 
 11 C        0.9590     4.5560    -1.4810 C.2   1 <1>   0.2030 
 12 C        0.4280     5.1430    -2.5760 C.2   1 <1>  -0.1500 
 13 N       -4.2930     0.2170     0.6120 N.am  1 <1>  -0.6600 
 14 C       -3.7940     1.4580     1.2690 C.3   1 <1>   0.1400 
 15 O        2.0170     4.9660    -0.7430 O.3   1 <1>  -0.1460 
 16 C       -5.0670    -0.6890     1.3110 C.2   1 <1>   0.5690 
 17 C        2.5950     4.1810     0.2020 C.ar  1 <1>   0.0820 
 18 O       -5.3180    -0.5040     2.4840 O.2   1 <1>  -0.5700 
 19 C       -5.6100    -1.9780     0.6360 C.3   1 <1>   0.2610 
 20 C        2.9120     4.7540     1.4240 C.ar  1 <1>  -0.1500 
 21 C        2.8940     2.8430    -0.0320 C.ar  1 <1>  -0.1500 
 22 O       -6.4960    -1.6760    -0.4090 O.3   1 <1>  -0.5600 
 23 C       -6.4460    -2.8970     1.5300 C.3   1 <1>  -0.1600 
 24 C        3.5110     3.9940     2.4140 C.ar  1 <1>  -0.1500 
 25 C        3.4920     2.0840     0.9590 C.ar  1 <1>  -0.1500 
 26 C       -7.7800    -1.4980     0.1000 C.3   1 <1>   0.1200 
 27 C       -7.8610    -2.3660     1.3540 C.3   1 <1>  -0.1600 
 28 C        3.7990     2.6590     2.1820 C.ar  1 <1>  -0.1500 
 29 H       -2.2160    -0.3360    -2.0410 H     1 <1>   0.0800 
 30 H       -1.9680    -0.6920    -0.3630 H     1 <1>   0.0800 
 31 H       -0.3660     1.3960     0.6950 H     1 <1>   0.0800 
 32 H       -1.3210     2.8410     0.5490 H     1 <1>   0.0800 
 33 H       -1.3030     4.4930    -3.7770 H     1 <1>   0.1500 
 34 H       -4.3520    -0.8170    -1.2470 H     1 <1>   0.0800 
 35 H       -4.3340     0.9040    -1.3900 H     1 <1>   0.0800 
 36 H       -2.1010     0.2810     1.8850 H     1 <1>   0.0800 
 37 H       -2.1010     1.8980     2.4810 H     1 <1>   0.0800 
 38 H        0.7520     6.0390    -3.0720 H     1 <1>   0.1500 
 39 H       -3.9510     2.3050     0.6230 H     1 <1>   0.0800 
 40 H       -4.3480     1.6380     2.1750 H     1 <1>   0.0800 
 41 H       -4.7810    -2.5220     0.2240 H     1 <1>   0.0800 
 42 H        2.6880     5.7910     1.5970 H     1 <1>   0.1500 
 43 H        2.6660     2.3990    -0.9840 H     1 <1>   0.1500 
 44 H       -6.3810    -3.9010     1.1500 H     1 <1>   0.0800 
 45 H       -6.1220    -2.8930     2.5560 H     1 <1>   0.0800 
 46 H        3.7550     4.4400     3.3630 H     1 <1>   0.1500 
 47 H        3.7220     1.0480     0.7790 H     1 <1>   0.1500 
 48 H       -7.9040    -0.4550     0.3410 H     1 <1>   0.0800 
 49 H       -8.4930    -1.7930    -0.6500 H     1 <1>   0.0800 
 50 H       -8.1520    -1.7590     2.1940 H     1 <1>   0.0800 
 51 H       -8.5720    -3.1640     1.2320 H     1 <1>   0.0800 
 52 H        4.2650     2.0680     2.9520 H     1 <1>   0.1500 
@<TRIPOS>BOND
  1   1   2  2   
  2   2   3  am  
  3   2   4  1   
  4   3   5  1   
  5   3   6  1   
  6   4   7  1   
  7   4   8  2   
  8   5   9  1   
  9   5  29  1   
 10   5  30  1   
 11   6  10  1   
 12   6  31  1   
 13   6  32  1   
 14   7  11  1   
 15   8  12  1   
 16   8  33  1   
 17   9  13  1   
 18   9  34  1   
 19   9  35  1   
 20  10  14  1   
 21  10  36  1   
 22  10  37  1   
 23  11  12  2   
 24  11  15  1   
 25  12  38  1   
 26  13  14  1   
 27  13  16  am  
 28  14  39  1   
 29  14  40  1   
 30  15  17  1   
 31  16  18  2   
 32  16  19  1   
 33  17  20  ar  
 34  17  21  ar  
 35  19  22  1   
 36  19  23  1   
 37  19  41  1   
 38  20  24  ar  
 39  20  42  1   
 40  21  25  ar  
 41  21  43  1   
 42  22  26  1   
 43  23  27  1   
 44  23  44  1   
 45  23  45  1   
 46  24  28  ar  
 47  24  46  1   
 48  25  28  ar  
 49  25  47  1   
 50  26  27  1   
 51  26  48  1   
 52  26  49  1   
 53  27  50  1   
 54  27  51  1   
 55  28  52  1   
@<TRIPOS>SUBSTRUCTURE
  1 ****   6 GROUP 4 **** **** 0

# MOE 2024.06 (io_trps.svl 2023.06)
