@<TRIPOS>MOLECULE
NONAME
47 48 1 0 0 
SMALL
USER_CHARGES


@<TRIPOS>ATOM
  1 S       -0.3310     0.6870    -0.9570 S.o2  1 <1>   1.3330 
  2 O       -1.1800    -0.4060    -1.3590 O.2   1 <1>  -0.6500 
  3 O       -0.1430     1.8360    -1.8130 O.2   1 <1>  -0.6500 
  4 N        1.2090     0.0620    -0.6070 N.am  1 <1>  -0.8490 
  5 C       -0.8850     1.3160     0.6360 C.3   1 <1>  -0.0550 
  6 C        1.1570    -1.2700     0.0200 C.3   1 <1>   0.1160 
  7 C        2.0340    -0.0380    -1.8210 C.3   1 <1>   0.1160 
  8 C       -0.3310     2.6990     1.0630 C.3   1 <1>  -0.0800 
  9 C       -0.8880     3.8630     0.2240 C.3   1 <1>   0.2000 
 10 C        1.2030     2.8300     0.9850 C.3   1 <1>   0.3430 
 11 O       -1.4180     4.8080     1.0960 O.3   1 <1>  -0.6800 
 12 C        0.3350     4.4720    -0.4730 C.3   1 <1>   0.3430 
 13 N        1.4930     4.1750     0.4210 N.4   1 <1>  -0.9590 
 14 C        1.6320     5.2140     1.4810 C.3   1 <1>   0.4860 
 15 C        2.0500     6.5180     0.8310 C.ar  1 <1>  -0.1440 
 16 C        1.1180     7.5310     0.6530 C.ar  1 <1>  -0.1500 
 17 C        3.3590     6.7120     0.4100 C.ar  1 <1>  -0.1500 
 18 C        1.4900     8.7190     0.0510 C.ar  1 <1>  -0.1500 
 19 C        3.7300     7.9020    -0.1930 C.ar  1 <1>  -0.1500 
 20 C        2.7930     8.9140    -0.3770 C.ar  1 <1>   0.0820 
 21 O        3.0710    10.1060    -0.9580 O.3   1 <1>  -0.3620 
 22 C        4.3740    10.4310    -1.3900 C.3   1 <1>   0.0400 
 23 H       -1.9560     1.3850     0.6130 H     1 <1>   0.0800 
 24 H       -0.6450     0.5960     1.3940 H     1 <1>   0.0800 
 25 H        2.1500    -1.6000     0.2740 H     1 <1>   0.0800 
 26 H        0.7160    -1.9890    -0.6530 H     1 <1>   0.0800 
 27 H        0.5700    -1.2440     0.9210 H     1 <1>   0.0800 
 28 H        3.0070    -0.4330    -1.5820 H     1 <1>   0.0800 
 29 H        2.1650     0.9330    -2.2670 H     1 <1>   0.0800 
 30 H        1.5620    -0.6850    -2.5440 H     1 <1>   0.0800 
 31 H       -0.6130     2.8390     2.0930 H     1 <1>   0.0800 
 32 H       -1.6490     3.5850    -0.4870 H     1 <1>   0.0800 
 33 H        1.6090     2.0890     0.3190 H     1 <1>   0.0800 
 34 H        1.6580     2.7020     1.9540 H     1 <1>   0.0800 
 35 H       -2.3500     4.6000     1.3230 H     1 <1>   0.4000 
 36 H        0.2050     5.5280    -0.6470 H     1 <1>   0.0800 
 37 H        0.4820     3.9810    -1.4210 H     1 <1>   0.0800 
 38 H        2.3550     4.1790    -0.1370 H     1 <1>   0.4500 
 39 H        0.6990     5.3480     2.0040 H     1 <1>   0.0800 
 40 H        2.3840     4.9190     2.1950 H     1 <1>   0.0800 
 41 H        0.0980     7.4070     0.9800 H     1 <1>   0.1500 
 42 H        4.1030     5.9470     0.5480 H     1 <1>   0.1500 
 43 H        0.7740     9.5090    -0.0910 H     1 <1>   0.1500 
 44 H        4.7480     8.0270    -0.5110 H     1 <1>   0.1500 
 45 H        4.3520    11.4250    -1.7980 H     1 <1>   0.0800 
 46 H        4.6750     9.7310    -2.1490 H     1 <1>   0.0800 
 47 H        5.0400    10.3970    -0.5460 H     1 <1>   0.0800 
@<TRIPOS>BOND
  1   1   2  2   
  2   1   3  2   
  3   1   4  am  
  4   1   5  1   
  5   4   6  1   
  6   4   7  1   
  7   5   8  1   
  8   5  23  1   
  9   5  24  1   
 10   6  25  1   
 11   6  26  1   
 12   6  27  1   
 13   7  28  1   
 14   7  29  1   
 15   7  30  1   
 16   8   9  1   
 17   8  10  1   
 18   8  31  1   
 19   9  11  1   
 20   9  12  1   
 21   9  32  1   
 22  10  13  1   
 23  10  33  1   
 24  10  34  1   
 25  11  35  1   
 26  12  13  1   
 27  12  36  1   
 28  12  37  1   
 29  13  14  1   
 30  13  38  1   
 31  14  15  1   
 32  14  39  1   
 33  14  40  1   
 34  15  16  ar  
 35  15  17  ar  
 36  16  18  ar  
 37  16  41  1   
 38  17  19  ar  
 39  17  42  1   
 40  18  20  ar  
 41  18  43  1   
 42  19  20  ar  
 43  19  44  1   
 44  20  21  1   
 45  21  22  1   
 46  22  45  1   
 47  22  46  1   
 48  22  47  1   
@<TRIPOS>SUBSTRUCTURE
  1 ****  13 GROUP 4 **** **** 0

# MOE 2024.06 (io_trps.svl 2023.06)
