@<TRIPOS>MOLECULE
NONAME
52 55 1 0 0 
SMALL
USER_CHARGES


@<TRIPOS>ATOM
  1 O        4.1210    -1.5910     2.2400 O.2   1 <1>  -0.5700 
  2 C        3.3300    -1.6200     1.3160 C.2   1 <1>   0.5440 
  3 N        3.3170    -0.5340     0.4710 N.am  1 <1>  -0.6600 
  4 C        2.4990    -2.7850     1.0760 C.ar  1 <1>   0.0860 
  5 C        3.6960     0.8240     1.0210 C.3   1 <1>   0.2200 
  6 C        3.3910    -0.7620    -1.0040 C.3   1 <1>   0.1400 
  7 C        1.2500    -2.6810     0.4820 C.ar  1 <1>  -0.1500 
  8 C        2.9550    -4.0710     1.4370 C.ar  1 <1>  -0.1500 
  9 C        3.0210     1.9740     0.2570 C.3   1 <1>   0.1200 
 10 C        5.2310     1.0190     1.0800 C.3   1 <1>   0.3430 
 11 C        4.3480     0.1850    -1.7520 C.3   1 <1>  -0.0800 
 12 C        0.4820    -3.8150     0.2200 C.ar  1 <1>   0.0000 
 13 C        2.2130    -5.2010     1.1920 C.ar  1 <1>  -0.1500 
 14 O        3.7850     2.3690    -0.8420 O.3   1 <1>  -0.5600 
 15 N        5.9540     0.0010     0.2510 N.4   1 <1>  -0.9590 
 16 C        3.7220     1.5710    -1.9760 C.3   1 <1>   0.1200 
 17 C        5.7960     0.2620    -1.2160 C.3   1 <1>   0.3430 
 18 C        0.9690    -5.0670     0.5720 C.ar  1 <1>  -0.1520 
 19 C       -0.7870    -4.0290    -0.3670 C.2   1 <1>  -0.1810 
 20 C        7.4300     0.0430     0.6130 C.3   1 <1>   0.2370 
 21 N        0.0410    -6.0050     0.2120 N.pl3 1 <1>   0.0330 
 22 C       -1.0240    -5.3640    -0.3590 C.2   1 <1>  -0.3320 
 23 C       -1.6590    -2.9000    -0.8830 C.3   1 <1>  -0.0590 
 24 C        8.1320     1.3620     0.2730 C.2   1 <1>   0.9060 
 25 C       -2.2220    -6.1530    -0.8610 C.3   1 <1>  -0.0600 
 26 O        8.1130     2.2620     1.1160 O.co2 1 <1>  -0.9000 
 27 O        8.5690     1.5010    -0.8740 O.co2 1 <1>  -0.9000 
 28 H        3.3290     0.8760     2.0310 H     1 <1>   0.0800 
 29 H        3.7110    -1.7760    -1.1820 H     1 <1>   0.0800 
 30 H        2.4010    -0.6660    -1.4170 H     1 <1>   0.0800 
 31 H        0.8490    -1.7220     0.2160 H     1 <1>   0.1500 
 32 H        3.9140    -4.1570     1.9190 H     1 <1>   0.1500 
 33 H        2.9600     2.8310     0.9040 H     1 <1>   0.0800 
 34 H        2.0250     1.7150    -0.0580 H     1 <1>   0.0800 
 35 H        5.5420     0.9180     2.1060 H     1 <1>   0.0800 
 36 H        5.4980     2.0160     0.7640 H     1 <1>   0.0800 
 37 H        4.4350    -0.2230    -2.7430 H     1 <1>   0.0800 
 38 H        2.5710    -6.1760     1.4700 H     1 <1>   0.1500 
 39 H        5.5330    -0.9020     0.5160 H     1 <1>   0.4500 
 40 H        2.6950     1.4980    -2.2900 H     1 <1>   0.0800 
 41 H        4.2690     2.0920    -2.7440 H     1 <1>   0.0800 
 42 H        6.2020     1.2350    -1.4490 H     1 <1>   0.0800 
 43 H        6.3940    -0.4580    -1.7490 H     1 <1>   0.0800 
 44 H        7.5510    -0.1180     1.6680 H     1 <1>   0.0800 
 45 H        7.9540    -0.7360     0.0900 H     1 <1>   0.0800 
 46 H        0.1340    -7.0140     0.3570 H     1 <1>   0.2700 
 47 H       -1.1450    -2.3710    -1.6640 H     1 <1>   0.0800 
 48 H       -1.8790    -2.2180    -0.0830 H     1 <1>   0.0800 
 49 H       -2.5850    -3.2750    -1.2760 H     1 <1>   0.0800 
 50 H       -2.9650    -5.5020    -1.2820 H     1 <1>   0.0800 
 51 H       -2.6700    -6.6970    -0.0490 H     1 <1>   0.0800 
 52 H       -1.9120    -6.8490    -1.6200 H     1 <1>   0.0800 
@<TRIPOS>BOND
  1   1   2  2   
  2   2   3  am  
  3   2   4  1   
  4   3   5  1   
  5   3   6  1   
  6   4   7  ar  
  7   4   8  ar  
  8   5   9  1   
  9   5  10  1   
 10   5  28  1   
 11   6  11  1   
 12   6  29  1   
 13   6  30  1   
 14   7  12  ar  
 15   7  31  1   
 16   8  13  ar  
 17   8  32  1   
 18   9  14  1   
 19   9  33  1   
 20   9  34  1   
 21  10  15  1   
 22  10  35  1   
 23  10  36  1   
 24  11  16  1   
 25  11  17  1   
 26  11  37  1   
 27  12  18  ar  
 28  12  19  1   
 29  13  18  ar  
 30  13  38  1   
 31  14  16  1   
 32  15  17  1   
 33  15  20  1   
 34  15  39  1   
 35  16  40  1   
 36  16  41  1   
 37  17  42  1   
 38  17  43  1   
 39  18  21  1   
 40  19  22  2   
 41  19  23  1   
 42  20  24  1   
 43  20  44  1   
 44  20  45  1   
 45  21  22  1   
 46  21  46  1   
 47  22  25  1   
 48  23  47  1   
 49  23  48  1   
 50  23  49  1   
 51  24  26  ar  
 52  24  27  ar  
 53  25  50  1   
 54  25  51  1   
 55  25  52  1   
@<TRIPOS>SUBSTRUCTURE
  1 ****   3 GROUP 4 **** **** 0

# MOE 2024.06 (io_trps.svl 2023.06)
