@<TRIPOS>MOLECULE
NONAME
37 39 1 0 0 
SMALL
USER_CHARGES


@<TRIPOS>ATOM
  1 O       -0.4190     0.1500    -0.4880 O.2   1 <1>  -0.5700 
  2 C       -1.3840     0.7420    -0.0420 C.2   1 <1>   0.7160 
  3 N       -2.5070     0.0180     0.2910 N.am  1 <1>  -0.6600 
  4 C       -1.3360     2.1770     0.1070 C.2   1 <1>  -0.0860 
  5 C       -3.8900     0.5630     0.2650 C.3   1 <1>   0.1400 
  6 C       -2.5390    -1.4650     0.1970 C.3   1 <1>   0.1400 
  7 C       -1.9570     2.9390     1.1010 C.2   1 <1>   0.1390 
  8 C       -0.6860     3.1160    -0.6360 C.2   1 <1>  -0.3020 
  9 C       -4.7670    -0.6170    -0.1450 C.3   1 <1>   0.2000 
 10 C       -4.0120    -1.8540     0.3310 C.3   1 <1>  -0.0800 
 11 N       -1.7390     4.2110     0.9800 N.2   1 <1>  -0.7070 
 12 N       -0.9430     4.3170    -0.0990 N.pl3 1 <1>   0.3000 
 13 O       -6.0170    -0.5570     0.4480 O.3   1 <1>  -0.6800 
 14 C       -4.3850    -3.1280    -0.4390 C.3   1 <1>   0.0210 
 15 C       -3.5410    -4.3030     0.0150 C.2   1 <1>   0.1080 
 16 N       -3.5560    -4.7500     1.2320 N.2   1 <1>  -0.7070 
 17 C       -2.6640    -5.0150    -0.7960 C.2   1 <1>  -0.1500 
 18 N       -2.6820    -5.7740     1.2290 N.pl3 1 <1>   0.3000 
 19 C       -2.1270    -5.9530     0.0120 C.2   1 <1>  -0.3320 
 20 C       -1.1020    -7.0250    -0.3090 C.3   1 <1>  -0.0600 
 21 H       -4.1540     0.9030     1.2510 H     1 <1>   0.0800 
 22 H       -3.9760     1.3680    -0.4450 H     1 <1>   0.0800 
 23 H       -2.1480    -1.7690    -0.7610 H     1 <1>   0.0800 
 24 H       -1.9440    -1.9110     0.9770 H     1 <1>   0.0800 
 25 H       -2.5520     2.5190     1.8950 H     1 <1>   0.1500 
 26 H       -0.0650     2.9670    -1.5020 H     1 <1>   0.1500 
 27 H       -4.8970    -0.6200    -1.2140 H     1 <1>   0.0800 
 28 H       -4.2000    -2.0110     1.3800 H     1 <1>   0.0800 
 29 H       -0.5920     5.2240    -0.4320 H     1 <1>   0.2700 
 30 H       -5.9500    -0.7430     1.4050 H     1 <1>   0.4000 
 31 H       -4.2490    -2.9780    -1.4950 H     1 <1>   0.0800 
 32 H       -5.4200    -3.3620    -0.2660 H     1 <1>   0.0800 
 33 H       -2.4740    -4.8360    -1.8390 H     1 <1>   0.1500 
 34 H       -2.4870    -6.3300     2.0710 H     1 <1>   0.2700 
 35 H       -0.8140    -6.9630    -1.3430 H     1 <1>   0.0800 
 36 H       -1.5140    -8.0010    -0.1270 H     1 <1>   0.0800 
 37 H       -0.2240    -6.8940     0.2990 H     1 <1>   0.0800 
@<TRIPOS>BOND
  1   1   2  2   
  2   2   3  am  
  3   2   4  1   
  4   3   5  1   
  5   3   6  1   
  6   4   7  1   
  7   4   8  2   
  8   5   9  1   
  9   5  21  1   
 10   5  22  1   
 11   6  10  1   
 12   6  23  1   
 13   6  24  1   
 14   7  11  2   
 15   7  25  1   
 16   8  12  1   
 17   8  26  1   
 18   9  10  1   
 19   9  13  1   
 20   9  27  1   
 21  10  14  1   
 22  10  28  1   
 23  11  12  1   
 24  12  29  1   
 25  13  30  1   
 26  14  15  1   
 27  14  31  1   
 28  14  32  1   
 29  15  16  2   
 30  15  17  1   
 31  16  18  1   
 32  17  19  2   
 33  17  33  1   
 34  18  19  1   
 35  18  34  1   
 36  19  20  1   
 37  20  35  1   
 38  20  36  1   
 39  20  37  1   
@<TRIPOS>SUBSTRUCTURE
  1 ****   6 GROUP 4 **** **** 0

# MOE 2024.06 (io_trps.svl 2023.06)
