@<TRIPOS>MOLECULE
NONAME
48 50 1 0 0 
SMALL
USER_CHARGES


@<TRIPOS>ATOM
  1 S        3.5220    -0.1430     1.6170 S.3   1 <1>  -0.0800 
  2 C        2.9500    -0.1380    -0.0460 C.2   1 <1>  -0.1400 
  3 C        2.1940    -1.1730     2.1180 C.2   1 <1>  -0.1100 
  4 C        1.8330    -0.8800    -0.1600 C.2   1 <1>  -0.1500 
  5 C        3.7510     0.6500    -1.0620 C.3   1 <1>   0.0200 
  6 C        1.4010    -1.4680     1.0710 C.2   1 <1>  -0.1500 
  7 C        3.5820     2.1570    -0.8340 C.3   1 <1>  -0.1600 
  8 C        4.4640     2.9840    -1.7850 C.3   1 <1>  -0.0990 
  9 C        4.2820     4.4800    -1.5750 C.2   1 <1>   0.5690 
 10 O        3.7960     5.1180    -2.4750 O.2   1 <1>  -0.5700 
 11 N        4.6940     5.0950    -0.4190 N.am  1 <1>  -0.6600 
 12 C        5.8480     4.6240     0.3970 C.3   1 <1>   0.1400 
 13 C        4.1430     6.4240    -0.0420 C.3   1 <1>   0.1400 
 14 C        7.1750     4.9880    -0.2970 C.3   1 <1>   0.3430 
 15 C        5.1900     7.5360    -0.1710 C.3   1 <1>  -0.1600 
 16 N        7.4010     6.4650    -0.4830 N.4   1 <1>  -0.9590 
 17 C        6.3120     7.2270    -1.1650 C.3   1 <1>   0.3430 
 18 C        8.7360     6.7180    -1.0880 C.3   1 <1>   0.5230 
 19 C        9.7730     6.6000     0.0240 C.2   1 <1>   0.0060 
 20 N        9.4600     6.5130     1.2820 N.2   1 <1>  -0.5650 
 21 N       11.1090     6.5840    -0.1990 N.pl3 1 <1>   0.0330 
 22 C       10.6500     6.4360     1.9090 C.2   1 <1>   0.0770 
 23 C       11.6640     6.4770     1.0200 C.2   1 <1>  -0.3020 
 24 H        2.1470    -1.4520     3.1550 H     1 <1>   0.1500 
 25 H        1.2810    -1.0440    -1.0690 H     1 <1>   0.1500 
 26 H        3.4130     0.3950    -2.0510 H     1 <1>   0.0800 
 27 H        4.7870     0.3700    -0.9800 H     1 <1>   0.0800 
 28 H        0.5190    -2.0820     1.1090 H     1 <1>   0.1500 
 29 H        3.8260     2.3930     0.1870 H     1 <1>   0.0800 
 30 H        2.5490     2.4200    -0.9880 H     1 <1>   0.0800 
 31 H        4.1930     2.7530    -2.8000 H     1 <1>   0.0800 
 32 H        5.4970     2.7230    -1.6600 H     1 <1>   0.0800 
 33 H        5.7960     3.5570     0.5230 H     1 <1>   0.0800 
 34 H        5.8140     5.0630     1.3800 H     1 <1>   0.0800 
 35 H        3.7660     6.3850     0.9660 H     1 <1>   0.0800 
 36 H        3.3040     6.6560    -0.6800 H     1 <1>   0.0800 
 37 H        7.1970     4.4980    -1.2560 H     1 <1>   0.0800 
 38 H        7.9820     4.5850     0.2940 H     1 <1>   0.0800 
 39 H        5.5980     7.7740     0.7950 H     1 <1>   0.0800 
 40 H        4.6740     8.4170    -0.5090 H     1 <1>   0.0800 
 41 H        7.5330     6.8450     0.4720 H     1 <1>   0.4500 
 42 H        6.7050     8.1640    -1.5260 H     1 <1>   0.0800 
 43 H        5.9230     6.6760    -2.0080 H     1 <1>   0.0800 
 44 H        8.7760     7.7160    -1.4920 H     1 <1>   0.0800 
 45 H        8.9340     6.0100    -1.8760 H     1 <1>   0.0800 
 46 H       11.6200     6.6460    -1.0880 H     1 <1>   0.2700 
 47 H       10.7200     6.3560     2.9840 H     1 <1>   0.1500 
 48 H       12.7270     6.4390     1.1910 H     1 <1>   0.1500 
@<TRIPOS>BOND
  1   1   2  1   
  2   1   3  1   
  3   2   4  2   
  4   2   5  1   
  5   3   6  2   
  6   3  24  1   
  7   4   6  1   
  8   4  25  1   
  9   5   7  1   
 10   5  26  1   
 11   5  27  1   
 12   6  28  1   
 13   7   8  1   
 14   7  29  1   
 15   7  30  1   
 16   8   9  1   
 17   8  31  1   
 18   8  32  1   
 19   9  10  2   
 20   9  11  am  
 21  11  12  1   
 22  11  13  1   
 23  12  14  1   
 24  12  33  1   
 25  12  34  1   
 26  13  15  1   
 27  13  35  1   
 28  13  36  1   
 29  14  16  1   
 30  14  37  1   
 31  14  38  1   
 32  15  17  1   
 33  15  39  1   
 34  15  40  1   
 35  16  17  1   
 36  16  18  1   
 37  16  41  1   
 38  17  42  1   
 39  17  43  1   
 40  18  19  1   
 41  18  44  1   
 42  18  45  1   
 43  19  20  2   
 44  19  21  1   
 45  20  22  1   
 46  21  23  1   
 47  21  46  1   
 48  22  23  2   
 49  22  47  1   
 50  23  48  1   
@<TRIPOS>SUBSTRUCTURE
  1 ****  12 GROUP 4 **** **** 0

# MOE 2024.06 (io_trps.svl 2023.06)
