@<TRIPOS>MOLECULE
NONAME
34 36 1 0 0 
SMALL
USER_CHARGES


@<TRIPOS>ATOM
  1 O       -0.8180    -0.1670    -0.1200 O.2   1 <1>  -0.5700 
  2 C       -1.7910     0.4740     0.1810 C.2   1 <1>   0.4230 
  3 C       -3.1150    -0.0820     0.1730 C.ar  1 <1>   0.0860 
  4 C       -1.5500     1.8980     0.6430 C.3   1 <1>  -0.1790 
  5 C       -4.2630     0.5310    -0.3250 C.ar  1 <1>   0.1660 
  6 C       -3.3150    -1.3460     0.7030 C.ar  1 <1>   0.1600 
  7 N       -5.4470    -0.0190    -0.2350 N.ar  1 <1>  -0.6200 
  8 C       -4.2350     1.8730    -1.0370 C.3   1 <1>  -0.0960 
  9 N       -4.4860    -1.9210     0.7960 N.ar  1 <1>  -0.6200 
 10 C       -5.5170    -1.2180     0.3380 C.ar  1 <1>   0.7200 
 11 N       -6.7530    -1.7700     0.4510 N.pl3 1 <1>  -0.8380 
 12 C       -7.0270    -3.1580     0.4610 C.3   1 <1>   0.2890 
 13 C       -7.9320    -1.4740    -0.4930 C.3   1 <1>   0.2090 
 14 C       -8.4310    -2.8660     1.1060 C.3   1 <1>  -0.1600 
 15 C       -7.3390    -4.6090     0.3640 C.3   1 <1>  -0.1600 
 16 C       -8.9220    -2.7100    -0.2480 C.3   1 <1>  -0.0800 
 17 C       -8.5680    -4.2390    -0.5880 C.3   1 <1>  -0.1600 
 18 H       -2.3840     2.2630     1.2130 H     1 <1>   0.0800 
 19 H       -1.3830     2.5340    -0.2060 H     1 <1>   0.0800 
 20 H       -0.6740     1.9240     1.2660 H     1 <1>   0.0800 
 21 H       -2.4610    -1.8920     1.0680 H     1 <1>   0.1500 
 22 H       -3.3320     1.9890    -1.6080 H     1 <1>   0.0800 
 23 H       -4.3190     2.6700    -0.3220 H     1 <1>   0.0800 
 24 H       -5.0650     1.9430    -1.7190 H     1 <1>   0.0800 
 25 H       -6.6260    -3.2350    -0.5520 H     1 <1>   0.0800 
 26 H       -8.3920    -0.5420    -0.2090 H     1 <1>   0.0800 
 27 H       -7.6070    -1.4180    -1.5180 H     1 <1>   0.0800 
 28 H       -8.9640    -3.6280     1.6590 H     1 <1>   0.0800 
 29 H       -8.5360    -1.9860     1.7340 H     1 <1>   0.0800 
 30 H       -6.5790    -5.1710    -0.1530 H     1 <1>   0.0800 
 31 H       -7.5760    -5.1030     1.2930 H     1 <1>   0.0800 
 32 H       -9.9670    -2.4620    -0.3140 H     1 <1>   0.0800 
 33 H       -9.4030    -4.8890    -0.3880 H     1 <1>   0.0800 
 34 H       -8.3030    -4.3320    -1.6290 H     1 <1>   0.0800 
@<TRIPOS>BOND
  1   1   2  2   
  2   2   3  1   
  3   2   4  1   
  4   3   5  ar  
  5   3   6  ar  
  6   4  18  1   
  7   4  19  1   
  8   4  20  1   
  9   5   7  ar  
 10   5   8  1   
 11   6   9  ar  
 12   6  21  1   
 13   7  10  ar  
 14   8  22  1   
 15   8  23  1   
 16   8  24  1   
 17   9  10  ar  
 18  10  11  1   
 19  11  12  1   
 20  11  13  1   
 21  12  14  1   
 22  12  15  1   
 23  12  25  1   
 24  13  16  1   
 25  13  26  1   
 26  13  27  1   
 27  14  16  1   
 28  14  28  1   
 29  14  29  1   
 30  15  17  1   
 31  15  30  1   
 32  15  31  1   
 33  16  17  1   
 34  16  32  1   
 35  17  33  1   
 36  17  34  1   
@<TRIPOS>SUBSTRUCTURE
  1 ****  10 GROUP 4 **** **** 0

# MOE 2024.06 (io_trps.svl 2023.06)
