@<TRIPOS>MOLECULE
NONAME
63 67 1 0 0 
SMALL
USER_CHARGES


@<TRIPOS>ATOM
  1 F       -1.3870    -2.2120     1.8410 F     1 <1>  -0.1900 
  2 C       -0.9760    -2.8120     0.7480 C.ar  1 <1>   0.1900 
  3 C       -1.8310    -2.8940    -0.3580 C.ar  1 <1>   0.1000 
  4 C        0.3010    -3.3380     0.7480 C.ar  1 <1>  -0.1500 
  5 N       -3.1320    -2.3730    -0.3980 N.pl3 1 <1>  -0.8380 
  6 C       -1.3390    -3.5410    -1.4850 C.ar  1 <1>  -0.1500 
  7 C        0.7610    -3.9770    -0.3920 C.ar  1 <1>  -0.1500 
  8 C       -3.2190    -0.9020    -0.3530 C.3   1 <1>   0.2090 
  9 C       -4.1030    -3.0480     0.4830 C.3   1 <1>   0.2090 
 10 C       -0.0610    -4.0760    -1.5040 C.ar  1 <1>  -0.1500 
 11 C       -4.5940    -0.4960    -0.8750 C.3   1 <1>  -0.1600 
 12 C       -5.5020    -2.7080    -0.0190 C.3   1 <1>  -0.1600 
 13 C       -5.7200    -1.1860    -0.0860 C.3   1 <1>   0.4230 
 14 N       -7.0530    -0.8980    -0.7180 N.4   1 <1>  -0.9590 
 15 C       -7.3750     0.5680    -0.9340 C.3   1 <1>   0.3430 
 16 C       -8.2140    -1.5370    -0.0180 C.3   1 <1>   0.3430 
 17 C       -8.0530     1.2920     0.2590 C.3   1 <1>   0.1440 
 18 C       -8.3890    -0.9830     1.4050 C.3   1 <1>  -0.1600 
 19 C       -9.5040     1.5620    -0.0970 C.ar  1 <1>   0.1670 
 20 C       -7.9620     0.4890     1.5750 C.3   1 <1>  -0.1600 
 21 C       -7.5010     2.7290     0.4580 C.3   1 <1>  -0.1600 
 22 N      -10.3260     0.6850    -0.6160 N.ar  1 <1>  -0.6200 
 23 C       -9.8570     2.8500     0.1680 C.ar  1 <1>  -0.1430 
 24 C       -8.7110     3.6360     0.7510 C.3   1 <1>  -0.0170 
 25 C      -11.5540     1.1460    -0.8740 C.ar  1 <1>   0.7200 
 26 C      -11.1410     3.2330    -0.1270 C.ar  1 <1>   0.1600 
 27 N      -11.9950     2.3860    -0.6520 N.ar  1 <1>  -0.6200 
 28 N      -12.4420     0.2520    -1.4290 N.pl3 1 <1>  -0.8380 
 29 C      -12.4750    -1.1790    -1.0280 C.3   1 <1>   0.1290 
 30 C      -13.6450     0.7260    -2.1680 C.3   1 <1>   0.1290 
 31 H        0.9200    -3.2500     1.6220 H     1 <1>   0.1500 
 32 H       -1.9710    -3.6210    -2.3500 H     1 <1>   0.1500 
 33 H        1.7530    -4.3950    -0.4140 H     1 <1>   0.1500 
 34 H       -2.4460    -0.4770    -0.9730 H     1 <1>   0.0800 
 35 H       -3.0730    -0.5570     0.6570 H     1 <1>   0.0800 
 36 H       -3.9680    -2.7180     1.5000 H     1 <1>   0.0800 
 37 H       -3.9440    -4.1140     0.4460 H     1 <1>   0.0800 
 38 H        0.2960    -4.5720    -2.3900 H     1 <1>   0.1500 
 39 H       -4.6470    -0.7630    -1.9150 H     1 <1>   0.0800 
 40 H       -4.6570     0.5710    -0.7820 H     1 <1>   0.0800 
 41 H       -6.2000    -3.1660     0.6560 H     1 <1>   0.0800 
 42 H       -5.6200    -3.1460    -0.9940 H     1 <1>   0.0800 
 43 H       -5.7060    -0.8040     0.9210 H     1 <1>   0.0800 
 44 H       -7.0070    -1.3230    -1.6530 H     1 <1>   0.4500 
 45 H       -8.0490     0.6480    -1.7730 H     1 <1>   0.0800 
 46 H       -6.4860     1.1040    -1.2100 H     1 <1>   0.0800 
 47 H       -8.1010    -2.6080     0.0160 H     1 <1>   0.0800 
 48 H       -9.1110    -1.3310    -0.5800 H     1 <1>   0.0800 
 49 H       -7.8500    -1.5980     2.1040 H     1 <1>   0.0800 
 50 H       -9.4330    -1.0740     1.6550 H     1 <1>   0.0800 
 51 H       -8.5720     0.9520     2.3330 H     1 <1>   0.0800 
 52 H       -6.9470     0.5160     1.9300 H     1 <1>   0.0800 
 53 H       -7.0500     3.0750    -0.4560 H     1 <1>   0.0800 
 54 H       -6.7660     2.7920     1.2420 H     1 <1>   0.0800 
 55 H       -8.6100     4.6020     0.2860 H     1 <1>   0.0800 
 56 H       -8.8560     3.7550     1.8110 H     1 <1>   0.0800 
 57 H      -11.4720     4.2390     0.0650 H     1 <1>   0.1500 
 58 H      -11.7820    -1.3680    -0.2270 H     1 <1>   0.0800 
 59 H      -12.2170    -1.7950    -1.8710 H     1 <1>   0.0800 
 60 H      -13.4620    -1.4400    -0.6890 H     1 <1>   0.0800 
 61 H      -13.4350     1.6580    -2.6670 H     1 <1>   0.0800 
 62 H      -14.4580     0.8770    -1.4790 H     1 <1>   0.0800 
 63 H      -13.9340     0.0020    -2.9090 H     1 <1>   0.0800 
@<TRIPOS>BOND
  1   1   2  1   
  2   2   3  ar  
  3   2   4  ar  
  4   3   5  1   
  5   3   6  ar  
  6   4   7  ar  
  7   4  31  1   
  8   5   8  1   
  9   5   9  1   
 10   6  10  ar  
 11   6  32  1   
 12   7  10  ar  
 13   7  33  1   
 14   8  11  1   
 15   8  34  1   
 16   8  35  1   
 17   9  12  1   
 18   9  36  1   
 19   9  37  1   
 20  10  38  1   
 21  11  13  1   
 22  11  39  1   
 23  11  40  1   
 24  12  13  1   
 25  12  41  1   
 26  12  42  1   
 27  13  14  1   
 28  13  43  1   
 29  14  15  1   
 30  14  16  1   
 31  14  44  1   
 32  15  17  1   
 33  15  45  1   
 34  15  46  1   
 35  16  18  1   
 36  16  47  1   
 37  16  48  1   
 38  17  19  1   
 39  17  20  1   
 40  17  21  1   
 41  18  20  1   
 42  18  49  1   
 43  18  50  1   
 44  19  22  ar  
 45  19  23  ar  
 46  20  51  1   
 47  20  52  1   
 48  21  24  1   
 49  21  53  1   
 50  21  54  1   
 51  22  25  ar  
 52  23  24  1   
 53  23  26  ar  
 54  24  55  1   
 55  24  56  1   
 56  25  27  ar  
 57  25  28  1   
 58  26  27  ar  
 59  26  57  1   
 60  28  29  1   
 61  28  30  1   
 62  29  58  1   
 63  29  59  1   
 64  29  60  1   
 65  30  61  1   
 66  30  62  1   
 67  30  63  1   
@<TRIPOS>SUBSTRUCTURE
  1 ****  14 GROUP 4 **** **** 0

# MOE 2024.06 (io_trps.svl 2023.06)
