@<TRIPOS>MOLECULE
NONAME
45 48 1 0 0 
SMALL
USER_CHARGES


@<TRIPOS>ATOM
  1 S        0.8300     0.5750     2.6940 S.3   1 <1>  -0.0800 
  2 C        0.6210     1.6630     1.3390 C.2   1 <1>  -0.1400 
  3 C        2.4190     1.2540     3.0180 C.2   1 <1>  -0.1100 
  4 C        1.6880     2.4530     1.1610 C.2   1 <1>  -0.1810 
  5 C       -0.6280     1.6850     0.5000 C.3   1 <1>   0.0200 
  6 C        2.7200     2.2230     2.1310 C.2   1 <1>  -0.1500 
  7 C        1.7330     3.4730     0.0200 C.3   1 <1>   0.4610 
  8 C       -0.6380     3.0200    -0.2620 C.3   1 <1>   0.1200 
  9 O        0.6190     3.2890    -0.8370 O.3   1 <1>  -0.5600 
 10 C        2.9740     3.2420    -0.8510 C.3   1 <1>  -0.1600 
 11 C        1.7150     4.9090     0.5630 C.3   1 <1>  -0.1600 
 12 C        3.0980     4.2940    -1.9540 C.3   1 <1>   0.1400 
 13 C        1.8480     5.9370    -0.5610 C.3   1 <1>   0.1400 
 14 N        3.0860     5.6490    -1.3340 N.am  1 <1>  -0.6600 
 15 C        4.1490     6.5220    -1.4450 C.2   1 <1>   0.5440 
 16 O        5.1190     6.1980    -2.1040 O.2   1 <1>  -0.5700 
 17 C        4.1470     7.8160    -0.8020 C.ar  1 <1>   0.0860 
 18 C        4.3090     7.9910     0.5860 C.ar  1 <1>   0.0830 
 19 C        3.9490     8.9540    -1.5830 C.ar  1 <1>  -0.1500 
 20 O        4.5440     6.9700     1.4420 O.3   1 <1>  -0.3630 
 21 C        4.2260     9.2540     1.1600 C.ar  1 <1>  -0.1500 
 22 C        3.8850    10.1950    -0.9880 C.ar  1 <1>   0.1900 
 23 C        5.5750     6.0430     1.1660 C.3   1 <1>   0.0400 
 24 C        4.0140    10.3710     0.3750 C.ar  1 <1>  -0.1500 
 25 F        3.6910    11.2460    -1.7400 F     1 <1>  -0.1900 
 26 H        2.9660     0.8490     3.8500 H     1 <1>   0.1500 
 27 H       -1.5010     1.6130     1.1220 H     1 <1>   0.0800 
 28 H       -0.6220     0.8610    -0.1900 H     1 <1>   0.0800 
 29 H        3.6340     2.7910     2.1210 H     1 <1>   0.1500 
 30 H       -0.8900     3.8280     0.4020 H     1 <1>   0.0800 
 31 H       -1.3630     2.9890    -1.0560 H     1 <1>   0.0800 
 32 H        2.9220     2.2610    -1.2850 H     1 <1>   0.0800 
 33 H        3.8590     3.2820    -0.2450 H     1 <1>   0.0800 
 34 H        2.5370     5.0400     1.2430 H     1 <1>   0.0800 
 35 H        0.8160     5.0840     1.1220 H     1 <1>   0.0800 
 36 H        2.2710     4.2120    -2.6380 H     1 <1>   0.0800 
 37 H        4.0060     4.1320    -2.5090 H     1 <1>   0.0800 
 38 H        1.8670     6.9280    -0.1440 H     1 <1>   0.0800 
 39 H        0.9990     5.8700    -1.2200 H     1 <1>   0.0800 
 40 H        3.8410     8.8600    -2.6490 H     1 <1>   0.1500 
 41 H        4.3360     9.3520     2.2260 H     1 <1>   0.1500 
 42 H        5.9400     5.6590     2.1020 H     1 <1>   0.0800 
 43 H        6.3710     6.5390     0.6370 H     1 <1>   0.0800 
 44 H        5.1770     5.2370     0.5770 H     1 <1>   0.0800 
 45 H        3.9520    11.3560     0.8030 H     1 <1>   0.1500 
@<TRIPOS>BOND
  1   1   2  1   
  2   1   3  1   
  3   2   4  2   
  4   2   5  1   
  5   3   6  2   
  6   3  26  1   
  7   4   6  1   
  8   4   7  1   
  9   5   8  1   
 10   5  27  1   
 11   5  28  1   
 12   6  29  1   
 13   7   9  1   
 14   7  10  1   
 15   7  11  1   
 16   8   9  1   
 17   8  30  1   
 18   8  31  1   
 19  10  12  1   
 20  10  32  1   
 21  10  33  1   
 22  11  13  1   
 23  11  34  1   
 24  11  35  1   
 25  12  14  1   
 26  12  36  1   
 27  12  37  1   
 28  13  14  1   
 29  13  38  1   
 30  13  39  1   
 31  14  15  am  
 32  15  16  2   
 33  15  17  1   
 34  17  18  ar  
 35  17  19  ar  
 36  18  20  1   
 37  18  21  ar  
 38  19  22  ar  
 39  19  40  1   
 40  20  23  1   
 41  21  24  ar  
 42  21  41  1   
 43  22  24  ar  
 44  22  25  1   
 45  23  42  1   
 46  23  43  1   
 47  23  44  1   
 48  24  45  1   
@<TRIPOS>SUBSTRUCTURE
  1 ****  13 GROUP 4 **** **** 0

# MOE 2024.06 (io_trps.svl 2023.06)
