@<TRIPOS>MOLECULE
NONAME
41 43 1 0 0 
SMALL
USER_CHARGES


@<TRIPOS>ATOM
  1 O       -3.7990    -1.2430     1.6300 O.2   1 <1>  -0.5700 
  2 C       -3.2610    -0.4600     0.8620 C.2   1 <1>   0.7150 
  3 N       -2.6090    -1.0260    -0.2090 N.am  1 <1>  -0.6600 
  4 C       -3.4170     0.9690     1.0050 C.2   1 <1>   0.0550 
  5 C       -3.2580    -1.0130    -1.5560 C.3   1 <1>   0.1400 
  6 C       -1.5270    -2.0300    -0.0170 C.3   1 <1>   0.1400 
  7 O       -3.0260     1.8040     0.0460 O.3   1 <1>  -0.2800 
  8 C       -3.9480     1.7030     2.0230 C.2   1 <1>  -0.1500 
  9 C       -4.4600    -1.9870    -1.6070 C.3   1 <1>   0.3430 
 10 C       -2.0740    -3.4450     0.2440 C.3   1 <1>  -0.1600 
 11 C       -3.2840     3.0350     0.4230 C.2   1 <1>  -0.0100 
 12 C       -3.8600     3.0430     1.6440 C.2   1 <1>  -0.1500 
 13 N       -4.3720    -3.0350    -0.5320 N.4   1 <1>  -0.9590 
 14 C       -3.1820    -3.9150    -0.7030 C.3   1 <1>   0.3430 
 15 C       -5.6660    -3.7470    -0.3100 C.3   1 <1>   0.3430 
 16 C       -5.7370    -4.3580     1.0960 C.3   1 <1>   0.0960 
 17 N       -7.0850    -4.9040     1.3010 N.pl3 1 <1>   0.0480 
 18 C       -7.5570    -6.1110     0.9810 C.2   1 <1>   0.0360 
 19 C       -8.1620    -4.2900     1.7940 C.2   1 <1>   0.0370 
 20 N       -8.8110    -6.2150     1.2420 N.2   1 <1>  -0.3380 
 21 N       -9.1990    -5.0500     1.7630 N.2   1 <1>  -0.3380 
 22 H       -2.5370    -1.2890    -2.3060 H     1 <1>   0.0800 
 23 H       -3.5940    -0.0170    -1.7920 H     1 <1>   0.0800 
 24 H       -0.9140    -1.7280     0.8170 H     1 <1>   0.0800 
 25 H       -0.8950    -2.0360    -0.8900 H     1 <1>   0.0800 
 26 H       -4.3580     1.3430     2.9500 H     1 <1>   0.1500 
 27 H       -4.5200    -2.4420    -2.5820 H     1 <1>   0.0800 
 28 H       -5.3580    -1.4080    -1.4620 H     1 <1>   0.0800 
 29 H       -2.4200    -3.5090     1.2610 H     1 <1>   0.0800 
 30 H       -1.2500    -4.1320     0.1640 H     1 <1>   0.0800 
 31 H       -3.0280     3.8510    -0.2310 H     1 <1>   0.1500 
 32 H       -4.1880     3.8870     2.2260 H     1 <1>   0.1500 
 33 H       -4.1610    -2.4780     0.3270 H     1 <1>   0.4500 
 34 H       -3.4380    -4.9350    -0.4640 H     1 <1>   0.0800 
 35 H       -2.8350    -3.8870    -1.7240 H     1 <1>   0.0800 
 36 H       -5.7940    -4.5180    -1.0530 H     1 <1>   0.0800 
 37 H       -6.4760    -3.0420    -0.4090 H     1 <1>   0.0800 
 38 H       -5.5560    -3.6030     1.8410 H     1 <1>   0.0800 
 39 H       -5.0210    -5.1510     1.2080 H     1 <1>   0.0800 
 40 H       -6.9610    -6.8970     0.5530 H     1 <1>   0.1500 
 41 H       -8.1600    -3.2810     2.1680 H     1 <1>   0.1500 
@<TRIPOS>BOND
  1   1   2  2   
  2   2   3  am  
  3   2   4  1   
  4   3   5  1   
  5   3   6  1   
  6   4   7  1   
  7   4   8  2   
  8   5   9  1   
  9   5  22  1   
 10   5  23  1   
 11   6  10  1   
 12   6  24  1   
 13   6  25  1   
 14   7  11  1   
 15   8  12  1   
 16   8  26  1   
 17   9  13  1   
 18   9  27  1   
 19   9  28  1   
 20  10  14  1   
 21  10  29  1   
 22  10  30  1   
 23  11  12  2   
 24  11  31  1   
 25  12  32  1   
 26  13  14  1   
 27  13  15  1   
 28  13  33  1   
 29  14  34  1   
 30  14  35  1   
 31  15  16  1   
 32  15  36  1   
 33  15  37  1   
 34  16  17  1   
 35  16  38  1   
 36  16  39  1   
 37  17  18  1   
 38  17  19  1   
 39  18  20  2   
 40  18  40  1   
 41  19  21  2   
 42  19  41  1   
 43  20  21  1   
@<TRIPOS>SUBSTRUCTURE
  1 ****  13 GROUP 4 **** **** 0

# MOE 2024.06 (io_trps.svl 2023.06)
