@<TRIPOS>MOLECULE
NONAME
38 40 1 0 0 
SMALL
USER_CHARGES


@<TRIPOS>ATOM
  1 O       -1.4030     0.7770    -2.2760 O.2   1 <1>  -0.5700 
  2 C       -2.0960     1.2100    -1.3720 C.2   1 <1>   0.5440 
  3 N       -3.1820     0.4790    -0.9600 N.am  1 <1>  -0.6600 
  4 C       -1.8050     2.5030    -0.7980 C.ar  1 <1>   0.0860 
  5 C       -4.1590     0.9880     0.0500 C.3   1 <1>   0.2350 
  6 C       -3.0700    -1.0060    -0.8920 C.3   1 <1>   0.2350 
  7 C       -0.9930     2.6680     0.3320 C.ar  1 <1>   0.0820 
  8 C       -2.3540     3.6490    -1.3750 C.ar  1 <1>  -0.1500 
  9 C       -4.6770    -0.2240     0.7980 C.3   1 <1>  -0.2420 
 10 C       -3.9900    -1.4460     0.2320 C.3   1 <1>  -0.2420 
 11 O       -0.3880     1.6300     0.9470 O.3   1 <1>  -0.3620 
 12 C       -0.7520     3.9320     0.8460 C.ar  1 <1>  -0.1500 
 13 C       -2.1180     4.9120    -0.8610 C.ar  1 <1>  -0.1430 
 14 C       -5.0620     0.1470     2.2320 C.2   1 <1>   0.9470 
 15 C       -5.4780    -1.2820     0.0850 C.3   1 <1>  -0.2000 
 16 C       -3.4210    -2.6580     0.9680 C.2   1 <1>   0.9470 
 17 C       -1.1670     0.7970     1.7910 C.3   1 <1>   0.0400 
 18 C       -1.3120     5.0490     0.2580 C.ar  1 <1>  -0.1500 
 19 C       -2.7310     6.1430    -1.5040 C.3   1 <1>  -0.0970 
 20 O       -4.2430     0.7570     2.9340 O.co2 1 <1>  -0.9000 
 21 O       -6.2320    -0.0090     2.6060 O.co2 1 <1>  -0.9000 
 22 O       -4.0030    -3.7470     0.8730 O.co2 1 <1>  -0.9000 
 23 O       -2.3160    -2.5630     1.5190 O.co2 1 <1>  -0.9000 
 24 H       -3.6780     1.6660     0.7330 H     1 <1>   0.0800 
 25 H       -4.9710     1.4960    -0.4370 H     1 <1>   0.0800 
 26 H       -3.3700    -1.4490    -1.8250 H     1 <1>   0.0800 
 27 H       -2.0510    -1.2830    -0.6790 H     1 <1>   0.0800 
 28 H       -2.9750     3.5240    -2.2440 H     1 <1>   0.1500 
 29 H       -0.1230     4.0270     1.7130 H     1 <1>   0.1500 
 30 H       -5.8960    -1.0670    -0.8790 H     1 <1>   0.1000 
 31 H       -6.1100    -1.9220     0.6790 H     1 <1>   0.1000 
 32 H       -0.5100     0.2760     2.4620 H     1 <1>   0.0800 
 33 H       -1.6970     0.0760     1.2010 H     1 <1>   0.0800 
 34 H       -1.8620     1.3970     2.3530 H     1 <1>   0.0800 
 35 H       -1.1200     6.0230     0.6720 H     1 <1>   0.1500 
 36 H       -1.9550     6.8310    -1.7890 H     1 <1>   0.0800 
 37 H       -3.3890     6.6290    -0.8060 H     1 <1>   0.0800 
 38 H       -3.2940     5.8790    -2.3810 H     1 <1>   0.0800 
@<TRIPOS>BOND
  1   1   2  2   
  2   2   3  am  
  3   2   4  1   
  4   3   5  1   
  5   3   6  1   
  6   4   7  ar  
  7   4   8  ar  
  8   5   9  1   
  9   5  24  1   
 10   5  25  1   
 11   6  10  1   
 12   6  26  1   
 13   6  27  1   
 14   7  11  1   
 15   7  12  ar  
 16   8  13  ar  
 17   8  28  1   
 18   9  10  1   
 19   9  14  1   
 20   9  15  1   
 21  10  15  1   
 22  10  16  1   
 23  11  17  1   
 24  12  18  ar  
 25  12  29  1   
 26  13  18  ar  
 27  13  19  1   
 28  14  20  ar  
 29  14  21  ar  
 30  15  30  1   
 31  15  31  1   
 32  16  22  ar  
 33  16  23  ar  
 34  17  32  1   
 35  17  33  1   
 36  17  34  1   
 37  18  35  1   
 38  19  36  1   
 39  19  37  1   
 40  19  38  1   
@<TRIPOS>SUBSTRUCTURE
  1 ****   5 GROUP 4 **** **** 0

# MOE 2024.06 (io_trps.svl 2023.06)
