@<TRIPOS>MOLECULE
NONAME
42 44 1 0 0 
SMALL
USER_CHARGES


@<TRIPOS>ATOM
  1 CL      -2.1910     0.9420    -1.4520 Cl    1 <1>  -0.1770 
  2 C       -2.5870    -0.4510    -0.4790 C.ar  1 <1>   0.1770 
  3 C       -2.9670    -0.2870     0.8420 C.ar  1 <1>   0.1600 
  4 C       -2.5260    -1.7070    -1.0340 C.ar  1 <1>  -0.1500 
  5 N       -3.2810    -1.2920     1.6510 N.ar  1 <1>  -0.6200 
  6 C       -2.8660    -2.7800    -0.2200 C.ar  1 <1>   0.0860 
  7 C       -3.2060    -2.4980     1.1030 C.ar  1 <1>   0.1600 
  8 C       -2.8640    -4.1400    -0.7080 C.2   1 <1>   0.5440 
  9 O       -1.8860    -4.5460    -1.3050 O.2   1 <1>  -0.5700 
 10 N       -3.9190    -5.0060    -0.4990 N.am  1 <1>  -0.6600 
 11 C       -5.3570    -4.7160    -0.7900 C.3   1 <1>   0.2200 
 12 C       -3.6310    -6.4640    -0.3770 C.3   1 <1>   0.0600 
 13 C       -6.1440    -4.3100     0.4500 C.3   1 <1>  -0.1600 
 14 C       -5.6290    -3.6040    -1.8020 C.3   1 <1>  -0.1600 
 15 C       -7.4090    -3.6280    -0.0910 C.3   1 <1>  -0.0800 
 16 C       -7.0890    -3.2110    -1.5470 C.3   1 <1>  -0.0800 
 17 C       -7.8990    -2.4820     0.8140 C.3   1 <1>   0.1400 
 18 C       -7.3770    -1.7270    -1.8470 C.3   1 <1>  -0.0990 
 19 N       -8.9020    -1.6640     0.0890 N.am  1 <1>  -0.6600 
 20 C       -8.6800    -1.2900    -1.2080 C.2   1 <1>   0.5690 
 21 C      -10.1130    -1.2540     0.8480 C.3   1 <1>   0.0600 
 22 O       -9.4590    -0.6310    -1.8530 O.2   1 <1>  -0.5700 
 23 H       -3.0100     0.7100     1.2450 H     1 <1>   0.1500 
 24 H       -2.2270    -1.8580    -2.0570 H     1 <1>   0.1500 
 25 H       -3.4290    -3.3330     1.7450 H     1 <1>   0.1500 
 26 H       -5.8120    -5.6100    -1.1860 H     1 <1>   0.0800 
 27 H       -4.2870    -6.9110     0.3490 H     1 <1>   0.0800 
 28 H       -2.6120    -6.6180    -0.0620 H     1 <1>   0.0800 
 29 H       -3.7710    -6.9420    -1.3310 H     1 <1>   0.0800 
 30 H       -6.3850    -5.1640     1.0580 H     1 <1>   0.0800 
 31 H       -5.5800    -3.6080     1.0300 H     1 <1>   0.0800 
 32 H       -5.0080    -2.7520    -1.6210 H     1 <1>   0.0800 
 33 H       -5.4820    -3.9460    -2.8110 H     1 <1>   0.0800 
 34 H       -8.1940    -4.3650    -0.1300 H     1 <1>   0.0800 
 35 H       -7.7170    -3.8040    -2.1920 H     1 <1>   0.0800 
 36 H       -7.0750    -1.8440     1.0890 H     1 <1>   0.0800 
 37 H       -8.3280    -2.8880     1.7140 H     1 <1>   0.0800 
 38 H       -7.4260    -1.5680    -2.9090 H     1 <1>   0.0800 
 39 H       -6.6010    -1.1010    -1.4490 H     1 <1>   0.0800 
 40 H       -9.8250    -0.6910     1.7180 H     1 <1>   0.0800 
 41 H      -10.6650    -2.1260     1.1520 H     1 <1>   0.0800 
 42 H      -10.7520    -0.6400     0.2360 H     1 <1>   0.0800 
@<TRIPOS>BOND
  1   1   2  1   
  2   2   3  ar  
  3   2   4  ar  
  4   3   5  ar  
  5   3  23  1   
  6   4   6  ar  
  7   4  24  1   
  8   5   7  ar  
  9   6   7  ar  
 10   6   8  1   
 11   7  25  1   
 12   8   9  2   
 13   8  10  am  
 14  10  11  1   
 15  10  12  1   
 16  11  13  1   
 17  11  14  1   
 18  11  26  1   
 19  12  27  1   
 20  12  28  1   
 21  12  29  1   
 22  13  15  1   
 23  13  30  1   
 24  13  31  1   
 25  14  16  1   
 26  14  32  1   
 27  14  33  1   
 28  15  16  1   
 29  15  17  1   
 30  15  34  1   
 31  16  18  1   
 32  16  35  1   
 33  17  19  1   
 34  17  36  1   
 35  17  37  1   
 36  18  20  1   
 37  18  38  1   
 38  18  39  1   
 39  19  20  am  
 40  19  21  1   
 41  20  22  2   
 42  21  40  1   
 43  21  41  1   
 44  21  42  1   
@<TRIPOS>SUBSTRUCTURE
  1 ****  14 GROUP 4 **** **** 0

# MOE 2024.06 (io_trps.svl 2023.06)
