@<TRIPOS>MOLECULE
NONAME
52 55 1 0 0 
SMALL
USER_CHARGES


@<TRIPOS>ATOM
  1 S       -0.2720    -0.3140     1.4080 S.o2  1 <1>   1.5760 
  2 O       -1.4540    -0.2870     2.2400 O.2   1 <1>  -0.6500 
  3 O        1.0400    -0.4620     1.9990 O.2   1 <1>  -0.6500 
  4 N       -0.4930    -1.5110     0.2360 N.am  1 <1>  -0.8490 
  5 N       -0.2520     1.0620     0.4320 N.am  1 <1>  -0.8490 
  6 C       -1.8220    -1.3720    -0.3910 C.3   1 <1>   0.1960 
  7 C       -0.2760    -2.8380     0.8140 C.3   1 <1>   0.1960 
  8 C        0.9660     1.1230    -0.3820 C.3   1 <1>   0.1960 
  9 C       -0.4030     2.2720     1.2400 C.3   1 <1>   0.1960 
 10 C       -2.0970    -2.3610    -1.5340 C.3   1 <1>   0.2090 
 11 C        0.0040    -3.8670    -0.2850 C.3   1 <1>  -0.1600 
 12 C        0.8920     2.3040    -1.3550 C.3   1 <1>  -0.1600 
 13 C       -0.5240     3.5020     0.3340 C.3   1 <1>  -0.1600 
 14 N       -2.4260    -3.7380    -1.0190 N.pl3 1 <1>  -0.8380 
 15 C       -1.2410    -4.6140    -0.7760 C.3   1 <1>   0.2090 
 16 C        0.6800     3.6270    -0.6080 C.3   1 <1>  -0.1600 
 17 C       -3.7110    -4.1080    -0.7600 C.ar  1 <1>   0.4100 
 18 N       -4.5970    -3.1030    -0.6050 N.ar  1 <1>  -0.6200 
 19 C       -4.1890    -5.4260    -0.6320 C.ar  1 <1>   0.0400 
 20 C       -5.8340    -3.3680    -0.2970 C.ar  1 <1>   0.5270 
 21 S       -3.3630    -6.9820    -0.8770 S.3   1 <1>  -0.0800 
 22 C       -5.4970    -5.6810    -0.3120 C.ar  1 <1>   0.3070 
 23 N       -6.3140    -4.6170    -0.1350 N.ar  1 <1>  -0.1250 
 24 C       -6.7830    -2.2010    -0.1100 C.3   1 <1>  -0.0970 
 25 C       -4.8130    -7.8950    -0.4990 C.2   1 <1>  -0.1100 
 26 C       -5.8390    -7.0680    -0.2250 C.2   1 <1>  -0.1500 
 27 H       -1.9030    -0.3830    -0.8060 H     1 <1>   0.0800 
 28 H       -2.5970    -1.4720     0.3500 H     1 <1>   0.0800 
 29 H       -1.1160    -3.1300     1.4240 H     1 <1>   0.0800 
 30 H        0.5940    -2.8060     1.4480 H     1 <1>   0.0800 
 31 H        1.0740     0.2110    -0.9450 H     1 <1>   0.0800 
 32 H        1.8310     1.2270     0.2540 H     1 <1>   0.0800 
 33 H        0.4420     2.3790     1.9020 H     1 <1>   0.0800 
 34 H       -1.2940     2.1980     1.8420 H     1 <1>   0.0800 
 35 H       -1.2540    -2.3940    -2.2020 H     1 <1>   0.0800 
 36 H       -2.9280    -1.9910    -2.1080 H     1 <1>   0.0800 
 37 H        0.6750    -4.6050     0.1160 H     1 <1>   0.0800 
 38 H        0.5210    -3.4030    -1.1060 H     1 <1>   0.0800 
 39 H        0.0780     2.1370    -2.0390 H     1 <1>   0.0800 
 40 H        1.8000     2.3520    -1.9280 H     1 <1>   0.0800 
 41 H       -0.6020     4.3860     0.9410 H     1 <1>   0.0800 
 42 H       -1.4290     3.4170    -0.2420 H     1 <1>   0.0800 
 43 H       -1.4890    -5.3300    -0.0130 H     1 <1>   0.0800 
 44 H       -1.0030    -5.1510    -1.6790 H     1 <1>   0.0800 
 45 H        0.5190     4.4260    -1.3110 H     1 <1>   0.0800 
 46 H        1.5610     3.8570    -0.0330 H     1 <1>   0.0800 
 47 H       -7.2950    -4.7620     0.1040 H     1 <1>   0.4570 
 48 H       -6.2620    -1.2730    -0.2730 H     1 <1>   0.0800 
 49 H       -7.1740    -2.1910     0.8920 H     1 <1>   0.0800 
 50 H       -7.5940    -2.2570    -0.8130 H     1 <1>   0.0800 
 51 H       -4.7380    -8.9710    -0.5240 H     1 <1>   0.1500 
 52 H       -6.8300    -7.3970     0.0340 H     1 <1>   0.1500 
@<TRIPOS>BOND
  1   1   2  2   
  2   1   3  2   
  3   1   4  am  
  4   1   5  am  
  5   4   6  1   
  6   4   7  1   
  7   5   8  1   
  8   5   9  1   
  9   6  10  1   
 10   6  27  1   
 11   6  28  1   
 12   7  11  1   
 13   7  29  1   
 14   7  30  1   
 15   8  12  1   
 16   8  31  1   
 17   8  32  1   
 18   9  13  1   
 19   9  33  1   
 20   9  34  1   
 21  10  14  1   
 22  10  35  1   
 23  10  36  1   
 24  11  15  1   
 25  11  37  1   
 26  11  38  1   
 27  12  16  1   
 28  12  39  1   
 29  12  40  1   
 30  13  16  1   
 31  13  41  1   
 32  13  42  1   
 33  14  15  1   
 34  14  17  1   
 35  15  43  1   
 36  15  44  1   
 37  16  45  1   
 38  16  46  1   
 39  17  18  ar  
 40  17  19  ar  
 41  18  20  ar  
 42  19  21  1   
 43  19  22  ar  
 44  20  23  ar  
 45  20  24  1   
 46  21  25  1   
 47  22  23  ar  
 48  22  26  1   
 49  23  47  1   
 50  24  48  1   
 51  24  49  1   
 52  24  50  1   
 53  25  26  2   
 54  25  51  1   
 55  26  52  1   
@<TRIPOS>SUBSTRUCTURE
  1 ****   6 GROUP 4 **** **** 0

# MOE 2024.06 (io_trps.svl 2023.06)
