@<TRIPOS>MOLECULE
NONAME
47 49 1 0 0 
SMALL
USER_CHARGES


@<TRIPOS>ATOM
  1 S       -0.6520    -0.1410     0.5450 S.o2  1 <1>   1.0900 
  2 O       -1.9690     0.4230     0.3640 O.2   1 <1>  -0.6500 
  3 O        0.0570     0.0600     1.7860 O.2   1 <1>  -0.6500 
  4 C       -0.7710    -1.9060     0.2680 C.3   1 <1>  -0.0550 
  5 C        0.3910     0.4460    -0.7780 C.3   1 <1>  -0.1350 
  6 C       -1.5430    -2.2800    -1.0070 C.3   1 <1>  -0.0990 
  7 C       -1.6860    -3.7830    -1.1000 C.2   1 <1>   0.5690 
  8 O       -0.7640    -4.3950    -1.5810 O.2   1 <1>  -0.5700 
  9 N       -2.8020    -4.4110    -0.6250 N.am  1 <1>  -0.6600 
 10 C       -3.9590    -3.7830     0.0650 C.3   1 <1>   0.1400 
 11 C       -2.9540    -5.8850    -0.6500 C.3   1 <1>   0.1400 
 12 C       -4.8510    -4.9530     0.4870 C.3   1 <1>   0.2000 
 13 C       -3.9550    -6.1920     0.4650 C.3   1 <1>  -0.0800 
 14 O       -5.3750    -4.7640     1.7560 O.3   1 <1>  -0.6800 
 15 C       -4.7560    -7.4900     0.2490 C.3   1 <1>  -0.0170 
 16 C       -3.9520    -8.7960     0.2340 C.ar  1 <1>  -0.1430 
 17 C       -4.5550    -9.9930    -0.2300 C.ar  1 <1>   0.0000 
 18 C       -2.6570    -8.8860     0.6650 C.ar  1 <1>  -0.1500 
 19 C       -3.7680   -11.1710    -0.2490 C.ar  1 <1>   0.3100 
 20 C       -5.8980   -10.0940    -0.6680 C.ar  1 <1>  -0.1500 
 21 C       -1.9710   -10.1050     0.6110 C.ar  1 <1>   0.1600 
 22 N       -2.4810   -11.2100     0.1730 N.ar  1 <1>  -0.6200 
 23 C       -4.3380   -12.3660    -0.7190 C.ar  1 <1>  -0.1500 
 24 C       -6.4240   -11.2750    -1.1170 C.ar  1 <1>  -0.1500 
 25 C       -5.6350   -12.4270    -1.1470 C.ar  1 <1>  -0.1500 
 26 H        0.2120    -2.3370     0.2260 H     1 <1>   0.0800 
 27 H       -1.2740    -2.3460     1.1080 H     1 <1>   0.0800 
 28 H       -0.0660     0.2690    -1.7320 H     1 <1>   0.0800 
 29 H        1.3460    -0.0440    -0.7510 H     1 <1>   0.0800 
 30 H        0.5510     1.5010    -0.6730 H     1 <1>   0.0800 
 31 H       -2.5090    -1.8110    -1.0140 H     1 <1>   0.0800 
 32 H       -1.0080    -1.9390    -1.8740 H     1 <1>   0.0800 
 33 H       -3.6150    -3.2320     0.9230 H     1 <1>   0.0800 
 34 H       -4.4890    -3.1330    -0.6090 H     1 <1>   0.0800 
 35 H       -3.3440    -6.1790    -1.6100 H     1 <1>   0.0800 
 36 H       -2.0060    -6.3710    -0.4920 H     1 <1>   0.0800 
 37 H       -5.6710    -5.0480    -0.2040 H     1 <1>   0.0800 
 38 H       -3.4140    -6.2440     1.3930 H     1 <1>   0.0800 
 39 H       -4.6630    -4.7350     2.4240 H     1 <1>   0.4000 
 40 H       -5.2730    -7.3960    -0.6890 H     1 <1>   0.0800 
 41 H       -5.5000    -7.5670     1.0240 H     1 <1>   0.0800 
 42 H       -2.1140    -8.0490     1.0580 H     1 <1>   0.1500 
 43 H       -6.5300    -9.2270    -0.6480 H     1 <1>   0.1500 
 44 H       -0.9510   -10.1230     0.9560 H     1 <1>   0.1500 
 45 H       -3.7120   -13.2390    -0.7290 H     1 <1>   0.1500 
 46 H       -7.4460   -11.3330    -1.4490 H     1 <1>   0.1500 
 47 H       -6.0590   -13.3500    -1.5040 H     1 <1>   0.1500 
@<TRIPOS>BOND
  1   1   2  2   
  2   1   3  2   
  3   1   4  1   
  4   1   5  1   
  5   4   6  1   
  6   4  26  1   
  7   4  27  1   
  8   5  28  1   
  9   5  29  1   
 10   5  30  1   
 11   6   7  1   
 12   6  31  1   
 13   6  32  1   
 14   7   8  2   
 15   7   9  am  
 16   9  10  1   
 17   9  11  1   
 18  10  12  1   
 19  10  33  1   
 20  10  34  1   
 21  11  13  1   
 22  11  35  1   
 23  11  36  1   
 24  12  13  1   
 25  12  14  1   
 26  12  37  1   
 27  13  15  1   
 28  13  38  1   
 29  14  39  1   
 30  15  16  1   
 31  15  40  1   
 32  15  41  1   
 33  16  17  ar  
 34  16  18  ar  
 35  17  19  ar  
 36  17  20  ar  
 37  18  21  ar  
 38  18  42  1   
 39  19  22  ar  
 40  19  23  ar  
 41  20  24  ar  
 42  20  43  1   
 43  21  22  ar  
 44  21  44  1   
 45  23  25  ar  
 46  23  45  1   
 47  24  25  ar  
 48  24  46  1   
 49  25  47  1   
@<TRIPOS>SUBSTRUCTURE
  1 ****  11 GROUP 4 **** **** 0

# MOE 2024.06 (io_trps.svl 2023.06)
