@<TRIPOS>MOLECULE
NONAME
56 58 1 0 0 
SMALL
USER_CHARGES


@<TRIPOS>ATOM
  1 O        0.0490    -1.9090    -0.0910 O.2   1 <1>  -0.5700 
  2 C        1.0050    -2.5910     0.1920 C.2   1 <1>   0.5690 
  3 N        0.9340    -3.5750     1.1420 N.am  1 <1>  -0.6600 
  4 C        2.2890    -2.3520    -0.5870 C.3   1 <1>  -0.0990 
  5 C        2.0710    -4.4770     1.4920 C.3   1 <1>   0.1400 
  6 C       -0.3430    -3.8430     1.8950 C.3   1 <1>   0.2010 
  7 C        3.5210    -3.0500     0.0070 C.3   1 <1>  -0.1600 
  8 C        3.1520    -4.4790     0.4100 C.3   1 <1>  -0.1600 
  9 C       -0.9020    -5.2450     1.6340 C.2   1 <1>   0.5690 
 10 O       -0.8470    -6.0410     2.5450 O.2   1 <1>  -0.5700 
 11 N       -1.3860    -5.5940     0.4000 N.am  1 <1>  -0.6600 
 12 C       -1.4060    -7.0340     0.0080 C.3   1 <1>   0.3640 
 13 C       -1.6490    -4.5990    -0.6850 C.3   1 <1>   0.1400 
 14 C        0.0290    -7.4030    -0.3930 C.ar  1 <1>  -0.1440 
 15 C       -2.4750    -7.3790    -1.0730 C.3   1 <1>   0.2000 
 16 C       -2.4800    -5.1560    -1.8560 C.3   1 <1>   0.1200 
 17 C        0.8470    -7.9900     0.5620 C.ar  1 <1>  -0.1500 
 18 C        0.5580    -7.1330    -1.6470 C.ar  1 <1>  -0.1500 
 19 O       -3.2350    -6.2650    -1.4730 O.3   1 <1>  -0.5600 
 20 C       -3.4700    -8.4330    -0.5700 C.3   1 <1>   0.1200 
 21 C        2.1800    -8.2960     0.2970 C.ar  1 <1>   0.0820 
 22 C        1.8730    -7.4490    -1.9340 C.ar  1 <1>  -0.1500 
 23 O       -2.8150    -9.6280    -0.2810 O.3   1 <1>  -0.6800 
 24 O        2.9930    -8.8130     1.2650 O.3   1 <1>  -0.3630 
 25 C        2.6910    -8.0330    -0.9830 C.ar  1 <1>   0.0820 
 26 C        2.5680    -8.9460     2.6050 C.3   1 <1>   0.0400 
 27 O        3.9640    -8.2900    -1.3980 O.3   1 <1>  -0.3630 
 28 C        4.6670    -9.4150    -0.9200 C.3   1 <1>   0.0400 
 29 H        2.1280    -2.7140    -1.5860 H     1 <1>   0.0800 
 30 H        2.4670    -1.2940    -0.6460 H     1 <1>   0.0800 
 31 H        2.4950    -4.1460     2.4240 H     1 <1>   0.0800 
 32 H        1.7180    -5.4850     1.6260 H     1 <1>   0.0800 
 33 H       -0.1460    -3.7460     2.9470 H     1 <1>   0.0800 
 34 H       -1.0930    -3.1160     1.6440 H     1 <1>   0.0800 
 35 H        4.3190    -3.0600    -0.7150 H     1 <1>   0.0800 
 36 H        3.8570    -2.5090     0.8750 H     1 <1>   0.0800 
 37 H        4.0210    -4.9940     0.7810 H     1 <1>   0.0800 
 38 H        2.7950    -5.0260    -0.4460 H     1 <1>   0.0800 
 39 H       -1.6510    -7.6110     0.8840 H     1 <1>   0.0800 
 40 H       -2.1720    -3.7550    -0.2700 H     1 <1>   0.0800 
 41 H       -0.7130    -4.2410    -1.0740 H     1 <1>   0.0800 
 42 H       -2.0000    -7.7680    -1.9540 H     1 <1>   0.0800 
 43 H       -1.8450    -5.4400    -2.6750 H     1 <1>   0.0800 
 44 H       -3.1580    -4.4010    -2.2100 H     1 <1>   0.0800 
 45 H        0.4220    -8.1850     1.5290 H     1 <1>   0.1500 
 46 H       -0.0350    -6.6680    -2.4100 H     1 <1>   0.1500 
 47 H       -4.2200    -8.6320    -1.3150 H     1 <1>   0.0800 
 48 H       -3.9440    -8.0900     0.3340 H     1 <1>   0.0800 
 49 H        2.2780    -7.2410    -2.9080 H     1 <1>   0.1500 
 50 H       -2.5160   -10.0730    -1.0990 H     1 <1>   0.4000 
 51 H        3.3990    -9.3040     3.1850 H     1 <1>   0.0800 
 52 H        1.7610    -9.6560     2.6470 H     1 <1>   0.0800 
 53 H        2.2530    -7.9840     2.9710 H     1 <1>   0.0800 
 54 H        5.4480    -9.6450    -1.6210 H     1 <1>   0.0800 
 55 H        3.9880   -10.2460    -0.8370 H     1 <1>   0.0800 
 56 H        5.0960    -9.1760     0.0360 H     1 <1>   0.0800 
@<TRIPOS>BOND
  1   1   2  2   
  2   2   3  am  
  3   2   4  1   
  4   3   5  1   
  5   3   6  1   
  6   4   7  1   
  7   4  29  1   
  8   4  30  1   
  9   5   8  1   
 10   5  31  1   
 11   5  32  1   
 12   6   9  1   
 13   6  33  1   
 14   6  34  1   
 15   7   8  1   
 16   7  35  1   
 17   7  36  1   
 18   8  37  1   
 19   8  38  1   
 20   9  10  2   
 21   9  11  am  
 22  11  12  1   
 23  11  13  1   
 24  12  14  1   
 25  12  15  1   
 26  12  39  1   
 27  13  16  1   
 28  13  40  1   
 29  13  41  1   
 30  14  17  ar  
 31  14  18  ar  
 32  15  19  1   
 33  15  20  1   
 34  15  42  1   
 35  16  19  1   
 36  16  43  1   
 37  16  44  1   
 38  17  21  ar  
 39  17  45  1   
 40  18  22  ar  
 41  18  46  1   
 42  20  23  1   
 43  20  47  1   
 44  20  48  1   
 45  21  24  1   
 46  21  25  ar  
 47  22  25  ar  
 48  22  49  1   
 49  23  50  1   
 50  24  26  1   
 51  25  27  1   
 52  26  51  1   
 53  26  52  1   
 54  26  53  1   
 55  27  28  1   
 56  28  54  1   
 57  28  55  1   
 58  28  56  1   
@<TRIPOS>SUBSTRUCTURE
  1 ****  14 GROUP 4 **** **** 0

# MOE 2024.06 (io_trps.svl 2023.06)
