@<TRIPOS>MOLECULE
NONAME
27 28 1 0 0 
SMALL
USER_CHARGES


@<TRIPOS>ATOM
  1 O        0.4230    -0.6140    -0.9770 O.2   1 <1>  -0.5700 
  2 C        1.1910    -1.1180    -0.1980 C.2   1 <1>   0.6590 
  3 O        0.8790    -2.2040     0.4970 O.3   1 <1>  -0.4300 
  4 C        2.5760    -0.5610     0.0570 C.3   1 <1>  -0.0990 
  5 C       -0.3780    -2.8350     0.3640 C.3   1 <1>   0.0400 
  6 C        2.8650     0.7400    -0.7100 C.3   1 <1>   0.0630 
  7 C        4.2460     1.2380    -0.3890 C.ar  1 <1>  -0.1440 
  8 C        2.0030     1.9280    -0.2260 C.3   1 <1>   0.1200 
  9 C        4.1360     2.4000     0.3310 C.ar  1 <1>   0.0820 
 10 C        5.4890     0.7140    -0.6950 C.ar  1 <1>  -0.1500 
 11 O        2.8620     2.7780     0.5230 O.3   1 <1>  -0.3630 
 12 C        5.2480     3.0820     0.7860 C.ar  1 <1>  -0.1500 
 13 C        6.6200     1.3860    -0.2510 C.ar  1 <1>  -0.1500 
 14 C        6.4960     2.5590     0.4840 C.ar  1 <1>   0.0820 
 15 O        7.6060     3.1870     0.9020 O.3   1 <1>  -0.5320 
 16 H        2.6870    -0.3880     1.1120 H     1 <1>   0.0800 
 17 H        3.2910    -1.3080    -0.2320 H     1 <1>   0.0800 
 18 H       -0.4030    -3.6880     1.0180 H     1 <1>   0.0800 
 19 H       -0.5050    -3.1480    -0.6580 H     1 <1>   0.0800 
 20 H       -1.1500    -2.1360     0.6360 H     1 <1>   0.0800 
 21 H        2.7430     0.5930    -1.7690 H     1 <1>   0.0800 
 22 H        1.1840     1.6270     0.4020 H     1 <1>   0.0800 
 23 H        1.6320     2.4940    -1.0620 H     1 <1>   0.0800 
 24 H        5.5820    -0.1940    -1.2640 H     1 <1>   0.1500 
 25 H        5.1260     3.9870     1.3490 H     1 <1>   0.1500 
 26 H        7.6020     1.0060    -0.4710 H     1 <1>   0.1500 
 27 H        7.4140     3.9990     1.4030 H     1 <1>   0.4500 
@<TRIPOS>BOND
  1   1   2  2   
  2   2   3  1   
  3   2   4  1   
  4   3   5  1   
  5   4   6  1   
  6   4  16  1   
  7   4  17  1   
  8   5  18  1   
  9   5  19  1   
 10   5  20  1   
 11   6   7  1   
 12   6   8  1   
 13   6  21  1   
 14   7   9  ar  
 15   7  10  ar  
 16   8  11  1   
 17   8  22  1   
 18   8  23  1   
 19   9  11  1   
 20   9  12  ar  
 21  10  13  ar  
 22  10  24  1   
 23  12  14  ar  
 24  12  25  1   
 25  13  14  ar  
 26  13  26  1   
 27  14  15  1   
 28  15  27  1   
@<TRIPOS>SUBSTRUCTURE
  1 ****   7 GROUP 4 **** **** 0

# MOE 2024.06 (io_trps.svl 2023.06)
