@<TRIPOS>MOLECULE
NONAME
43 45 1 0 0 
SMALL
USER_CHARGES


@<TRIPOS>ATOM
  1 S        0.3360     0.0950    -1.1070 S.3   1 <1>  -0.0800 
  2 C        1.0870    -0.8590     0.1530 C.2   1 <1>  -0.1400 
  3 C       -0.1800    -1.3590    -1.9330 C.2   1 <1>  -0.1100 
  4 C        0.9520    -2.1710    -0.0840 C.2   1 <1>  -0.1810 
  5 C        1.7760    -0.1930     1.3220 C.3   1 <1>   0.0200 
  6 C        0.2020    -2.4820    -1.2750 C.2   1 <1>  -0.0860 
  7 C        1.5340    -3.2180     0.8550 C.3   1 <1>   0.0210 
  8 C        2.0230    -1.2450     2.4200 C.3   1 <1>  -0.1600 
  9 C       -0.0960    -3.8430    -1.6570 C.2   1 <1>   0.7160 
 10 C        2.5360    -2.5790     1.8380 C.3   1 <1>  -0.1600 
 11 O        0.7910    -4.5440    -2.1060 O.2   1 <1>  -0.5700 
 12 N       -1.3560    -4.3660    -1.4870 N.am  1 <1>  -0.6600 
 13 C       -1.6210    -5.8140    -1.7560 C.3   1 <1>   0.3210 
 14 C       -2.5310    -3.6030    -0.9550 C.3   1 <1>   0.1400 
 15 C       -1.9110    -6.5650    -0.4620 C.2   1 <1>   0.0460 
 16 C       -2.5210    -3.4750     0.5780 C.3   1 <1>   0.1200 
 17 N       -3.1750    -6.7000    -0.0050 N.2   1 <1>  -0.5650 
 18 C       -1.0310    -7.1620     0.3770 C.2   1 <1>  -0.3320 
 19 O       -1.8540    -2.3250     0.9780 O.3   1 <1>  -0.6800 
 20 C       -3.0390    -7.3740     1.0890 C.2   1 <1>   0.0360 
 21 N       -1.7600    -7.6860     1.3790 N.pl3 1 <1>   0.0330 
 22 C        0.4840    -7.2700     0.3080 C.3   1 <1>  -0.0600 
 23 H       -0.7360    -1.2360    -2.8440 H     1 <1>   0.1500 
 24 H        1.1640     0.6030     1.7080 H     1 <1>   0.0800 
 25 H        2.7100     0.2220     0.9860 H     1 <1>   0.0800 
 26 H        2.0370    -3.9810     0.2860 H     1 <1>   0.0800 
 27 H        0.7320    -3.6810     1.4020 H     1 <1>   0.0800 
 28 H        1.0960    -1.4280     2.9370 H     1 <1>   0.0800 
 29 H        2.7280    -0.8580     3.1340 H     1 <1>   0.0800 
 30 H        3.4600    -2.3940     1.3170 H     1 <1>   0.0800 
 31 H        2.7420    -3.2700     2.6360 H     1 <1>   0.0800 
 32 H       -0.7830    -6.2770    -2.2450 H     1 <1>   0.0800 
 33 H       -2.4660    -5.9080    -2.4150 H     1 <1>   0.0800 
 34 H       -3.4280    -4.1300    -1.2330 H     1 <1>   0.0800 
 35 H       -2.5860    -2.6270    -1.4030 H     1 <1>   0.0800 
 36 H       -2.0520    -4.3280     1.0380 H     1 <1>   0.0800 
 37 H       -3.5300    -3.3970     0.9440 H     1 <1>   0.0800 
 38 H       -0.9700    -2.2560     0.5490 H     1 <1>   0.4000 
 39 H       -3.8570    -7.6680     1.7250 H     1 <1>   0.1500 
 40 H       -1.4220    -8.2120     2.1900 H     1 <1>   0.2700 
 41 H        0.8610    -6.7750    -0.5690 H     1 <1>   0.0800 
 42 H        0.7810    -8.3020     0.2690 H     1 <1>   0.0800 
 43 H        0.9280    -6.8090     1.1720 H     1 <1>   0.0800 
@<TRIPOS>BOND
  1   1   2  1   
  2   1   3  1   
  3   2   4  2   
  4   2   5  1   
  5   3   6  2   
  6   3  23  1   
  7   4   6  1   
  8   4   7  1   
  9   5   8  1   
 10   5  24  1   
 11   5  25  1   
 12   6   9  1   
 13   7  10  1   
 14   7  26  1   
 15   7  27  1   
 16   8  10  1   
 17   8  28  1   
 18   8  29  1   
 19   9  11  2   
 20   9  12  am  
 21  10  30  1   
 22  10  31  1   
 23  12  13  1   
 24  12  14  1   
 25  13  15  1   
 26  13  32  1   
 27  13  33  1   
 28  14  16  1   
 29  14  34  1   
 30  14  35  1   
 31  15  17  1   
 32  15  18  2   
 33  16  19  1   
 34  16  36  1   
 35  16  37  1   
 36  17  20  2   
 37  18  21  1   
 38  18  22  1   
 39  19  38  1   
 40  20  21  1   
 41  20  39  1   
 42  21  40  1   
 43  22  41  1   
 44  22  42  1   
 45  22  43  1   
@<TRIPOS>SUBSTRUCTURE
  1 ****   9 GROUP 4 **** **** 0

# MOE 2024.06 (io_trps.svl 2023.06)
