@<TRIPOS>MOLECULE
NONAME
50 53 1 0 0 
SMALL
USER_CHARGES


@<TRIPOS>ATOM
  1 CL      -0.4960    -2.0750     3.7720 Cl    1 <1>  -0.1230 
  2 C       -1.2980    -2.7210     2.3590 C.2   1 <1>   0.4120 
  3 N       -2.3210    -2.1790     1.8060 N.2   1 <1>  -0.4100 
  4 C       -0.8960    -3.8820     1.7140 C.2   1 <1>  -0.1500 
  5 O       -2.6080    -2.9570     0.7980 O.3   1 <1>  -0.0190 
  6 C       -1.7870    -3.9780     0.7140 C.2   1 <1>  -0.0400 
  7 C       -1.9590    -5.0040    -0.3900 C.3   1 <1>   0.0200 
  8 C       -3.3340    -5.6830    -0.2970 C.3   1 <1>  -0.0990 
  9 C       -3.5520    -6.7670    -1.3430 C.2   1 <1>   0.5690 
 10 O       -2.6540    -6.9980    -2.1190 O.2   1 <1>  -0.5700 
 11 N       -4.7380    -7.4560    -1.3810 N.am  1 <1>  -0.6600 
 12 C       -5.9030    -7.2330    -0.4780 C.3   1 <1>   0.1400 
 13 C       -4.9590    -8.5670    -2.3500 C.3   1 <1>   0.1400 
 14 C       -6.1630    -8.5070     0.3300 C.3   1 <1>  -0.1600 
 15 C       -5.2180    -9.8660    -1.5810 C.3   1 <1>  -0.1600 
 16 C       -6.3820    -9.7310    -0.5830 C.3   1 <1>   0.4240 
 17 O       -7.4920    -9.4290    -1.4020 O.3   1 <1>  -0.5600 
 18 C       -6.6010   -11.0450     0.2220 C.ar  1 <1>  -0.1430 
 19 C       -8.7630    -9.6810    -0.8980 C.3   1 <1>   0.1200 
 20 C       -5.6160   -11.5790     1.0640 C.ar  1 <1>   0.0830 
 21 C       -7.8120   -11.7290     0.1160 C.ar  1 <1>  -0.1430 
 22 C       -8.9240   -11.1860    -0.7580 C.3   1 <1>  -0.0170 
 23 O       -4.4350   -10.9190     1.2000 O.3   1 <1>  -0.3630 
 24 C       -5.8510   -12.7660     1.7550 C.ar  1 <1>  -0.1500 
 25 C       -8.0330   -12.9100     0.8040 C.ar  1 <1>  -0.1500 
 26 C       -3.3120   -11.4920     1.8320 C.3   1 <1>   0.0400 
 27 C       -7.0520   -13.4310     1.6230 C.ar  1 <1>  -0.1500 
 28 H       -0.0700    -4.5100     1.9890 H     1 <1>   0.1500 
 29 H       -1.1830    -5.7460    -0.3100 H     1 <1>   0.0800 
 30 H       -1.8580    -4.5190    -1.3450 H     1 <1>   0.0800 
 31 H       -4.0960    -4.9370    -0.4190 H     1 <1>   0.0800 
 32 H       -3.4380    -6.1270     0.6750 H     1 <1>   0.0800 
 33 H       -6.7670    -6.9960    -1.0760 H     1 <1>   0.0800 
 34 H       -5.7330    -6.4120     0.1940 H     1 <1>   0.0800 
 35 H       -4.1040    -8.6930    -2.9910 H     1 <1>   0.0800 
 36 H       -5.8060    -8.3300    -2.9710 H     1 <1>   0.0800 
 37 H       -7.0130    -8.3720     0.9710 H     1 <1>   0.0800 
 38 H       -5.3160    -8.6650     0.9670 H     1 <1>   0.0800 
 39 H       -4.3090   -10.1290    -1.0790 H     1 <1>   0.0800 
 40 H       -5.4400   -10.6590    -2.2710 H     1 <1>   0.0800 
 41 H       -9.4800    -9.2870    -1.5960 H     1 <1>   0.0800 
 42 H       -8.8780    -9.1850     0.0490 H     1 <1>   0.0800 
 43 H       -8.8820   -11.6450    -1.7290 H     1 <1>   0.0800 
 44 H       -9.8820   -11.3980    -0.3210 H     1 <1>   0.0800 
 45 H       -5.1120   -13.1910     2.4060 H     1 <1>   0.1500 
 46 H       -8.9700   -13.4310     0.7060 H     1 <1>   0.1500 
 47 H       -2.4830   -10.8190     1.7130 H     1 <1>   0.0800 
 48 H       -3.0890   -12.4340     1.3620 H     1 <1>   0.0800 
 49 H       -3.5280   -11.6230     2.8780 H     1 <1>   0.0800 
 50 H       -7.2270   -14.3480     2.1580 H     1 <1>   0.1500 
@<TRIPOS>BOND
  1   1   2  1   
  2   2   3  2   
  3   2   4  1   
  4   3   5  1   
  5   4   6  2   
  6   4  28  1   
  7   5   6  1   
  8   6   7  1   
  9   7   8  1   
 10   7  29  1   
 11   7  30  1   
 12   8   9  1   
 13   8  31  1   
 14   8  32  1   
 15   9  10  2   
 16   9  11  am  
 17  11  12  1   
 18  11  13  1   
 19  12  14  1   
 20  12  33  1   
 21  12  34  1   
 22  13  15  1   
 23  13  35  1   
 24  13  36  1   
 25  14  16  1   
 26  14  37  1   
 27  14  38  1   
 28  15  16  1   
 29  15  39  1   
 30  15  40  1   
 31  16  17  1   
 32  16  18  1   
 33  17  19  1   
 34  18  20  ar  
 35  18  21  ar  
 36  19  22  1   
 37  19  41  1   
 38  19  42  1   
 39  20  23  1   
 40  20  24  ar  
 41  21  22  1   
 42  21  25  ar  
 43  22  43  1   
 44  22  44  1   
 45  23  26  1   
 46  24  27  ar  
 47  24  45  1   
 48  25  27  ar  
 49  25  46  1   
 50  26  47  1   
 51  26  48  1   
 52  26  49  1   
 53  27  50  1   
@<TRIPOS>SUBSTRUCTURE
  1 ****  14 GROUP 4 **** **** 0

# MOE 2024.06 (io_trps.svl 2023.06)
