@<TRIPOS>MOLECULE
NONAME
49 52 1 0 0 
SMALL
USER_CHARGES


@<TRIPOS>ATOM
  1 S        1.0420     0.7070    -1.1380 S.3   1 <1>  -0.0800 
  2 C        1.5140    -0.5940    -0.0400 C.2   1 <1>   0.3250 
  3 C        1.7420     1.8820    -0.0750 C.2   1 <1>  -0.1100 
  4 N        2.1420    -0.1300     0.9970 N.2   1 <1>  -0.5650 
  5 C        1.1680    -1.9670    -0.4010 C.ar  1 <1>   0.6730 
  6 C        2.2650     1.2460     0.9840 C.2   1 <1>   0.0460 
  7 N        1.5440    -2.9500     0.4330 N.ar  1 <1>  -0.6200 
  8 N        0.4970    -2.1760    -1.5460 N.ar  1 <1>  -0.6200 
  9 C        2.9800     1.8860     2.1690 C.3   1 <1>   0.3900 
 10 C        1.2290    -4.1780     0.1030 C.ar  1 <1>   0.1600 
 11 C        0.1950    -3.4140    -1.8520 C.ar  1 <1>   0.1600 
 12 N        3.4590     3.2620     1.8530 N.pl3 1 <1>  -0.8690 
 13 C        0.5430    -4.4690    -1.0480 C.ar  1 <1>  -0.1500 
 14 C        4.4970     3.6270     1.0860 C.ar  1 <1>   0.4100 
 15 N        4.7410     4.9170     1.0580 N.ar  1 <1>  -0.6200 
 16 C        5.2650     2.7020     0.3570 C.ar  1 <1>  -0.1500 
 17 C        5.7540     5.3470     0.3160 C.ar  1 <1>   0.7710 
 18 C        6.2960     3.1550    -0.3930 C.ar  1 <1>   0.2180 
 19 N        6.5190     4.4920    -0.3900 N.ar  1 <1>  -0.1790 
 20 N        6.0300     6.6790     0.2690 N.pl3 1 <1>  -0.8380 
 21 C        7.1970     2.2490    -1.2230 C.3   1 <1>  -0.0170 
 22 C        5.3130     7.6720     1.1540 C.3   1 <1>   0.2090 
 23 C        7.0170     7.3830    -0.6250 C.3   1 <1>   0.2090 
 24 C        8.6550     2.2870    -0.7450 C.3   1 <1>  -0.2400 
 25 C        4.7550     8.8490     0.3370 C.3   1 <1>   0.1200 
 26 C        6.3600     8.5740    -1.3500 C.3   1 <1>   0.1200 
 27 O        5.7660     9.4380    -0.4290 O.3   1 <1>  -0.5600 
 28 H        1.6870     2.9190    -0.3500 H     1 <1>   0.1500 
 29 H        3.8220     1.2740     2.4420 H     1 <1>   0.0800 
 30 H        2.3110     1.9170     3.0110 H     1 <1>   0.0800 
 31 H        1.5260    -4.9710     0.7690 H     1 <1>   0.1500 
 32 H       -0.3450    -3.5910    -2.7680 H     1 <1>   0.1500 
 33 H        2.9330     4.0110     2.3110 H     1 <1>   0.4000 
 34 H        0.2890    -5.4790    -1.3090 H     1 <1>   0.1500 
 35 H        5.0180     1.6580     0.4080 H     1 <1>   0.1500 
 36 H        7.2910     4.9010    -0.8960 H     1 <1>   0.4570 
 37 H        7.1470     2.5370    -2.2600 H     1 <1>   0.0800 
 38 H        6.8400     1.2350    -1.1580 H     1 <1>   0.0800 
 39 H        6.0040     8.0580     1.8840 H     1 <1>   0.0800 
 40 H        4.4990     7.2210     1.6940 H     1 <1>   0.0800 
 41 H        7.4230     6.7220    -1.3680 H     1 <1>   0.0800 
 42 H        7.8330     7.7570    -0.0290 H     1 <1>   0.0800 
 43 H        9.0870     3.2640    -0.8610 H     1 <1>   0.0800 
 44 H        9.2440     1.5920    -1.3200 H     1 <1>   0.0800 
 45 H        8.7190     1.9980     0.2910 H     1 <1>   0.0800 
 46 H        4.3620     9.6040     0.9950 H     1 <1>   0.0800 
 47 H        3.9680     8.5200    -0.3190 H     1 <1>   0.0800 
 48 H        5.6070     8.2390    -2.0420 H     1 <1>   0.0800 
 49 H        7.1000     9.1370    -1.8910 H     1 <1>   0.0800 
@<TRIPOS>BOND
  1   1   2  1   
  2   1   3  1   
  3   2   4  2   
  4   2   5  1   
  5   3   6  2   
  6   3  28  1   
  7   4   6  1   
  8   5   7  ar  
  9   5   8  ar  
 10   6   9  1   
 11   7  10  ar  
 12   8  11  ar  
 13   9  12  1   
 14   9  29  1   
 15   9  30  1   
 16  10  13  ar  
 17  10  31  1   
 18  11  13  ar  
 19  11  32  1   
 20  12  14  1   
 21  12  33  1   
 22  13  34  1   
 23  14  15  ar  
 24  14  16  ar  
 25  15  17  ar  
 26  16  18  ar  
 27  16  35  1   
 28  17  19  ar  
 29  17  20  1   
 30  18  19  ar  
 31  18  21  1   
 32  19  36  1   
 33  20  22  1   
 34  20  23  1   
 35  21  24  1   
 36  21  37  1   
 37  21  38  1   
 38  22  25  1   
 39  22  39  1   
 40  22  40  1   
 41  23  26  1   
 42  23  41  1   
 43  23  42  1   
 44  24  43  1   
 45  24  44  1   
 46  24  45  1   
 47  25  27  1   
 48  25  46  1   
 49  25  47  1   
 50  26  27  1   
 51  26  48  1   
 52  26  49  1   
@<TRIPOS>SUBSTRUCTURE
  1 ****  16 GROUP 4 **** **** 0

# MOE 2024.06 (io_trps.svl 2023.06)
