@<TRIPOS>MOLECULE
NONAME
51 52 1 0 0 
SMALL
USER_CHARGES


@<TRIPOS>ATOM
  1 O        3.3430     0.3420     0.5850 O.2   1 <1>  -0.5700 
  2 C        2.1980     0.2460     0.1870 C.2   1 <1>   0.5440 
  3 N        1.5080     1.3980    -0.0780 N.am  1 <1>  -0.7300 
  4 C        1.5810    -1.0550    -0.0070 C.ar  1 <1>   0.0860 
  5 C        2.0990     2.7520     0.0100 C.3   1 <1>   0.1400 
  6 C        2.3520    -2.1630    -0.3520 C.ar  1 <1>  -0.1500 
  7 C        0.2060    -1.2530     0.1410 C.ar  1 <1>  -0.1500 
  8 C        2.0940     3.2200     1.4620 C.3   1 <1>  -0.0990 
  9 C        1.7910    -3.4110    -0.5550 C.ar  1 <1>   0.0830 
 10 C       -0.3700    -2.4950    -0.0590 C.ar  1 <1>  -0.1500 
 11 C        2.9540     4.4490     1.6040 C.2   1 <1>   0.5690 
 12 O        2.6380    -4.4140    -0.8930 O.3   1 <1>  -0.3630 
 13 C        0.4170    -3.5760    -0.4090 C.ar  1 <1>  -0.1500 
 14 O        2.4420     5.5390     1.5430 O.2   1 <1>  -0.5700 
 15 N        4.2850     4.2860     1.7670 N.am  1 <1>  -0.7300 
 16 C        2.1770    -5.7310    -1.0940 C.3   1 <1>   0.0400 
 17 C        5.2600     5.3680     1.9580 C.3   1 <1>   0.4000 
 18 C        6.1440     5.4660     0.7170 C.2   1 <1>   0.0060 
 19 C        6.0490     5.0590     3.2300 C.3   1 <1>  -0.2400 
 20 N        7.3190     4.9390     0.6000 N.2   1 <1>  -0.3380 
 21 N        5.7860     6.1070    -0.4060 N.pl3 1 <1>   0.0480 
 22 N        7.7650     5.2270    -0.6210 N.2   1 <1>  -0.3380 
 23 C        6.8440     5.9140    -1.1980 C.2   1 <1>   0.0360 
 24 C        4.5360     6.8430    -0.7340 C.3   1 <1>   0.1760 
 25 C        3.7290     6.0670    -1.7800 C.3   1 <1>  -0.2400 
 26 C        4.8570     8.2590    -1.2280 C.3   1 <1>  -0.2400 
 27 H        0.5780     1.3370    -0.4930 H     1 <1>   0.3700 
 28 H        1.5430     3.4380    -0.6060 H     1 <1>   0.0800 
 29 H        3.1130     2.7120    -0.3560 H     1 <1>   0.0800 
 30 H        3.4160    -2.0490    -0.4640 H     1 <1>   0.1500 
 31 H       -0.4220    -0.4280     0.4260 H     1 <1>   0.1500 
 32 H        2.4880     2.4510     2.1020 H     1 <1>   0.0800 
 33 H        1.0910     3.4490     1.7720 H     1 <1>   0.0800 
 34 H       -1.4330    -2.6230     0.0600 H     1 <1>   0.1500 
 35 H       -0.0510    -4.5310    -0.5610 H     1 <1>   0.1500 
 36 H        4.7040     3.3540     1.7060 H     1 <1>   0.3700 
 37 H        3.0240    -6.3470    -1.3380 H     1 <1>   0.0800 
 38 H        1.4760    -5.7350    -1.9090 H     1 <1>   0.0800 
 39 H        1.7190    -6.0830    -0.1870 H     1 <1>   0.0800 
 40 H        4.7460     6.3030     2.1030 H     1 <1>   0.0800 
 41 H        6.5600     4.1170     3.1390 H     1 <1>   0.0800 
 42 H        5.3900     5.0320     4.0780 H     1 <1>   0.0800 
 43 H        6.7840     5.8270     3.3900 H     1 <1>   0.0800 
 44 H        6.9040     6.2940    -2.2010 H     1 <1>   0.1500 
 45 H        3.9450     6.9310     0.1580 H     1 <1>   0.0800 
 46 H        4.2690     5.9950    -2.7070 H     1 <1>   0.0800 
 47 H        2.7950     6.5680    -1.9650 H     1 <1>   0.0800 
 48 H        3.5130     5.0790    -1.4170 H     1 <1>   0.0800 
 49 H        5.4050     8.2330    -2.1520 H     1 <1>   0.0800 
 50 H        5.4310     8.7880    -0.4880 H     1 <1>   0.0800 
 51 H        3.9430     8.8020    -1.3930 H     1 <1>   0.0800 
@<TRIPOS>BOND
  1   1   2  2   
  2   2   3  am  
  3   2   4  1   
  4   3   5  1   
  5   3  27  1   
  6   4   6  ar  
  7   4   7  ar  
  8   5   8  1   
  9   5  28  1   
 10   5  29  1   
 11   6   9  ar  
 12   6  30  1   
 13   7  10  ar  
 14   7  31  1   
 15   8  11  1   
 16   8  32  1   
 17   8  33  1   
 18   9  12  1   
 19   9  13  ar  
 20  10  13  ar  
 21  10  34  1   
 22  11  14  2   
 23  11  15  am  
 24  12  16  1   
 25  13  35  1   
 26  15  17  1   
 27  15  36  1   
 28  16  37  1   
 29  16  38  1   
 30  16  39  1   
 31  17  18  1   
 32  17  19  1   
 33  17  40  1   
 34  18  20  2   
 35  18  21  1   
 36  19  41  1   
 37  19  42  1   
 38  19  43  1   
 39  20  22  1   
 40  21  23  1   
 41  21  24  1   
 42  22  23  2   
 43  23  44  1   
 44  24  25  1   
 45  24  26  1   
 46  24  45  1   
 47  25  46  1   
 48  25  47  1   
 49  25  48  1   
 50  26  49  1   
 51  26  50  1   
 52  26  51  1   
@<TRIPOS>SUBSTRUCTURE
  1 ****   5 GROUP 4 **** **** 0

# MOE 2024.06 (io_trps.svl 2023.06)
