@<TRIPOS>MOLECULE
NONAME
50 53 1 0 0 
SMALL
USER_CHARGES


@<TRIPOS>ATOM
  1 O       -1.9360     0.4580     2.2280 O.2   1 <1>  -0.5700 
  2 C       -2.0140     1.1070     1.1970 C.2   1 <1>   0.5440 
  3 N       -2.6260     0.5630     0.0900 N.am  1 <1>  -0.4200 
  4 C       -1.4870     2.4380     1.0900 C.ar  1 <1>   0.0860 
  5 C       -2.7150     1.3020    -1.0660 C.2   1 <1>   0.4500 
  6 C       -3.1830    -0.8140     0.1490 C.3   1 <1>   0.0600 
  7 C       -1.6340     3.0950    -0.1350 C.ar  1 <1>   0.1790 
  8 C       -0.8390     3.1100     2.1280 C.ar  1 <1>  -0.1500 
  9 N       -2.2630     2.4910    -1.2050 N.2   1 <1>  -0.6290 
 10 C       -1.1410     4.3840    -0.2930 C.ar  1 <1>  -0.1500 
 11 C       -0.3600     4.3910     1.9540 C.ar  1 <1>  -0.1500 
 12 C       -0.5030     5.0680     0.7370 C.ar  1 <1>   0.0860 
 13 C       -0.0020     6.4220     0.5760 C.2   1 <1>   0.5440 
 14 O        0.9620     6.7980     1.2170 O.2   1 <1>  -0.5700 
 15 N       -0.6310     7.2850    -0.2930 N.am  1 <1>  -0.4940 
 16 C       -0.4370     8.6610    -0.5850 C.2   1 <1>  -0.0880 
 17 N        0.7260     9.3740    -0.6690 N.pl3 1 <1>   0.3140 
 18 C       -1.4320     9.5370    -0.8580 C.2   1 <1>  -0.1500 
 19 N        0.4830    10.6740    -0.9750 N.2   1 <1>  -0.7070 
 20 C        2.1250     8.9030    -0.5040 C.3   1 <1>   0.1760 
 21 C       -0.8060    10.7550    -1.0850 C.2   1 <1>   0.1390 
 22 C        2.6860     9.4100     0.8330 C.3   1 <1>  -0.1600 
 23 C        3.0250     9.3620    -1.6620 C.3   1 <1>  -0.1600 
 24 C        4.1180     8.9340     1.0220 C.3   1 <1>   0.3430 
 25 C        4.4630     8.9080    -1.4340 C.3   1 <1>   0.3430 
 26 N        4.9530     9.4170    -0.1190 N.4   1 <1>  -0.9590 
 27 C        6.3900     9.0670     0.0900 C.3   1 <1>   0.2630 
 28 H       -3.2040     0.8260    -1.8980 H     1 <1>   0.0600 
 29 H       -3.9370    -0.8620     0.9160 H     1 <1>   0.0800 
 30 H       -2.3980    -1.5080     0.3920 H     1 <1>   0.0800 
 31 H       -3.6210    -1.0910    -0.7930 H     1 <1>   0.0800 
 32 H       -0.7190     2.6090     3.0750 H     1 <1>   0.1500 
 33 H       -1.2620     4.8400    -1.2580 H     1 <1>   0.1500 
 34 H        0.1360     4.8890     2.7710 H     1 <1>   0.1500 
 35 H       -1.5160     6.9200    -0.6510 H     1 <1>   0.3700 
 36 H       -2.4920     9.3650    -0.8950 H     1 <1>   0.1500 
 37 H        2.1180     7.8310    -0.5160 H     1 <1>   0.0800 
 38 H       -1.3230    11.6700    -1.3240 H     1 <1>   0.1500 
 39 H        2.0860     9.0370     1.6440 H     1 <1>   0.0800 
 40 H        2.6520    10.4850     0.8680 H     1 <1>   0.0800 
 41 H        3.0040    10.4340    -1.7570 H     1 <1>   0.0800 
 42 H        2.6630     8.9400    -2.5830 H     1 <1>   0.0800 
 43 H        4.1370     7.8560     1.0650 H     1 <1>   0.0800 
 44 H        4.5030     9.3180     1.9530 H     1 <1>   0.0800 
 45 H        5.0870     9.2820    -2.2310 H     1 <1>   0.0800 
 46 H        4.5070     7.8300    -1.4470 H     1 <1>   0.0800 
 47 H        4.8660    10.4450    -0.1400 H     1 <1>   0.4500 
 48 H        6.5140     7.9960     0.1210 H     1 <1>   0.0800 
 49 H        6.7450     9.4820     1.0200 H     1 <1>   0.0800 
 50 H        6.9920     9.4610    -0.7130 H     1 <1>   0.0800 
@<TRIPOS>BOND
  1   1   2  2   
  2   2   3  am  
  3   2   4  1   
  4   3   5  1   
  5   3   6  1   
  6   4   7  ar  
  7   4   8  ar  
  8   5   9  2   
  9   5  28  1   
 10   6  29  1   
 11   6  30  1   
 12   6  31  1   
 13   7   9  1   
 14   7  10  ar  
 15   8  11  ar  
 16   8  32  1   
 17  10  12  ar  
 18  10  33  1   
 19  11  12  ar  
 20  11  34  1   
 21  12  13  1   
 22  13  14  2   
 23  13  15  am  
 24  15  16  1   
 25  15  35  1   
 26  16  17  1   
 27  16  18  2   
 28  17  19  1   
 29  17  20  1   
 30  18  21  1   
 31  18  36  1   
 32  19  21  2   
 33  20  22  1   
 34  20  23  1   
 35  20  37  1   
 36  21  38  1   
 37  22  24  1   
 38  22  39  1   
 39  22  40  1   
 40  23  25  1   
 41  23  41  1   
 42  23  42  1   
 43  24  26  1   
 44  24  43  1   
 45  24  44  1   
 46  25  26  1   
 47  25  45  1   
 48  25  46  1   
 49  26  27  1   
 50  26  47  1   
 51  27  48  1   
 52  27  49  1   
 53  27  50  1   
@<TRIPOS>SUBSTRUCTURE
  1 ****  13 GROUP 4 **** **** 0

# MOE 2024.06 (io_trps.svl 2023.06)
