@<TRIPOS>MOLECULE
NONAME
21 21 1 0 0 
SMALL
USER_CHARGES


@<TRIPOS>ATOM
  1 BR       0.0350    -0.4180     0.8050 Br    1 <1>  -0.1110 
  2 C       -1.4110     0.7190     0.2400 C.ar  1 <1>   0.1110 
  3 C       -2.3950     0.2090    -0.5820 C.ar  1 <1>   0.1600 
  4 C       -1.4410     2.0270     0.6650 C.ar  1 <1>  -0.1500 
  5 N       -3.4160     0.9260    -1.0180 N.ar  1 <1>  -0.6200 
  6 C       -2.5100     2.8100     0.2350 C.ar  1 <1>  -0.1430 
  7 C       -3.4420     2.1900    -0.6100 C.ar  1 <1>   0.4870 
  8 C       -2.6300     4.2870     0.6680 C.3   1 <1>   0.4240 
  9 CL      -4.8020     3.0700    -1.2580 Cl    1 <1>  -0.1770 
 10 O       -1.6260     4.5760     1.5620 O.3   1 <1>  -0.6800 
 11 C       -3.9110     4.6020     1.4440 C.3   1 <1>  -0.2400 
 12 C       -2.4020     5.2540    -0.4920 C.3   1 <1>  -0.2400 
 13 H       -2.3360    -0.8210    -0.8910 H     1 <1>   0.1500 
 14 H       -0.6470     2.3890     1.2940 H     1 <1>   0.1500 
 15 H       -1.7990     4.0960     2.3920 H     1 <1>   0.4000 
 16 H       -4.0800     3.8620     2.2060 H     1 <1>   0.0800 
 17 H       -4.7670     4.6200     0.8010 H     1 <1>   0.0800 
 18 H       -3.8410     5.5740     1.9010 H     1 <1>   0.0800 
 19 H       -1.4720     5.0270    -0.9810 H     1 <1>   0.0800 
 20 H       -2.3710     6.2670    -0.1330 H     1 <1>   0.0800 
 21 H       -3.1890     5.1860    -1.2180 H     1 <1>   0.0800 
@<TRIPOS>BOND
  1   1   2  1   
  2   2   3  ar  
  3   2   4  ar  
  4   3   5  ar  
  5   3  13  1   
  6   4   6  ar  
  7   4  14  1   
  8   5   7  ar  
  9   6   7  ar  
 10   6   8  1   
 11   7   9  1   
 12   8  10  1   
 13   8  11  1   
 14   8  12  1   
 15  10  15  1   
 16  11  16  1   
 17  11  17  1   
 18  11  18  1   
 19  12  19  1   
 20  12  20  1   
 21  12  21  1   
@<TRIPOS>SUBSTRUCTURE
  1 ****   6 GROUP 4 **** **** 0

# MOE 2024.06 (io_trps.svl 2023.06)
