@<TRIPOS>MOLECULE
NONAME
50 52 1 0 0 
SMALL
USER_CHARGES


@<TRIPOS>ATOM
  1 O        0.6840    -0.4210     1.6530 O.2   1 <1>  -0.5700 
  2 C        1.7550    -0.2820     1.1070 C.2   1 <1>   0.7150 
  3 N        2.5270    -1.3880     0.9620 N.am  1 <1>  -0.7300 
  4 C        2.2320     0.9960     0.6650 C.2   1 <1>  -0.2370 
  5 C        3.9960    -1.3170     0.7500 C.3   1 <1>   0.1400 
  6 N        3.0660     1.1680    -0.3870 N.pl3 1 <1>   0.3140 
  7 C        2.0140     2.2430     1.1510 C.2   1 <1>  -0.1500 
  8 C        4.3310    -0.9860    -0.7170 C.3   1 <1>   0.2000 
  9 N        3.4070     2.4450    -0.5640 N.2   1 <1>  -0.7070 
 10 C        3.4760     0.1260    -1.3520 C.3   1 <1>   0.0960 
 11 C        2.7670     3.1270     0.3780 C.2   1 <1>   0.2030 
 12 O        4.1350    -2.1380    -1.4630 O.3   1 <1>  -0.6800 
 13 C        2.7800     4.5720     0.6280 C.2   1 <1>   0.7160 
 14 O        1.8500     5.0450     1.2640 O.2   1 <1>  -0.5700 
 15 N        3.7880     5.4410     0.2150 N.am  1 <1>  -0.6600 
 16 C        3.5720     6.9240     0.2510 C.3   1 <1>   0.2200 
 17 C        5.1120     4.9590    -0.2830 C.3   1 <1>   0.1400 
 18 C        3.5610     7.5120    -1.1690 C.3   1 <1>  -0.1600 
 19 C        4.6040     7.6270     1.1460 C.3   1 <1>  -0.1600 
 20 C        5.9210     4.3350     0.8600 C.3   1 <1>  -0.1600 
 21 C        3.3150     9.0280    -1.1300 C.3   1 <1>  -0.1600 
 22 C        4.3550     9.1420     1.1810 C.3   1 <1>  -0.1600 
 23 C        7.3040     3.8850     0.3780 C.3   1 <1>  -0.2400 
 24 C        4.3420     9.7360    -0.2350 C.3   1 <1>  -0.1600 
 25 H        2.1600    -2.2190     1.4320 H     1 <1>   0.3700 
 26 H        4.4590    -2.2480     1.0300 H     1 <1>   0.0800 
 27 H        4.4030    -0.5480     1.3860 H     1 <1>   0.0800 
 28 H        1.3870     2.5230     1.9810 H     1 <1>   0.1500 
 29 H        5.3730    -0.7300    -0.7990 H     1 <1>   0.0800 
 30 H        4.0280     0.5940    -2.1460 H     1 <1>   0.0800 
 31 H        2.5770    -0.2920    -1.7640 H     1 <1>   0.0800 
 32 H        3.2420    -2.5010    -1.2870 H     1 <1>   0.4000 
 33 H        2.6050     7.1350     0.6740 H     1 <1>   0.0800 
 34 H        5.6740     5.7770    -0.6950 H     1 <1>   0.0800 
 35 H        4.9710     4.2510    -1.0790 H     1 <1>   0.0800 
 36 H        2.7810     7.0400    -1.7390 H     1 <1>   0.0800 
 37 H        4.4990     7.3330    -1.6600 H     1 <1>   0.0800 
 38 H        5.6000     7.4560     0.7800 H     1 <1>   0.0800 
 39 H        4.5310     7.2320     2.1440 H     1 <1>   0.0800 
 40 H        5.3980     3.4830     1.2550 H     1 <1>   0.0800 
 41 H        6.0410     5.0560     1.6500 H     1 <1>   0.0800 
 42 H        2.3240     9.2170    -0.7530 H     1 <1>   0.0800 
 43 H        3.3690     9.4280    -2.1280 H     1 <1>   0.0800 
 44 H        5.1210     9.6210     1.7670 H     1 <1>   0.0800 
 45 H        3.4080     9.3360     1.6570 H     1 <1>   0.0800 
 46 H        7.2070     3.1500    -0.4020 H     1 <1>   0.0800 
 47 H        7.8530     3.4470     1.1930 H     1 <1>   0.0800 
 48 H        7.8630     4.7220    -0.0010 H     1 <1>   0.0800 
 49 H        4.1100    10.7860    -0.1820 H     1 <1>   0.0800 
 50 H        5.3210     9.6370    -0.6710 H     1 <1>   0.0800 
@<TRIPOS>BOND
  1   1   2  2   
  2   2   3  am  
  3   2   4  1   
  4   3   5  1   
  5   3  25  1   
  6   4   6  1   
  7   4   7  2   
  8   5   8  1   
  9   5  26  1   
 10   5  27  1   
 11   6   9  1   
 12   6  10  1   
 13   7  11  1   
 14   7  28  1   
 15   8  10  1   
 16   8  12  1   
 17   8  29  1   
 18   9  11  2   
 19  10  30  1   
 20  10  31  1   
 21  11  13  1   
 22  12  32  1   
 23  13  14  2   
 24  13  15  am  
 25  15  16  1   
 26  15  17  1   
 27  16  18  1   
 28  16  19  1   
 29  16  33  1   
 30  17  20  1   
 31  17  34  1   
 32  17  35  1   
 33  18  21  1   
 34  18  36  1   
 35  18  37  1   
 36  19  22  1   
 37  19  38  1   
 38  19  39  1   
 39  20  23  1   
 40  20  40  1   
 41  20  41  1   
 42  21  24  1   
 43  21  42  1   
 44  21  43  1   
 45  22  24  1   
 46  22  44  1   
 47  22  45  1   
 48  23  46  1   
 49  23  47  1   
 50  23  48  1   
 51  24  49  1   
 52  24  50  1   
@<TRIPOS>SUBSTRUCTURE
  1 ****  11 GROUP 4 **** **** 0

# MOE 2024.06 (io_trps.svl 2023.06)
