@<TRIPOS>MOLECULE
NONAME
44 45 1 0 0 
SMALL
USER_CHARGES


@<TRIPOS>ATOM
  1 S        1.3640    -0.7410     1.5730 S.3   1 <1>  -0.0800 
  2 C        0.8840    -1.2850    -0.0230 C.2   1 <1>   0.1980 
  3 C        1.3800     0.8940     0.9810 C.2   1 <1>  -0.1100 
  4 N        0.7590    -0.3520    -0.8780 N.2   1 <1>  -0.5650 
  5 C        0.6750    -2.7710    -0.2210 C.3   1 <1>   0.0200 
  6 C        1.0370     0.8840    -0.3160 C.2   1 <1>   0.0770 
  7 C       -0.6260    -3.2240     0.4390 C.3   1 <1>   0.1400 
  8 N       -0.7530    -4.7000     0.3580 N.am  1 <1>  -0.7300 
  9 C       -1.5940    -5.3590    -0.4780 C.2   1 <1>   0.5690 
 10 O       -2.3180    -4.7890    -1.2550 O.2   1 <1>  -0.5700 
 11 C       -1.6300    -6.8680    -0.4220 C.3   1 <1>  -0.0990 
 12 C       -2.7020    -7.3560     0.5630 C.3   1 <1>  -0.0990 
 13 C       -2.7370    -8.8720     0.6190 C.2   1 <1>   0.5690 
 14 O       -1.9880    -9.3960     1.4090 O.2   1 <1>  -0.5700 
 15 N       -3.5600    -9.5990    -0.2030 N.am  1 <1>  -0.6600 
 16 C       -4.4710    -9.0290    -1.2320 C.3   1 <1>   0.1400 
 17 C       -3.5710   -11.0860    -0.1480 C.3   1 <1>   0.1400 
 18 C       -5.8560    -8.6980    -0.6580 C.3   1 <1>  -0.1600 
 19 C       -4.7650   -11.6060     0.6600 C.3   1 <1>  -0.1600 
 20 C       -6.3910    -9.6400     0.4350 C.3   1 <1>  -0.1600 
 21 C       -6.1480   -11.1340     0.1700 C.3   1 <1>  -0.1600 
 22 H        1.6430     1.6810     1.6630 H     1 <1>   0.1500 
 23 H        1.5110    -3.2990     0.1980 H     1 <1>   0.0800 
 24 H        0.6260    -2.9760    -1.2760 H     1 <1>   0.0800 
 25 H        0.9610     1.7500    -0.9520 H     1 <1>   0.1500 
 26 H       -1.4600    -2.7540    -0.0580 H     1 <1>   0.0800 
 27 H       -0.6430    -2.9270     1.4740 H     1 <1>   0.0800 
 28 H       -0.1770    -5.2370     1.0080 H     1 <1>   0.3700 
 29 H       -0.6670    -7.2430    -0.1270 H     1 <1>   0.0800 
 30 H       -1.8410    -7.2420    -1.4070 H     1 <1>   0.0800 
 31 H       -3.6620    -6.9620     0.2950 H     1 <1>   0.0800 
 32 H       -2.4730    -6.9900     1.5480 H     1 <1>   0.0800 
 33 H       -4.5870    -9.7430    -2.0290 H     1 <1>   0.0800 
 34 H       -4.0380    -8.1450    -1.6680 H     1 <1>   0.0800 
 35 H       -2.6610   -11.4430     0.3040 H     1 <1>   0.0800 
 36 H       -3.6070   -11.4840    -1.1480 H     1 <1>   0.0800 
 37 H       -6.5520    -8.6900    -1.4790 H     1 <1>   0.0800 
 38 H       -5.8400    -7.6970    -0.2650 H     1 <1>   0.0800 
 39 H       -4.6280   -11.3270     1.6900 H     1 <1>   0.0800 
 40 H       -4.7400   -12.6810     0.6230 H     1 <1>   0.0800 
 41 H       -7.4500    -9.4720     0.5280 H     1 <1>   0.0800 
 42 H       -5.9490    -9.3720     1.3810 H     1 <1>   0.0800 
 43 H       -6.8900   -11.6910     0.7160 H     1 <1>   0.0800 
 44 H       -6.2800   -11.3610    -0.8730 H     1 <1>   0.0800 
@<TRIPOS>BOND
  1   1   2  1   
  2   1   3  1   
  3   2   4  2   
  4   2   5  1   
  5   3   6  2   
  6   3  22  1   
  7   4   6  1   
  8   5   7  1   
  9   5  23  1   
 10   5  24  1   
 11   6  25  1   
 12   7   8  1   
 13   7  26  1   
 14   7  27  1   
 15   8   9  am  
 16   8  28  1   
 17   9  10  2   
 18   9  11  1   
 19  11  12  1   
 20  11  29  1   
 21  11  30  1   
 22  12  13  1   
 23  12  31  1   
 24  12  32  1   
 25  13  14  2   
 26  13  15  am  
 27  15  16  1   
 28  15  17  1   
 29  16  18  1   
 30  16  33  1   
 31  16  34  1   
 32  17  19  1   
 33  17  35  1   
 34  17  36  1   
 35  18  20  1   
 36  18  37  1   
 37  18  38  1   
 38  19  21  1   
 39  19  39  1   
 40  19  40  1   
 41  20  21  1   
 42  20  41  1   
 43  20  42  1   
 44  21  43  1   
 45  21  44  1   
@<TRIPOS>SUBSTRUCTURE
  1 ****   9 GROUP 4 **** **** 0

# MOE 2024.06 (io_trps.svl 2023.06)
