@<TRIPOS>MOLECULE
NONAME
43 45 1 0 0 
SMALL
USER_CHARGES


@<TRIPOS>ATOM
  1 S        0.6580    -1.3080    -1.1570 S.3   1 <1>  -0.0800 
  2 C       -1.0140    -0.9350    -0.8020 C.2   1 <1>   0.1980 
  3 C        0.9640     0.3900    -1.3780 C.2   1 <1>  -0.1100 
  4 N       -1.2950     0.3090    -0.8450 N.2   1 <1>  -0.5650 
  5 C       -1.9290    -2.1170    -0.4940 C.3   1 <1>   0.5230 
  6 C       -0.1770     1.0640    -1.1730 C.2   1 <1>   0.0770 
  7 N       -3.2840    -1.6630    -0.0480 N.4   1 <1>  -0.9590 
  8 C       -3.2750    -0.9420     1.2560 C.3   1 <1>   0.3430 
  9 C       -4.3440    -2.6940    -0.1300 C.3   1 <1>   0.3430 
 10 C       -4.6930    -0.5070     1.6560 C.3   1 <1>  -0.1600 
 11 C       -5.7240    -2.0350    -0.0250 C.3   1 <1>  -0.1600 
 12 C       -5.7080    -0.5850     0.5020 C.3   1 <1>   0.2800 
 13 O       -5.2070     0.1970    -0.5540 O.3   1 <1>  -0.5600 
 14 C       -7.1160    -0.1160     0.9510 C.3   1 <1>  -0.1600 
 15 C       -5.6520     1.5220    -0.6610 C.3   1 <1>   0.1200 
 16 C       -7.9640     0.4690    -0.1870 C.3   1 <1>   0.2800 
 17 C       -7.1620     1.5690    -0.9560 C.3   1 <1>   0.2000 
 18 O       -8.2480    -0.5640    -1.0580 O.3   1 <1>  -0.6800 
 19 C       -9.3350     0.9200     0.3370 C.3   1 <1>  -0.2400 
 20 O       -7.6070     2.8570    -0.6520 O.3   1 <1>  -0.6800 
 21 H        1.9610     0.7000    -1.6380 H     1 <1>   0.1500 
 22 H       -1.4770    -2.7260     0.2710 H     1 <1>   0.0800 
 23 H       -2.0230    -2.7090    -1.3880 H     1 <1>   0.0800 
 24 H       -0.2930     2.1340    -1.2430 H     1 <1>   0.1500 
 25 H       -3.5770    -0.9160    -0.7140 H     1 <1>   0.4500 
 26 H       -2.8570    -1.5660     2.0290 H     1 <1>   0.0800 
 27 H       -2.6580    -0.0620     1.1660 H     1 <1>   0.0800 
 28 H       -4.2790    -3.2250    -1.0660 H     1 <1>   0.0800 
 29 H       -4.2200    -3.4030     0.6730 H     1 <1>   0.0800 
 30 H       -4.6510     0.4930     2.0500 H     1 <1>   0.0800 
 31 H       -5.0290    -1.1390     2.4580 H     1 <1>   0.0800 
 32 H       -6.3290    -2.6500     0.6160 H     1 <1>   0.0800 
 33 H       -6.1900    -2.0570    -0.9940 H     1 <1>   0.0800 
 34 H       -7.6470    -0.9200     1.4280 H     1 <1>   0.0800 
 35 H       -7.0020     0.6480     1.6990 H     1 <1>   0.0800 
 36 H       -5.4190     2.0290     0.2590 H     1 <1>   0.0800 
 37 H       -5.1090     1.9860    -1.4660 H     1 <1>   0.0800 
 38 H       -7.3120     1.4450    -2.0150 H     1 <1>   0.0800 
 39 H       -8.8980    -0.2590    -1.7200 H     1 <1>   0.4000 
 40 H       -9.2200     1.6640     1.1040 H     1 <1>   0.0800 
 41 H       -9.8700     0.0880     0.7610 H     1 <1>   0.0800 
 42 H       -9.9200     1.3490    -0.4570 H     1 <1>   0.0800 
 43 H       -7.6120     3.0100     0.3110 H     1 <1>   0.4000 
@<TRIPOS>BOND
  1   1   2  1   
  2   1   3  1   
  3   2   4  2   
  4   2   5  1   
  5   3   6  2   
  6   3  21  1   
  7   4   6  1   
  8   5   7  1   
  9   5  22  1   
 10   5  23  1   
 11   6  24  1   
 12   7   8  1   
 13   7   9  1   
 14   7  25  1   
 15   8  10  1   
 16   8  26  1   
 17   8  27  1   
 18   9  11  1   
 19   9  28  1   
 20   9  29  1   
 21  10  12  1   
 22  10  30  1   
 23  10  31  1   
 24  11  12  1   
 25  11  32  1   
 26  11  33  1   
 27  12  13  1   
 28  12  14  1   
 29  13  15  1   
 30  14  16  1   
 31  14  34  1   
 32  14  35  1   
 33  15  17  1   
 34  15  36  1   
 35  15  37  1   
 36  16  17  1   
 37  16  18  1   
 38  16  19  1   
 39  17  20  1   
 40  17  38  1   
 41  18  39  1   
 42  19  40  1   
 43  19  41  1   
 44  19  42  1   
 45  20  43  1   
@<TRIPOS>SUBSTRUCTURE
  1 ****  13 GROUP 4 **** **** 0

# MOE 2024.06 (io_trps.svl 2023.06)
