@<TRIPOS>MOLECULE
NONAME
44 46 1 0 0 
SMALL
USER_CHARGES


@<TRIPOS>ATOM
  1 CL      -0.0200    -1.2870     1.3150 Cl    1 <1>  -0.1770 
  2 C        1.2290    -1.4200     0.0820 C.ar  1 <1>   0.1770 
  3 C        1.0300    -2.2330    -1.0690 C.ar  1 <1>   0.4100 
  4 C        2.4140    -0.7680     0.2430 C.ar  1 <1>   0.2170 
  5 N        1.9860    -2.3760    -1.9750 N.ar  1 <1>  -0.6200 
  6 N       -0.1160    -2.9180    -1.3110 N.pl3 1 <1>  -0.8380 
  7 N        3.3500    -0.9460    -0.7260 N.ar  1 <1>  -0.1790 
  8 C        2.7830     0.1320     1.4180 C.3   1 <1>  -0.0970 
  9 C        3.1170    -1.7360    -1.7880 C.ar  1 <1>   0.7710 
 10 C       -0.1050    -4.3760    -1.6640 C.3   1 <1>   0.2090 
 11 C       -1.4880    -2.3230    -1.3390 C.3   1 <1>   0.2090 
 12 N        4.0510    -1.9040    -2.7190 N.pl3 1 <1>  -0.9000 
 13 C       -0.8710    -5.2250    -0.6200 C.3   1 <1>  -0.1060 
 14 C       -2.5240    -3.2740    -0.7210 C.3   1 <1>  -0.1600 
 15 C       -1.5880    -6.3070    -1.4390 C.2   1 <1>   0.9060 
 16 C       -1.8510    -4.3130     0.1760 C.3   1 <1>   0.2000 
 17 C        0.0990    -5.9500     0.3540 C.3   1 <1>  -0.0650 
 18 O       -0.9380    -6.9130    -2.2990 O.co2 1 <1>  -0.9000 
 19 O       -2.7850    -6.5720    -1.2430 O.co2 1 <1>  -0.9000 
 20 O       -2.8320    -5.0510     0.8040 O.3   1 <1>  -0.6800 
 21 C        1.1100    -5.0620     1.1050 C.3   1 <1>  -0.1950 
 22 C        2.4920    -4.8250     0.5820 C.3   1 <1>  -0.2000 
 23 C        2.2800    -5.7110     1.7730 C.3   1 <1>  -0.2000 
 24 H        4.2600    -0.4980    -0.6800 H     1 <1>   0.4570 
 25 H        1.9780     0.2120     2.1270 H     1 <1>   0.0800 
 26 H        3.0120     1.1250     1.0720 H     1 <1>   0.0800 
 27 H        3.6380    -0.2630     1.9380 H     1 <1>   0.0800 
 28 H       -0.5710    -4.4770    -2.6310 H     1 <1>   0.0800 
 29 H        0.9000    -4.7450    -1.7710 H     1 <1>   0.0800 
 30 H       -1.4980    -1.3860    -0.8140 H     1 <1>   0.0800 
 31 H       -1.7610    -2.1250    -2.3610 H     1 <1>   0.0800 
 32 H        4.9900    -1.5090    -2.7830 H     1 <1>   0.4000 
 33 H        3.8090    -2.5260    -3.5010 H     1 <1>   0.4000 
 34 H       -3.0530    -3.7790    -1.5100 H     1 <1>   0.0800 
 35 H       -3.2360    -2.7040    -0.1530 H     1 <1>   0.0800 
 36 H       -1.3270    -3.7870     0.9500 H     1 <1>   0.0800 
 37 H       -0.4920    -6.4810     1.0800 H     1 <1>   0.0800 
 38 H        0.6450    -6.6960    -0.1990 H     1 <1>   0.0800 
 39 H       -3.0970    -5.7550     0.1340 H     1 <1>   0.4000 
 40 H        0.6370    -4.2760     1.6670 H     1 <1>   0.1000 
 41 H        2.7750    -5.2790    -0.3530 H     1 <1>   0.1000 
 42 H        2.9610    -3.8730     0.7410 H     1 <1>   0.1000 
 43 H        2.5650    -5.3640     2.7500 H     1 <1>   0.1000 
 44 H        2.4170    -6.7730     1.6580 H     1 <1>   0.1000 
@<TRIPOS>BOND
  1   1   2  1   
  2   2   3  ar  
  3   2   4  ar  
  4   3   5  ar  
  5   3   6  1   
  6   4   7  ar  
  7   4   8  1   
  8   5   9  ar  
  9   6  10  1   
 10   6  11  1   
 11   7   9  ar  
 12   7  24  1   
 13   8  25  1   
 14   8  26  1   
 15   8  27  1   
 16   9  12  1   
 17  10  13  1   
 18  10  28  1   
 19  10  29  1   
 20  11  14  1   
 21  11  30  1   
 22  11  31  1   
 23  12  32  1   
 24  12  33  1   
 25  13  15  1   
 26  13  16  1   
 27  13  17  1   
 28  14  16  1   
 29  14  34  1   
 30  14  35  1   
 31  15  18  ar  
 32  15  19  ar  
 33  16  20  1   
 34  16  36  1   
 35  17  21  1   
 36  17  37  1   
 37  17  38  1   
 38  20  39  1   
 39  21  22  1   
 40  21  23  1   
 41  21  40  1   
 42  22  23  1   
 43  22  41  1   
 44  22  42  1   
 45  23  43  1   
 46  23  44  1   
@<TRIPOS>SUBSTRUCTURE
  1 ****   6 GROUP 4 **** **** 0

# MOE 2024.06 (io_trps.svl 2023.06)
