@<TRIPOS>MOLECULE
NONAME
50 53 1 0 0 
SMALL
USER_CHARGES


@<TRIPOS>ATOM
  1 O       -1.9490    -0.7810     0.6150 O.3   1 <1>  -0.3400 
  2 C       -1.9800     0.3970    -0.0550 C.ar  1 <1>   0.0820 
  3 C       -2.0390    -0.8210     2.0310 C.3   1 <1>   0.2580 
  4 C       -2.1140     0.3300    -1.4320 C.ar  1 <1>  -0.1500 
  5 C       -1.8910     1.6420     0.5630 C.ar  1 <1>  -0.1500 
  6 C       -2.2860    -2.2800     2.4930 C.3   1 <1>   0.2450 
  7 C       -3.4800    -0.5450     2.5450 C.3   1 <1>   0.2450 
  8 C       -2.1720     1.4870    -2.1880 C.ar  1 <1>  -0.1500 
  9 C       -1.9510     2.7960    -0.1970 C.ar  1 <1>  -0.1500 
 10 N       -3.7550    -2.0060     2.3150 N.3   1 <1>  -0.5900 
 11 C       -2.0940     2.7260    -1.5740 C.ar  1 <1>  -0.1440 
 12 C       -4.7620    -2.5660     1.6310 C.ar  1 <1>   0.7710 
 13 C       -2.1570     3.9970    -2.4020 C.3   1 <1>  -0.0970 
 14 N       -5.8790    -1.8700     1.4480 N.ar  1 <1>  -0.6200 
 15 N       -4.6130    -3.8050     1.1520 N.ar  1 <1>  -0.1790 
 16 C       -6.8450    -2.4160     0.7660 C.ar  1 <1>   0.4100 
 17 C       -5.5910    -4.4390     0.4250 C.ar  1 <1>   0.3610 
 18 N       -7.9260    -1.6450     0.6220 N.pl3 1 <1>  -0.9000 
 19 C       -6.7730    -3.7320     0.2070 C.ar  1 <1>   0.0000 
 20 C       -5.4240    -5.7280    -0.0790 C.ar  1 <1>  -0.1500 
 21 C       -7.7910    -4.3530    -0.5340 C.ar  1 <1>  -0.1500 
 22 C       -6.4340    -6.3280    -0.8060 C.ar  1 <1>   0.0820 
 23 C       -7.6320    -5.6300    -1.0360 C.ar  1 <1>   0.0820 
 24 O       -6.3220    -7.5780    -1.3170 O.3   1 <1>  -0.3620 
 25 O       -8.5970    -6.2640    -1.7590 O.3   1 <1>  -0.3620 
 26 C       -5.1830    -8.3950    -1.1600 C.3   1 <1>   0.0400 
 27 C       -9.8450    -5.6700    -2.0410 C.3   1 <1>   0.0400 
 28 H       -1.2270    -0.3050     2.5110 H     1 <1>   0.0000 
 29 H       -2.1730    -0.6280    -1.9140 H     1 <1>   0.1500 
 30 H       -1.7720     1.7390     1.6250 H     1 <1>   0.1500 
 31 H       -2.0480    -2.4560     3.5280 H     1 <1>   0.0000 
 32 H       -1.9150    -3.0300     1.8180 H     1 <1>   0.0000 
 33 H       -4.0600     0.1030     1.9120 H     1 <1>   0.0000 
 34 H       -3.5280    -0.3010     3.5920 H     1 <1>   0.0000 
 35 H       -2.2760     1.4200    -3.2570 H     1 <1>   0.1500 
 36 H       -1.8820     3.7550     0.2860 H     1 <1>   0.1500 
 37 H       -2.7330     3.8360    -3.2960 H     1 <1>   0.0800 
 38 H       -1.1640     4.3000    -2.6780 H     1 <1>   0.0800 
 39 H       -2.6200     4.7890    -1.8410 H     1 <1>   0.0800 
 40 H       -3.7270    -4.2610     1.3350 H     1 <1>   0.4570 
 41 H       -8.7780    -1.8960     0.1180 H     1 <1>   0.4000 
 42 H       -7.9380    -0.7060     1.0310 H     1 <1>   0.4000 
 43 H       -4.5050    -6.2510     0.1040 H     1 <1>   0.1500 
 44 H       -8.7000    -3.8100    -0.7030 H     1 <1>   0.1500 
 45 H       -5.3740    -9.3260    -1.6640 H     1 <1>   0.0800 
 46 H       -5.0220    -8.5780    -0.1130 H     1 <1>   0.0800 
 47 H       -4.3360    -7.9090    -1.6090 H     1 <1>   0.0800 
 48 H      -10.4240    -6.3710    -2.6150 H     1 <1>   0.0800 
 49 H       -9.6870    -4.7750    -2.6150 H     1 <1>   0.0800 
 50 H      -10.3490    -5.4560    -1.1150 H     1 <1>   0.0800 
@<TRIPOS>BOND
  1   1   2  1   
  2   1   3  1   
  3   2   4  ar  
  4   2   5  ar  
  5   3   6  1   
  6   3   7  1   
  7   3  28  1   
  8   4   8  ar  
  9   4  29  1   
 10   5   9  ar  
 11   5  30  1   
 12   6  10  1   
 13   6  31  1   
 14   6  32  1   
 15   7  10  1   
 16   7  33  1   
 17   7  34  1   
 18   8  11  ar  
 19   8  35  1   
 20   9  11  ar  
 21   9  36  1   
 22  10  12  1   
 23  11  13  1   
 24  12  14  ar  
 25  12  15  ar  
 26  13  37  1   
 27  13  38  1   
 28  13  39  1   
 29  14  16  ar  
 30  15  17  ar  
 31  15  40  1   
 32  16  18  1   
 33  16  19  ar  
 34  17  19  ar  
 35  17  20  ar  
 36  18  41  1   
 37  18  42  1   
 38  19  21  ar  
 39  20  22  ar  
 40  20  43  1   
 41  21  23  ar  
 42  21  44  1   
 43  22  23  ar  
 44  22  24  1   
 45  23  25  1   
 46  24  26  1   
 47  25  27  1   
 48  26  45  1   
 49  26  46  1   
 50  26  47  1   
 51  27  48  1   
 52  27  49  1   
 53  27  50  1   
@<TRIPOS>SUBSTRUCTURE
  1 ****  12 GROUP 4 **** **** 0

# MOE 2024.06 (io_trps.svl 2023.06)
