@<TRIPOS>MOLECULE
NONAME
44 45 1 0 0 
SMALL
USER_CHARGES


@<TRIPOS>ATOM
  1 CL      -2.5230    -0.4330    -2.3750 Cl    1 <1>  -0.1770 
  2 C       -2.9240     0.5460    -0.9850 C.ar  1 <1>   0.1770 
  3 C       -3.4240    -0.0260     0.1860 C.ar  1 <1>   0.0860 
  4 C       -2.7130     1.9070    -1.0990 C.ar  1 <1>  -0.1500 
  5 C       -3.6690    -1.4480     0.3380 C.2   1 <1>   0.5440 
  6 C       -3.6770     0.8430     1.2510 C.ar  1 <1>  -0.1500 
  7 C       -2.9890     2.7410    -0.0310 C.ar  1 <1>  -0.1500 
  8 O       -3.3990    -2.0000     1.3880 O.2   1 <1>  -0.5700 
  9 N       -4.2900    -2.2050    -0.6240 N.am  1 <1>  -0.6600 
 10 C       -3.4750     2.2170     1.1630 C.ar  1 <1>  -0.1430 
 11 C       -3.9130    -3.6340    -0.7890 C.3   1 <1>   0.3200 
 12 C       -5.5590    -1.7770    -1.2820 C.3   1 <1>   0.1400 
 13 C       -3.7760     3.1280     2.3690 C.3   1 <1>   1.1640 
 14 C       -4.9650    -4.4580    -0.0850 C.2   1 <1>  -0.3320 
 15 C       -6.7070    -1.7550    -0.2500 C.3   1 <1>   0.3430 
 16 F       -4.8650     2.7400     3.0210 F     1 <1>  -0.3400 
 17 F       -2.7870     3.1290     3.2510 F     1 <1>  -0.3400 
 18 F       -3.9800     4.3930     2.0250 F     1 <1>  -0.3400 
 19 N       -5.1050    -4.4440     1.2530 N.pl3 1 <1>   0.0330 
 20 C       -5.9190    -5.2840    -0.5660 C.2   1 <1>   0.0770 
 21 N       -8.0740    -1.8860    -0.8600 N.4   1 <1>  -0.9590 
 22 C       -6.1720    -5.2330     1.4980 C.2   1 <1>   0.0360 
 23 N       -6.7030    -5.7370     0.4280 N.2   1 <1>  -0.5650 
 24 C       -9.1150    -1.4430     0.1170 C.3   1 <1>   0.2630 
 25 C       -8.3460    -3.3080    -1.2540 C.3   1 <1>   0.2630 
 26 H       -2.3260     2.3110    -2.0190 H     1 <1>   0.1500 
 27 H       -4.0350     0.4180     2.1770 H     1 <1>   0.1500 
 28 H       -2.8140     3.8010    -0.1380 H     1 <1>   0.1500 
 29 H       -2.9430    -3.8200    -0.3570 H     1 <1>   0.0800 
 30 H       -3.8690    -3.8820    -1.8360 H     1 <1>   0.0800 
 31 H       -5.7850    -2.4650    -2.0770 H     1 <1>   0.0800 
 32 H       -5.4310    -0.7970    -1.7080 H     1 <1>   0.0800 
 33 H       -6.6440    -0.8320     0.3020 H     1 <1>   0.0800 
 34 H       -6.5630    -2.5650     0.4450 H     1 <1>   0.0800 
 35 H       -4.5150    -3.9220     1.9180 H     1 <1>   0.2700 
 36 H       -6.0940    -5.5730    -1.5900 H     1 <1>   0.1500 
 37 H       -8.1360    -1.2860    -1.6960 H     1 <1>   0.4500 
 38 H       -6.5310    -5.4130     2.4980 H     1 <1>   0.1500 
 39 H       -9.0810    -2.0570     1.0040 H     1 <1>   0.0800 
 40 H      -10.0980    -1.5260    -0.3200 H     1 <1>   0.0800 
 41 H       -8.9530    -0.4160     0.4010 H     1 <1>   0.0800 
 42 H       -8.2860    -3.9550    -0.3930 H     1 <1>   0.0800 
 43 H       -7.6260    -3.6450    -1.9810 H     1 <1>   0.0800 
 44 H       -9.3320    -3.3980    -1.6810 H     1 <1>   0.0800 
@<TRIPOS>BOND
  1   1   2  1   
  2   2   3  ar  
  3   2   4  ar  
  4   3   5  1   
  5   3   6  ar  
  6   4   7  ar  
  7   4  26  1   
  8   5   8  2   
  9   5   9  am  
 10   6  10  ar  
 11   6  27  1   
 12   7  10  ar  
 13   7  28  1   
 14   9  11  1   
 15   9  12  1   
 16  10  13  1   
 17  11  14  1   
 18  11  29  1   
 19  11  30  1   
 20  12  15  1   
 21  12  31  1   
 22  12  32  1   
 23  13  16  1   
 24  13  17  1   
 25  13  18  1   
 26  14  19  1   
 27  14  20  2   
 28  15  21  1   
 29  15  33  1   
 30  15  34  1   
 31  19  22  1   
 32  19  35  1   
 33  20  23  1   
 34  20  36  1   
 35  21  24  1   
 36  21  25  1   
 37  21  37  1   
 38  22  23  2   
 39  22  38  1   
 40  24  39  1   
 41  24  40  1   
 42  24  41  1   
 43  25  42  1   
 44  25  43  1   
 45  25  44  1   
@<TRIPOS>SUBSTRUCTURE
  1 ****   5 GROUP 4 **** **** 0

# MOE 2024.06 (io_trps.svl 2023.06)
