@<TRIPOS>MOLECULE
NONAME
52 55 1 0 0 
SMALL
USER_CHARGES


@<TRIPOS>ATOM
  1 O       -0.3980    -0.6160     0.7970 O.3   1 <1>  -0.5600 
  2 C        0.2750    -0.2040    -0.3590 C.3   1 <1>   0.1200 
  3 C       -1.4380     0.2600     1.1150 C.3   1 <1>   0.1200 
  4 C       -0.2660     1.1760    -0.7310 C.3   1 <1>   0.2890 
  5 C       -1.6480     1.1600    -0.1010 C.3   1 <1>  -0.0800 
  6 N        0.5500     2.2420    -0.0980 N.pl3 1 <1>  -0.8690 
  7 C       -2.7030     0.6030    -1.0750 C.3   1 <1>  -0.0170 
  8 C        0.4200     3.5700    -0.4250 C.ar  1 <1>   0.4100 
  9 C       -4.1100     0.7140    -0.4980 C.ar  1 <1>  -0.1430 
 10 N       -0.2960     3.8790    -1.4900 N.ar  1 <1>  -0.6200 
 11 C        1.0100     4.5430     0.3440 C.ar  1 <1>  -0.1500 
 12 C       -4.7990     1.9490    -0.4220 C.ar  1 <1>   0.0000 
 13 C       -4.7500    -0.3950    -0.0300 C.ar  1 <1>  -0.1500 
 14 C       -0.3890     5.1690    -1.7470 C.ar  1 <1>   0.4700 
 15 C        0.8350     5.8560    -0.0160 C.ar  1 <1>   0.4100 
 16 C       -6.0950     1.9430     0.1490 C.ar  1 <1>   0.3100 
 17 C       -4.2810     3.1850    -0.8760 C.ar  1 <1>  -0.1500 
 18 C       -6.0370    -0.2920     0.5100 C.ar  1 <1>   0.1600 
 19 N        0.1240     6.1820    -1.0790 N.ar  1 <1>  -0.6200 
 20 N        1.3980     6.8630     0.7290 N.pl3 1 <1>  -0.8690 
 21 N       -6.6990     0.8170     0.6070 N.ar  1 <1>  -0.6200 
 22 C       -6.7990     3.1540     0.2490 C.ar  1 <1>  -0.1500 
 23 C       -4.9930     4.3480    -0.7630 C.ar  1 <1>  -0.1500 
 24 C        1.2240     8.3010     0.4890 C.3   1 <1>   0.2890 
 25 C       -6.2680     4.3350    -0.1930 C.ar  1 <1>  -0.1500 
 26 C        2.5730     8.9740     0.7090 C.3   1 <1>  -0.2400 
 27 C        0.1780     8.8190     1.4670 C.3   1 <1>  -0.2400 
 28 H        1.3350    -0.1920    -0.1760 H     1 <1>   0.0800 
 29 H        0.0480    -0.9150    -1.1330 H     1 <1>   0.0800 
 30 H       -2.3130    -0.3090     1.3790 H     1 <1>   0.0800 
 31 H       -1.1220     0.8420     1.9640 H     1 <1>   0.0800 
 32 H       -0.2850     1.3170    -1.7980 H     1 <1>   0.0800 
 33 H       -1.9420     2.1450     0.2120 H     1 <1>   0.0800 
 34 H        0.8520     2.0130     0.8510 H     1 <1>   0.4000 
 35 H       -2.4810    -0.4270    -1.2980 H     1 <1>   0.0800 
 36 H       -2.6640     1.1410    -2.0060 H     1 <1>   0.0800 
 37 H        1.5930     4.2840     1.2020 H     1 <1>   0.1500 
 38 H       -4.2900    -1.3670    -0.0590 H     1 <1>   0.1500 
 39 H       -0.9630     5.4320    -2.6200 H     1 <1>   0.1500 
 40 H       -3.3030     3.2210    -1.3200 H     1 <1>   0.1500 
 41 H       -6.5060    -1.1930     0.8670 H     1 <1>   0.1500 
 42 H        1.8260     6.6290     1.6230 H     1 <1>   0.4000 
 43 H       -7.7780     3.1200     0.6890 H     1 <1>   0.1500 
 44 H       -4.5830     5.2820    -1.1080 H     1 <1>   0.1500 
 45 H        0.8980     8.4780    -0.5230 H     1 <1>   0.0800 
 46 H       -6.8190     5.2560    -0.1090 H     1 <1>   0.1500 
 47 H        2.9180     8.8220     1.7150 H     1 <1>   0.0800 
 48 H        2.4850    10.0300     0.5310 H     1 <1>   0.0800 
 49 H        3.2930     8.5750     0.0180 H     1 <1>   0.0800 
 50 H        0.4890     8.6560     2.4820 H     1 <1>   0.0800 
 51 H       -0.7570     8.3160     1.2940 H     1 <1>   0.0800 
 52 H        0.0270     9.8720     1.3160 H     1 <1>   0.0800 
@<TRIPOS>BOND
  1   1   2  1   
  2   1   3  1   
  3   2   4  1   
  4   2  28  1   
  5   2  29  1   
  6   3   5  1   
  7   3  30  1   
  8   3  31  1   
  9   4   5  1   
 10   4   6  1   
 11   4  32  1   
 12   5   7  1   
 13   5  33  1   
 14   6   8  1   
 15   6  34  1   
 16   7   9  1   
 17   7  35  1   
 18   7  36  1   
 19   8  10  ar  
 20   8  11  ar  
 21   9  12  ar  
 22   9  13  ar  
 23  10  14  ar  
 24  11  15  ar  
 25  11  37  1   
 26  12  16  ar  
 27  12  17  ar  
 28  13  18  ar  
 29  13  38  1   
 30  14  19  ar  
 31  14  39  1   
 32  15  19  ar  
 33  15  20  1   
 34  16  21  ar  
 35  16  22  ar  
 36  17  23  ar  
 37  17  40  1   
 38  18  21  ar  
 39  18  41  1   
 40  20  24  1   
 41  20  42  1   
 42  22  25  ar  
 43  22  43  1   
 44  23  25  ar  
 45  23  44  1   
 46  24  26  1   
 47  24  27  1   
 48  24  45  1   
 49  25  46  1   
 50  26  47  1   
 51  26  48  1   
 52  26  49  1   
 53  27  50  1   
 54  27  51  1   
 55  27  52  1   
@<TRIPOS>SUBSTRUCTURE
  1 ****   5 GROUP 4 **** **** 0

# MOE 2024.06 (io_trps.svl 2023.06)
