@<TRIPOS>MOLECULE
NONAME
56 59 1 0 0 
SMALL
USER_CHARGES


@<TRIPOS>ATOM
  1 O       -0.4330     0.0990    -0.3050 O.2   1 <1>  -0.5700 
  2 C        0.2370    -0.4930    -1.1190 C.2   1 <1>   0.5690 
  3 N        1.6220    -0.4450    -1.1190 N.am  1 <1>  -0.4770 
  4 C       -0.5230    -1.3260    -2.1720 C.3   1 <1>   0.1710 
  5 C        2.4730     0.1370    -0.1660 C.ar  1 <1>   0.1170 
  6 C        2.4710    -1.0740    -2.1750 C.3   1 <1>   0.1400 
  7 N       -0.9880    -2.6760    -1.7320 N.3   1 <1>  -0.8100 
  8 C        3.7980    -0.1250    -0.4430 C.ar  1 <1>  -0.1440 
  9 C        2.1570     0.8930     0.9570 C.ar  1 <1>  -0.1500 
 10 C        3.9220    -0.9620    -1.6870 C.3   1 <1>  -0.0170 
 11 C        0.1390    -3.5640    -1.3540 C.3   1 <1>   0.1100 
 12 C       -2.0230    -2.5800    -0.7000 C.3   1 <1>   0.1100 
 13 C        4.8190     0.3430     0.3630 C.ar  1 <1>  -0.1500 
 14 C        3.1690     1.3670     1.7760 C.ar  1 <1>  -0.1500 
 15 C       -0.2520    -4.8270    -0.5380 C.3   1 <1>   0.0000 
 16 C       -2.6800    -3.9510    -0.4870 C.3   1 <1>  -0.1600 
 17 C        4.4970     1.0950     1.4810 C.ar  1 <1>  -0.1500 
 18 C       -1.7440    -5.1190    -0.8350 C.3   1 <1>   0.2000 
 19 C        0.5800    -6.0260    -1.0570 C.3   1 <1>   0.1200 
 20 C       -0.0280    -4.6320     0.9980 C.3   1 <1>  -0.0170 
 21 O       -2.1840    -6.2510    -0.1640 O.3   1 <1>  -0.6800 
 22 O        1.9340    -5.7150    -1.1230 O.3   1 <1>  -0.6800 
 23 C        1.4020    -4.3400     1.4470 C.ar  1 <1>  -0.1440 
 24 C        2.2550    -5.3780     1.7980 C.ar  1 <1>  -0.1500 
 25 C        1.8610    -3.0340     1.5330 C.ar  1 <1>  -0.1500 
 26 C        3.5530    -5.1150     2.1980 C.ar  1 <1>  -0.1500 
 27 C        3.1580    -2.7690     1.9330 C.ar  1 <1>  -0.1500 
 28 C        4.0070    -3.8100     2.2630 C.ar  1 <1>  -0.1500 
 29 H        0.0780    -1.4410    -3.0530 H     1 <1>   0.0800 
 30 H       -1.3840    -0.7540    -2.4690 H     1 <1>   0.0800 
 31 H        2.2100    -2.1060    -2.3210 H     1 <1>   0.0800 
 32 H        2.3490    -0.5340    -3.0980 H     1 <1>   0.0800 
 33 H        1.1340     1.1140     1.1970 H     1 <1>   0.1500 
 34 H        4.3160    -1.9340    -1.4470 H     1 <1>   0.0800 
 35 H        4.5440    -0.4860    -2.4230 H     1 <1>   0.0800 
 36 H        0.6060    -3.8730    -2.2740 H     1 <1>   0.0800 
 37 H        0.8760    -3.0150    -0.8050 H     1 <1>   0.0800 
 38 H       -1.5850    -2.2240     0.2170 H     1 <1>   0.0800 
 39 H       -2.7760    -1.8700    -0.9980 H     1 <1>   0.0800 
 40 H        5.8460     0.1270     0.1290 H     1 <1>   0.1500 
 41 H        2.9210     1.9510     2.6450 H     1 <1>   0.1500 
 42 H       -3.5480    -4.0150    -1.1190 H     1 <1>   0.0800 
 43 H       -3.0120    -4.0080     0.5340 H     1 <1>   0.0800 
 44 H        5.2760     1.4680     2.1220 H     1 <1>   0.1500 
 45 H       -1.8410    -5.3230    -1.8900 H     1 <1>   0.0800 
 46 H        0.2690    -6.2990    -2.0510 H     1 <1>   0.0800 
 47 H        0.4590    -6.8830    -0.4160 H     1 <1>   0.0800 
 48 H       -0.6470    -3.8360     1.3640 H     1 <1>   0.0800 
 49 H       -0.3490    -5.5200     1.5130 H     1 <1>   0.0800 
 50 H       -2.3560    -6.0410     0.7730 H     1 <1>   0.4000 
 51 H        2.2350    -5.3590    -0.2550 H     1 <1>   0.4000 
 52 H        1.9140    -6.3990     1.7620 H     1 <1>   0.1500 
 53 H        1.2140    -2.2070     1.2900 H     1 <1>   0.1500 
 54 H        4.2100    -5.9260     2.4620 H     1 <1>   0.1500 
 55 H        3.5020    -1.7510     1.9900 H     1 <1>   0.1500 
 56 H        5.0160    -3.6020     2.5730 H     1 <1>   0.1500 
@<TRIPOS>BOND
  1   1   2  2   
  2   2   3  am  
  3   2   4  1   
  4   3   5  1   
  5   3   6  1   
  6   4   7  1   
  7   4  29  1   
  8   4  30  1   
  9   5   8  ar  
 10   5   9  ar  
 11   6  10  1   
 12   6  31  1   
 13   6  32  1   
 14   7  11  1   
 15   7  12  1   
 16   8  10  1   
 17   8  13  ar  
 18   9  14  ar  
 19   9  33  1   
 20  10  34  1   
 21  10  35  1   
 22  11  15  1   
 23  11  36  1   
 24  11  37  1   
 25  12  16  1   
 26  12  38  1   
 27  12  39  1   
 28  13  17  ar  
 29  13  40  1   
 30  14  17  ar  
 31  14  41  1   
 32  15  18  1   
 33  15  19  1   
 34  15  20  1   
 35  16  18  1   
 36  16  42  1   
 37  16  43  1   
 38  17  44  1   
 39  18  21  1   
 40  18  45  1   
 41  19  22  1   
 42  19  46  1   
 43  19  47  1   
 44  20  23  1   
 45  20  48  1   
 46  20  49  1   
 47  21  50  1   
 48  22  51  1   
 49  23  24  ar  
 50  23  25  ar  
 51  24  26  ar  
 52  24  52  1   
 53  25  27  ar  
 54  25  53  1   
 55  26  28  ar  
 56  26  54  1   
 57  27  28  ar  
 58  27  55  1   
 59  28  56  1   
@<TRIPOS>SUBSTRUCTURE
  1 ****  25 GROUP 4 **** **** 0

# MOE 2024.06 (io_trps.svl 2023.06)
