@<TRIPOS>MOLECULE
NONAME
46 49 1 0 0 
SMALL
USER_CHARGES


@<TRIPOS>ATOM
  1 N       -0.0930     0.1640    -0.1100 N.2   1 <1>  -0.6210 
  2 C       -1.2550    -0.3780     0.0490 C.2   1 <1>   0.9190 
  3 C       -0.0090     1.4960    -0.2370 C.2   1 <1>   0.2710 
  4 N       -2.4030     0.3320     0.1010 N.pl3 1 <1>  -0.6690 
  5 N       -1.3150    -1.7020     0.1660 N.pl3 1 <1>  -0.8500 
  6 N        1.2400     2.0280    -0.4090 N.pl3 1 <1>  -0.8380 
  7 C       -1.1330     2.2850    -0.1930 C.2   1 <1>  -0.1410 
  8 C       -2.3410     1.6560    -0.0150 C.cat 1 <1>   0.7910 
  9 C       -3.7310     0.0330     0.2700 C.2   1 <1>   0.5030 
 10 C        1.5140     3.0910    -1.4290 C.3   1 <1>   0.2090 
 11 C        2.4480     1.3580     0.1570 C.3   1 <1>   0.2090 
 12 N       -3.6040     2.1030     0.0830 N.pl3 1 <1>  -0.3930 
 13 N       -4.4760     1.0740     0.2620 N.2   1 <1>  -0.2600 
 14 C        1.9230     4.4200    -0.7710 C.3   1 <1>   0.2090 
 15 C        3.3640     2.3440     0.8850 C.3   1 <1>  -0.1600 
 16 N        3.3680     4.5210    -0.3740 N.pl3 1 <1>  -0.8380 
 17 C        4.1260     3.2730    -0.0620 C.3   1 <1>   0.2090 
 18 C        4.0090     5.7170    -0.3950 C.ar  1 <1>   0.1000 
 19 C        3.6700     6.7930     0.4490 C.ar  1 <1>  -0.1430 
 20 C        5.0690     5.9110    -1.2890 C.ar  1 <1>  -0.1500 
 21 C        4.3610     7.9760     0.3550 C.ar  1 <1>   0.2110 
 22 C        2.5620     6.6520     1.4900 C.3   1 <1>  -0.0970 
 23 C        5.7340     7.1050    -1.3490 C.ar  1 <1>   0.2110 
 24 N        5.3740     8.1260    -0.5340 N.ar  1 <1>  -0.1790 
 25 H       -0.4340    -2.2160     0.1100 H     1 <1>   0.4000 
 26 H       -2.1520    -2.2660     0.2650 H     1 <1>   0.4000 
 27 H       -1.0720     3.3500    -0.2800 H     1 <1>   0.1500 
 28 H       -4.0880    -0.9780     0.3950 H     1 <1>   0.1500 
 29 H        0.6240     3.2560    -2.0090 H     1 <1>   0.0800 
 30 H        2.2800     2.7670    -2.1120 H     1 <1>   0.0800 
 31 H        2.9830     0.8590    -0.6330 H     1 <1>   0.0800 
 32 H        2.1460     0.6070     0.8670 H     1 <1>   0.0800 
 33 H       -3.9010     3.0850     0.0370 H     1 <1>   0.4500 
 34 H        1.3050     4.5680     0.0960 H     1 <1>   0.0800 
 35 H        1.7130     5.2150    -1.4640 H     1 <1>   0.0800 
 36 H        4.0940     1.7570     1.4110 H     1 <1>   0.0800 
 37 H        2.8170     2.9050     1.6200 H     1 <1>   0.0800 
 38 H        4.3720     2.7570    -0.9740 H     1 <1>   0.0800 
 39 H        5.0520     3.5500     0.4140 H     1 <1>   0.0800 
 40 H        5.3450     5.0980    -1.9360 H     1 <1>   0.1500 
 41 H        4.1140     8.8110     0.9920 H     1 <1>   0.1500 
 42 H        2.6370     5.6970     1.9830 H     1 <1>   0.0800 
 43 H        1.5990     6.7220     1.0190 H     1 <1>   0.0800 
 44 H        2.6290     7.4180     2.2420 H     1 <1>   0.0800 
 45 H        6.5470     7.2530    -2.0420 H     1 <1>   0.1500 
 46 H        5.8760     9.0190    -0.5850 H     1 <1>   0.4570 
@<TRIPOS>BOND
  1   1   2  2   
  2   1   3  1   
  3   2   4  1   
  4   2   5  1   
  5   3   6  1   
  6   3   7  2   
  7   4   8  ar  
  8   4   9  1   
  9   5  25  1   
 10   5  26  1   
 11   6  10  1   
 12   6  11  1   
 13   7   8  1   
 14   7  27  1   
 15   8  12  ar  
 16   9  13  2   
 17   9  28  1   
 18  10  14  1   
 19  10  29  1   
 20  10  30  1   
 21  11  15  1   
 22  11  31  1   
 23  11  32  1   
 24  12  13  1   
 25  12  33  1   
 26  14  16  1   
 27  14  34  1   
 28  14  35  1   
 29  15  17  1   
 30  15  36  1   
 31  15  37  1   
 32  16  17  1   
 33  16  18  1   
 34  17  38  1   
 35  17  39  1   
 36  18  19  ar  
 37  18  20  ar  
 38  19  21  ar  
 39  19  22  1   
 40  20  23  ar  
 41  20  40  1   
 42  21  24  ar  
 43  21  41  1   
 44  22  42  1   
 45  22  43  1   
 46  22  44  1   
 47  23  24  ar  
 48  23  45  1   
 49  24  46  1   
@<TRIPOS>SUBSTRUCTURE
  1 ****   6 GROUP 4 **** **** 0

# MOE 2024.06 (io_trps.svl 2023.06)
