@<TRIPOS>MOLECULE
NONAME
47 50 1 0 0 
SMALL
USER_CHARGES


@<TRIPOS>ATOM
  1 F        1.4920     1.0450     2.8510 F     1 <1>  -0.1900 
  2 C        2.4310     1.4620     2.0260 C.ar  1 <1>   0.1900 
  3 C        3.0150     0.6060     1.0940 C.ar  1 <1>   0.4100 
  4 C        2.8440     2.7630     2.0870 C.ar  1 <1>   0.1600 
  5 N        3.9530     1.0630     0.2860 N.ar  1 <1>  -0.6200 
  6 N        2.6530    -0.7290     0.9530 N.pl3 1 <1>  -0.8380 
  7 N        3.7810     3.2260     1.2820 N.ar  1 <1>  -0.6200 
  8 C        4.2790     2.3360     0.4290 C.ar  1 <1>   0.7200 
  9 C        1.2490    -1.0640     0.5720 C.3   1 <1>   0.2090 
 10 C        3.6340    -1.7330     0.4360 C.3   1 <1>   0.2090 
 11 N        5.2480     2.7500    -0.4220 N.pl3 1 <1>  -0.8690 
 12 C        1.1490    -1.3800    -0.9330 C.3   1 <1>   0.1200 
 13 C        3.4030    -2.0060    -1.0610 C.3   1 <1>   0.1200 
 14 C        5.3690     4.1550    -0.8950 C.3   1 <1>   0.2090 
 15 O        2.0710    -2.3670    -1.3060 O.3   1 <1>  -0.5600 
 16 C        6.2580     4.9550     0.0540 C.3   1 <1>   0.1200 
 17 O        6.4770     6.2340    -0.5030 O.3   1 <1>  -0.3630 
 18 C        7.2350     7.1830     0.1130 C.ar  1 <1>   0.0820 
 19 C        7.4440     8.4110    -0.5730 C.ar  1 <1>   0.3100 
 20 C        7.7880     6.9740     1.3610 C.ar  1 <1>  -0.1500 
 21 N        6.8990     8.6190    -1.8080 N.ar  1 <1>  -0.6200 
 22 C        8.2300     9.4040     0.0610 C.ar  1 <1>   0.0000 
 23 C        8.5610     7.9620     1.9710 C.ar  1 <1>  -0.1500 
 24 C        7.1180     9.7570    -2.3910 C.ar  1 <1>   0.1600 
 25 C        8.4410    10.6220    -0.6080 C.ar  1 <1>  -0.1500 
 26 C        8.7760     9.1520     1.3330 C.ar  1 <1>  -0.1500 
 27 C        7.8810    10.7920    -1.8370 C.ar  1 <1>  -0.1500 
 28 H        2.4040     3.4340     2.8030 H     1 <1>   0.1500 
 29 H        0.5920    -0.2440     0.8030 H     1 <1>   0.0800 
 30 H        0.9230    -1.9190     1.1370 H     1 <1>   0.0800 
 31 H        3.5190    -2.6520     0.9840 H     1 <1>   0.0800 
 32 H        4.6400    -1.3850     0.5900 H     1 <1>   0.0800 
 33 H        5.4400     2.0370    -1.1240 H     1 <1>   0.4000 
 34 H        1.3430    -0.4940    -1.5130 H     1 <1>   0.0800 
 35 H        0.1650    -1.7420    -1.1720 H     1 <1>   0.0800 
 36 H        4.0300    -2.8150    -1.3910 H     1 <1>   0.0800 
 37 H        3.6360    -1.1290    -1.6390 H     1 <1>   0.0800 
 38 H        4.3940     4.6100    -0.9440 H     1 <1>   0.0800 
 39 H        5.8050     4.1580    -1.8780 H     1 <1>   0.0800 
 40 H        7.2100     4.4700     0.1700 H     1 <1>   0.0800 
 41 H        5.7710     5.0750     1.0050 H     1 <1>   0.0800 
 42 H        7.6450     6.0570     1.9010 H     1 <1>   0.1500 
 43 H        8.9800     7.7750     2.9440 H     1 <1>   0.1500 
 44 H        6.6860     9.9160    -3.3640 H     1 <1>   0.1500 
 45 H        9.0350    11.3910    -0.1460 H     1 <1>   0.1500 
 46 H        9.3700     9.9170     1.8000 H     1 <1>   0.1500 
 47 H        8.0090    11.7020    -2.3940 H     1 <1>   0.1500 
@<TRIPOS>BOND
  1   1   2  1   
  2   2   3  ar  
  3   2   4  ar  
  4   3   5  ar  
  5   3   6  1   
  6   4   7  ar  
  7   4  28  1   
  8   5   8  ar  
  9   6   9  1   
 10   6  10  1   
 11   7   8  ar  
 12   8  11  1   
 13   9  12  1   
 14   9  29  1   
 15   9  30  1   
 16  10  13  1   
 17  10  31  1   
 18  10  32  1   
 19  11  14  1   
 20  11  33  1   
 21  12  15  1   
 22  12  34  1   
 23  12  35  1   
 24  13  15  1   
 25  13  36  1   
 26  13  37  1   
 27  14  16  1   
 28  14  38  1   
 29  14  39  1   
 30  16  17  1   
 31  16  40  1   
 32  16  41  1   
 33  17  18  1   
 34  18  19  ar  
 35  18  20  ar  
 36  19  21  ar  
 37  19  22  ar  
 38  20  23  ar  
 39  20  42  1   
 40  21  24  ar  
 41  22  25  ar  
 42  22  26  ar  
 43  23  26  ar  
 44  23  43  1   
 45  24  27  ar  
 46  24  44  1   
 47  25  27  ar  
 48  25  45  1   
 49  26  46  1   
 50  27  47  1   
@<TRIPOS>SUBSTRUCTURE
  1 ****  14 GROUP 4 **** **** 0

# MOE 2024.06 (io_trps.svl 2023.06)
