@<TRIPOS>MOLECULE
NONAME
45 47 1 0 0 
SMALL
USER_CHARGES


@<TRIPOS>ATOM
  1 O        0.9060     0.1680     1.6930 O.2   1 <1>  -0.5700 
  2 C        1.5540    -0.4660     0.8840 C.2   1 <1>   0.7150 
  3 N        2.6900     0.0890     0.3420 N.am  1 <1>  -0.6600 
  4 C        1.1200    -1.7790     0.5030 C.2   1 <1>  -0.2370 
  5 C        2.8550     1.5890     0.3590 C.3   1 <1>   0.4000 
  6 C        3.9220    -0.7510     0.2880 C.3   1 <1>   0.1400 
  7 N        0.1560    -1.9880    -0.4480 N.pl3 1 <1>   0.0480 
  8 C        1.5210    -3.0070     0.9660 C.2   1 <1>  -0.1500 
  9 C        1.5770     2.3460    -0.0260 C.2   1 <1>   0.2980 
 10 C        3.9710     2.0520    -0.5990 C.3   1 <1>  -0.1600 
 11 C        4.9410    -0.2310    -0.7250 C.3   1 <1>  -0.1600 
 12 C       -0.0210    -3.3250    -0.5810 C.2   1 <1>  -0.3020 
 13 C       -0.5820    -0.9420    -1.1810 C.3   1 <1>   0.0160 
 14 C        0.8050    -3.9800     0.2770 C.2   1 <1>  -0.1500 
 15 O        0.9110     1.9480    -1.0850 O.3   1 <1>  -0.0190 
 16 N        1.0860     3.3600     0.5730 N.2   1 <1>  -0.5650 
 17 C        5.2610     1.2410    -0.4750 C.3   1 <1>  -0.1600 
 18 N       -0.1000     2.7580    -1.1480 N.2   1 <1>  -0.4100 
 19 C        0.0110     3.5690    -0.1730 C.2   1 <1>   0.3350 
 20 C       -0.9640     4.6820     0.1460 C.3   1 <1>   0.0210 
 21 C       -0.2890     6.0410    -0.0080 C.3   1 <1>   0.1200 
 22 O       -1.2330     7.0320     0.2400 O.3   1 <1>  -0.5600 
 23 C       -0.7280     8.3250     0.1490 C.3   1 <1>   0.0400 
 24 H        3.1220     1.8770     1.3610 H     1 <1>   0.0800 
 25 H        3.6700    -1.7630     0.0240 H     1 <1>   0.0800 
 26 H        4.3690    -0.7660     1.2680 H     1 <1>   0.0800 
 27 H        2.2530    -3.2030     1.7300 H     1 <1>   0.1500 
 28 H        4.1800     3.0900    -0.4080 H     1 <1>   0.0800 
 29 H        3.6120     1.9810    -1.6120 H     1 <1>   0.0800 
 30 H        4.5500    -0.3640    -1.7190 H     1 <1>   0.0800 
 31 H        5.8420    -0.8140    -0.6490 H     1 <1>   0.0800 
 32 H       -0.7270    -3.7490    -1.2720 H     1 <1>   0.1500 
 33 H       -0.9220    -0.1930    -0.4890 H     1 <1>   0.0800 
 34 H       -1.4290    -1.3780    -1.6770 H     1 <1>   0.0800 
 35 H        0.0680    -0.4910    -1.9080 H     1 <1>   0.0800 
 36 H        0.8990    -5.0440     0.4160 H     1 <1>   0.1500 
 37 H        5.6850     1.3670     0.5070 H     1 <1>   0.0800 
 38 H        5.9800     1.5870    -1.1990 H     1 <1>   0.0800 
 39 H       -1.3100     4.5610     1.1560 H     1 <1>   0.0800 
 40 H       -1.8030     4.6190    -0.5230 H     1 <1>   0.0800 
 41 H        0.0860     6.1610    -1.0110 H     1 <1>   0.0800 
 42 H        0.5170     6.1400     0.6990 H     1 <1>   0.0800 
 43 H       -1.5290     9.0120     0.3540 H     1 <1>   0.0800 
 44 H       -0.3520     8.4910    -0.8460 H     1 <1>   0.0800 
 45 H        0.0540     8.4520     0.8770 H     1 <1>   0.0800 
@<TRIPOS>BOND
  1   1   2  2   
  2   2   3  am  
  3   2   4  1   
  4   3   5  1   
  5   3   6  1   
  6   4   7  1   
  7   4   8  2   
  8   5   9  1   
  9   5  10  1   
 10   5  24  1   
 11   6  11  1   
 12   6  25  1   
 13   6  26  1   
 14   7  12  1   
 15   7  13  1   
 16   8  14  1   
 17   8  27  1   
 18   9  15  1   
 19   9  16  2   
 20  10  17  1   
 21  10  28  1   
 22  10  29  1   
 23  11  17  1   
 24  11  30  1   
 25  11  31  1   
 26  12  14  2   
 27  12  32  1   
 28  13  33  1   
 29  13  34  1   
 30  13  35  1   
 31  14  36  1   
 32  15  18  1   
 33  16  19  1   
 34  17  37  1   
 35  17  38  1   
 36  18  19  2   
 37  19  20  1   
 38  20  21  1   
 39  20  39  1   
 40  20  40  1   
 41  21  22  1   
 42  21  41  1   
 43  21  42  1   
 44  22  23  1   
 45  23  43  1   
 46  23  44  1   
 47  23  45  1   
@<TRIPOS>SUBSTRUCTURE
  1 ****   9 GROUP 4 **** **** 0

# MOE 2024.06 (io_trps.svl 2023.06)
