@<TRIPOS>MOLECULE
NONAME
52 54 1 0 0 
SMALL
USER_CHARGES


@<TRIPOS>ATOM
  1 O       -0.2430     0.7670    -0.4550 O.2   1 <1>  -0.5700 
  2 C       -0.3040     1.9700    -0.5550 C.2   1 <1>   0.5690 
  3 N       -1.1090     2.7330     0.2490 N.am  1 <1>  -0.6600 
  4 C        0.5430     2.6480    -1.6350 C.3   1 <1>   0.1810 
  5 C       -1.1760     4.2230     0.0890 C.3   1 <1>   0.3640 
  6 C       -1.8880     2.1540     1.3830 C.3   1 <1>   0.0600 
  7 O        0.8140     3.9970    -1.3460 O.3   1 <1>  -0.5600 
  8 C       -2.6250     4.7280     0.0300 C.ar  1 <1>  -0.1430 
  9 C       -0.3480     4.7710    -1.1000 C.3   1 <1>   0.2610 
 10 C       -3.6150     4.2170    -0.8160 C.ar  1 <1>  -0.1430 
 11 C       -2.9490     5.7770     0.8830 C.ar  1 <1>  -0.1500 
 12 C       -0.0190     6.2520    -0.8590 C.2   1 <1>   0.5690 
 13 C       -4.8920     4.7600    -0.7760 C.ar  1 <1>  -0.1500 
 14 C       -3.3840     3.0710    -1.7970 C.3   1 <1>  -0.0960 
 15 C       -4.2230     6.3110     0.9110 C.ar  1 <1>  -0.1500 
 16 O       -0.5970     7.0550    -1.5570 O.2   1 <1>  -0.5700 
 17 N        0.8690     6.6800     0.1090 N.am  1 <1>  -0.6600 
 18 C       -5.1980     5.8000     0.0800 C.ar  1 <1>  -0.1500 
 19 C        1.0650     8.1410     0.3460 C.3   1 <1>   0.1400 
 20 C        1.8040     5.8090     0.8820 C.3   1 <1>   0.0600 
 21 C        2.0930     8.7110    -0.6310 C.3   1 <1>  -0.0170 
 22 C        2.2580    10.2000    -0.3940 C.ar  1 <1>   0.1670 
 23 N        2.9430    10.5500     0.6850 N.ar  1 <1>  -0.6200 
 24 C        1.6980    11.1040    -1.2850 C.ar  1 <1>  -0.1500 
 25 C        3.0800    11.8520     0.8790 C.ar  1 <1>   0.1600 
 26 C        1.8470    12.4570    -1.0690 C.ar  1 <1>  -0.1500 
 27 C        2.5610    12.8310     0.0480 C.ar  1 <1>  -0.1500 
 28 H        0.0350     2.5940    -2.5810 H     1 <1>   0.0800 
 29 H        1.4840     2.1370    -1.7190 H     1 <1>   0.0800 
 30 H       -0.7370     4.6290     0.9820 H     1 <1>   0.0800 
 31 H       -1.6110     2.6390     2.3020 H     1 <1>   0.0800 
 32 H       -1.6950     1.0990     1.4790 H     1 <1>   0.0800 
 33 H       -2.9420     2.2950     1.2150 H     1 <1>   0.0800 
 34 H       -0.9460     4.7300    -1.9910 H     1 <1>   0.0800 
 35 H       -2.2070     6.2000     1.5370 H     1 <1>   0.1500 
 36 H       -5.6650     4.3750    -1.4170 H     1 <1>   0.1500 
 37 H       -4.1880     3.0070    -2.5080 H     1 <1>   0.0800 
 38 H       -3.3340     2.1370    -1.2670 H     1 <1>   0.0800 
 39 H       -2.4770     3.2080    -2.3500 H     1 <1>   0.0800 
 40 H       -4.4540     7.1250     1.5760 H     1 <1>   0.1500 
 41 H       -6.1930     6.2110     0.0970 H     1 <1>   0.1500 
 42 H        0.1270     8.6560     0.2130 H     1 <1>   0.0800 
 43 H        1.3900     8.3120     1.3580 H     1 <1>   0.0800 
 44 H        1.8250     6.1170     1.9120 H     1 <1>   0.0800 
 45 H        2.7960     5.8960     0.4730 H     1 <1>   0.0800 
 46 H        1.5120     4.7760     0.8470 H     1 <1>   0.0800 
 47 H        1.7660     8.5340    -1.6390 H     1 <1>   0.0800 
 48 H        3.0420     8.2290    -0.4880 H     1 <1>   0.0800 
 49 H        1.1480    10.7530    -2.1400 H     1 <1>   0.1500 
 50 H        3.6360    12.1560     1.7490 H     1 <1>   0.1500 
 51 H        1.4260    13.1850    -1.7410 H     1 <1>   0.1500 
 52 H        2.7160    13.8700     0.2770 H     1 <1>   0.1500 
@<TRIPOS>BOND
  1   1   2  2   
  2   2   3  am  
  3   2   4  1   
  4   3   5  1   
  5   3   6  1   
  6   4   7  1   
  7   4  28  1   
  8   4  29  1   
  9   5   8  1   
 10   5   9  1   
 11   5  30  1   
 12   6  31  1   
 13   6  32  1   
 14   6  33  1   
 15   7   9  1   
 16   8  10  ar  
 17   8  11  ar  
 18   9  12  1   
 19   9  34  1   
 20  10  13  ar  
 21  10  14  1   
 22  11  15  ar  
 23  11  35  1   
 24  12  16  2   
 25  12  17  am  
 26  13  18  ar  
 27  13  36  1   
 28  14  37  1   
 29  14  38  1   
 30  14  39  1   
 31  15  18  ar  
 32  15  40  1   
 33  17  19  1   
 34  17  20  1   
 35  18  41  1   
 36  19  21  1   
 37  19  42  1   
 38  19  43  1   
 39  20  44  1   
 40  20  45  1   
 41  20  46  1   
 42  21  22  1   
 43  21  47  1   
 44  21  48  1   
 45  22  23  ar  
 46  22  24  ar  
 47  23  25  ar  
 48  24  26  ar  
 49  24  49  1   
 50  25  27  ar  
 51  25  50  1   
 52  26  27  ar  
 53  26  51  1   
 54  27  52  1   
@<TRIPOS>SUBSTRUCTURE
  1 ****  12 GROUP 4 **** **** 0

# MOE 2024.06 (io_trps.svl 2023.06)
