@<TRIPOS>MOLECULE
NONAME
46 47 1 0 0 
SMALL
USER_CHARGES


@<TRIPOS>ATOM
  1 O        0.8830    -0.9530     0.3040 O.co2 1 <1>  -0.9000 
  2 C        1.7250    -0.2990     0.9290 C.2   1 <1>   0.9060 
  3 O        1.6660    -0.1390     2.1550 O.co2 1 <1>  -0.9000 
  4 C        2.9020     0.2870     0.1750 C.3   1 <1>  -0.1220 
  5 C        2.7900     1.7860    -0.1070 C.ar  1 <1>  -0.1440 
  6 C        2.9040     2.2760    -1.3970 C.ar  1 <1>  -0.1500 
  7 C        2.5710     2.6690     0.9360 C.ar  1 <1>  -0.1500 
  8 C        2.8090     3.6350    -1.6410 C.ar  1 <1>  -0.1500 
  9 C        2.4720     4.0270     0.6990 C.ar  1 <1>  -0.1500 
 10 C        2.6000     4.5190    -0.5920 C.ar  1 <1>  -0.1440 
 11 C        2.5180     6.0070    -0.8490 C.3   1 <1>   0.4870 
 12 N        3.7640     6.6400    -0.3320 N.4   1 <1>  -0.9590 
 13 C        3.6450     8.1250    -0.3350 C.3   1 <1>   0.3430 
 14 C        4.9600     6.1600    -1.0980 C.3   1 <1>   0.2630 
 15 C        4.7330     8.7620     0.5290 C.3   1 <1>  -0.1600 
 16 C        4.5910    10.2850     0.5060 C.3   1 <1>   0.2000 
 17 O        4.4800    10.6620    -0.8310 O.3   1 <1>  -0.5600 
 18 C        5.8010    10.9860     1.1420 C.3   1 <1>  -0.1600 
 19 C        4.2600    12.0270    -1.0450 C.3   1 <1>   0.1200 
 20 C        5.7070    12.5060     0.9660 C.3   1 <1>  -0.1600 
 21 C        5.4480    12.8330    -0.5080 C.3   1 <1>  -0.1600 
 22 H        2.9980    -0.2600    -0.7430 H     1 <1>   0.0800 
 23 H        3.7800     0.1030     0.7620 H     1 <1>   0.0800 
 24 H        3.0600     1.5900    -2.2120 H     1 <1>   0.1500 
 25 H        2.4650     2.2820     1.9380 H     1 <1>   0.1500 
 26 H        2.8960     3.9830    -2.6550 H     1 <1>   0.1500 
 27 H        2.2870     4.6770     1.5360 H     1 <1>   0.1500 
 28 H        1.6570     6.4050    -0.3370 H     1 <1>   0.0800 
 29 H        2.4090     6.1960    -1.9040 H     1 <1>   0.0800 
 30 H        3.8600     6.3060     0.6360 H     1 <1>   0.4500 
 31 H        2.6830     8.4180     0.0530 H     1 <1>   0.0800 
 32 H        3.7240     8.4990    -1.3440 H     1 <1>   0.0800 
 33 H        4.8920     6.4630    -2.1300 H     1 <1>   0.0800 
 34 H        5.0220     5.0830    -1.0580 H     1 <1>   0.0800 
 35 H        5.8650     6.5650    -0.6790 H     1 <1>   0.0800 
 36 H        5.7070     8.5110     0.1520 H     1 <1>   0.0800 
 37 H        4.6540     8.4210     1.5450 H     1 <1>   0.0800 
 38 H        3.6850    10.5810     1.0100 H     1 <1>   0.0800 
 39 H        6.7060    10.6320     0.6780 H     1 <1>   0.0800 
 40 H        5.8530    10.7490     2.1900 H     1 <1>   0.0800 
 41 H        3.3450    12.3120    -0.5550 H     1 <1>   0.0800 
 42 H        4.1520    12.1820    -2.1050 H     1 <1>   0.0800 
 43 H        6.6180    12.9760     1.2950 H     1 <1>   0.0800 
 44 H        4.8980    12.8880     1.5650 H     1 <1>   0.0800 
 45 H        5.2490    13.8850    -0.6190 H     1 <1>   0.0800 
 46 H        6.3190    12.6010    -1.0940 H     1 <1>   0.0800 
@<TRIPOS>BOND
  1   1   2  ar  
  2   2   3  ar  
  3   2   4  1   
  4   4   5  1   
  5   4  22  1   
  6   4  23  1   
  7   5   6  ar  
  8   5   7  ar  
  9   6   8  ar  
 10   6  24  1   
 11   7   9  ar  
 12   7  25  1   
 13   8  10  ar  
 14   8  26  1   
 15   9  10  ar  
 16   9  27  1   
 17  10  11  1   
 18  11  12  1   
 19  11  28  1   
 20  11  29  1   
 21  12  13  1   
 22  12  14  1   
 23  12  30  1   
 24  13  15  1   
 25  13  31  1   
 26  13  32  1   
 27  14  33  1   
 28  14  34  1   
 29  14  35  1   
 30  15  16  1   
 31  15  36  1   
 32  15  37  1   
 33  16  17  1   
 34  16  18  1   
 35  16  38  1   
 36  17  19  1   
 37  18  20  1   
 38  18  39  1   
 39  18  40  1   
 40  19  21  1   
 41  19  41  1   
 42  19  42  1   
 43  20  21  1   
 44  20  43  1   
 45  20  44  1   
 46  21  45  1   
 47  21  46  1   
@<TRIPOS>SUBSTRUCTURE
  1 ****  12 GROUP 4 **** **** 0

# MOE 2024.06 (io_trps.svl 2023.06)
