@<TRIPOS>MOLECULE
NONAME
48 51 1 0 0 
SMALL
USER_CHARGES


@<TRIPOS>ATOM
  1 O       -0.9630     0.2520    -1.2270 O.2   1 <1>  -0.5700 
  2 C       -1.6740     0.8750    -0.4660 C.2   1 <1>   0.5440 
  3 N       -2.6450     0.1980     0.2370 N.am  1 <1>  -0.6600 
  4 C       -1.5000     2.3010    -0.3400 C.ar  1 <1>   0.0860 
  5 C       -2.6240    -1.2970     0.3550 C.3   1 <1>   0.1400 
  6 C       -3.9990     0.7710     0.5200 C.3   1 <1>   0.1400 
  7 C       -1.6400     2.9690     0.8600 C.ar  1 <1>   0.1600 
  8 C       -1.1760     3.0960    -1.4220 C.ar  1 <1>   0.1600 
  9 C       -3.7820    -1.9320    -0.4350 C.3   1 <1>   0.3440 
 10 C       -5.0890     0.0200    -0.2720 C.3   1 <1>   0.2950 
 11 N       -1.5140     4.2730     0.9800 N.ar  1 <1>  -0.6200 
 12 N       -1.0410     4.4030    -1.3400 N.ar  1 <1>  -0.6200 
 13 O       -5.0020    -1.3560    -0.0440 O.3   1 <1>  -0.5600 
 14 C       -3.8240    -3.4390    -0.2010 C.ar  1 <1>  -0.1430 
 15 C       -6.4920     0.4690     0.1460 C.3   1 <1>  -0.1950 
 16 C       -1.2180     4.9240    -0.1350 C.ar  1 <1>   0.4770 
 17 C       -3.0880    -4.2770    -1.0280 C.ar  1 <1>  -0.1500 
 18 C       -4.5690    -3.9960     0.8300 C.ar  1 <1>  -0.1500 
 19 C       -7.6650     0.2920    -0.7660 C.3   1 <1>  -0.2000 
 20 C       -7.1370     1.6690    -0.4750 C.3   1 <1>  -0.2000 
 21 C       -1.0590     6.4310    -0.0180 C.3   1 <1>  -0.0170 
 22 C       -3.0950    -5.6470    -0.8270 C.ar  1 <1>  -0.1500 
 23 C       -4.5770    -5.3660     1.0320 C.ar  1 <1>  -0.1500 
 24 C        0.3850     6.8370     0.3090 C.3   1 <1>  -0.2400 
 25 C       -3.8400    -6.1920     0.2030 C.ar  1 <1>  -0.1500 
 26 H       -1.6910    -1.6950    -0.0040 H     1 <1>   0.0800 
 27 H       -2.7160    -1.5730     1.3910 H     1 <1>   0.0800 
 28 H       -4.2060     0.6880     1.5730 H     1 <1>   0.0800 
 29 H       -4.0390     1.8110     0.2530 H     1 <1>   0.0800 
 30 H       -1.8640     2.4050     1.7500 H     1 <1>   0.1500 
 31 H       -1.0280     2.6330    -2.3830 H     1 <1>   0.1500 
 32 H       -3.6480    -1.7430    -1.4860 H     1 <1>   0.0800 
 33 H       -4.9570     0.1920    -1.3270 H     1 <1>   0.0800 
 34 H       -6.6680     0.3090     1.1960 H     1 <1>   0.1000 
 35 H       -2.5030    -3.8670    -1.8330 H     1 <1>   0.1500 
 36 H       -5.1500    -3.3630     1.4790 H     1 <1>   0.1500 
 37 H       -7.5010    -0.1400    -1.7390 H     1 <1>   0.1000 
 38 H       -8.6040    -0.0110    -0.3360 H     1 <1>   0.1000 
 39 H       -7.7260     2.3230     0.1450 H     1 <1>   0.1000 
 40 H       -6.6370     2.1970    -1.2700 H     1 <1>   0.1000 
 41 H       -1.3580     6.8860    -0.9450 H     1 <1>   0.0800 
 42 H       -1.7170     6.7930     0.7520 H     1 <1>   0.0800 
 43 H       -2.5220    -6.2880    -1.4730 H     1 <1>   0.1500 
 44 H       -5.1600    -5.7860     1.8330 H     1 <1>   0.1500 
 45 H        1.0490     6.4930    -0.4640 H     1 <1>   0.0800 
 46 H        0.6880     6.4000     1.2440 H     1 <1>   0.0800 
 47 H        0.4630     7.9070     0.3830 H     1 <1>   0.0800 
 48 H       -3.8470    -7.2570     0.3600 H     1 <1>   0.1500 
@<TRIPOS>BOND
  1   1   2  2   
  2   2   3  am  
  3   2   4  1   
  4   3   5  1   
  5   3   6  1   
  6   4   7  ar  
  7   4   8  ar  
  8   5   9  1   
  9   5  26  1   
 10   5  27  1   
 11   6  10  1   
 12   6  28  1   
 13   6  29  1   
 14   7  11  ar  
 15   7  30  1   
 16   8  12  ar  
 17   8  31  1   
 18   9  13  1   
 19   9  14  1   
 20   9  32  1   
 21  10  13  1   
 22  10  15  1   
 23  10  33  1   
 24  11  16  ar  
 25  12  16  ar  
 26  14  17  ar  
 27  14  18  ar  
 28  15  19  1   
 29  15  20  1   
 30  15  34  1   
 31  16  21  1   
 32  17  22  ar  
 33  17  35  1   
 34  18  23  ar  
 35  18  36  1   
 36  19  20  1   
 37  19  37  1   
 38  19  38  1   
 39  20  39  1   
 40  20  40  1   
 41  21  24  1   
 42  21  41  1   
 43  21  42  1   
 44  22  25  ar  
 45  22  43  1   
 46  23  25  ar  
 47  23  44  1   
 48  24  45  1   
 49  24  46  1   
 50  24  47  1   
 51  25  48  1   
@<TRIPOS>SUBSTRUCTURE
  1 ****   3 GROUP 4 **** **** 0

# MOE 2024.06 (io_trps.svl 2023.06)
