@<TRIPOS>MOLECULE
NONAME
44 46 1 0 0 
SMALL
USER_CHARGES


@<TRIPOS>ATOM
  1 F       -0.6310    -0.6810     0.9250 F     1 <1>  -0.1900 
  2 C       -0.7070    -1.9690     0.7170 C.ar  1 <1>   0.1900 
  3 C       -0.4610    -2.4530    -0.5550 C.ar  1 <1>  -0.1500 
  4 C       -1.0310    -2.7970     1.7740 C.ar  1 <1>  -0.1500 
  5 C       -0.5430    -3.8180    -0.7760 C.ar  1 <1>  -0.1500 
  6 C       -1.1110    -4.1600     1.5440 C.ar  1 <1>  -0.1500 
  7 C       -0.8710    -4.6750     0.2760 C.ar  1 <1>   0.0830 
  8 O       -0.9780    -6.0200     0.1440 O.3   1 <1>  -0.3630 
  9 C       -0.8400    -6.6520    -1.1220 C.3   1 <1>   0.1810 
 10 C       -1.0770    -8.1580    -1.0320 C.2   1 <1>   0.5690 
 11 O       -0.2150    -8.8870    -1.4660 O.2   1 <1>  -0.5700 
 12 N       -2.2420    -8.6650    -0.5180 N.am  1 <1>  -0.6600 
 13 C       -3.3640    -7.8820     0.0590 C.3   1 <1>   0.1400 
 14 C       -2.4870   -10.1200    -0.3720 C.3   1 <1>   0.1400 
 15 C       -4.4390    -8.9200     0.3780 C.3   1 <1>   0.2000 
 16 C       -3.6830   -10.2310     0.5750 C.3   1 <1>  -0.0800 
 17 O       -5.1430    -8.5920     1.5250 O.3   1 <1>  -0.6800 
 18 C       -4.5490   -11.4760     0.3320 C.3   1 <1>   0.0210 
 19 C       -3.7200   -12.7420     0.4290 C.2   1 <1>   0.1080 
 20 N       -3.0800   -13.0810     1.5040 N.2   1 <1>  -0.7070 
 21 C       -3.5400   -13.6580    -0.6010 C.2   1 <1>  -0.1500 
 22 N       -2.4670   -14.2360     1.1850 N.pl3 1 <1>   0.3000 
 23 C       -2.7300   -14.6060    -0.0860 C.2   1 <1>  -0.3320 
 24 C       -2.1810   -15.8610    -0.7400 C.3   1 <1>  -0.0600 
 25 H       -0.2100    -1.7720    -1.3480 H     1 <1>   0.1500 
 26 H       -1.2140    -2.3830     2.7490 H     1 <1>   0.1500 
 27 H       -0.3460    -4.1880    -1.7640 H     1 <1>   0.1500 
 28 H       -1.3580    -4.8330     2.3450 H     1 <1>   0.1500 
 29 H       -1.5540    -6.2230    -1.7980 H     1 <1>   0.0800 
 30 H        0.1580    -6.4720    -1.4780 H     1 <1>   0.0800 
 31 H       -3.0290    -7.3950     0.9590 H     1 <1>   0.0800 
 32 H       -3.7260    -7.1560    -0.6470 H     1 <1>   0.0800 
 33 H       -2.7170   -10.5340    -1.3390 H     1 <1>   0.0800 
 34 H       -1.6210   -10.6210     0.0300 H     1 <1>   0.0800 
 35 H       -5.1340    -8.9850    -0.4420 H     1 <1>   0.0800 
 36 H       -3.2850   -10.2720     1.5750 H     1 <1>   0.0800 
 37 H       -4.5650    -8.6750     2.3090 H     1 <1>   0.4000 
 38 H       -5.0070   -11.4250    -0.6390 H     1 <1>   0.0800 
 39 H       -5.3300   -11.5190     1.0700 H     1 <1>   0.0800 
 40 H       -3.9650   -13.5990    -1.5870 H     1 <1>   0.1500 
 41 H       -1.8770   -14.7450     1.8550 H     1 <1>   0.2700 
 42 H       -2.5330   -15.9340    -1.7530 H     1 <1>   0.0800 
 43 H       -2.5050   -16.7340    -0.2010 H     1 <1>   0.0800 
 44 H       -1.1060   -15.8340    -0.7520 H     1 <1>   0.0800 
@<TRIPOS>BOND
  1   1   2  1   
  2   2   3  ar  
  3   2   4  ar  
  4   3   5  ar  
  5   3  25  1   
  6   4   6  ar  
  7   4  26  1   
  8   5   7  ar  
  9   5  27  1   
 10   6   7  ar  
 11   6  28  1   
 12   7   8  1   
 13   8   9  1   
 14   9  10  1   
 15   9  29  1   
 16   9  30  1   
 17  10  11  2   
 18  10  12  am  
 19  12  13  1   
 20  12  14  1   
 21  13  15  1   
 22  13  31  1   
 23  13  32  1   
 24  14  16  1   
 25  14  33  1   
 26  14  34  1   
 27  15  16  1   
 28  15  17  1   
 29  15  35  1   
 30  16  18  1   
 31  16  36  1   
 32  17  37  1   
 33  18  19  1   
 34  18  38  1   
 35  18  39  1   
 36  19  20  2   
 37  19  21  1   
 38  20  22  1   
 39  21  23  2   
 40  21  40  1   
 41  22  23  1   
 42  22  41  1   
 43  23  24  1   
 44  24  42  1   
 45  24  43  1   
 46  24  44  1   
@<TRIPOS>SUBSTRUCTURE
  1 ****  12 GROUP 4 **** **** 0

# MOE 2024.06 (io_trps.svl 2023.06)
