@<TRIPOS>MOLECULE
NONAME
47 49 1 0 0 
SMALL
USER_CHARGES


@<TRIPOS>ATOM
  1 CL      -0.3690     1.0760    -1.4010 Cl    1 <1>  -0.1770 
  2 C       -2.0710     1.2040    -1.0440 C.ar  1 <1>   0.1770 
  3 C       -2.6010     2.4280    -0.6840 C.ar  1 <1>  -0.1500 
  4 C       -2.8710     0.0810    -1.1250 C.ar  1 <1>  -0.1500 
  5 C       -3.9520     2.5220    -0.4020 C.ar  1 <1>  -0.1500 
  6 C       -4.2210     0.1890    -0.8430 C.ar  1 <1>  -0.1500 
  7 C       -4.7950     1.4090    -0.4730 C.ar  1 <1>   0.0530 
  8 C       -6.2030     1.5360    -0.1800 C.2   1 <1>   0.0870 
  9 O       -6.8010     2.6900    -0.3380 O.3   1 <1>  -0.0190 
 10 C       -7.1510     0.6610     0.2520 C.2   1 <1>  -0.0860 
 11 N       -8.0730     2.6530    -0.0450 N.2   1 <1>  -0.4100 
 12 C       -8.3080     1.4440     0.3190 C.2   1 <1>   0.3720 
 13 C       -7.0560    -0.7200     0.6060 C.2   1 <1>   0.7160 
 14 N       -9.5610     0.9890     0.7270 N.pl3 1 <1>  -0.8520 
 15 O       -6.1560    -1.0920     1.3360 O.2   1 <1>  -0.5700 
 16 N       -7.9560    -1.6500     0.1330 N.am  1 <1>  -0.6600 
 17 C      -10.4170     1.9330     1.5000 C.3   1 <1>   0.2090 
 18 C       -7.8980    -3.0780     0.5140 C.3   1 <1>   0.2200 
 19 C       -8.6970    -1.4800    -1.1400 C.3   1 <1>   0.1400 
 20 C      -11.3140     2.7350     0.5580 C.3   1 <1>   0.1200 
 21 C       -8.6660    -3.8170    -0.5850 C.3   1 <1>  -0.1600 
 22 C       -8.5250    -3.2770     1.8930 C.3   1 <1>  -0.2400 
 23 C       -8.6780    -2.8630    -1.7740 C.3   1 <1>  -0.1600 
 24 O      -12.2200     3.4720     1.3210 O.3   1 <1>  -0.5600 
 25 C      -13.0510     4.2920     0.5650 C.3   1 <1>   0.0400 
 26 H       -1.9610     3.2900    -0.6260 H     1 <1>   0.1500 
 27 H       -2.4380    -0.8620    -1.4050 H     1 <1>   0.1500 
 28 H       -4.3620     3.4770    -0.1190 H     1 <1>   0.1500 
 29 H       -4.8330    -0.6920    -0.9130 H     1 <1>   0.1500 
 30 H       -9.4970     0.0760     1.1920 H     1 <1>   0.4000 
 31 H       -9.8010     2.6080     2.0700 H     1 <1>   0.0800 
 32 H      -11.0350     1.3700     2.1780 H     1 <1>   0.0800 
 33 H       -6.8690    -3.4000     0.5200 H     1 <1>   0.0800 
 34 H       -8.2350    -0.7470    -1.7800 H     1 <1>   0.0800 
 35 H       -9.7100    -1.1840    -0.9240 H     1 <1>   0.0800 
 36 H      -11.8670     2.0700    -0.0820 H     1 <1>   0.0800 
 37 H      -10.7200     3.4130    -0.0300 H     1 <1>   0.0800 
 38 H       -9.6770    -4.0040    -0.2670 H     1 <1>   0.0800 
 39 H       -8.2020    -4.7580    -0.8230 H     1 <1>   0.0800 
 40 H       -9.5360    -2.9130     1.9070 H     1 <1>   0.0800 
 41 H       -7.9490    -2.7560     2.6360 H     1 <1>   0.0800 
 42 H       -8.5290    -4.3220     2.1430 H     1 <1>   0.0800 
 43 H       -7.7730    -2.9750    -2.3460 H     1 <1>   0.0800 
 44 H       -9.5240    -3.0200    -2.4190 H     1 <1>   0.0800 
 45 H      -13.7110     4.8120     1.2360 H     1 <1>   0.0800 
 46 H      -13.6260     3.6860    -0.1140 H     1 <1>   0.0800 
 47 H      -12.4500     5.0030     0.0230 H     1 <1>   0.0800 
@<TRIPOS>BOND
  1   1   2  1   
  2   2   3  ar  
  3   2   4  ar  
  4   3   5  ar  
  5   3  26  1   
  6   4   6  ar  
  7   4  27  1   
  8   5   7  ar  
  9   5  28  1   
 10   6   7  ar  
 11   6  29  1   
 12   7   8  1   
 13   8   9  1   
 14   8  10  2   
 15   9  11  1   
 16  10  12  1   
 17  10  13  1   
 18  11  12  2   
 19  12  14  1   
 20  13  15  2   
 21  13  16  am  
 22  14  17  1   
 23  14  30  1   
 24  16  18  1   
 25  16  19  1   
 26  17  20  1   
 27  17  31  1   
 28  17  32  1   
 29  18  21  1   
 30  18  22  1   
 31  18  33  1   
 32  19  23  1   
 33  19  34  1   
 34  19  35  1   
 35  20  24  1   
 36  20  36  1   
 37  20  37  1   
 38  21  23  1   
 39  21  38  1   
 40  21  39  1   
 41  22  40  1   
 42  22  41  1   
 43  22  42  1   
 44  23  43  1   
 45  23  44  1   
 46  24  25  1   
 47  25  45  1   
 48  25  46  1   
 49  25  47  1   
@<TRIPOS>SUBSTRUCTURE
  1 ****  10 GROUP 4 **** **** 0

# MOE 2024.06 (io_trps.svl 2023.06)
