@<TRIPOS>MOLECULE
NONAME
50 51 1 0 0 
SMALL
USER_CHARGES


@<TRIPOS>ATOM
  1 O        1.4110     0.3240     1.6720 O.2   1 <1>  -0.5700 
  2 C        1.7180    -0.4080     0.7610 C.2   1 <1>   0.5690 
  3 N        2.2610     0.0720    -0.4010 N.am  1 <1>  -0.6600 
  4 C        1.4930    -1.8980     0.9540 C.3   1 <1>  -0.0990 
  5 C        2.6970    -0.7950    -1.5270 C.3   1 <1>   0.1400 
  6 C        2.4130     1.5410    -0.6100 C.3   1 <1>   0.1400 
  7 C        2.8020    -2.7010     1.0240 C.3   1 <1>  -0.1600 
  8 C        3.8630    -1.6980    -1.1090 C.3   1 <1>  -0.1600 
  9 C        3.7220     2.0210     0.0200 C.3   1 <1>  -0.0990 
 10 C        3.4320    -2.9640    -0.3510 C.3   1 <1>  -0.1600 
 11 C        3.9940     3.4930    -0.2420 C.2   1 <1>   0.5690 
 12 O        3.3220     4.0630    -1.0710 O.2   1 <1>  -0.5700 
 13 N        5.0040     4.1400     0.4230 N.am  1 <1>  -0.6600 
 14 C        5.9580     3.5140     1.3960 C.3   1 <1>   0.1400 
 15 C        5.2500     5.5910     0.1940 C.3   1 <1>   0.1400 
 16 C        7.3420     3.2610     0.7750 C.3   1 <1>   0.1400 
 17 C        6.1530     5.8200    -1.0250 C.3   1 <1>  -0.1600 
 18 N        7.9220     4.4970     0.1620 N.am  1 <1>  -0.6600 
 19 C        7.3350     4.8500    -1.1620 C.3   1 <1>   0.1400 
 20 C        8.8080     5.2810     0.8620 C.2   1 <1>   0.5690 
 21 O        9.1320     5.0030     1.9950 O.2   1 <1>  -0.5700 
 22 C        9.4140     6.5540     0.2610 C.3   1 <1>   0.1810 
 23 O        8.6160     7.6780     0.5040 O.3   1 <1>  -0.6800 
 24 H        0.8580    -2.2700     0.1710 H     1 <1>   0.0800 
 25 H        0.9640    -2.0290     1.8810 H     1 <1>   0.0800 
 26 H        3.0180    -0.1770    -2.3480 H     1 <1>   0.0800 
 27 H        1.8660    -1.3860    -1.8720 H     1 <1>   0.0800 
 28 H        1.5870     2.0590    -0.1520 H     1 <1>   0.0800 
 29 H        2.3950     1.7690    -1.6620 H     1 <1>   0.0800 
 30 H        2.5920    -3.6520     1.4820 H     1 <1>   0.0800 
 31 H        3.5050    -2.1860     1.6580 H     1 <1>   0.0800 
 32 H        4.5730    -1.1350    -0.5290 H     1 <1>   0.0800 
 33 H        4.3650    -2.0150    -2.0060 H     1 <1>   0.0800 
 34 H        4.5410     1.4520    -0.3750 H     1 <1>   0.0800 
 35 H        3.6510     1.8630     1.0790 H     1 <1>   0.0800 
 36 H        2.7420    -3.5250    -0.9580 H     1 <1>   0.0800 
 37 H        4.3020    -3.5820    -0.2080 H     1 <1>   0.0800 
 38 H        5.5720     2.5840     1.7670 H     1 <1>   0.0800 
 39 H        6.0750     4.1630     2.2470 H     1 <1>   0.0800 
 40 H        5.7160     6.0170     1.0660 H     1 <1>   0.0800 
 41 H        4.3120     6.1000     0.0470 H     1 <1>   0.0800 
 42 H        7.2630     2.4920     0.0280 H     1 <1>   0.0800 
 43 H        8.0020     2.8920     1.5420 H     1 <1>   0.0800 
 44 H        6.5240     6.8280    -0.9870 H     1 <1>   0.0800 
 45 H        5.5510     5.7480    -1.9130 H     1 <1>   0.0800 
 46 H        8.0830     5.2750    -1.8070 H     1 <1>   0.0800 
 47 H        6.9830     3.9500    -1.6370 H     1 <1>   0.0800 
 48 H        9.5470     6.4580    -0.7990 H     1 <1>   0.0800 
 49 H       10.3750     6.7310     0.7100 H     1 <1>   0.0800 
 50 H        8.4680     7.7620     1.4680 H     1 <1>   0.4000 
@<TRIPOS>BOND
  1   1   2  2   
  2   2   3  am  
  3   2   4  1   
  4   3   5  1   
  5   3   6  1   
  6   4   7  1   
  7   4  24  1   
  8   4  25  1   
  9   5   8  1   
 10   5  26  1   
 11   5  27  1   
 12   6   9  1   
 13   6  28  1   
 14   6  29  1   
 15   7  10  1   
 16   7  30  1   
 17   7  31  1   
 18   8  10  1   
 19   8  32  1   
 20   8  33  1   
 21   9  11  1   
 22   9  34  1   
 23   9  35  1   
 24  10  36  1   
 25  10  37  1   
 26  11  12  2   
 27  11  13  am  
 28  13  14  1   
 29  13  15  1   
 30  14  16  1   
 31  14  38  1   
 32  14  39  1   
 33  15  17  1   
 34  15  40  1   
 35  15  41  1   
 36  16  18  1   
 37  16  42  1   
 38  16  43  1   
 39  17  19  1   
 40  17  44  1   
 41  17  45  1   
 42  18  19  1   
 43  18  20  am  
 44  19  46  1   
 45  19  47  1   
 46  20  21  2   
 47  20  22  1   
 48  22  23  1   
 49  22  48  1   
 50  22  49  1   
 51  23  50  1   
@<TRIPOS>SUBSTRUCTURE
  1 ****   9 GROUP 4 **** **** 0

# MOE 2024.06 (io_trps.svl 2023.06)
