@<TRIPOS>MOLECULE
NONAME
58 62 1 0 0 
SMALL
USER_CHARGES


@<TRIPOS>ATOM
  1 O       -1.0110    -0.7190     0.1060 O.3   1 <1>  -0.0190 
  2 N       -1.8860    -1.5010    -0.4520 N.2   1 <1>  -0.4100 
  3 C       -0.5700    -1.2030     1.2380 C.2   1 <1>  -0.0400 
  4 C       -2.0160    -2.5120     0.3370 C.2   1 <1>   0.1080 
  5 C       -1.1890    -2.3760     1.4500 C.2   1 <1>  -0.1500 
  6 C        0.4670    -0.4180     2.0320 C.3   1 <1>   0.1000 
  7 C       -2.9590    -3.6750     0.0580 C.3   1 <1>   0.5240 
  8 C        1.7850    -0.3490     1.2540 C.3   1 <1>  -0.2400 
  9 C        0.7060    -1.0390     3.4140 C.3   1 <1>  -0.2400 
 10 N       -4.0330    -3.2160    -0.8730 N.4   1 <1>  -0.9590 
 11 C       -5.0100    -2.3130    -0.1750 C.3   1 <1>   0.3430 
 12 C       -4.7110    -4.3240    -1.5970 C.3   1 <1>   0.3430 
 13 C       -5.9910    -1.6680    -1.1670 C.3   1 <1>   0.1430 
 14 C       -5.6680    -3.7380    -2.6410 C.3   1 <1>  -0.1600 
 15 C       -7.0230    -0.8870    -0.3890 C.ar  1 <1>   0.1670 
 16 C       -6.6790    -2.7560    -2.0210 C.3   1 <1>  -0.1600 
 17 C       -5.3240    -0.5700    -2.0400 C.3   1 <1>  -0.1600 
 18 N       -7.6740    -1.3460     0.6500 N.ar  1 <1>  -0.6200 
 19 C       -7.1960     0.3640    -0.8920 C.ar  1 <1>  -0.1440 
 20 C       -6.3020     0.6200    -2.0790 C.3   1 <1>  -0.0170 
 21 C       -8.5630    -0.5000     1.1930 C.ar  1 <1>   0.6200 
 22 C       -8.1140     1.1730    -0.2740 C.ar  1 <1>   0.1600 
 23 N       -8.7990     0.7480     0.7630 N.ar  1 <1>  -0.6200 
 24 C       -9.3320    -0.9720     2.3350 C.ar  1 <1>   0.0000 
 25 C      -10.6420    -0.5400     2.5620 C.ar  1 <1>  -0.1500 
 26 C       -8.8000    -1.8780     3.2570 C.ar  1 <1>  -0.1500 
 27 C      -11.3800    -0.9860     3.6430 C.ar  1 <1>  -0.1500 
 28 C       -9.5320    -2.3290     4.3410 C.ar  1 <1>  -0.1500 
 29 C      -10.8260    -1.8830     4.5360 C.ar  1 <1>  -0.1500 
 30 H       -1.0810    -3.0580     2.2740 H     1 <1>   0.1500 
 31 H        0.0960     0.5840     2.1700 H     1 <1>   0.0800 
 32 H       -3.3880    -4.0360     0.9780 H     1 <1>   0.0800 
 33 H       -2.3930    -4.4710    -0.3970 H     1 <1>   0.0800 
 34 H        2.1760    -1.3360     1.0850 H     1 <1>   0.0800 
 35 H        2.5140     0.2240     1.8000 H     1 <1>   0.0800 
 36 H        1.6290     0.1250     0.3000 H     1 <1>   0.0800 
 37 H        1.0990    -2.0360     3.3200 H     1 <1>   0.0800 
 38 H       -0.2140    -1.0750     3.9690 H     1 <1>   0.0800 
 39 H        1.4110    -0.4450     3.9690 H     1 <1>   0.0800 
 40 H       -3.5320    -2.6220    -1.5540 H     1 <1>   0.4500 
 41 H       -4.4860    -1.5310     0.3510 H     1 <1>   0.0800 
 42 H       -5.5770    -2.8780     0.5480 H     1 <1>   0.0800 
 43 H       -5.2690    -4.9300    -0.9000 H     1 <1>   0.0800 
 44 H       -3.9840    -4.9510    -2.0890 H     1 <1>   0.0800 
 45 H       -6.2050    -4.5440    -3.1110 H     1 <1>   0.0800 
 46 H       -5.0970    -3.2500    -3.4120 H     1 <1>   0.0800 
 47 H       -7.2720    -2.2970    -2.7940 H     1 <1>   0.0800 
 48 H       -7.3560    -3.3110    -1.3920 H     1 <1>   0.0800 
 49 H       -5.0860    -0.9060    -3.0340 H     1 <1>   0.0800 
 50 H       -4.4140    -0.2340    -1.5710 H     1 <1>   0.0800 
 51 H       -6.8880     0.6060    -2.9830 H     1 <1>   0.0800 
 52 H       -5.7860     1.5610    -1.9950 H     1 <1>   0.0800 
 53 H       -8.2910     2.1740    -0.6300 H     1 <1>   0.1500 
 54 H      -11.0900     0.1600     1.8770 H     1 <1>   0.1500 
 55 H       -7.7940    -2.2340     3.1250 H     1 <1>   0.1500 
 56 H      -12.3870    -0.6330     3.7900 H     1 <1>   0.1500 
 57 H       -9.0970    -3.0270     5.0350 H     1 <1>   0.1500 
 58 H      -11.3980    -2.2320     5.3780 H     1 <1>   0.1500 
@<TRIPOS>BOND
  1   1   2  1   
  2   1   3  1   
  3   2   4  2   
  4   3   5  2   
  5   3   6  1   
  6   4   5  1   
  7   4   7  1   
  8   5  30  1   
  9   6   8  1   
 10   6   9  1   
 11   6  31  1   
 12   7  10  1   
 13   7  32  1   
 14   7  33  1   
 15   8  34  1   
 16   8  35  1   
 17   8  36  1   
 18   9  37  1   
 19   9  38  1   
 20   9  39  1   
 21  10  11  1   
 22  10  12  1   
 23  10  40  1   
 24  11  13  1   
 25  11  41  1   
 26  11  42  1   
 27  12  14  1   
 28  12  43  1   
 29  12  44  1   
 30  13  15  1   
 31  13  16  1   
 32  13  17  1   
 33  14  16  1   
 34  14  45  1   
 35  14  46  1   
 36  15  18  ar  
 37  15  19  ar  
 38  16  47  1   
 39  16  48  1   
 40  17  20  1   
 41  17  49  1   
 42  17  50  1   
 43  18  21  ar  
 44  19  20  1   
 45  19  22  ar  
 46  20  51  1   
 47  20  52  1   
 48  21  23  ar  
 49  21  24  1   
 50  22  23  ar  
 51  22  53  1   
 52  24  25  ar  
 53  24  26  ar  
 54  25  27  ar  
 55  25  54  1   
 56  26  28  ar  
 57  26  55  1   
 58  27  29  ar  
 59  27  56  1   
 60  28  29  ar  
 61  28  57  1   
 62  29  58  1   
@<TRIPOS>SUBSTRUCTURE
  1 ****  11 GROUP 4 **** **** 0

# MOE 2024.06 (io_trps.svl 2023.06)
