@<TRIPOS>MOLECULE
NONAME
45 47 1 0 0 
SMALL
USER_CHARGES


@<TRIPOS>ATOM
  1 O        0.8760     0.0880     0.0780 O.3   1 <1>  -0.6800 
  2 C        1.9100    -0.2520    -0.7900 C.3   1 <1>   0.2000 
  3 C        2.6460    -1.4570    -0.2050 C.3   1 <1>  -0.0800 
  4 C        2.9640     0.8570    -0.7530 C.3   1 <1>   0.3430 
  5 C        3.6380    -0.8490     0.8010 C.3   1 <1>   0.3430 
  6 C        3.3750    -2.2620    -1.2980 C.3   1 <1>   0.0210 
  7 N        3.7420     0.6050     0.4900 N.4   1 <1>  -0.9590 
  8 C        4.0100    -3.5150    -0.7270 C.2   1 <1>   0.1080 
  9 C        3.2440     1.4670     1.5960 C.3   1 <1>   0.5240 
 10 N        4.9550    -3.4860     0.1610 N.2   1 <1>  -0.7070 
 11 C        3.6610    -4.8140    -1.0820 C.2   1 <1>  -0.1500 
 12 C        3.8330     2.8590     1.3970 C.2   1 <1>   0.1080 
 13 N        5.2460    -4.7830     0.3910 N.pl3 1 <1>   0.3000 
 14 C        4.4710    -5.6040    -0.3470 C.2   1 <1>  -0.3320 
 15 N        4.9540     3.0630     0.7640 N.2   1 <1>  -0.7070 
 16 C        3.2620     4.0450     1.8440 C.2   1 <1>  -0.1500 
 17 C        4.5560    -7.1190    -0.3080 C.3   1 <1>  -0.0600 
 18 N        5.1330     4.4000     0.7970 N.pl3 1 <1>   0.3140 
 19 C        4.1190     5.0070     1.4430 C.2   1 <1>  -0.3020 
 20 C        6.3090     5.0580     0.1890 C.3   1 <1>   0.0960 
 21 C        6.0160     5.4890    -1.2530 C.3   1 <1>  -0.2400 
 22 H        0.1200    -0.5300    -0.0160 H     1 <1>   0.4000 
 23 H        1.5020    -0.4090    -1.7740 H     1 <1>   0.0800 
 24 H        1.9660    -2.1230     0.2980 H     1 <1>   0.0800 
 25 H        2.5140     1.8370    -0.7630 H     1 <1>   0.0800 
 26 H        3.6140     0.7580    -1.6050 H     1 <1>   0.0800 
 27 H        4.6060    -1.3140     0.7220 H     1 <1>   0.0800 
 28 H        3.2710    -0.9920     1.8040 H     1 <1>   0.0800 
 29 H        4.1470    -1.6710    -1.7600 H     1 <1>   0.0800 
 30 H        2.6770    -2.5530    -2.0630 H     1 <1>   0.0800 
 31 H        4.7140     0.9390     0.3560 H     1 <1>   0.4500 
 32 H        2.1670     1.5050     1.5960 H     1 <1>   0.0800 
 33 H        3.5830     1.0840     2.5430 H     1 <1>   0.0800 
 34 H        2.9090    -5.1050    -1.7930 H     1 <1>   0.1500 
 35 H        5.9770    -5.0780     1.0510 H     1 <1>   0.2700 
 36 H        2.3400     4.1590     2.3890 H     1 <1>   0.1500 
 37 H        3.8390    -7.5480    -0.9850 H     1 <1>   0.0800 
 38 H        4.3470    -7.4800     0.6840 H     1 <1>   0.0800 
 39 H        5.5390    -7.4450    -0.6000 H     1 <1>   0.0800 
 40 H        4.0650     6.0720     1.5800 H     1 <1>   0.1500 
 41 H        6.5690     5.9130     0.7870 H     1 <1>   0.0800 
 42 H        7.1310     4.3660     0.2080 H     1 <1>   0.0800 
 43 H        5.2030     6.1930    -1.2780 H     1 <1>   0.0800 
 44 H        5.7650     4.6310    -1.8530 H     1 <1>   0.0800 
 45 H        6.8860     5.9570    -1.6770 H     1 <1>   0.0800 
@<TRIPOS>BOND
  1   1   2  1   
  2   1  22  1   
  3   2   3  1   
  4   2   4  1   
  5   2  23  1   
  6   3   5  1   
  7   3   6  1   
  8   3  24  1   
  9   4   7  1   
 10   4  25  1   
 11   4  26  1   
 12   5   7  1   
 13   5  27  1   
 14   5  28  1   
 15   6   8  1   
 16   6  29  1   
 17   6  30  1   
 18   7   9  1   
 19   7  31  1   
 20   8  10  2   
 21   8  11  1   
 22   9  12  1   
 23   9  32  1   
 24   9  33  1   
 25  10  13  1   
 26  11  14  2   
 27  11  34  1   
 28  12  15  2   
 29  12  16  1   
 30  13  14  1   
 31  13  35  1   
 32  14  17  1   
 33  15  18  1   
 34  16  19  2   
 35  16  36  1   
 36  17  37  1   
 37  17  38  1   
 38  17  39  1   
 39  18  19  1   
 40  18  20  1   
 41  19  40  1   
 42  20  21  1   
 43  20  41  1   
 44  20  42  1   
 45  21  43  1   
 46  21  44  1   
 47  21  45  1   
@<TRIPOS>SUBSTRUCTURE
  1 ****   7 GROUP 4 **** **** 0

# MOE 2024.06 (io_trps.svl 2023.06)
