@<TRIPOS>MOLECULE
NONAME
51 54 1 0 0 
SMALL
USER_CHARGES


@<TRIPOS>ATOM
  1 O        2.2320     2.0100    -1.2360 O.3   1 <1>  -0.0190 
  2 N        3.0720     1.0570    -0.9710 N.2   1 <1>  -0.4100 
  3 C        1.1330     1.9000    -0.5400 C.2   1 <1>  -0.0400 
  4 C        2.4960     0.3030    -0.1050 C.2   1 <1>   0.1080 
  5 C        1.2350     0.7980     0.2180 C.2   1 <1>  -0.1500 
  6 C        0.0390     2.9410    -0.6860 C.3   1 <1>   0.0200 
  7 C        3.1130    -0.9490     0.4790 C.3   1 <1>  -0.0590 
  8 C        0.5210     4.3110    -0.1790 C.3   1 <1>  -0.0800 
  9 C       -0.5120     5.4200    -0.3620 C.3   1 <1>   0.2000 
 10 C        1.7510     4.8430    -0.9120 C.3   1 <1>   0.3430 
 11 O       -1.3350     5.4870     0.7510 O.3   1 <1>  -0.6800 
 12 C        0.2860     6.7170    -0.5610 C.3   1 <1>   0.3430 
 13 N        1.7240     6.3180    -0.7220 N.4   1 <1>  -0.9590 
 14 C        2.5430     6.7560     0.4300 C.3   1 <1>   0.5230 
 15 C        2.6520     8.2540     0.3100 C.2   1 <1>  -0.3320 
 16 N        3.5280     8.8950    -0.5350 N.pl3 1 <1>   0.0480 
 17 C        1.9270     9.1760     0.9920 C.2   1 <1>  -0.1500 
 18 C        3.3240    10.2460    -0.3940 C.ar  1 <1>  -0.1520 
 19 C        4.6020     8.3210    -1.3730 C.3   1 <1>   0.0160 
 20 C        2.3320    10.4510     0.5560 C.ar  1 <1>   0.0000 
 21 C        3.9330    11.3370    -1.0230 C.ar  1 <1>  -0.1500 
 22 C        1.9360    11.7510     0.8880 C.ar  1 <1>  -0.1500 
 23 C        3.5350    12.6100    -0.6890 C.ar  1 <1>  -0.1500 
 24 C        2.5340    12.8240     0.2680 C.ar  1 <1>  -0.1430 
 25 C        2.1300    14.2490     0.6030 C.3   1 <1>  -0.0970 
 26 H        0.5410     0.3660     0.9160 H     1 <1>   0.1500 
 27 H       -0.2520     2.9970    -1.7210 H     1 <1>   0.0800 
 28 H       -0.8210     2.6300    -0.1180 H     1 <1>   0.0800 
 29 H        2.4960    -1.7990     0.2530 H     1 <1>   0.0800 
 30 H        3.2040    -0.8520     1.5450 H     1 <1>   0.0800 
 31 H        4.0900    -1.1090     0.0590 H     1 <1>   0.0800 
 32 H        0.7830     4.2210     0.8610 H     1 <1>   0.0800 
 33 H       -1.1360     5.2490    -1.2240 H     1 <1>   0.0800 
 34 H        1.6630     4.6130    -1.9630 H     1 <1>   0.0800 
 35 H        2.6600     4.4000    -0.5360 H     1 <1>   0.0800 
 36 H       -0.8460     5.4470     1.5970 H     1 <1>   0.4000 
 37 H        0.1570     7.3720     0.2850 H     1 <1>   0.0800 
 38 H       -0.0600     7.2200    -1.4480 H     1 <1>   0.0800 
 39 H        2.1070     6.8090    -1.5390 H     1 <1>   0.4500 
 40 H        2.0650     6.4880     1.3580 H     1 <1>   0.0800 
 41 H        3.5250     6.3110     0.4000 H     1 <1>   0.0800 
 42 H        1.1670     9.0340     1.7400 H     1 <1>   0.1500 
 43 H        4.6550     7.2570    -1.2520 H     1 <1>   0.0800 
 44 H        5.5420     8.7550    -1.0790 H     1 <1>   0.0800 
 45 H        4.4140     8.5620    -2.4040 H     1 <1>   0.0800 
 46 H        4.7030    11.1830    -1.7570 H     1 <1>   0.1500 
 47 H        1.1680    11.8880     1.6270 H     1 <1>   0.1500 
 48 H        3.9940    13.4590    -1.1650 H     1 <1>   0.1500 
 49 H        2.9790    14.7910     0.9780 H     1 <1>   0.0800 
 50 H        1.3570    14.2630     1.3500 H     1 <1>   0.0800 
 51 H        1.7630    14.7410    -0.2790 H     1 <1>   0.0800 
@<TRIPOS>BOND
  1   1   2  1   
  2   1   3  1   
  3   2   4  2   
  4   3   5  2   
  5   3   6  1   
  6   4   5  1   
  7   4   7  1   
  8   5  26  1   
  9   6   8  1   
 10   6  27  1   
 11   6  28  1   
 12   7  29  1   
 13   7  30  1   
 14   7  31  1   
 15   8   9  1   
 16   8  10  1   
 17   8  32  1   
 18   9  11  1   
 19   9  12  1   
 20   9  33  1   
 21  10  13  1   
 22  10  34  1   
 23  10  35  1   
 24  11  36  1   
 25  12  13  1   
 26  12  37  1   
 27  12  38  1   
 28  13  14  1   
 29  13  39  1   
 30  14  15  1   
 31  14  40  1   
 32  14  41  1   
 33  15  16  1   
 34  15  17  2   
 35  16  18  1   
 36  16  19  1   
 37  17  20  1   
 38  17  42  1   
 39  18  20  ar  
 40  18  21  ar  
 41  19  43  1   
 42  19  44  1   
 43  19  45  1   
 44  20  22  ar  
 45  21  23  ar  
 46  21  46  1   
 47  22  24  ar  
 48  22  47  1   
 49  23  24  ar  
 50  23  48  1   
 51  24  25  1   
 52  25  49  1   
 53  25  50  1   
 54  25  51  1   
@<TRIPOS>SUBSTRUCTURE
  1 ****  13 GROUP 4 **** **** 0

# MOE 2024.06 (io_trps.svl 2023.06)
