@<TRIPOS>MOLECULE
NONAME
51 53 1 0 0 
SMALL
USER_CHARGES


@<TRIPOS>ATOM
  1 O       -1.8770    -0.2980    -2.7540 O.2   1 <1>  -0.5700 
  2 C       -2.2450    -0.7730    -1.7060 C.2   1 <1>   0.5690 
  3 N       -1.9070    -0.2270    -0.5030 N.am  1 <1>  -0.6600 
  4 C       -3.1040    -2.0160    -1.7640 C.3   1 <1>  -0.0190 
  5 C       -2.4470    -0.7570     0.7820 C.3   1 <1>   0.2200 
  6 C       -1.0330     0.9770    -0.4000 C.3   1 <1>   0.0600 
  7 C       -2.3900    -3.1960    -1.0780 C.3   1 <1>   0.1200 
  8 C       -4.5540    -1.7070    -1.3400 C.3   1 <1>   0.1400 
  9 C       -1.9420    -2.1970     1.0620 C.3   1 <1>   0.1200 
 10 C       -3.9790    -0.5540     0.8570 C.3   1 <1>   0.1400 
 11 O       -2.5460    -3.2160     0.3070 O.3   1 <1>  -0.5600 
 12 N       -4.7810    -1.5960     0.1370 N.am  1 <1>  -0.6600 
 13 C       -5.5430    -2.4810     0.8710 C.2   1 <1>   0.5690 
 14 O       -5.8760    -2.2190     2.0060 O.2   1 <1>  -0.5700 
 15 C       -5.9890    -3.8080     0.2510 C.3   1 <1>   0.1810 
 16 O       -6.2900    -4.8020     1.2170 O.3   1 <1>  -0.3630 
 17 C       -6.4080    -6.0550     0.7260 C.ar  1 <1>   0.0820 
 18 C       -7.6440    -6.5130     0.2670 C.ar  1 <1>  -0.1430 
 19 C       -5.2770    -6.8640     0.6820 C.ar  1 <1>  -0.1430 
 20 C       -7.7270    -7.7870    -0.2900 C.ar  1 <1>  -0.1430 
 21 C       -8.8870    -5.6300     0.3800 C.3   1 <1>  -0.0970 
 22 C       -5.3800    -8.1300     0.1360 C.ar  1 <1>  -0.1500 
 23 C       -3.9360    -6.3860     1.2230 C.3   1 <1>  -0.0970 
 24 C       -6.5930    -8.5830    -0.3510 C.ar  1 <1>  -0.1500 
 25 C       -9.0340    -8.3440    -0.8370 C.3   1 <1>  -0.0970 
 26 H       -3.1520    -2.2740    -2.8060 H     1 <1>   0.0800 
 27 H       -2.0340    -0.1460     1.5650 H     1 <1>   0.0800 
 28 H       -0.1820     0.7590     0.2200 H     1 <1>   0.0800 
 29 H       -1.5870     1.7940     0.0290 H     1 <1>   0.0800 
 30 H       -0.6790     1.2780    -1.3710 H     1 <1>   0.0800 
 31 H       -1.3370    -3.1900    -1.3040 H     1 <1>   0.0800 
 32 H       -2.8060    -4.1180    -1.4440 H     1 <1>   0.0800 
 33 H       -5.1960    -2.4630    -1.7540 H     1 <1>   0.0800 
 34 H       -4.8510    -0.7770    -1.7950 H     1 <1>   0.0800 
 35 H       -2.1460    -2.4330     2.0920 H     1 <1>   0.0800 
 36 H       -0.8780    -2.2510     0.9140 H     1 <1>   0.0800 
 37 H       -4.2300     0.4170     0.4690 H     1 <1>   0.0800 
 38 H       -4.2490    -0.5500     1.8980 H     1 <1>   0.0800 
 39 H       -5.1990    -4.1910    -0.3660 H     1 <1>   0.0800 
 40 H       -6.8680    -3.6500    -0.3440 H     1 <1>   0.0800 
 41 H       -9.7370    -6.2110     0.6840 H     1 <1>   0.0800 
 42 H       -9.0960    -5.1710    -0.5680 H     1 <1>   0.0800 
 43 H       -8.7540    -4.8590     1.1170 H     1 <1>   0.0800 
 44 H       -4.5190    -8.7710     0.0860 H     1 <1>   0.1500 
 45 H       -3.3020    -7.2190     1.4640 H     1 <1>   0.0800 
 46 H       -4.0790    -5.8040     2.1160 H     1 <1>   0.0800 
 47 H       -3.4420    -5.7750     0.4910 H     1 <1>   0.0800 
 48 H       -6.6470    -9.5690    -0.7740 H     1 <1>   0.1500 
 49 H       -8.8670    -9.2570    -1.3790 H     1 <1>   0.0800 
 50 H       -9.4880    -7.6370    -1.5070 H     1 <1>   0.0800 
 51 H       -9.7100    -8.5490    -0.0270 H     1 <1>   0.0800 
@<TRIPOS>BOND
  1   1   2  2   
  2   2   3  am  
  3   2   4  1   
  4   3   5  1   
  5   3   6  1   
  6   4   7  1   
  7   4   8  1   
  8   4  26  1   
  9   5   9  1   
 10   5  10  1   
 11   5  27  1   
 12   6  28  1   
 13   6  29  1   
 14   6  30  1   
 15   7  11  1   
 16   7  31  1   
 17   7  32  1   
 18   8  12  1   
 19   8  33  1   
 20   8  34  1   
 21   9  11  1   
 22   9  35  1   
 23   9  36  1   
 24  10  12  1   
 25  10  37  1   
 26  10  38  1   
 27  12  13  am  
 28  13  14  2   
 29  13  15  1   
 30  15  16  1   
 31  15  39  1   
 32  15  40  1   
 33  16  17  1   
 34  17  18  ar  
 35  17  19  ar  
 36  18  20  ar  
 37  18  21  1   
 38  19  22  ar  
 39  19  23  1   
 40  20  24  ar  
 41  20  25  1   
 42  21  41  1   
 43  21  42  1   
 44  21  43  1   
 45  22  24  ar  
 46  22  44  1   
 47  23  45  1   
 48  23  46  1   
 49  23  47  1   
 50  24  48  1   
 51  25  49  1   
 52  25  50  1   
 53  25  51  1   
@<TRIPOS>SUBSTRUCTURE
  1 ****  15 GROUP 4 **** **** 0

# MOE 2024.06 (io_trps.svl 2023.06)
