@<TRIPOS>MOLECULE
NONAME
48 52 1 0 0 
SMALL
USER_CHARGES


@<TRIPOS>ATOM
  1 O       -0.8340    -0.2680     0.2720 O.3   1 <1>  -0.2800 
  2 C       -1.0760     0.8490    -0.3340 C.2   1 <1>   0.3930 
  3 C       -1.8440    -1.0160    -0.0390 C.2   1 <1>   0.2980 
  4 N       -2.1750     0.8180    -0.9860 N.2   1 <1>  -0.3380 
  5 C       -0.0930     2.0010    -0.2090 C.3   1 <1>  -0.0150 
  6 N       -2.6780    -0.4030    -0.7950 N.2   1 <1>  -0.3380 
  7 C       -1.8910    -2.4410     0.5240 C.3   1 <1>   0.2900 
  8 C        0.0590     3.0220    -1.2960 C.3   1 <1>  -0.2000 
  9 C        1.1540     2.0300    -1.0400 C.3   1 <1>  -0.2000 
 10 N       -3.0260    -3.2730     0.0600 N.3   1 <1>  -0.8100 
 11 C       -4.3670    -2.7530     0.4070 C.3   1 <1>   0.1100 
 12 C       -2.9470    -4.6790     0.4750 C.3   1 <1>   0.1100 
 13 C       -5.0980    -3.8750     1.1460 C.3   1 <1>   0.2000 
 14 C       -4.3960    -5.1340     0.6420 C.3   1 <1>  -0.0800 
 15 O       -4.8710    -3.7220     2.5070 O.3   1 <1>  -0.6800 
 16 C       -4.5670    -6.3920     1.5180 C.3   1 <1>  -0.0170 
 17 C       -3.7870    -7.5750     0.9490 C.ar  1 <1>  -0.1440 
 18 C       -4.2270    -8.3060    -0.1800 C.ar  1 <1>   0.0000 
 19 C       -2.6120    -7.9560     1.5280 C.ar  1 <1>  -0.1500 
 20 C       -3.4000    -9.3600    -0.6430 C.ar  1 <1>   0.3100 
 21 C       -5.4340    -8.0590    -0.8740 C.ar  1 <1>  -0.1500 
 22 C       -1.8770    -9.0220     0.9980 C.ar  1 <1>   0.1600 
 23 N       -2.2320    -9.7030    -0.0450 N.ar  1 <1>  -0.6200 
 24 C       -3.8010   -10.0920    -1.7720 C.ar  1 <1>  -0.1500 
 25 C       -5.7970    -8.7930    -1.9700 C.ar  1 <1>  -0.1500 
 26 C       -4.9700    -9.8210    -2.4290 C.ar  1 <1>  -0.1500 
 27 H       -0.0200     2.3510     0.8050 H     1 <1>   0.1000 
 28 H       -1.9110    -2.3780     1.5970 H     1 <1>   0.0800 
 29 H       -0.9760    -2.9280     0.2390 H     1 <1>   0.0800 
 30 H       -0.5390     2.9170    -2.1860 H     1 <1>   0.1000 
 31 H        0.2080     4.0500    -1.0180 H     1 <1>   0.1000 
 32 H        2.0690     2.3700    -0.5870 H     1 <1>   0.1000 
 33 H        1.3140     1.2460    -1.7600 H     1 <1>   0.1000 
 34 H       -4.3280    -1.8530     0.9960 H     1 <1>   0.0800 
 35 H       -4.8850    -2.5360    -0.5120 H     1 <1>   0.0800 
 36 H       -2.4340    -5.2670    -0.2690 H     1 <1>   0.0800 
 37 H       -2.4290    -4.7630     1.4150 H     1 <1>   0.0800 
 38 H       -6.1600    -3.8740     0.9720 H     1 <1>   0.0800 
 39 H       -4.7710    -5.3430    -0.3430 H     1 <1>   0.0800 
 40 H       -3.9220    -3.5470     2.6450 H     1 <1>   0.4000 
 41 H       -5.6100    -6.6440     1.6000 H     1 <1>   0.0800 
 42 H       -4.2200    -6.1910     2.5160 H     1 <1>   0.0800 
 43 H       -2.2210    -7.4550     2.3950 H     1 <1>   0.1500 
 44 H       -6.0870    -7.2770    -0.5350 H     1 <1>   0.1500 
 45 H       -0.9550    -9.2910     1.4860 H     1 <1>   0.1500 
 46 H       -3.1510   -10.8800    -2.1040 H     1 <1>   0.1500 
 47 H       -6.7170    -8.5920    -2.4910 H     1 <1>   0.1500 
 48 H       -5.2640   -10.3910    -3.2930 H     1 <1>   0.1500 
@<TRIPOS>BOND
  1   1   2  1   
  2   1   3  1   
  3   2   4  2   
  4   2   5  1   
  5   3   6  2   
  6   3   7  1   
  7   4   6  1   
  8   5   8  1   
  9   5   9  1   
 10   5  27  1   
 11   7  10  1   
 12   7  28  1   
 13   7  29  1   
 14   8   9  1   
 15   8  30  1   
 16   8  31  1   
 17   9  32  1   
 18   9  33  1   
 19  10  11  1   
 20  10  12  1   
 21  11  13  1   
 22  11  34  1   
 23  11  35  1   
 24  12  14  1   
 25  12  36  1   
 26  12  37  1   
 27  13  14  1   
 28  13  15  1   
 29  13  38  1   
 30  14  16  1   
 31  14  39  1   
 32  15  40  1   
 33  16  17  1   
 34  16  41  1   
 35  16  42  1   
 36  17  18  ar  
 37  17  19  ar  
 38  18  20  ar  
 39  18  21  ar  
 40  19  22  ar  
 41  19  43  1   
 42  20  23  ar  
 43  20  24  ar  
 44  21  25  ar  
 45  21  44  1   
 46  22  23  ar  
 47  22  45  1   
 48  24  26  ar  
 49  24  46  1   
 50  25  26  ar  
 51  25  47  1   
 52  26  48  1   
@<TRIPOS>SUBSTRUCTURE
  1 ****  12 GROUP 4 **** **** 0

# MOE 2024.06 (io_trps.svl 2023.06)
