@<TRIPOS>MOLECULE
NONAME
37 37 1 0 0 
SMALL
USER_CHARGES


@<TRIPOS>ATOM
  1 O        0.5660    -0.2360    -0.9200 O.2   1 <1>  -0.5700 
  2 C        1.4670    -0.5630    -0.1820 C.2   1 <1>   0.5690 
  3 N        2.3120     0.3480     0.3950 N.am  1 <1>  -0.4940 
  4 C        1.6750    -2.0710     0.1160 C.3   1 <1>   0.0610 
  5 C        2.4240     1.7560     0.2810 C.2   1 <1>  -0.0880 
  6 C        1.8620    -2.8440    -1.2030 C.3   1 <1>  -0.2400 
  7 C        2.9100    -2.3520     1.0030 C.3   1 <1>  -0.2400 
  8 C        0.4370    -2.6300     0.8410 C.3   1 <1>  -0.2400 
  9 N        1.4350     2.6680     0.0540 N.pl3 1 <1>   0.3140 
 10 C        3.5730     2.4660     0.3980 C.2   1 <1>  -0.1810 
 11 N        1.9270     3.9270     0.0230 N.2   1 <1>  -0.7070 
 12 C       -0.0130     2.4570    -0.0580 C.3   1 <1>   0.0160 
 13 C        3.1970     3.7950     0.2210 C.2   1 <1>   0.1080 
 14 C        4.9760     1.9440     0.6570 C.3   1 <1>   0.0210 
 15 C        4.1250     4.9890     0.2500 C.3   1 <1>  -0.0590 
 16 C        5.6530     1.5640    -0.6610 C.3   1 <1>  -0.2400 
 17 H        3.0720    -0.0790     0.9200 H     1 <1>   0.3700 
 18 H        2.7200    -2.4730    -1.7360 H     1 <1>   0.0800 
 19 H        0.9990    -2.7200    -1.8340 H     1 <1>   0.0800 
 20 H        1.9980    -3.8950    -1.0190 H     1 <1>   0.0800 
 21 H        3.8090    -2.0050     0.5250 H     1 <1>   0.0800 
 22 H        3.0140    -3.4090     1.1740 H     1 <1>   0.0800 
 23 H        2.8110    -1.8720     1.9610 H     1 <1>   0.0800 
 24 H       -0.4420    -2.4960     0.2330 H     1 <1>   0.0800 
 25 H        0.2820    -2.1140     1.7720 H     1 <1>   0.0800 
 26 H        0.5510    -3.6800     1.0440 H     1 <1>   0.0800 
 27 H       -0.3130     1.6770     0.6130 H     1 <1>   0.0800 
 28 H       -0.2480     2.1820    -1.0690 H     1 <1>   0.0800 
 29 H       -0.5230     3.3680     0.1940 H     1 <1>   0.0800 
 30 H        4.9280     1.0830     1.2990 H     1 <1>   0.0800 
 31 H        5.5560     2.6950     1.1630 H     1 <1>   0.0800 
 32 H        5.0020     4.7900    -0.3350 H     1 <1>   0.0800 
 33 H        4.4080     5.2010     1.2640 H     1 <1>   0.0800 
 34 H        3.6230     5.8470    -0.1580 H     1 <1>   0.0800 
 35 H        5.0810     0.8050    -1.1650 H     1 <1>   0.0800 
 36 H        6.6440     1.1900    -0.4780 H     1 <1>   0.0800 
 37 H        5.7190     2.4240    -1.3040 H     1 <1>   0.0800 
@<TRIPOS>BOND
  1   1   2  2   
  2   2   3  am  
  3   2   4  1   
  4   3   5  1   
  5   3  17  1   
  6   4   6  1   
  7   4   7  1   
  8   4   8  1   
  9   5   9  1   
 10   5  10  2   
 11   6  18  1   
 12   6  19  1   
 13   6  20  1   
 14   7  21  1   
 15   7  22  1   
 16   7  23  1   
 17   8  24  1   
 18   8  25  1   
 19   8  26  1   
 20   9  11  1   
 21   9  12  1   
 22  10  13  1   
 23  10  14  1   
 24  11  13  2   
 25  12  27  1   
 26  12  28  1   
 27  12  29  1   
 28  13  15  1   
 29  14  16  1   
 30  14  30  1   
 31  14  31  1   
 32  15  32  1   
 33  15  33  1   
 34  15  34  1   
 35  16  35  1   
 36  16  36  1   
 37  16  37  1   
@<TRIPOS>SUBSTRUCTURE
  1 ****   3 GROUP 4 **** **** 0

# MOE 2024.06 (io_trps.svl 2023.06)
