@<TRIPOS>MOLECULE
NONAME
51 54 1 0 0 
SMALL
USER_CHARGES


@<TRIPOS>ATOM
  1 O        2.1800     1.8490     1.1320 O.3   1 <1>  -0.0190 
  2 N        2.8250     0.7320     0.9990 N.2   1 <1>  -0.4100 
  3 C        1.0360     1.8320     0.5000 C.2   1 <1>  -0.0400 
  4 C        2.0770    -0.0300     0.2850 C.2   1 <1>   0.1080 
  5 C        0.9010     0.6260    -0.0710 C.2   1 <1>  -0.1500 
  6 C        0.1480     3.0610     0.5180 C.3   1 <1>   0.0200 
  7 C        2.4340    -1.4470    -0.1100 C.3   1 <1>  -0.0590 
  8 C        0.8020     4.2190    -0.2640 C.3   1 <1>  -0.0800 
  9 C        0.0070     5.5240    -0.3140 C.3   1 <1>   0.2000 
 10 C        2.1760     4.6300     0.2860 C.3   1 <1>   0.3430 
 11 O       -0.4900     5.8240     0.9520 O.3   1 <1>  -0.6800 
 12 C        1.0900     6.5490    -0.6610 C.3   1 <1>   0.3430 
 13 N        2.3130     6.1050     0.0840 N.4   1 <1>  -0.9590 
 14 C        2.4220     6.7990     1.3960 C.3   1 <1>   0.5240 
 15 C        2.6420     8.2710     1.1330 C.2   1 <1>  -0.1810 
 16 C        1.7010     9.2680     1.3520 C.2   1 <1>   0.1390 
 17 C        3.7200     8.9240     0.6450 C.2   1 <1>  -0.3020 
 18 N        2.1440    10.4340     1.0130 N.2   1 <1>  -0.7070 
 19 N        3.4180    10.2480     0.5810 N.pl3 1 <1>   0.5930 
 20 C        4.2550    11.2950     0.0960 C.ar  1 <1>  -0.0230 
 21 C        5.6350    11.2590     0.2860 C.ar  1 <1>  -0.1500 
 22 C        3.7080    12.3790    -0.5840 C.ar  1 <1>  -0.1500 
 23 C        6.4510    12.2660    -0.2010 C.ar  1 <1>  -0.1440 
 24 C        4.5170    13.3880    -1.0740 C.ar  1 <1>  -0.1500 
 25 C        5.8860    13.3300    -0.8850 C.ar  1 <1>  -0.1500 
 26 C        7.9540    12.2110     0.0100 C.3   1 <1>  -0.0970 
 27 H        0.1030     0.2220    -0.6670 H     1 <1>   0.1500 
 28 H       -0.8000     2.8130     0.0740 H     1 <1>   0.0800 
 29 H       -0.0260     3.3360     1.5440 H     1 <1>   0.0800 
 30 H        2.4770    -1.5300    -1.1800 H     1 <1>   0.0800 
 31 H        1.6970    -2.1290     0.2700 H     1 <1>   0.0800 
 32 H        3.3940    -1.7110     0.2980 H     1 <1>   0.0800 
 33 H        0.9550     3.8840    -1.2760 H     1 <1>   0.0800 
 34 H       -0.8050     5.5220    -1.0230 H     1 <1>   0.0800 
 35 H        2.9590     4.0890    -0.2230 H     1 <1>   0.0800 
 36 H        2.2260     4.3940     1.3370 H     1 <1>   0.0800 
 37 H       -1.3680     5.4100     1.0980 H     1 <1>   0.4000 
 38 H        0.7820     7.5480    -0.4010 H     1 <1>   0.0800 
 39 H        1.2820     6.5080    -1.7210 H     1 <1>   0.0800 
 40 H        3.1560     6.3390    -0.4550 H     1 <1>   0.4500 
 41 H        1.5220     6.6560     1.9730 H     1 <1>   0.0800 
 42 H        3.2560     6.4070     1.9550 H     1 <1>   0.0800 
 43 H        0.7090     9.1120     1.7500 H     1 <1>   0.1500 
 44 H        4.6790     8.5530     0.3350 H     1 <1>   0.1500 
 45 H        6.0810    10.4400     0.8220 H     1 <1>   0.1500 
 46 H        2.6430    12.4350    -0.7300 H     1 <1>   0.1500 
 47 H        4.0820    14.2190    -1.6000 H     1 <1>   0.1500 
 48 H        6.5080    14.1190    -1.2710 H     1 <1>   0.1500 
 49 H        8.3560    13.2040     0.0990 H     1 <1>   0.0800 
 50 H        8.4210    11.7210    -0.8250 H     1 <1>   0.0800 
 51 H        8.1900    11.6700     0.9090 H     1 <1>   0.0800 
@<TRIPOS>BOND
  1   1   2  1   
  2   1   3  1   
  3   2   4  2   
  4   3   5  2   
  5   3   6  1   
  6   4   5  1   
  7   4   7  1   
  8   5  27  1   
  9   6   8  1   
 10   6  28  1   
 11   6  29  1   
 12   7  30  1   
 13   7  31  1   
 14   7  32  1   
 15   8   9  1   
 16   8  10  1   
 17   8  33  1   
 18   9  11  1   
 19   9  12  1   
 20   9  34  1   
 21  10  13  1   
 22  10  35  1   
 23  10  36  1   
 24  11  37  1   
 25  12  13  1   
 26  12  38  1   
 27  12  39  1   
 28  13  14  1   
 29  13  40  1   
 30  14  15  1   
 31  14  41  1   
 32  14  42  1   
 33  15  16  1   
 34  15  17  2   
 35  16  18  2   
 36  16  43  1   
 37  17  19  1   
 38  17  44  1   
 39  18  19  1   
 40  19  20  1   
 41  20  21  ar  
 42  20  22  ar  
 43  21  23  ar  
 44  21  45  1   
 45  22  24  ar  
 46  22  46  1   
 47  23  25  ar  
 48  23  26  1   
 49  24  25  ar  
 50  24  47  1   
 51  25  48  1   
 52  26  49  1   
 53  26  50  1   
 54  26  51  1   
@<TRIPOS>SUBSTRUCTURE
  1 ****  13 GROUP 4 **** **** 0

# MOE 2024.06 (io_trps.svl 2023.06)
