@<TRIPOS>MOLECULE
NONAME
40 42 1 0 0 
SMALL
USER_CHARGES


@<TRIPOS>ATOM
  1 S        0.0670     0.6670    -0.3350 S.3   1 <1>  -0.4600 
  2 C        0.5750     2.2810     0.3270 C.3   1 <1>   0.0700 
  3 C        1.6230    -0.0060    -0.9820 C.3   1 <1>   0.0700 
  4 C        1.7770     2.0830     1.2570 C.3   1 <1>   0.2090 
  5 C        2.7080     0.0830     0.1020 C.3   1 <1>   0.2090 
  6 N        2.9560     1.5120     0.5060 N.pl3 1 <1>  -0.8380 
  7 C        4.0260     2.2900     0.1860 C.ar  1 <1>   0.7710 
  8 N        3.9610     3.5970     0.3930 N.ar  1 <1>  -0.6200 
  9 N        5.1270     1.7190    -0.3370 N.ar  1 <1>  -0.1790 
 10 C        5.0000     4.3500     0.0840 C.ar  1 <1>   0.4100 
 11 C        6.2100     2.4520    -0.6900 C.ar  1 <1>   0.2110 
 12 N        4.9120     5.6830     0.3330 N.pl3 1 <1>  -0.8380 
 13 C        6.1580     3.7880    -0.4870 C.ar  1 <1>  -0.1500 
 14 C        6.0770     6.5630     0.6830 C.3   1 <1>   0.2090 
 15 C        3.6060     6.4110     0.3750 C.3   1 <1>   0.2090 
 16 C        6.1490     7.7620    -0.2780 C.3   1 <1>   0.2000 
 17 C        3.6520     7.6020    -0.5920 C.3   1 <1>  -0.1600 
 18 O        7.1600     8.6180     0.1210 O.3   1 <1>  -0.6800 
 19 C        4.8330     8.5460    -0.3050 C.3   1 <1>  -0.1600 
 20 H       -0.2690     2.6830     0.8590 H     1 <1>   0.0800 
 21 H        0.8210     2.9200    -0.5030 H     1 <1>   0.0800 
 22 H        1.8840     0.5650    -1.8550 H     1 <1>   0.0800 
 23 H        1.4280    -1.0270    -1.2590 H     1 <1>   0.0800 
 24 H        1.4970     1.4130     2.0520 H     1 <1>   0.0800 
 25 H        2.0200     3.0250     1.7170 H     1 <1>   0.0800 
 26 H        3.6020    -0.3840    -0.2670 H     1 <1>   0.0800 
 27 H        2.3850    -0.4810     0.9630 H     1 <1>   0.0800 
 28 H        5.1010     0.7120    -0.4280 H     1 <1>   0.4570 
 29 H        7.0680     1.9580    -1.1190 H     1 <1>   0.1500 
 30 H        6.9740     4.4270    -0.7640 H     1 <1>   0.1500 
 31 H        7.0020     6.0190     0.6530 H     1 <1>   0.0800 
 32 H        5.9370     6.9240     1.6880 H     1 <1>   0.0800 
 33 H        3.4240     6.7550     1.3790 H     1 <1>   0.0800 
 34 H        2.7940     5.7630     0.0930 H     1 <1>   0.0800 
 35 H        6.3960     7.4090    -1.2650 H     1 <1>   0.0800 
 36 H        2.7290     8.1500    -0.5190 H     1 <1>   0.0800 
 37 H        3.7260     7.2250    -1.5970 H     1 <1>   0.0800 
 38 H        6.8810     9.1400     0.8970 H     1 <1>   0.4000 
 39 H        4.8800     9.3040    -1.0670 H     1 <1>   0.0800 
 40 H        4.6710     9.0200     0.6470 H     1 <1>   0.0800 
@<TRIPOS>BOND
  1   1   2  1   
  2   1   3  1   
  3   2   4  1   
  4   2  20  1   
  5   2  21  1   
  6   3   5  1   
  7   3  22  1   
  8   3  23  1   
  9   4   6  1   
 10   4  24  1   
 11   4  25  1   
 12   5   6  1   
 13   5  26  1   
 14   5  27  1   
 15   6   7  1   
 16   7   8  ar  
 17   7   9  ar  
 18   8  10  ar  
 19   9  11  ar  
 20   9  28  1   
 21  10  12  1   
 22  10  13  ar  
 23  11  13  ar  
 24  11  29  1   
 25  12  14  1   
 26  12  15  1   
 27  13  30  1   
 28  14  16  1   
 29  14  31  1   
 30  14  32  1   
 31  15  17  1   
 32  15  33  1   
 33  15  34  1   
 34  16  18  1   
 35  16  19  1   
 36  16  35  1   
 37  17  19  1   
 38  17  36  1   
 39  17  37  1   
 40  18  38  1   
 41  19  39  1   
 42  19  40  1   
@<TRIPOS>SUBSTRUCTURE
  1 ****   8 GROUP 4 **** **** 0

# MOE 2024.06 (io_trps.svl 2023.06)
