@<TRIPOS>MOLECULE
NONAME
57 60 1 0 0 
SMALL
USER_CHARGES


@<TRIPOS>ATOM
  1 O       -0.9270     0.8000    -1.4440 O.2   1 <1>  -0.5700 
  2 C       -0.6130     1.7450    -0.7580 C.2   1 <1>   0.5690 
  3 N       -1.5220     2.6500    -0.2740 N.am  1 <1>  -0.5090 
  4 C        0.8750     1.9390    -0.4640 C.3   1 <1>   0.1810 
  5 C       -1.0830     3.9020     0.4240 C.3   1 <1>   0.3640 
  6 C       -2.9880     2.4520    -0.3940 C.3   1 <1>   0.0490 
  7 O        1.1240     2.8530     0.5760 O.3   1 <1>  -0.5600 
  8 C       -1.7350     5.1220    -0.2270 C.ar  1 <1>  -0.1440 
  9 C        0.4550     4.0900     0.4250 C.3   1 <1>   0.2610 
 10 C       -3.8160     2.4210     0.8540 C.3   1 <1>  -0.2000 
 11 C       -3.6000     1.1680     0.0700 C.3   1 <1>  -0.2000 
 12 C       -2.3100     6.1040     0.5690 C.ar  1 <1>   0.1600 
 13 C       -1.7630     5.2860    -1.6010 C.ar  1 <1>  -0.1500 
 14 C        0.9030     5.0960     1.5000 C.2   1 <1>   0.5690 
 15 N       -2.8950     7.2020     0.1150 N.ar  1 <1>  -0.6200 
 16 C       -2.3680     6.4240    -2.0880 C.ar  1 <1>  -0.1500 
 17 O        0.1490     5.3310     2.4200 O.2   1 <1>  -0.5700 
 18 N        2.1170     5.7390     1.4040 N.am  1 <1>  -0.6600 
 19 C       -2.9120     7.3350    -1.2000 C.ar  1 <1>   0.1600 
 20 C        3.1900     5.4060     0.4300 C.3   1 <1>   0.1400 
 21 C        2.4760     6.8610     2.3120 C.3   1 <1>   0.1400 
 22 C        3.4690     6.6330    -0.4420 C.3   1 <1>  -0.1600 
 23 C        2.7610     8.1140     1.4780 C.3   1 <1>  -0.1600 
 24 C        3.8420     7.8620     0.4080 C.3   1 <1>  -0.0800 
 25 C        4.0540     9.0820    -0.5090 C.3   1 <1>  -0.1600 
 26 C        4.5820    10.3220     0.2340 C.3   1 <1>  -0.0990 
 27 C        4.9420    11.4360    -0.7280 C.2   1 <1>   0.5690 
 28 O        6.0690    11.5370    -1.1320 O.2   1 <1>  -0.5700 
 29 N        3.9950    12.3010    -1.1280 N.am  1 <1>  -0.8000 
 30 H        1.3740     2.2860    -1.3500 H     1 <1>   0.0800 
 31 H        1.3020     0.9960    -0.1750 H     1 <1>   0.0800 
 32 H       -1.4200     3.8240     1.4430 H     1 <1>   0.0800 
 33 H       -3.4000     2.9190    -1.2730 H     1 <1>   0.1000 
 34 H        0.7400     4.4930    -0.5280 H     1 <1>   0.0800 
 35 H       -3.3450     2.4930     1.8190 H     1 <1>   0.1000 
 36 H       -4.7930     2.8700     0.8360 H     1 <1>   0.1000 
 37 H       -4.4220     0.7620    -0.4920 H     1 <1>   0.1000 
 38 H       -2.9510     0.4040     0.4620 H     1 <1>   0.1000 
 39 H       -2.2850     5.9860     1.6410 H     1 <1>   0.1500 
 40 H       -1.3390     4.5580    -2.2710 H     1 <1>   0.1500 
 41 H       -2.4240     6.6050    -3.1460 H     1 <1>   0.1500 
 42 H       -3.3850     8.2200    -1.5910 H     1 <1>   0.1500 
 43 H        4.0800     5.1360     0.9740 H     1 <1>   0.0800 
 44 H        2.9210     4.5690    -0.1870 H     1 <1>   0.0800 
 45 H        1.6770     7.0650     3.0060 H     1 <1>   0.0800 
 46 H        3.3480     6.5870     2.8810 H     1 <1>   0.0800 
 47 H        4.2750     6.4030    -1.1170 H     1 <1>   0.0800 
 48 H        2.5950     6.8450    -1.0320 H     1 <1>   0.0800 
 49 H        1.8440     8.4270     1.0100 H     1 <1>   0.0800 
 50 H        3.0720     8.8950     2.1470 H     1 <1>   0.0800 
 51 H        4.7720     7.6490     0.9100 H     1 <1>   0.0800 
 52 H        4.7710     8.8210    -1.2700 H     1 <1>   0.0800 
 53 H        3.1310     9.3290    -1.0060 H     1 <1>   0.0800 
 54 H        5.4660    10.0620     0.7880 H     1 <1>   0.0800 
 55 H        3.8500    10.6910     0.9280 H     1 <1>   0.0800 
 56 H        4.2490    13.0440    -1.7800 H     1 <1>   0.3700 
 57 H        3.0210    12.2610    -0.8340 H     1 <1>   0.3700 
@<TRIPOS>BOND
  1   1   2  2   
  2   2   3  am  
  3   2   4  1   
  4   3   5  1   
  5   3   6  1   
  6   4   7  1   
  7   4  30  1   
  8   4  31  1   
  9   5   8  1   
 10   5   9  1   
 11   5  32  1   
 12   6  10  1   
 13   6  11  1   
 14   6  33  1   
 15   7   9  1   
 16   8  12  ar  
 17   8  13  ar  
 18   9  14  1   
 19   9  34  1   
 20  10  11  1   
 21  10  35  1   
 22  10  36  1   
 23  11  37  1   
 24  11  38  1   
 25  12  15  ar  
 26  12  39  1   
 27  13  16  ar  
 28  13  40  1   
 29  14  17  2   
 30  14  18  am  
 31  15  19  ar  
 32  16  19  ar  
 33  16  41  1   
 34  18  20  1   
 35  18  21  1   
 36  19  42  1   
 37  20  22  1   
 38  20  43  1   
 39  20  44  1   
 40  21  23  1   
 41  21  45  1   
 42  21  46  1   
 43  22  24  1   
 44  22  47  1   
 45  22  48  1   
 46  23  24  1   
 47  23  49  1   
 48  23  50  1   
 49  24  25  1   
 50  24  51  1   
 51  25  26  1   
 52  25  52  1   
 53  25  53  1   
 54  26  27  1   
 55  26  54  1   
 56  26  55  1   
 57  27  28  2   
 58  27  29  am  
 59  29  56  1   
 60  29  57  1   
@<TRIPOS>SUBSTRUCTURE
  1 ****  14 GROUP 4 **** **** 0

# MOE 2024.06 (io_trps.svl 2023.06)
