@<TRIPOS>MOLECULE
NONAME
47 48 1 0 0 
SMALL
USER_CHARGES


@<TRIPOS>ATOM
  1 S       -1.1240    -0.3770    -0.6840 S.3   1 <1>  -0.0800 
  2 C       -1.5780    -1.7510     0.3100 C.2   1 <1>  -0.1400 
  3 C       -0.6880     0.5630     0.7340 C.2   1 <1>  -0.1400 
  4 C       -1.3950    -1.4730     1.6150 C.2   1 <1>  -0.1500 
  5 C       -2.0770    -2.9870    -0.4000 C.3   1 <1>   0.5230 
  6 C       -0.8930    -0.1540     1.8540 C.2   1 <1>  -0.1500 
  7 C       -0.1810     1.9810     0.5260 C.3   1 <1>   0.0200 
  8 N       -3.5590    -3.0000    -0.3420 N.4   1 <1>  -0.9590 
  9 C        1.3570     2.0700     0.4790 C.3   1 <1>  -0.0800 
 10 C       -4.0940    -4.3540    -0.6360 C.3   1 <1>   0.5240 
 11 C       -4.2080    -1.8990    -1.1170 C.3   1 <1>   0.3430 
 12 C        1.8000     3.5360     0.4010 C.3   1 <1>  -0.2400 
 13 C        1.9550     1.2920    -0.7020 C.3   1 <1>  -0.2400 
 14 C       -3.8260    -5.2070     0.5960 C.2   1 <1>   0.0460 
 15 C       -5.6420    -1.6230    -0.6410 C.3   1 <1>   0.1200 
 16 N       -3.9490    -4.6510     1.8210 N.2   1 <1>  -0.5650 
 17 C       -3.4440    -6.5030     0.6880 C.2   1 <1>  -0.3320 
 18 O       -6.2760    -0.8730    -1.6160 O.3   1 <1>  -0.6800 
 19 C       -3.6550    -5.6180     2.6300 C.2   1 <1>   0.0360 
 20 N       -3.3390    -6.7710     2.0050 N.pl3 1 <1>   0.0330 
 21 C       -3.1680    -7.5520    -0.3770 C.3   1 <1>  -0.0600 
 22 H       -1.5890    -2.1380     2.4410 H     1 <1>   0.1500 
 23 H       -1.6870    -3.8540     0.1090 H     1 <1>   0.0800 
 24 H       -1.7290    -2.9980    -1.4200 H     1 <1>   0.0800 
 25 H       -0.7070     0.1920     2.8560 H     1 <1>   0.1500 
 26 H       -0.5340     2.5810     1.3460 H     1 <1>   0.0800 
 27 H       -0.6050     2.3880    -0.3760 H     1 <1>   0.0800 
 28 H       -3.7680    -2.8900     0.6670 H     1 <1>   0.4500 
 29 H        1.7460     1.6490     1.3910 H     1 <1>   0.0800 
 30 H       -3.6280    -4.7800    -1.5090 H     1 <1>   0.0800 
 31 H       -5.1580    -4.3090    -0.7930 H     1 <1>   0.0800 
 32 H       -4.2280    -2.1560    -2.1630 H     1 <1>   0.0800 
 33 H       -3.6450    -0.9880    -1.0040 H     1 <1>   0.0800 
 34 H        1.4360     3.9960    -0.5010 H     1 <1>   0.0800 
 35 H        2.8740     3.6030     0.4090 H     1 <1>   0.0800 
 36 H        1.4240     4.0890     1.2450 H     1 <1>   0.0800 
 37 H        1.5450     1.6410    -1.6340 H     1 <1>   0.0800 
 38 H        1.7510     0.2420    -0.6050 H     1 <1>   0.0800 
 39 H        3.0230     1.4180    -0.7300 H     1 <1>   0.0800 
 40 H       -5.6360    -1.0560     0.2740 H     1 <1>   0.0800 
 41 H       -6.2070    -2.5300    -0.5120 H     1 <1>   0.0800 
 42 H       -7.1730    -0.5960    -1.3320 H     1 <1>   0.4000 
 43 H       -3.6580    -5.5360     3.7050 H     1 <1>   0.1500 
 44 H       -3.0820    -7.6590     2.4490 H     1 <1>   0.2700 
 45 H       -3.3190    -7.1530    -1.3640 H     1 <1>   0.0800 
 46 H       -3.8290    -8.3930    -0.2490 H     1 <1>   0.0800 
 47 H       -2.1520    -7.9010    -0.3020 H     1 <1>   0.0800 
@<TRIPOS>BOND
  1   1   2  1   
  2   1   3  1   
  3   2   4  2   
  4   2   5  1   
  5   3   6  2   
  6   3   7  1   
  7   4   6  1   
  8   4  22  1   
  9   5   8  1   
 10   5  23  1   
 11   5  24  1   
 12   6  25  1   
 13   7   9  1   
 14   7  26  1   
 15   7  27  1   
 16   8  10  1   
 17   8  11  1   
 18   8  28  1   
 19   9  12  1   
 20   9  13  1   
 21   9  29  1   
 22  10  14  1   
 23  10  30  1   
 24  10  31  1   
 25  11  15  1   
 26  11  32  1   
 27  11  33  1   
 28  12  34  1   
 29  12  35  1   
 30  12  36  1   
 31  13  37  1   
 32  13  38  1   
 33  13  39  1   
 34  14  16  1   
 35  14  17  2   
 36  15  18  1   
 37  15  40  1   
 38  15  41  1   
 39  16  19  2   
 40  17  20  1   
 41  17  21  1   
 42  18  42  1   
 43  19  20  1   
 44  19  43  1   
 45  20  44  1   
 46  21  45  1   
 47  21  46  1   
 48  21  47  1   
@<TRIPOS>SUBSTRUCTURE
  1 ****   2 GROUP 4 **** **** 0

# MOE 2024.06 (io_trps.svl 2023.06)
