@<TRIPOS>MOLECULE
NONAME
52 53 1 0 0 
SMALL
USER_CHARGES


@<TRIPOS>ATOM
  1 S       -0.1300    -0.9830    -0.3500 S.3   1 <1>  -0.4600 
  2 C       -1.7840    -1.7000    -0.4810 C.3   1 <1>   0.0700 
  3 C       -0.0530     0.1870    -1.7360 C.3   1 <1>  -0.0100 
  4 C       -1.8970    -2.7430     0.6340 C.3   1 <1>   0.3430 
  5 N       -3.2240    -3.4290     0.6390 N.4   1 <1>  -0.9590 
  6 C       -4.3920    -2.5410     0.9630 C.3   1 <1>   0.3430 
  7 C       -3.2460    -4.6410     1.5210 C.3   1 <1>   0.3430 
  8 C       -5.7230    -3.3320     0.9340 C.3   1 <1>   0.1100 
  9 C       -4.5650    -5.4330     1.3340 C.3   1 <1>   0.1100 
 10 N       -5.5400    -4.7240     0.4600 N.3   1 <1>  -0.8100 
 11 C       -6.8410    -5.4210     0.4130 C.3   1 <1>   0.1100 
 12 C       -6.7910    -6.6450    -0.5080 C.3   1 <1>  -0.0990 
 13 C       -8.0940    -7.4280    -0.4740 C.2   1 <1>   0.5690 
 14 O       -9.0860    -6.8670    -0.0670 O.2   1 <1>  -0.5700 
 15 N       -8.1140    -8.7370    -0.8760 N.am  1 <1>  -0.6600 
 16 C       -7.0090    -9.4380    -1.5870 C.3   1 <1>   0.1400 
 17 C       -9.1820    -9.6630    -0.4120 C.3   1 <1>   0.1400 
 18 C       -6.3510   -10.4380    -0.6370 C.3   1 <1>  -0.1600 
 19 C       -8.5730   -10.6800     0.5600 C.3   1 <1>  -0.1600 
 20 C       -7.3790   -11.4350    -0.0610 C.3   1 <1>  -0.1860 
 21 C       -6.7440   -12.3940     0.9420 C.2   1 <1>   0.9060 
 22 O       -6.9880   -13.5990     0.8310 O.co2 1 <1>  -0.9000 
 23 O       -6.0060   -11.9420     1.8250 O.co2 1 <1>  -0.9000 
 24 H       -1.8610    -2.1440    -1.4570 H     1 <1>   0.0800 
 25 H       -2.4840    -0.8930    -0.3610 H     1 <1>   0.0800 
 26 H        0.9160     0.6530    -1.7170 H     1 <1>   0.0800 
 27 H       -0.8290     0.9200    -1.6020 H     1 <1>   0.0800 
 28 H       -0.1910    -0.3630    -2.6500 H     1 <1>   0.0800 
 29 H       -1.7310    -2.2610     1.5840 H     1 <1>   0.0800 
 30 H       -1.1160    -3.4720     0.4910 H     1 <1>   0.0800 
 31 H       -3.4500    -3.8120    -0.2940 H     1 <1>   0.4500 
 32 H       -4.4530    -1.7400     0.2450 H     1 <1>   0.0800 
 33 H       -4.2650    -2.0980     1.9370 H     1 <1>   0.0800 
 34 H       -3.1530    -4.3470     2.5530 H     1 <1>   0.0800 
 35 H       -2.4160    -5.2880     1.2870 H     1 <1>   0.0800 
 36 H       -6.4140    -2.8190     0.2850 H     1 <1>   0.0800 
 37 H       -6.1540    -3.3380     1.9210 H     1 <1>   0.0800 
 38 H       -5.0020    -5.6170     2.3010 H     1 <1>   0.0800 
 39 H       -4.3260    -6.3900     0.9050 H     1 <1>   0.0800 
 40 H       -7.5970    -4.7550     0.0300 H     1 <1>   0.0800 
 41 H       -7.1430    -5.7210     1.4050 H     1 <1>   0.0800 
 42 H       -6.0060    -7.2990    -0.1880 H     1 <1>   0.0800 
 43 H       -6.6070    -6.3280    -1.5160 H     1 <1>   0.0800 
 44 H       -6.2790    -8.7420    -1.9580 H     1 <1>   0.0800 
 45 H       -7.4190    -9.9640    -2.4320 H     1 <1>   0.0800 
 46 H       -9.6050   -10.1720    -1.2600 H     1 <1>   0.0800 
 47 H       -9.9700    -9.1190     0.0820 H     1 <1>   0.0800 
 48 H       -5.8790    -9.9050     0.1710 H     1 <1>   0.0800 
 49 H       -5.5830   -10.9840    -1.1560 H     1 <1>   0.0800 
 50 H       -9.3240   -11.3900     0.8570 H     1 <1>   0.0800 
 51 H       -8.2450   -10.1660     1.4470 H     1 <1>   0.0800 
 52 H       -7.7490   -12.0390    -0.8680 H     1 <1>   0.0800 
@<TRIPOS>BOND
  1   1   2  1   
  2   1   3  1   
  3   2   4  1   
  4   2  24  1   
  5   2  25  1   
  6   3  26  1   
  7   3  27  1   
  8   3  28  1   
  9   4   5  1   
 10   4  29  1   
 11   4  30  1   
 12   5   6  1   
 13   5   7  1   
 14   5  31  1   
 15   6   8  1   
 16   6  32  1   
 17   6  33  1   
 18   7   9  1   
 19   7  34  1   
 20   7  35  1   
 21   8  10  1   
 22   8  36  1   
 23   8  37  1   
 24   9  10  1   
 25   9  38  1   
 26   9  39  1   
 27  10  11  1   
 28  11  12  1   
 29  11  40  1   
 30  11  41  1   
 31  12  13  1   
 32  12  42  1   
 33  12  43  1   
 34  13  14  2   
 35  13  15  am  
 36  15  16  1   
 37  15  17  1   
 38  16  18  1   
 39  16  44  1   
 40  16  45  1   
 41  17  19  1   
 42  17  46  1   
 43  17  47  1   
 44  18  20  1   
 45  18  48  1   
 46  18  49  1   
 47  19  20  1   
 48  19  50  1   
 49  19  51  1   
 50  20  21  1   
 51  20  52  1   
 52  21  22  ar  
 53  21  23  ar  
@<TRIPOS>SUBSTRUCTURE
  1 ****  12 GROUP 4 **** **** 0

# MOE 2024.06 (io_trps.svl 2023.06)
