@<TRIPOS>MOLECULE
NONAME
47 49 1 0 0 
SMALL
USER_CHARGES


@<TRIPOS>ATOM
  1 S        1.2790    -0.4810     1.3080 S.3   1 <1>  -0.3320 
  2 C        0.8900    -1.9760     0.3810 C.ar  1 <1>   0.1020 
  3 C        1.6790     0.8300     0.0770 C.3   1 <1>   0.1500 
  4 C        1.1000    -3.1840     1.0200 C.ar  1 <1>  -0.1500 
  5 C        0.3990    -1.9310    -0.9140 C.ar  1 <1>  -0.1500 
  6 C        2.9790     0.4320    -0.6280 C.3   1 <1>  -0.1600 
  7 C        1.8370     2.1380     0.8530 C.3   1 <1>  -0.1600 
  8 C        0.8360    -4.3710     0.3550 C.ar  1 <1>  -0.1440 
  9 C        0.1350    -3.1170    -1.5770 C.ar  1 <1>  -0.1500 
 10 C        3.5090     1.5720    -1.4920 C.3   1 <1>   0.3430 
 11 C        2.3870     3.2460    -0.0410 C.3   1 <1>   0.3430 
 12 C        0.3550    -4.3300    -0.9440 C.ar  1 <1>  -0.1500 
 13 C        1.0640    -5.7050     1.0440 C.3   1 <1>  -0.0960 
 14 N        3.6710     2.7980    -0.6590 N.4   1 <1>  -0.9590 
 15 C        4.3360     3.8930    -1.4180 C.3   1 <1>   0.4860 
 16 C        4.7050     5.0020    -0.4500 C.ar  1 <1>  -0.1440 
 17 C        5.7560     4.9100     0.4510 C.ar  1 <1>  -0.1440 
 18 C        3.9740     6.1760    -0.4320 C.ar  1 <1>  -0.1500 
 19 C        5.9860     5.9750     1.3130 C.ar  1 <1>   0.1600 
 20 C        6.6750     3.6950     0.5290 C.3   1 <1>  -0.0970 
 21 C        4.2980     7.1730     0.4710 C.ar  1 <1>   0.1600 
 22 N        5.2800     7.0910     1.3470 N.ar  1 <1>  -0.6200 
 23 H        0.8540     0.8980    -0.6110 H     1 <1>   0.0800 
 24 H        1.4680    -3.1910     2.0300 H     1 <1>   0.1500 
 25 H        0.2070    -1.0010    -1.4090 H     1 <1>   0.1500 
 26 H        2.8070    -0.4290    -1.2490 H     1 <1>   0.0800 
 27 H        3.7230     0.1620     0.1010 H     1 <1>   0.0800 
 28 H        2.5000     1.9950     1.6890 H     1 <1>   0.0800 
 29 H        0.8800     2.4380     1.2430 H     1 <1>   0.0800 
 30 H       -0.2480    -3.1020    -2.5830 H     1 <1>   0.1500 
 31 H        2.8180     1.7650    -2.2980 H     1 <1>   0.0800 
 32 H        4.4570     1.2840    -1.9190 H     1 <1>   0.0800 
 33 H        2.5490     4.1310     0.5550 H     1 <1>   0.0800 
 34 H        1.6700     3.4820    -0.8100 H     1 <1>   0.0800 
 35 H        0.1440    -5.2460    -1.4690 H     1 <1>   0.1500 
 36 H        1.7990    -5.6080     1.8220 H     1 <1>   0.0800 
 37 H        1.4120    -6.4360     0.3370 H     1 <1>   0.0800 
 38 H        0.1430    -6.0510     1.4780 H     1 <1>   0.0800 
 39 H        4.3030     2.5770     0.1220 H     1 <1>   0.4500 
 40 H        3.6770     4.2730    -2.1810 H     1 <1>   0.0800 
 41 H        5.2310     3.5270    -1.8950 H     1 <1>   0.0800 
 42 H        3.1540     6.3410    -1.1080 H     1 <1>   0.1500 
 43 H        6.7980     5.9110     2.0190 H     1 <1>   0.1500 
 44 H        6.9320     3.3390    -0.4520 H     1 <1>   0.0800 
 45 H        6.2080     2.9050     1.0890 H     1 <1>   0.0800 
 46 H        7.5940     3.9530     1.0260 H     1 <1>   0.0800 
 47 H        3.7220     8.0840     0.4750 H     1 <1>   0.1500 
@<TRIPOS>BOND
  1   1   2  1   
  2   1   3  1   
  3   2   4  ar  
  4   2   5  ar  
  5   3   6  1   
  6   3   7  1   
  7   3  23  1   
  8   4   8  ar  
  9   4  24  1   
 10   5   9  ar  
 11   5  25  1   
 12   6  10  1   
 13   6  26  1   
 14   6  27  1   
 15   7  11  1   
 16   7  28  1   
 17   7  29  1   
 18   8  12  ar  
 19   8  13  1   
 20   9  12  ar  
 21   9  30  1   
 22  10  14  1   
 23  10  31  1   
 24  10  32  1   
 25  11  14  1   
 26  11  33  1   
 27  11  34  1   
 28  12  35  1   
 29  13  36  1   
 30  13  37  1   
 31  13  38  1   
 32  14  15  1   
 33  14  39  1   
 34  15  16  1   
 35  15  40  1   
 36  15  41  1   
 37  16  17  ar  
 38  16  18  ar  
 39  17  19  ar  
 40  17  20  1   
 41  18  21  ar  
 42  18  42  1   
 43  19  22  ar  
 44  19  43  1   
 45  20  44  1   
 46  20  45  1   
 47  20  46  1   
 48  21  22  ar  
 49  21  47  1   
@<TRIPOS>SUBSTRUCTURE
  1 ****   6 GROUP 4 **** **** 0

# MOE 2024.06 (io_trps.svl 2023.06)
