@<TRIPOS>MOLECULE
NONAME
48 51 1 0 0 
SMALL
USER_CHARGES


@<TRIPOS>ATOM
  1 O       -3.0670    -0.0660    -2.8550 O.2   1 <1>  -0.5700 
  2 C       -2.9390    -0.6260    -1.7920 C.2   1 <1>   0.5690 
  3 N       -2.6320     0.0490    -0.6480 N.am  1 <1>  -0.6600 
  4 C       -3.1180    -2.1270    -1.7630 C.3   1 <1>  -0.0190 
  5 C       -2.5790    -0.6350     0.6760 C.3   1 <1>   0.2200 
  6 C       -2.4090     1.5240    -0.6360 C.3   1 <1>   0.0600 
  7 C       -1.8150    -2.8210    -1.3240 C.3   1 <1>   0.1200 
  8 C       -4.4180    -2.5290    -1.0370 C.3   1 <1>   0.1400 
  9 C       -1.4230    -1.6650     0.7430 C.3   1 <1>   0.1200 
 10 C       -3.9750    -1.1620     1.0760 C.3   1 <1>   0.1400 
 11 O       -1.6440    -2.8700     0.0590 O.3   1 <1>  -0.5600 
 12 N       -4.3720    -2.4720     0.4590 N.am  1 <1>  -0.6600 
 13 C       -4.6400    -3.5550     1.2700 C.2   1 <1>   0.6300 
 14 O       -4.6630    -3.4450     2.4780 O.2   1 <1>  -0.5700 
 15 C       -4.9380    -4.9490     0.6910 C.3   1 <1>   0.0320 
 16 C       -6.3790    -5.0910     0.2080 C.ar  1 <1>  -0.0320 
 17 C       -4.3760    -6.1530     1.3990 C.3   1 <1>  -0.2000 
 18 C       -3.8210    -5.7530     0.0740 C.3   1 <1>  -0.2000 
 19 C       -7.4130    -4.9500     1.1200 C.ar  1 <1>  -0.1500 
 20 C       -6.6860    -5.3590    -1.1180 C.ar  1 <1>  -0.1500 
 21 C       -8.7310    -5.0710     0.7150 C.ar  1 <1>  -0.1500 
 22 C       -8.0040    -5.4790    -1.5240 C.ar  1 <1>  -0.1500 
 23 C       -9.0340    -5.3340    -0.6100 C.ar  1 <1>  -0.1440 
 24 C      -10.4790    -5.4690    -1.0530 C.3   1 <1>  -0.0970 
 25 H       -3.2610    -2.4100    -2.7890 H     1 <1>   0.0800 
 26 H       -2.3360     0.1210     1.4010 H     1 <1>   0.0800 
 27 H       -1.4420     1.7430    -0.2200 H     1 <1>   0.0800 
 28 H       -3.1700     2.0030    -0.0460 H     1 <1>   0.0800 
 29 H       -2.4490     1.9250    -1.6350 H     1 <1>   0.0800 
 30 H       -0.9580    -2.3350    -1.7580 H     1 <1>   0.0800 
 31 H       -1.8300    -3.8410    -1.6640 H     1 <1>   0.0800 
 32 H       -4.6660    -3.5210    -1.3560 H     1 <1>   0.0800 
 33 H       -5.2150    -1.8880    -1.3740 H     1 <1>   0.0800 
 34 H       -1.2690    -1.9350     1.7730 H     1 <1>   0.0800 
 35 H       -0.5130    -1.2270     0.3740 H     1 <1>   0.0800 
 36 H       -4.7160    -0.4230     0.8270 H     1 <1>   0.0800 
 37 H       -3.9810    -1.2540     2.1470 H     1 <1>   0.0800 
 38 H       -3.7830    -5.9940     2.2830 H     1 <1>   0.1000 
 39 H       -4.9870    -7.0360     1.4640 H     1 <1>   0.1000 
 40 H       -4.0150    -6.3960    -0.7650 H     1 <1>   0.1000 
 41 H       -2.8320    -5.3300     0.0520 H     1 <1>   0.1000 
 42 H       -7.1870    -4.7440     2.1520 H     1 <1>   0.1500 
 43 H       -5.9020    -5.4770    -1.8430 H     1 <1>   0.1500 
 44 H       -9.5180    -4.9590     1.4400 H     1 <1>   0.1500 
 45 H       -8.2240    -5.6880    -2.5560 H     1 <1>   0.1500 
 46 H      -11.1150    -4.8430    -0.4530 H     1 <1>   0.0800 
 47 H      -10.7980    -6.4900    -0.9470 H     1 <1>   0.0800 
 48 H      -10.5880    -5.1760    -2.0810 H     1 <1>   0.0800 
@<TRIPOS>BOND
  1   1   2  2   
  2   2   3  am  
  3   2   4  1   
  4   3   5  1   
  5   3   6  1   
  6   4   7  1   
  7   4   8  1   
  8   4  25  1   
  9   5   9  1   
 10   5  10  1   
 11   5  26  1   
 12   6  27  1   
 13   6  28  1   
 14   6  29  1   
 15   7  11  1   
 16   7  30  1   
 17   7  31  1   
 18   8  12  1   
 19   8  32  1   
 20   8  33  1   
 21   9  11  1   
 22   9  34  1   
 23   9  35  1   
 24  10  12  1   
 25  10  36  1   
 26  10  37  1   
 27  12  13  am  
 28  13  14  2   
 29  13  15  1   
 30  15  16  1   
 31  15  17  1   
 32  15  18  1   
 33  16  19  ar  
 34  16  20  ar  
 35  17  18  1   
 36  17  38  1   
 37  17  39  1   
 38  18  40  1   
 39  18  41  1   
 40  19  21  ar  
 41  19  42  1   
 42  20  22  ar  
 43  20  43  1   
 44  21  23  ar  
 45  21  44  1   
 46  22  23  ar  
 47  22  45  1   
 48  23  24  1   
 49  24  46  1   
 50  24  47  1   
 51  24  48  1   
@<TRIPOS>SUBSTRUCTURE
  1 ****  12 GROUP 4 **** **** 0

# MOE 2024.06 (io_trps.svl 2023.06)
