@<TRIPOS>MOLECULE
NONAME
49 50 1 0 0 
SMALL
USER_CHARGES


@<TRIPOS>ATOM
  1 S       -0.0690     0.3220    -0.4490 S.o2  1 <1>   1.3330 
  2 O        1.0290     1.1400    -0.0040 O.2   1 <1>  -0.6500 
  3 O       -0.0590    -0.2770    -1.7580 O.2   1 <1>  -0.6500 
  4 N       -0.0410    -0.9800     0.5700 N.am  1 <1>  -0.9780 
  5 C       -1.6360     1.1350    -0.1080 C.3   1 <1>  -0.0550 
  6 C       -2.8740     0.2560    -0.3640 C.3   1 <1>  -0.1600 
  7 C       -4.1840     1.0170    -0.0830 C.3   1 <1>  -0.0990 
  8 C       -5.4470     0.1970    -0.3340 C.2   1 <1>   0.5690 
  9 O       -5.3400    -1.0030    -0.4430 O.2   1 <1>  -0.5700 
 10 N       -6.6680     0.8150    -0.4250 N.am  1 <1>  -0.6600 
 11 C       -7.8650     0.0110    -0.8170 C.3   1 <1>   0.1400 
 12 C       -6.9020     2.2660    -0.1520 C.3   1 <1>   0.1400 
 13 C       -8.9400     0.9120    -1.4290 C.3   1 <1>  -0.1600 
 14 C       -8.2750     2.4440     0.4950 C.3   1 <1>  -0.1600 
 15 C       -9.4230     2.0090    -0.4520 C.3   1 <1>   0.2800 
 16 O       -9.7110     3.0950    -1.2840 O.3   1 <1>  -0.5600 
 17 C      -10.6840     1.5240     0.3290 C.3   1 <1>  -0.1600 
 18 C      -10.4530     4.2110    -0.8450 C.3   1 <1>   0.1200 
 19 C      -11.9160     2.4360     0.2300 C.3   1 <1>   0.2800 
 20 C      -11.4680     3.9120     0.2730 C.3   1 <1>   0.2000 
 21 O      -12.5440     2.1950    -0.9780 O.3   1 <1>  -0.6800 
 22 C      -12.9550     2.0960     1.3040 C.3   1 <1>  -0.2400 
 23 O      -10.8770     4.2080     1.5060 O.3   1 <1>  -0.6800 
 24 H        0.9310    -1.0330     0.8650 H     1 <1>   0.4200 
 25 H       -0.1880    -1.7750    -0.0500 H     1 <1>   0.4200 
 26 H       -1.6410     1.4520     0.9170 H     1 <1>   0.0800 
 27 H       -1.7030     2.0130    -0.7200 H     1 <1>   0.0800 
 28 H       -2.8710    -0.0790    -1.3880 H     1 <1>   0.0800 
 29 H       -2.8280    -0.6170     0.2670 H     1 <1>   0.0800 
 30 H       -4.2170     1.8880    -0.7110 H     1 <1>   0.0800 
 31 H       -4.1960     1.3350     0.9440 H     1 <1>   0.0800 
 32 H       -7.5760    -0.7370    -1.5360 H     1 <1>   0.0800 
 33 H       -8.2520    -0.4930     0.0520 H     1 <1>   0.0800 
 34 H       -6.1490     2.6510     0.5120 H     1 <1>   0.0800 
 35 H       -6.8590     2.8160    -1.0780 H     1 <1>   0.0800 
 36 H       -9.7620     0.3120    -1.7700 H     1 <1>   0.0800 
 37 H       -8.5120     1.3680    -2.3050 H     1 <1>   0.0800 
 38 H       -8.3910     3.4690     0.7900 H     1 <1>   0.0800 
 39 H       -8.2750     1.8490     1.3900 H     1 <1>   0.0800 
 40 H      -10.9620     0.5270     0.0410 H     1 <1>   0.0800 
 41 H      -10.4250     1.4400     1.3680 H     1 <1>   0.0800 
 42 H       -9.7690     4.9850    -0.5450 H     1 <1>   0.0800 
 43 H      -10.9930     4.5600    -1.7070 H     1 <1>   0.0800 
 44 H      -12.3210     4.5610     0.1780 H     1 <1>   0.0800 
 45 H      -12.7980     1.2570    -1.0390 H     1 <1>   0.4000 
 46 H      -12.5480     2.2660     2.2840 H     1 <1>   0.0800 
 47 H      -13.2530     1.0660     1.2380 H     1 <1>   0.0800 
 48 H      -13.8210     2.7250     1.1930 H     1 <1>   0.0800 
 49 H      -10.0760     3.6640     1.6180 H     1 <1>   0.4000 
@<TRIPOS>BOND
  1   1   2  2   
  2   1   3  2   
  3   1   4  am  
  4   1   5  1   
  5   4  24  1   
  6   4  25  1   
  7   5   6  1   
  8   5  26  1   
  9   5  27  1   
 10   6   7  1   
 11   6  28  1   
 12   6  29  1   
 13   7   8  1   
 14   7  30  1   
 15   7  31  1   
 16   8   9  2   
 17   8  10  am  
 18  10  11  1   
 19  10  12  1   
 20  11  13  1   
 21  11  32  1   
 22  11  33  1   
 23  12  14  1   
 24  12  34  1   
 25  12  35  1   
 26  13  15  1   
 27  13  36  1   
 28  13  37  1   
 29  14  15  1   
 30  14  38  1   
 31  14  39  1   
 32  15  16  1   
 33  15  17  1   
 34  16  18  1   
 35  17  19  1   
 36  17  40  1   
 37  17  41  1   
 38  18  20  1   
 39  18  42  1   
 40  18  43  1   
 41  19  20  1   
 42  19  21  1   
 43  19  22  1   
 44  20  23  1   
 45  20  44  1   
 46  21  45  1   
 47  22  46  1   
 48  22  47  1   
 49  22  48  1   
 50  23  49  1   
@<TRIPOS>SUBSTRUCTURE
  1 ****  10 GROUP 4 **** **** 0

# MOE 2024.06 (io_trps.svl 2023.06)
