@<TRIPOS>MOLECULE
NONAME
45 46 1 0 0 
SMALL
USER_CHARGES


@<TRIPOS>ATOM
  1 S        0.8800    -0.0510    -0.0140 S.o2  1 <1>   1.3330 
  2 O        0.6290    -1.0300    -1.0470 O.2   1 <1>  -0.6500 
  3 O        1.2130    -0.4960     1.3210 O.2   1 <1>  -0.6500 
  4 N       -0.4790     0.9590     0.1050 N.am  1 <1>  -0.8490 
  5 C        2.1600     1.0540    -0.6020 C.3   1 <1>  -0.0550 
  6 C       -1.7340     0.2110    -0.0080 C.3   1 <1>   0.1160 
  7 C       -0.4920     1.7800     1.3200 C.3   1 <1>   0.1160 
  8 C        3.4970     0.3400    -0.8850 C.3   1 <1>  -0.0800 
  9 C        4.5830     1.2240    -1.4800 C.3   1 <1>   0.2200 
 10 C        4.1770    -0.2520     0.3560 C.3   1 <1>   0.1200 
 11 N        4.6080     2.5470    -0.8130 N.am  1 <1>  -0.7300 
 12 C        5.8270     0.4470    -1.0760 C.3   1 <1>   0.1200 
 13 O        5.5510    -0.0410     0.2020 O.3   1 <1>  -0.5600 
 14 C        4.0780     3.7030    -1.3090 C.2   1 <1>   0.5440 
 15 O        3.5550     3.6580    -2.4060 O.2   1 <1>  -0.5700 
 16 C        4.1300     4.9500    -0.5730 C.ar  1 <1>   0.0860 
 17 C        4.1200     5.0300     0.8220 C.ar  1 <1>   0.1900 
 18 C        4.1860     6.1710    -1.2510 C.ar  1 <1>  -0.1500 
 19 F        4.0420     3.9390     1.5360 F     1 <1>  -0.1900 
 20 C        4.1780     6.2230     1.5140 C.ar  1 <1>  -0.1500 
 21 C        4.2420     7.3800    -0.5800 C.ar  1 <1>  -0.1500 
 22 C        4.2410     7.4140     0.8130 C.ar  1 <1>   0.0820 
 23 O        4.2950     8.5510     1.5400 O.3   1 <1>  -0.3620 
 24 C        4.3600     9.8220     0.9310 C.3   1 <1>   0.0400 
 25 H        1.8240     1.5210    -1.5080 H     1 <1>   0.0800 
 26 H        2.3120     1.8280     0.1240 H     1 <1>   0.0800 
 27 H       -2.5750     0.8810     0.0500 H     1 <1>   0.0800 
 28 H       -1.8060    -0.5200     0.7800 H     1 <1>   0.0800 
 29 H       -1.7750    -0.2970    -0.9570 H     1 <1>   0.0800 
 30 H       -1.3300     2.4560     1.3000 H     1 <1>   0.0800 
 31 H        0.4100     2.3620     1.3870 H     1 <1>   0.0800 
 32 H       -0.5670     1.1550     2.1960 H     1 <1>   0.0800 
 33 H        3.3110    -0.4680    -1.5720 H     1 <1>   0.0800 
 34 H        4.4970     1.3340    -2.5480 H     1 <1>   0.0800 
 35 H        3.9920    -1.3090     0.4490 H     1 <1>   0.0800 
 36 H        3.8720     0.2490     1.2600 H     1 <1>   0.0800 
 37 H        4.9880     2.5260     0.1390 H     1 <1>   0.3700 
 38 H        6.7120     1.0580    -1.0500 H     1 <1>   0.0800 
 39 H        5.9800    -0.3970    -1.7260 H     1 <1>   0.0800 
 40 H        4.1850     6.1630    -2.3290 H     1 <1>   0.1500 
 41 H        4.1710     6.2340     2.5890 H     1 <1>   0.1500 
 42 H        4.2860     8.2870    -1.1550 H     1 <1>   0.1500 
 43 H        4.3940    10.5630     1.7100 H     1 <1>   0.0800 
 44 H        3.4800     9.9670     0.3290 H     1 <1>   0.0800 
 45 H        5.2520     9.8790     0.3330 H     1 <1>   0.0800 
@<TRIPOS>BOND
  1   1   2  2   
  2   1   3  2   
  3   1   4  am  
  4   1   5  1   
  5   4   6  1   
  6   4   7  1   
  7   5   8  1   
  8   5  25  1   
  9   5  26  1   
 10   6  27  1   
 11   6  28  1   
 12   6  29  1   
 13   7  30  1   
 14   7  31  1   
 15   7  32  1   
 16   8   9  1   
 17   8  10  1   
 18   8  33  1   
 19   9  11  1   
 20   9  12  1   
 21   9  34  1   
 22  10  13  1   
 23  10  35  1   
 24  10  36  1   
 25  11  14  am  
 26  11  37  1   
 27  12  13  1   
 28  12  38  1   
 29  12  39  1   
 30  14  15  2   
 31  14  16  1   
 32  16  17  ar  
 33  16  18  ar  
 34  17  19  1   
 35  17  20  ar  
 36  18  21  ar  
 37  18  40  1   
 38  20  22  ar  
 39  20  41  1   
 40  21  22  ar  
 41  21  42  1   
 42  22  23  1   
 43  23  24  1   
 44  24  43  1   
 45  24  44  1   
 46  24  45  1   
@<TRIPOS>SUBSTRUCTURE
  1 ****  14 GROUP 4 **** **** 0

# MOE 2024.06 (io_trps.svl 2023.06)
