@<TRIPOS>MOLECULE
NONAME
49 51 1 0 0 
SMALL
USER_CHARGES


@<TRIPOS>ATOM
  1 O       -0.7160     0.9550    -2.8990 O.2   1 <1>  -0.5700 
  2 C       -1.4900     1.4740    -2.1170 C.2   1 <1>   0.5440 
  3 N       -1.5860     2.8530    -2.0910 N.am  1 <1>  -0.6600 
  4 C       -2.2960     0.6260    -1.2590 C.ar  1 <1>   0.0860 
  5 C       -2.7490     3.5890    -1.5250 C.3   1 <1>   0.1400 
  6 C       -0.5810     3.7090    -2.7800 C.3   1 <1>   0.1400 
  7 C       -2.3440     0.8140     0.1210 C.ar  1 <1>  -0.1500 
  8 C       -3.0510    -0.4170    -1.7940 C.ar  1 <1>  -0.1500 
  9 C       -2.2530     4.6540    -0.5430 C.3   1 <1>  -0.1600 
 10 C       -0.0740     4.7820    -1.8130 C.3   1 <1>  -0.1600 
 11 C       -3.1270     0.0180     0.9370 C.ar  1 <1>   0.0830 
 12 C       -3.8360    -1.2240    -0.9900 C.ar  1 <1>  -0.1500 
 13 C       -1.2310     5.5980    -1.2060 C.3   1 <1>  -0.0190 
 14 O       -3.1080     0.3000     2.2630 O.3   1 <1>  -0.3630 
 15 C       -3.8800    -1.0090     0.3760 C.ar  1 <1>  -0.1500 
 16 C       -0.7100     6.6440    -0.2210 C.2   1 <1>   0.5690 
 17 C       -3.8170    -0.4900     3.1920 C.3   1 <1>   0.0400 
 18 O       -0.1500     6.2840     0.7840 O.2   1 <1>  -0.5700 
 19 N       -0.9000     7.9580    -0.5180 N.am  1 <1>  -0.4930 
 20 C       -0.5340     9.1280     0.1670 C.2   1 <1>   0.3520 
 21 N       -0.9780    10.2500    -0.2440 N.2   1 <1>  -0.4100 
 22 C        0.2900     9.3630     1.2830 C.2   1 <1>   0.3520 
 23 O       -0.4620    11.1140     0.5770 O.3   1 <1>   0.2420 
 24 N        0.3030    10.6220     1.5030 N.2   1 <1>  -0.4100 
 25 N        0.9960     8.4160     2.0470 N.am  1 <1>  -0.4930 
 26 C        1.9130     8.5310     3.0400 C.2   1 <1>   0.5690 
 27 O        2.3770     7.5400     3.5420 O.2   1 <1>  -0.5700 
 28 C        2.3890     9.8730     3.5450 C.3   1 <1>  -0.1790 
 29 H       -3.4300     2.9210    -1.0280 H     1 <1>   0.0800 
 30 H       -3.2850     4.0590    -2.3320 H     1 <1>   0.0800 
 31 H       -1.0390     4.1640    -3.6400 H     1 <1>   0.0800 
 32 H        0.2530     3.1170    -3.1200 H     1 <1>   0.0800 
 33 H       -1.7560     1.5950     0.5670 H     1 <1>   0.1500 
 34 H       -3.0120    -0.5900    -2.8560 H     1 <1>   0.1500 
 35 H       -1.8020     4.1630     0.3030 H     1 <1>   0.0800 
 36 H       -3.0920     5.2190    -0.1800 H     1 <1>   0.0800 
 37 H        0.6020     5.4350    -2.3350 H     1 <1>   0.0800 
 38 H        0.4830     4.2980    -1.0270 H     1 <1>   0.0800 
 39 H       -4.4110    -2.0220    -1.4290 H     1 <1>   0.1500 
 40 H       -1.7300     6.1070    -2.0110 H     1 <1>   0.0800 
 41 H       -4.4980    -1.6460     0.9800 H     1 <1>   0.1500 
 42 H       -3.6320    -0.0960     4.1750 H     1 <1>   0.0800 
 43 H       -3.4600    -1.5040     3.1320 H     1 <1>   0.0800 
 44 H       -4.8670    -0.4360     2.9680 H     1 <1>   0.0800 
 45 H       -1.4290     8.1640    -1.3630 H     1 <1>   0.3700 
 46 H        0.7780     7.4360     1.8160 H     1 <1>   0.3700 
 47 H        2.8070    10.4420     2.7350 H     1 <1>   0.0800 
 48 H        3.1450     9.7330     4.2950 H     1 <1>   0.0800 
 49 H        1.5680    10.4120     3.9780 H     1 <1>   0.0800 
@<TRIPOS>BOND
  1   1   2  2   
  2   2   3  am  
  3   2   4  1   
  4   3   5  1   
  5   3   6  1   
  6   4   7  ar  
  7   4   8  ar  
  8   5   9  1   
  9   5  29  1   
 10   5  30  1   
 11   6  10  1   
 12   6  31  1   
 13   6  32  1   
 14   7  11  ar  
 15   7  33  1   
 16   8  12  ar  
 17   8  34  1   
 18   9  13  1   
 19   9  35  1   
 20   9  36  1   
 21  10  13  1   
 22  10  37  1   
 23  10  38  1   
 24  11  14  1   
 25  11  15  ar  
 26  12  15  ar  
 27  12  39  1   
 28  13  16  1   
 29  13  40  1   
 30  14  17  1   
 31  15  41  1   
 32  16  18  2   
 33  16  19  am  
 34  17  42  1   
 35  17  43  1   
 36  17  44  1   
 37  19  20  1   
 38  19  45  1   
 39  20  21  2   
 40  20  22  1   
 41  21  23  1   
 42  22  24  2   
 43  22  25  1   
 44  23  24  1   
 45  25  26  am  
 46  25  46  1   
 47  26  27  2   
 48  26  28  1   
 49  28  47  1   
 50  28  48  1   
 51  28  49  1   
@<TRIPOS>SUBSTRUCTURE
  1 ****   9 GROUP 4 **** **** 0

# MOE 2024.06 (io_trps.svl 2023.06)
