@<TRIPOS>MOLECULE
NONAME
49 50 1 0 0 
SMALL
USER_CHARGES


@<TRIPOS>ATOM
  1 O       -0.2170     1.0550    -0.3690 O.2   1 <1>  -0.5700 
  2 C       -0.4590     2.2390    -0.3820 C.2   1 <1>   0.5690 
  3 N       -1.4530     2.8250     0.3590 N.am  1 <1>  -0.6600 
  4 C        0.3930     3.1230    -1.2870 C.3   1 <1>   0.1810 
  5 C       -1.7000     4.3040     0.2680 C.3   1 <1>   0.3640 
  6 C       -2.3060     2.1120     1.3510 C.3   1 <1>   0.2200 
  7 O        0.5810     4.3970    -0.7320 O.3   1 <1>  -0.5600 
  8 C       -3.0770     4.5480    -0.3570 C.ar  1 <1>  -0.1440 
  9 C       -0.6250     5.1160    -0.5120 C.3   1 <1>   0.2610 
 10 C       -1.4480     1.5900     2.5020 C.3   1 <1>  -0.2400 
 11 C       -3.1190     0.9960     0.6920 C.3   1 <1>  -0.2400 
 12 C       -3.9370     5.4790     0.2100 C.ar  1 <1>  -0.1500 
 13 C       -3.4870     3.8610    -1.4930 C.ar  1 <1>  -0.1500 
 14 C       -0.3330     6.4240     0.2350 C.2   1 <1>   0.5690 
 15 C       -5.1820     5.7160    -0.3440 C.ar  1 <1>  -0.1500 
 16 C       -4.7330     4.0970    -2.0480 C.ar  1 <1>  -0.1500 
 17 O       -1.2430     7.1650     0.5220 O.2   1 <1>  -0.5700 
 18 N        0.9520     6.7160     0.5690 N.am  1 <1>  -0.7300 
 19 C       -5.5820     5.0250    -1.4730 C.ar  1 <1>  -0.1500 
 20 C        1.4350     7.9380     1.2470 C.3   1 <1>   0.1400 
 21 C        2.5290     8.6190     0.4090 C.3   1 <1>  -0.0800 
 22 C        3.7520     7.7110     0.1950 C.3   1 <1>  -0.2400 
 23 C        2.9720     9.9220     1.0860 C.3   1 <1>  -0.2400 
 24 H       -0.0740     3.2250    -2.2500 H     1 <1>   0.0800 
 25 H        1.3620     2.6740    -1.4130 H     1 <1>   0.0800 
 26 H       -1.7200     4.6810     1.2770 H     1 <1>   0.0800 
 27 H       -3.0120     2.8140     1.7650 H     1 <1>   0.0800 
 28 H       -1.0160     5.3800    -1.4780 H     1 <1>   0.0800 
 29 H       -0.7680     0.8310     2.1590 H     1 <1>   0.0800 
 30 H       -2.0770     1.1590     3.2590 H     1 <1>   0.0800 
 31 H       -0.8870     2.3950     2.9410 H     1 <1>   0.0800 
 32 H       -2.4820     0.2120     0.3280 H     1 <1>   0.0800 
 33 H       -3.7000     1.3900    -0.1210 H     1 <1>   0.0800 
 34 H       -3.7940     0.5700     1.4100 H     1 <1>   0.0800 
 35 H       -3.6390     6.0340     1.0840 H     1 <1>   0.1500 
 36 H       -2.8430     3.1310    -1.9510 H     1 <1>   0.1500 
 37 H       -5.8390     6.4420     0.1040 H     1 <1>   0.1500 
 38 H       -5.0420     3.5570    -2.9260 H     1 <1>   0.1500 
 39 H        1.6680     6.0370     0.2900 H     1 <1>   0.3700 
 40 H       -6.5510     5.2090    -1.9030 H     1 <1>   0.1500 
 41 H        0.6120     8.6180     1.3900 H     1 <1>   0.0800 
 42 H        1.8230     7.6720     2.2150 H     1 <1>   0.0800 
 43 H        2.1080     8.8700    -0.5500 H     1 <1>   0.0800 
 44 H        4.1670     7.4050     1.1390 H     1 <1>   0.0800 
 45 H        4.5110     8.2350    -0.3580 H     1 <1>   0.0800 
 46 H        3.4830     6.8340    -0.3660 H     1 <1>   0.0800 
 47 H        3.4010     9.7230     2.0530 H     1 <1>   0.0800 
 48 H        2.1310    10.5810     1.2130 H     1 <1>   0.0800 
 49 H        3.7060    10.4270     0.4830 H     1 <1>   0.0800 
@<TRIPOS>BOND
  1   1   2  2   
  2   2   3  am  
  3   2   4  1   
  4   3   5  1   
  5   3   6  1   
  6   4   7  1   
  7   4  24  1   
  8   4  25  1   
  9   5   8  1   
 10   5   9  1   
 11   5  26  1   
 12   6  10  1   
 13   6  11  1   
 14   6  27  1   
 15   7   9  1   
 16   8  12  ar  
 17   8  13  ar  
 18   9  14  1   
 19   9  28  1   
 20  10  29  1   
 21  10  30  1   
 22  10  31  1   
 23  11  32  1   
 24  11  33  1   
 25  11  34  1   
 26  12  15  ar  
 27  12  35  1   
 28  13  16  ar  
 29  13  36  1   
 30  14  17  2   
 31  14  18  am  
 32  15  19  ar  
 33  15  37  1   
 34  16  19  ar  
 35  16  38  1   
 36  18  20  1   
 37  18  39  1   
 38  19  40  1   
 39  20  21  1   
 40  20  41  1   
 41  20  42  1   
 42  21  22  1   
 43  21  23  1   
 44  21  43  1   
 45  22  44  1   
 46  22  45  1   
 47  22  46  1   
 48  23  47  1   
 49  23  48  1   
 50  23  49  1   
@<TRIPOS>SUBSTRUCTURE
  1 ****   5 GROUP 4 **** **** 0

# MOE 2024.06 (io_trps.svl 2023.06)
