@<TRIPOS>MOLECULE
NONAME
51 53 1 0 0 
SMALL
USER_CHARGES


@<TRIPOS>ATOM
  1 O       -0.3230    -0.2520     0.6170 O.2   1 <1>  -0.5700 
  2 C        0.4940    -0.9620     0.0780 C.2   1 <1>   0.5690 
  3 N        1.6730    -0.5110    -0.4590 N.am  1 <1>  -0.5470 
  4 C        0.1580    -2.4580    -0.0020 C.3   1 <1>   0.4040 
  5 C        2.2040     0.7870    -0.5470 C.ar  1 <1>   0.1170 
  6 N       -1.3260    -2.7620     0.0560 N.4   1 <1>  -0.9590 
  7 C        3.5670     0.9250    -0.7900 C.ar  1 <1>  -0.1500 
  8 C        1.4380     1.9420    -0.4210 C.ar  1 <1>  -0.1500 
  9 C       -1.6680    -4.2030     0.3000 C.3   1 <1>   0.4230 
 10 C       -1.9430    -2.2270    -1.1980 C.3   1 <1>   0.3430 
 11 C        4.1570     2.1720    -0.9000 C.ar  1 <1>  -0.1430 
 12 C        2.0190     3.1920    -0.5300 C.ar  1 <1>  -0.1500 
 13 C       -3.2000    -4.3590     0.3170 C.3   1 <1>  -0.1600 
 14 C       -1.1190    -4.7480     1.6420 C.3   1 <1>  -0.1600 
 15 C       -3.4620    -2.3530    -1.1520 C.3   1 <1>  -0.1600 
 16 C        3.3770     3.3080    -0.7700 C.ar  1 <1>  -0.1500 
 17 C        5.6470     2.3080    -1.1640 C.3   1 <1>  -0.0970 
 18 C       -3.8780    -3.8080    -0.9400 C.3   1 <1>  -0.1600 
 19 C        0.3480    -5.2300     1.6800 C.3   1 <1>   0.0960 
 20 N        0.7590    -5.8710     0.4150 N.pl3 1 <1>   0.3140 
 21 N        1.1570    -5.1440    -0.6480 N.2   1 <1>  -0.7070 
 22 C        0.7680    -7.1880     0.1400 C.2   1 <1>  -0.3020 
 23 C        1.4270    -6.0250    -1.5670 C.2   1 <1>   0.1390 
 24 C        1.1980    -7.3230    -1.1320 C.2   1 <1>  -0.1500 
 25 H        2.3130    -1.2190    -0.8210 H     1 <1>   0.3700 
 26 H        0.6560    -2.9270     0.8210 H     1 <1>   0.0800 
 27 H        0.5710    -2.8590    -0.9110 H     1 <1>   0.0800 
 28 H       -1.7050    -2.1890     0.8240 H     1 <1>   0.4500 
 29 H        4.1780     0.0470    -0.8920 H     1 <1>   0.1500 
 30 H        0.3820     1.8840    -0.2400 H     1 <1>   0.1500 
 31 H       -1.2850    -4.8000    -0.5140 H     1 <1>   0.0800 
 32 H       -1.5660    -2.7730    -2.0480 H     1 <1>   0.0800 
 33 H       -1.6850    -1.1860    -1.3210 H     1 <1>   0.0800 
 34 H        1.4160     4.0770    -0.4280 H     1 <1>   0.1500 
 35 H       -3.6030    -3.8650     1.1840 H     1 <1>   0.0800 
 36 H       -3.4490    -5.4040     0.4000 H     1 <1>   0.0800 
 37 H       -1.7010    -5.6160     1.9020 H     1 <1>   0.0800 
 38 H       -1.2880    -4.0340     2.4280 H     1 <1>   0.0800 
 39 H       -3.8730    -1.9950    -2.0790 H     1 <1>   0.0800 
 40 H       -3.8510    -1.7320    -0.3630 H     1 <1>   0.0800 
 41 H        3.8210     4.2850    -0.8540 H     1 <1>   0.1500 
 42 H        6.1630     1.3950    -0.9280 H     1 <1>   0.0800 
 43 H        6.0600     3.0950    -0.5600 H     1 <1>   0.0800 
 44 H        5.8130     2.5420    -2.2000 H     1 <1>   0.0800 
 45 H       -4.9490    -3.8710    -0.8370 H     1 <1>   0.0800 
 46 H       -3.5930    -4.3980    -1.7960 H     1 <1>   0.0800 
 47 H        0.4730    -5.9430     2.4760 H     1 <1>   0.0800 
 48 H        1.0210    -4.4190     1.8780 H     1 <1>   0.0800 
 49 H        0.4810    -7.9470     0.8460 H     1 <1>   0.1500 
 50 H        1.7880    -5.7770    -2.5530 H     1 <1>   0.1500 
 51 H        1.3440    -8.2220    -1.7060 H     1 <1>   0.1500 
@<TRIPOS>BOND
  1   1   2  2   
  2   2   3  am  
  3   2   4  1   
  4   3   5  1   
  5   3  25  1   
  6   4   6  1   
  7   4  26  1   
  8   4  27  1   
  9   5   7  ar  
 10   5   8  ar  
 11   6   9  1   
 12   6  10  1   
 13   6  28  1   
 14   7  11  ar  
 15   7  29  1   
 16   8  12  ar  
 17   8  30  1   
 18   9  13  1   
 19   9  14  1   
 20   9  31  1   
 21  10  15  1   
 22  10  32  1   
 23  10  33  1   
 24  11  16  ar  
 25  11  17  1   
 26  12  16  ar  
 27  12  34  1   
 28  13  18  1   
 29  13  35  1   
 30  13  36  1   
 31  14  19  1   
 32  14  37  1   
 33  14  38  1   
 34  15  18  1   
 35  15  39  1   
 36  15  40  1   
 37  16  41  1   
 38  17  42  1   
 39  17  43  1   
 40  17  44  1   
 41  18  45  1   
 42  18  46  1   
 43  19  20  1   
 44  19  47  1   
 45  19  48  1   
 46  20  21  1   
 47  20  22  1   
 48  21  23  2   
 49  22  24  2   
 50  22  49  1   
 51  23  24  1   
 52  23  50  1   
 53  24  51  1   
@<TRIPOS>SUBSTRUCTURE
  1 ****   4 GROUP 4 **** **** 0

# MOE 2024.06 (io_trps.svl 2023.06)
