@<TRIPOS>MOLECULE
NONAME
55 59 1 0 0 
SMALL
USER_CHARGES


@<TRIPOS>ATOM
  1 O        1.6050     0.1850    -1.0170 O.3   1 <1>  -0.5600 
  2 C        2.5240    -0.8370    -0.6880 C.3   1 <1>   0.4240 
  3 C        0.3610    -0.2020    -1.5300 C.3   1 <1>   0.1200 
  4 C        1.8340    -2.1010    -0.1370 C.ar  1 <1>  -0.1440 
  5 C        3.4430    -0.2300     0.3800 C.3   1 <1>  -0.1600 
  6 C        3.3530    -1.1260    -1.9550 C.3   1 <1>  -0.1600 
  7 C       -0.3940    -0.9960    -0.4710 C.3   1 <1>  -0.0160 
  8 C        0.4500    -2.1730    -0.0290 C.ar  1 <1>  -0.1440 
  9 C        2.5880    -3.1980     0.2720 C.ar  1 <1>  -0.1500 
 10 C        4.1450     1.0530    -0.0780 C.3   1 <1>   0.3430 
 11 C        4.3700    -0.0290    -2.2960 C.3   1 <1>   0.3430 
 12 C       -0.1650    -3.3080     0.4770 C.ar  1 <1>  -0.1500 
 13 C        1.9750    -4.3310     0.7740 C.ar  1 <1>  -0.1500 
 14 N        4.0490     1.2250    -1.5630 N.4   1 <1>  -0.9590 
 15 C        0.5980    -4.3970     0.8820 C.ar  1 <1>   0.0820 
 16 C        4.7700     2.4200    -2.0840 C.3   1 <1>   0.4860 
 17 O        0.0780    -5.5440     1.3860 O.3   1 <1>  -0.3620 
 18 C        4.3090     3.6600    -1.3510 C.ar  1 <1>  -0.1440 
 19 C       -1.3120    -5.7090     1.5520 C.3   1 <1>   0.0400 
 20 C        3.0630     4.2050    -1.5530 C.ar  1 <1>   0.1600 
 21 C        5.1220     4.2920    -0.4420 C.ar  1 <1>   0.1600 
 22 N        2.6530     5.2640    -0.9030 N.ar  1 <1>  -0.6200 
 23 N        4.7310     5.3480     0.2220 N.ar  1 <1>  -0.6200 
 24 C        3.5010     5.8160    -0.0250 C.ar  1 <1>   0.6730 
 25 C        3.0430     6.9880     0.6950 C.2   1 <1>   0.0870 
 26 O        3.7920     7.5750     1.6290 O.3   1 <1>  -0.2800 
 27 C        1.8730     7.6830     0.5960 C.2   1 <1>  -0.1500 
 28 C        3.1400     8.6070     2.1160 C.2   1 <1>  -0.0100 
 29 C        1.9370     8.7300     1.5160 C.2   1 <1>  -0.1500 
 30 H        0.5090    -0.7940    -2.4170 H     1 <1>   0.0800 
 31 H       -0.1860     0.6890    -1.7880 H     1 <1>   0.0800 
 32 H        4.1960    -0.9450     0.6560 H     1 <1>   0.0800 
 33 H        2.8710    -0.0290     1.2680 H     1 <1>   0.0800 
 34 H        2.6960    -1.2910    -2.7890 H     1 <1>   0.0800 
 35 H        3.9030    -2.0400    -1.8270 H     1 <1>   0.0800 
 36 H       -1.3250    -1.3410    -0.8850 H     1 <1>   0.0800 
 37 H       -0.6120    -0.3650     0.3720 H     1 <1>   0.0800 
 38 H        3.6600    -3.1910     0.2110 H     1 <1>   0.1500 
 39 H        5.1780     1.0270     0.2320 H     1 <1>   0.0800 
 40 H        3.6720     1.8930     0.4060 H     1 <1>   0.0800 
 41 H        4.3570     0.1450    -3.3610 H     1 <1>   0.0800 
 42 H        5.3590    -0.3600    -2.0220 H     1 <1>   0.0800 
 43 H       -1.2350    -3.3330     0.5520 H     1 <1>   0.1500 
 44 H        2.5600    -5.1770     1.0890 H     1 <1>   0.1500 
 45 H        3.0290     1.3610    -1.7090 H     1 <1>   0.4500 
 46 H        4.5750     2.5370    -3.1380 H     1 <1>   0.0800 
 47 H        5.8320     2.2940    -1.9500 H     1 <1>   0.0800 
 48 H       -1.4840    -6.6860     1.9680 H     1 <1>   0.0800 
 49 H       -1.7900    -5.6330     0.5920 H     1 <1>   0.0800 
 50 H       -1.6750    -4.9550     2.2270 H     1 <1>   0.0800 
 51 H        2.3770     3.7690    -2.2610 H     1 <1>   0.1500 
 52 H        6.1180     3.9320    -0.2410 H     1 <1>   0.1500 
 53 H        1.0470     7.4770    -0.0610 H     1 <1>   0.1500 
 54 H        3.6020     9.2000     2.8860 H     1 <1>   0.1500 
 55 H        1.1730     9.4670     1.6880 H     1 <1>   0.1500 
@<TRIPOS>BOND
  1   1   2  1   
  2   1   3  1   
  3   2   4  1   
  4   2   5  1   
  5   2   6  1   
  6   3   7  1   
  7   3  30  1   
  8   3  31  1   
  9   4   8  ar  
 10   4   9  ar  
 11   5  10  1   
 12   5  32  1   
 13   5  33  1   
 14   6  11  1   
 15   6  34  1   
 16   6  35  1   
 17   7   8  1   
 18   7  36  1   
 19   7  37  1   
 20   8  12  ar  
 21   9  13  ar  
 22   9  38  1   
 23  10  14  1   
 24  10  39  1   
 25  10  40  1   
 26  11  14  1   
 27  11  41  1   
 28  11  42  1   
 29  12  15  ar  
 30  12  43  1   
 31  13  15  ar  
 32  13  44  1   
 33  14  16  1   
 34  14  45  1   
 35  15  17  1   
 36  16  18  1   
 37  16  46  1   
 38  16  47  1   
 39  17  19  1   
 40  18  20  ar  
 41  18  21  ar  
 42  19  48  1   
 43  19  49  1   
 44  19  50  1   
 45  20  22  ar  
 46  20  51  1   
 47  21  23  ar  
 48  21  52  1   
 49  22  24  ar  
 50  23  24  ar  
 51  24  25  1   
 52  25  26  1   
 53  25  27  2   
 54  26  28  1   
 55  27  29  1   
 56  27  53  1   
 57  28  29  2   
 58  28  54  1   
 59  29  55  1   
@<TRIPOS>SUBSTRUCTURE
  1 ****   1 GROUP 4 **** **** 0

# MOE 2024.06 (io_trps.svl 2023.06)
