@<TRIPOS>MOLECULE
NONAME
42 43 1 0 0 
SMALL
USER_CHARGES


@<TRIPOS>ATOM
  1 O       -1.5120    -0.8770    -1.6590 O.2   1 <1>  -0.5700 
  2 C       -1.7850     0.1240    -1.0320 C.2   1 <1>   0.5690 
  3 N       -2.4310     0.0370     0.1750 N.am  1 <1>  -0.6600 
  4 C       -1.4280     1.4660    -1.6620 C.3   1 <1>   0.0440 
  5 C       -2.6990    -1.2980     0.7860 C.3   1 <1>   0.3200 
  6 C       -2.9970     1.1990     0.9220 C.3   1 <1>   0.1400 
  7 C       -0.3360     2.2130    -0.9030 C.ar  1 <1>  -0.1440 
  8 C       -3.9600    -1.9030     0.1950 C.2   1 <1>   0.0060 
  9 C       -4.4580     1.4360     0.5220 C.3   1 <1>   0.1200 
 10 C        0.8540     1.5760    -0.5870 C.ar  1 <1>  -0.1500 
 11 C       -0.5200     3.5350    -0.5260 C.ar  1 <1>  -0.1500 
 12 N       -5.0560    -2.1380     0.8460 N.2   1 <1>  -0.5650 
 13 N       -4.0210    -2.2430    -1.1090 N.pl3 1 <1>   0.0330 
 14 O       -4.9140     2.5980     1.1280 O.3   1 <1>  -0.6800 
 15 C        1.8490     2.2450     0.1050 C.ar  1 <1>  -0.1430 
 16 C        0.4680     4.2130     0.1680 C.ar  1 <1>  -0.1430 
 17 C       -5.8740    -2.6630    -0.0870 C.2   1 <1>   0.0770 
 18 C       -5.2600    -2.7330    -1.2880 C.2   1 <1>  -0.3020 
 19 C        1.6510     3.5630     0.4790 C.ar  1 <1>  -0.1500 
 20 C        3.1490     1.5390     0.4460 C.3   1 <1>  -0.0970 
 21 C        0.2590     5.6600     0.5770 C.3   1 <1>  -0.0970 
 22 H       -2.3170     2.0640    -1.7300 H     1 <1>   0.0800 
 23 H       -1.0840     1.2930    -2.6650 H     1 <1>   0.0800 
 24 H       -2.8110    -1.2050     1.8520 H     1 <1>   0.0800 
 25 H       -1.8670    -1.9560     0.6000 H     1 <1>   0.0800 
 26 H       -2.4270     2.0850     0.7170 H     1 <1>   0.0800 
 27 H       -2.9380     1.0100     1.9800 H     1 <1>   0.0800 
 28 H       -5.0890     0.6200     0.8310 H     1 <1>   0.0800 
 29 H       -4.5380     1.5710    -0.5420 H     1 <1>   0.0800 
 30 H        1.0080     0.5530    -0.8840 H     1 <1>   0.1500 
 31 H       -1.4350     4.0440    -0.7710 H     1 <1>   0.1500 
 32 H       -3.2560    -2.1090    -1.7860 H     1 <1>   0.2700 
 33 H       -5.1100     2.4400     2.0730 H     1 <1>   0.4000 
 34 H       -6.8790    -2.9670     0.1590 H     1 <1>   0.1500 
 35 H       -5.6240    -3.0940    -2.2320 H     1 <1>   0.1500 
 36 H        2.4240     4.0880     1.0130 H     1 <1>   0.1500 
 37 H        2.9820     0.4850     0.5740 H     1 <1>   0.0800 
 38 H        3.5620     1.9310     1.3580 H     1 <1>   0.0800 
 39 H        3.8590     1.6850    -0.3480 H     1 <1>   0.0800 
 40 H       -0.7820     5.8500     0.7670 H     1 <1>   0.0800 
 41 H        0.5940     6.3110    -0.2090 H     1 <1>   0.0800 
 42 H        0.8120     5.8810     1.4720 H     1 <1>   0.0800 
@<TRIPOS>BOND
  1   1   2  2   
  2   2   3  am  
  3   2   4  1   
  4   3   5  1   
  5   3   6  1   
  6   4   7  1   
  7   4  22  1   
  8   4  23  1   
  9   5   8  1   
 10   5  24  1   
 11   5  25  1   
 12   6   9  1   
 13   6  26  1   
 14   6  27  1   
 15   7  10  ar  
 16   7  11  ar  
 17   8  12  2   
 18   8  13  1   
 19   9  14  1   
 20   9  28  1   
 21   9  29  1   
 22  10  15  ar  
 23  10  30  1   
 24  11  16  ar  
 25  11  31  1   
 26  12  17  1   
 27  13  18  1   
 28  13  32  1   
 29  14  33  1   
 30  15  19  ar  
 31  15  20  1   
 32  16  19  ar  
 33  16  21  1   
 34  17  18  2   
 35  17  34  1   
 36  18  35  1   
 37  19  36  1   
 38  20  37  1   
 39  20  38  1   
 40  20  39  1   
 41  21  40  1   
 42  21  41  1   
 43  21  42  1   
@<TRIPOS>SUBSTRUCTURE
  1 ****   3 GROUP 4 **** **** 0

# MOE 2024.06 (io_trps.svl 2023.06)
