@<TRIPOS>MOLECULE
NONAME
47 48 1 0 0 
SMALL
USER_CHARGES


@<TRIPOS>ATOM
  1 O        3.8790    -1.2890    -2.8400 O.2   1 <1>  -0.5700 
  2 C        3.0960    -0.8450    -2.0150 C.2   1 <1>   0.6160 
  3 N        2.9000     0.5300    -1.9780 N.am  1 <1>  -0.6600 
  4 C        2.4350    -1.7910    -1.1600 C.2   1 <1>   0.0290 
  5 C        2.4410     1.3530    -0.7940 C.3   1 <1>   0.3640 
  6 C        3.4580     1.3730    -3.0780 C.3   1 <1>   0.0600 
  7 C        1.0660    -2.0460    -1.4710 C.2   1 <1>   0.6160 
  8 C        3.0220    -2.4780    -0.1140 C.2   1 <1>  -0.1380 
  9 C        3.6280     1.8090     0.0690 C.ar  1 <1>   0.1660 
 10 C        1.3340     0.7350     0.0720 C.3   1 <1>   0.1200 
 11 O        0.4300    -1.4860    -2.3520 O.2   1 <1>  -0.5700 
 12 N        0.3820    -2.9490    -0.7140 N.am  1 <1>  -0.5390 
 13 C        2.2500    -3.3900     0.6640 C.2   1 <1>  -0.1380 
 14 C        4.5050    -2.2890     0.2150 C.3   1 <1>  -0.1020 
 15 N        4.3580     0.8800     0.6820 N.ar  1 <1>  -0.6200 
 16 C        3.8850     3.1700     0.1740 C.ar  1 <1>  -0.1500 
 17 O        0.7810     1.7170     0.9000 O.3   1 <1>  -0.5600 
 18 C        0.9400    -3.6220     0.3340 C.2   1 <1>  -0.0290 
 19 C        2.9160    -4.0840     1.8540 C.3   1 <1>  -0.1020 
 20 C        5.3710     1.3240     1.4080 C.ar  1 <1>   0.1600 
 21 C        4.9440     3.6180     0.9340 C.ar  1 <1>  -0.1500 
 22 C       -0.1590     1.2220     1.7980 C.3   1 <1>   0.0400 
 23 C        0.0040    -4.5900     1.0390 C.3   1 <1>  -0.1020 
 24 C        5.7040     2.6580     1.5650 C.ar  1 <1>  -0.1500 
 25 H        1.9870     2.2340    -1.2080 H     1 <1>   0.0800 
 26 H        3.5550     0.7990    -3.9840 H     1 <1>   0.0800 
 27 H        4.4310     1.7370    -2.7940 H     1 <1>   0.0800 
 28 H        2.8070     2.2050    -3.2790 H     1 <1>   0.0800 
 29 H        1.7380    -0.0450     0.6940 H     1 <1>   0.0800 
 30 H        0.5440     0.3630    -0.5540 H     1 <1>   0.0800 
 31 H       -0.5840    -3.0940    -1.0070 H     1 <1>   0.3700 
 32 H        4.6170    -1.8720     1.1990 H     1 <1>   0.0800 
 33 H        4.9970    -1.6260    -0.4720 H     1 <1>   0.0800 
 34 H        5.0180    -3.2330     0.1710 H     1 <1>   0.0800 
 35 H        3.2590     3.8810    -0.3330 H     1 <1>   0.1500 
 36 H        3.3920    -3.3590     2.4880 H     1 <1>   0.0800 
 37 H        3.6550    -4.7820     1.5040 H     1 <1>   0.0800 
 38 H        2.2160    -4.6160     2.4670 H     1 <1>   0.0800 
 39 H        5.9720     0.5830     1.9060 H     1 <1>   0.1500 
 40 H        5.1640     4.6670     1.0320 H     1 <1>   0.1500 
 41 H       -0.5330     2.0460     2.3790 H     1 <1>   0.0800 
 42 H        0.3150     0.5060     2.4470 H     1 <1>   0.0800 
 43 H       -0.9660     0.7650     1.2520 H     1 <1>   0.0800 
 44 H       -0.7910    -4.8960     0.3820 H     1 <1>   0.0800 
 45 H       -0.4260    -4.1180     1.9040 H     1 <1>   0.0800 
 46 H        0.5260    -5.4790     1.3430 H     1 <1>   0.0800 
 47 H        6.5440     2.9380     2.1730 H     1 <1>   0.1500 
@<TRIPOS>BOND
  1   1   2  2   
  2   2   3  am  
  3   2   4  1   
  4   3   5  1   
  5   3   6  1   
  6   4   7  1   
  7   4   8  2   
  8   5   9  1   
  9   5  10  1   
 10   5  25  1   
 11   6  26  1   
 12   6  27  1   
 13   6  28  1   
 14   7  11  2   
 15   7  12  am  
 16   8  13  1   
 17   8  14  1   
 18   9  15  ar  
 19   9  16  ar  
 20  10  17  1   
 21  10  29  1   
 22  10  30  1   
 23  12  18  1   
 24  12  31  1   
 25  13  18  2   
 26  13  19  1   
 27  14  32  1   
 28  14  33  1   
 29  14  34  1   
 30  15  20  ar  
 31  16  21  ar  
 32  16  35  1   
 33  17  22  1   
 34  18  23  1   
 35  19  36  1   
 36  19  37  1   
 37  19  38  1   
 38  20  24  ar  
 39  20  39  1   
 40  21  24  ar  
 41  21  40  1   
 42  22  41  1   
 43  22  42  1   
 44  22  43  1   
 45  23  44  1   
 46  23  45  1   
 47  23  46  1   
 48  24  47  1   
@<TRIPOS>SUBSTRUCTURE
  1 ****   4 GROUP 4 **** **** 0

# MOE 2024.06 (io_trps.svl 2023.06)
