@<TRIPOS>MOLECULE
NONAME
46 47 1 0 0 
SMALL
USER_CHARGES


@<TRIPOS>ATOM
  1 CL      -0.1120     0.7820     1.7860 Cl    1 <1>  -0.1770 
  2 C       -0.0200     2.3090     0.9460 C.ar  1 <1>   0.1770 
  3 C        0.9390     2.4870    -0.0330 C.ar  1 <1>  -0.1500 
  4 C       -0.9080     3.3170     1.2710 C.ar  1 <1>  -0.1500 
  5 C        1.0090     3.7000    -0.6990 C.ar  1 <1>  -0.1500 
  6 C       -0.8330     4.5270     0.6030 C.ar  1 <1>  -0.1500 
  7 C        0.1250     4.7240    -0.3840 C.ar  1 <1>  -0.1430 
  8 C        0.2090     6.0530    -1.1110 C.3   1 <1>   0.2840 
  9 N        1.1440     6.9150    -0.3670 N.am  1 <1>  -0.7300 
 10 C        1.6230     8.0870    -0.8340 C.2   1 <1>   0.5690 
 11 O        1.2960     8.5300    -1.9070 O.2   1 <1>  -0.5700 
 12 C        2.5980     8.8710     0.0130 C.3   1 <1>  -0.0990 
 13 C        2.8760    10.2220    -0.6510 C.3   1 <1>   0.3430 
 14 N        3.7860    11.0840     0.1710 N.4   1 <1>  -0.9590 
 15 C        3.7400    12.4840    -0.3700 C.3   1 <1>   0.3430 
 16 C        5.1870    10.5470     0.1820 C.3   1 <1>   0.2630 
 17 C        4.3750    13.5060     0.5800 C.3   1 <1>   0.0200 
 18 C        4.2600    14.8890    -0.0290 C.2   1 <1>  -0.1400 
 19 S        5.1400    15.1720    -1.5070 S.3   1 <1>  -0.0800 
 20 C        3.6130    16.0190     0.3070 C.2   1 <1>   0.0460 
 21 C        4.5330    16.8100    -1.5250 C.2   1 <1>   0.2280 
 22 N        3.7700    17.0940    -0.5480 N.2   1 <1>  -0.5650 
 23 C        2.7270    16.2680     1.5100 C.3   1 <1>  -0.0590 
 24 H        1.6170     1.6860    -0.2680 H     1 <1>   0.1500 
 25 H       -1.6450     3.1510     2.0360 H     1 <1>   0.1500 
 26 H        1.7560     3.8420    -1.4620 H     1 <1>   0.1500 
 27 H       -1.5240     5.3140     0.8550 H     1 <1>   0.1500 
 28 H       -0.7600     6.5220    -1.1540 H     1 <1>   0.0800 
 29 H        0.5630     5.9130    -2.1190 H     1 <1>   0.0800 
 30 H        1.4280     6.5210     0.5320 H     1 <1>   0.3700 
 31 H        3.4990     8.2940     0.0990 H     1 <1>   0.0800 
 32 H        2.1640     9.0170     0.9840 H     1 <1>   0.0800 
 33 H        1.9320    10.7250    -0.7940 H     1 <1>   0.0800 
 34 H        3.3020    10.0580    -1.6290 H     1 <1>   0.0800 
 35 H        3.4190    11.1020     1.1330 H     1 <1>   0.4500 
 36 H        2.7140    12.7740    -0.5330 H     1 <1>   0.0800 
 37 H        4.2440    12.5230    -1.3220 H     1 <1>   0.0800 
 38 H        5.5860    10.5190    -0.8200 H     1 <1>   0.0800 
 39 H        5.2060     9.5480     0.5860 H     1 <1>   0.0800 
 40 H        5.8260    11.1670     0.7890 H     1 <1>   0.0800 
 41 H        5.4170    13.2920     0.7340 H     1 <1>   0.0800 
 42 H        3.8700    13.4890     1.5280 H     1 <1>   0.0800 
 43 H        4.8390    17.4430    -2.3400 H     1 <1>   0.1500 
 44 H        2.6470    15.3960     2.1290 H     1 <1>   0.0800 
 45 H        1.7450    16.5540     1.1800 H     1 <1>   0.0800 
 46 H        3.1380    17.0720     2.0950 H     1 <1>   0.0800 
@<TRIPOS>BOND
  1   1   2  1   
  2   2   3  ar  
  3   2   4  ar  
  4   3   5  ar  
  5   3  24  1   
  6   4   6  ar  
  7   4  25  1   
  8   5   7  ar  
  9   5  26  1   
 10   6   7  ar  
 11   6  27  1   
 12   7   8  1   
 13   8   9  1   
 14   8  28  1   
 15   8  29  1   
 16   9  10  am  
 17   9  30  1   
 18  10  11  2   
 19  10  12  1   
 20  12  13  1   
 21  12  31  1   
 22  12  32  1   
 23  13  14  1   
 24  13  33  1   
 25  13  34  1   
 26  14  15  1   
 27  14  16  1   
 28  14  35  1   
 29  15  17  1   
 30  15  36  1   
 31  15  37  1   
 32  16  38  1   
 33  16  39  1   
 34  16  40  1   
 35  17  18  1   
 36  17  41  1   
 37  17  42  1   
 38  18  19  1   
 39  18  20  2   
 40  19  21  1   
 41  20  22  1   
 42  20  23  1   
 43  21  22  2   
 44  21  43  1   
 45  23  44  1   
 46  23  45  1   
 47  23  46  1   
@<TRIPOS>SUBSTRUCTURE
  1 ****  12 GROUP 4 **** **** 0

# MOE 2024.06 (io_trps.svl 2023.06)
