@<TRIPOS>MOLECULE
NONAME
55 57 1 0 0 
SMALL
USER_CHARGES


@<TRIPOS>ATOM
  1 O       -5.2240     2.2460     1.2260 O.2   1 <1>  -0.5700 
  2 C       -4.0200     2.1450     1.3490 C.2   1 <1>   0.6900 
  3 N       -3.3660     0.9750     1.0870 N.am  1 <1>  -0.6600 
  4 N       -3.3410     3.2170     1.7720 N.am  1 <1>  -0.8000 
  5 C       -4.1430    -0.2620     0.8140 C.3   1 <1>   0.1400 
  6 C       -1.9510     0.9000     0.6260 C.3   1 <1>   0.1400 
  7 C       -4.2010    -0.4830    -0.6990 C.3   1 <1>  -0.0190 
  8 C       -1.9120     0.5860    -0.8780 C.3   1 <1>  -0.1600 
  9 C       -5.1290    -1.6610    -0.9860 C.2   1 <1>   0.5690 
 10 C       -2.7650    -0.6420    -1.2460 C.3   1 <1>  -0.1600 
 11 O       -4.6290    -2.7540    -1.1230 O.2   1 <1>  -0.5700 
 12 N       -6.4960    -1.4950    -1.0500 N.am  1 <1>  -0.6600 
 13 C       -7.3530    -2.6740    -1.3750 C.3   1 <1>   0.1400 
 14 C       -7.2290    -0.2220    -0.7550 C.3   1 <1>   0.1400 
 15 C       -7.6570    -3.4880    -0.1090 C.3   1 <1>   0.1400 
 16 C       -8.3520    -0.3770     0.2830 C.3   1 <1>  -0.1600 
 17 N       -8.6080    -2.7750     0.8010 N.am  1 <1>  -0.6600 
 18 C       -8.1300    -1.4680     1.3360 C.3   1 <1>   0.1400 
 19 C       -9.8060    -3.3270     1.2120 C.2   1 <1>   0.7160 
 20 O      -10.3450    -2.8950     2.2150 O.2   1 <1>  -0.5700 
 21 C      -10.4390    -4.3990     0.4780 C.2   1 <1>  -0.0860 
 22 C      -10.9700    -5.5670     0.9330 C.2   1 <1>  -0.0400 
 23 C      -10.6560    -4.4460    -0.9160 C.2   1 <1>  -0.1500 
 24 O      -11.4520    -6.2840    -0.0530 O.3   1 <1>  -0.2800 
 25 C      -11.0750    -6.1210     2.3390 C.3   1 <1>  -0.0600 
 26 C      -11.2710    -5.6170    -1.1710 C.2   1 <1>  -0.0400 
 27 C      -11.7570    -6.2290    -2.4650 C.3   1 <1>  -0.0600 
 28 H       -3.8880     4.0210     2.0710 H     1 <1>   0.3700 
 29 H       -2.4260     3.1030     2.1950 H     1 <1>   0.3700 
 30 H       -5.1340    -0.1760     1.2240 H     1 <1>   0.0800 
 31 H       -3.6640    -1.1000     1.2900 H     1 <1>   0.0800 
 32 H       -1.4480     0.1210     1.1740 H     1 <1>   0.0800 
 33 H       -1.4370     1.8260     0.8130 H     1 <1>   0.0800 
 34 H       -4.6160     0.3900    -1.1650 H     1 <1>   0.0800 
 35 H       -0.8930     0.4200    -1.1800 H     1 <1>   0.0800 
 36 H       -2.2730     1.4470    -1.4150 H     1 <1>   0.0800 
 37 H       -2.7960    -0.7600    -2.3150 H     1 <1>   0.0800 
 38 H       -2.3160    -1.5270    -0.8290 H     1 <1>   0.0800 
 39 H       -6.8320    -3.3050    -2.0740 H     1 <1>   0.0800 
 40 H       -8.2670    -2.3570    -1.8430 H     1 <1>   0.0800 
 41 H       -7.6430     0.1640    -1.6710 H     1 <1>   0.0800 
 42 H       -6.5540     0.5240    -0.3790 H     1 <1>   0.0800 
 43 H       -6.7380    -3.6810     0.4150 H     1 <1>   0.0800 
 44 H       -8.0580    -4.4420    -0.3980 H     1 <1>   0.0800 
 45 H       -9.2910    -0.5450    -0.2140 H     1 <1>   0.0800 
 46 H       -8.4440     0.5660     0.7920 H     1 <1>   0.0800 
 47 H       -8.6810    -1.2110     2.2240 H     1 <1>   0.0800 
 48 H       -7.0910    -1.5350     1.6090 H     1 <1>   0.0800 
 49 H      -10.3780    -3.6710    -1.6060 H     1 <1>   0.1500 
 50 H      -10.6350    -5.4430     3.0480 H     1 <1>   0.0800 
 51 H      -10.5660    -7.0650     2.3960 H     1 <1>   0.0800 
 52 H      -12.1090    -6.2640     2.5920 H     1 <1>   0.0800 
 53 H      -11.5450    -5.5740    -3.2900 H     1 <1>   0.0800 
 54 H      -12.8170    -6.3940    -2.4110 H     1 <1>   0.0800 
 55 H      -11.2650    -7.1710    -2.6270 H     1 <1>   0.0800 
@<TRIPOS>BOND
  1   1   2  2   
  2   2   3  am  
  3   2   4  am  
  4   3   5  1   
  5   3   6  1   
  6   4  28  1   
  7   4  29  1   
  8   5   7  1   
  9   5  30  1   
 10   5  31  1   
 11   6   8  1   
 12   6  32  1   
 13   6  33  1   
 14   7   9  1   
 15   7  10  1   
 16   7  34  1   
 17   8  10  1   
 18   8  35  1   
 19   8  36  1   
 20   9  11  2   
 21   9  12  am  
 22  10  37  1   
 23  10  38  1   
 24  12  13  1   
 25  12  14  1   
 26  13  15  1   
 27  13  39  1   
 28  13  40  1   
 29  14  16  1   
 30  14  41  1   
 31  14  42  1   
 32  15  17  1   
 33  15  43  1   
 34  15  44  1   
 35  16  18  1   
 36  16  45  1   
 37  16  46  1   
 38  17  18  1   
 39  17  19  am  
 40  18  47  1   
 41  18  48  1   
 42  19  20  2   
 43  19  21  1   
 44  21  22  2   
 45  21  23  1   
 46  22  24  1   
 47  22  25  1   
 48  23  26  2   
 49  23  49  1   
 50  24  26  1   
 51  25  50  1   
 52  25  51  1   
 53  25  52  1   
 54  26  27  1   
 55  27  53  1   
 56  27  54  1   
 57  27  55  1   
@<TRIPOS>SUBSTRUCTURE
  1 ****  12 GROUP 4 **** **** 0

# MOE 2024.06 (io_trps.svl 2023.06)
