@<TRIPOS>MOLECULE
NONAME
45 46 1 0 0 
SMALL
USER_CHARGES


@<TRIPOS>ATOM
  1 F       -0.1980     0.7250     0.0950 F     1 <1>  -0.1900 
  2 C       -1.4920     0.9220     0.1000 C.ar  1 <1>   0.1900 
  3 C       -2.0950     1.9120    -0.6840 C.ar  1 <1>   0.0820 
  4 C       -2.2350     0.1010     0.9260 C.ar  1 <1>  -0.1500 
  5 O       -1.4740     2.7800    -1.5330 O.3   1 <1>  -0.3630 
  6 C       -3.4720     2.0420    -0.6060 C.ar  1 <1>  -0.1500 
  7 C       -3.6070     0.2580     0.9800 C.ar  1 <1>  -0.1500 
  8 C       -0.0830     2.7640    -1.7670 C.3   1 <1>   0.0400 
  9 C       -4.2560     1.2270     0.2130 C.ar  1 <1>   0.0530 
 10 C       -5.6850     1.4080     0.2670 C.2   1 <1>   0.0870 
 11 O       -6.1700     2.6230     0.3210 O.3   1 <1>  -0.0190 
 12 C       -6.7480     0.5550     0.2790 C.2   1 <1>  -0.0860 
 13 N       -7.4730     2.6530     0.3810 N.2   1 <1>  -0.4100 
 14 C       -7.8470     1.4230     0.3600 C.2   1 <1>   0.3720 
 15 C       -6.8090    -0.8750     0.2040 C.2   1 <1>   0.7160 
 16 N       -9.1990     1.0460     0.4110 N.pl3 1 <1>  -0.8210 
 17 O       -5.8160    -1.5560     0.0400 O.2   1 <1>  -0.5700 
 18 N       -8.0050    -1.5120     0.3040 N.am  1 <1>  -0.7300 
 19 C       -9.8610     1.4640     1.6790 C.3   1 <1>   0.1290 
 20 C       -9.9690     1.5260    -0.7710 C.3   1 <1>   0.1290 
 21 C       -8.2310    -2.9750     0.2780 C.3   1 <1>   0.2200 
 22 C       -8.2940    -3.4390    -1.1920 C.3   1 <1>   0.1200 
 23 C       -9.5140    -3.2900     1.0700 C.3   1 <1>   0.1200 
 24 O       -8.3970    -4.8260    -1.2860 O.3   1 <1>  -0.6800 
 25 O       -9.7240    -4.6590     1.1350 O.3   1 <1>  -0.6800 
 26 H       -1.7440    -0.6520     1.5160 H     1 <1>   0.1500 
 27 H       -3.9480     2.8000    -1.2020 H     1 <1>   0.1500 
 28 H       -4.1850    -0.3790     1.6260 H     1 <1>   0.1500 
 29 H        0.1430     3.5290    -2.4880 H     1 <1>   0.0800 
 30 H        0.1960     1.8020    -2.1580 H     1 <1>   0.0800 
 31 H        0.4300     2.9710    -0.8450 H     1 <1>   0.0800 
 32 H       -8.8230    -0.8880     0.3730 H     1 <1>   0.3700 
 33 H       -9.2710     1.1470     2.5220 H     1 <1>   0.0800 
 34 H      -10.8370     1.0160     1.7520 H     1 <1>   0.0800 
 35 H       -9.9600     2.5360     1.7120 H     1 <1>   0.0800 
 36 H       -9.4600     1.2460    -1.6780 H     1 <1>   0.0800 
 37 H      -10.0600     2.6000    -0.7450 H     1 <1>   0.0800 
 38 H      -10.9520     1.0880    -0.7760 H     1 <1>   0.0800 
 39 H       -7.3950    -3.4480     0.7640 H     1 <1>   0.0800 
 40 H       -7.4040    -3.1380    -1.7180 H     1 <1>   0.0800 
 41 H       -9.1550    -3.0140    -1.6780 H     1 <1>   0.0800 
 42 H      -10.3710    -2.8500     0.5900 H     1 <1>   0.0800 
 43 H       -9.4370    -2.9250     2.0790 H     1 <1>   0.0800 
 44 H       -7.5310    -5.2440    -1.0990 H     1 <1>   0.4000 
 45 H       -9.5520    -5.0470     0.2420 H     1 <1>   0.4000 
@<TRIPOS>BOND
  1   1   2  1   
  2   2   3  ar  
  3   2   4  ar  
  4   3   5  1   
  5   3   6  ar  
  6   4   7  ar  
  7   4  26  1   
  8   5   8  1   
  9   6   9  ar  
 10   6  27  1   
 11   7   9  ar  
 12   7  28  1   
 13   8  29  1   
 14   8  30  1   
 15   8  31  1   
 16   9  10  1   
 17  10  11  1   
 18  10  12  2   
 19  11  13  1   
 20  12  14  1   
 21  12  15  1   
 22  13  14  2   
 23  14  16  1   
 24  15  17  2   
 25  15  18  am  
 26  16  19  1   
 27  16  20  1   
 28  18  21  1   
 29  18  32  1   
 30  19  33  1   
 31  19  34  1   
 32  19  35  1   
 33  20  36  1   
 34  20  37  1   
 35  20  38  1   
 36  21  22  1   
 37  21  23  1   
 38  21  39  1   
 39  22  24  1   
 40  22  40  1   
 41  22  41  1   
 42  23  25  1   
 43  23  42  1   
 44  23  43  1   
 45  24  44  1   
 46  25  45  1   
@<TRIPOS>SUBSTRUCTURE
  1 ****  12 GROUP 4 **** **** 0

# MOE 2024.06 (io_trps.svl 2023.06)
