@<TRIPOS>MOLECULE
NONAME
50 52 1 0 0 
SMALL
USER_CHARGES


@<TRIPOS>ATOM
  1 S        0.0010    -0.6240    -0.5620 S.3   1 <1>  -0.0800 
  2 C       -1.3450    -1.2790     0.3520 C.2   1 <1>  -0.1400 
  3 C       -0.5010     1.0240    -0.2200 C.2   1 <1>  -0.1400 
  4 C       -2.0950    -0.2800     0.8630 C.2   1 <1>  -0.1500 
  5 C       -1.4170    -2.7900     0.4020 C.3   1 <1>   0.5230 
  6 C       -1.6150     1.0270     0.5320 C.2   1 <1>  -0.1500 
  7 C        0.3300     2.1600    -0.7960 C.3   1 <1>   0.0200 
  8 N       -2.7960    -3.2130     0.7460 N.4   1 <1>  -0.9590 
  9 C        1.3870     2.6910     0.1910 C.3   1 <1>  -0.0800 
 10 C       -3.8320    -2.8320    -0.2500 C.3   1 <1>   0.3430 
 11 C       -2.9740    -4.6710     0.9900 C.3   1 <1>   0.3430 
 12 C        2.0980     3.9140    -0.4040 C.3   1 <1>  -0.2400 
 13 C        2.4280     1.6270     0.5670 C.3   1 <1>  -0.2400 
 14 C       -5.0380    -3.6730     0.1640 C.3   1 <1>   0.2000 
 15 C       -4.4110    -5.0150     0.5520 C.3   1 <1>  -0.0800 
 16 O       -5.5710    -3.1010     1.3130 O.3   1 <1>  -0.6800 
 17 C       -4.4290    -6.0180    -0.6200 C.3   1 <1>   0.0200 
 18 C       -3.5320    -7.2070    -0.3380 C.2   1 <1>  -0.0400 
 19 O       -3.5570    -7.7750     0.8370 O.3   1 <1>  -0.0190 
 20 C       -2.6230    -7.8490    -1.0870 C.2   1 <1>  -0.1500 
 21 N       -2.7020    -8.7490     0.9220 N.2   1 <1>  -0.4100 
 22 C       -2.1310    -8.8270    -0.2260 C.2   1 <1>   0.1080 
 23 C       -1.0720    -9.8480    -0.5810 C.3   1 <1>  -0.0590 
 24 H       -2.9770    -0.3800     1.4710 H     1 <1>   0.1500 
 25 H       -0.7170    -3.1540     1.1360 H     1 <1>   0.0800 
 26 H       -1.1420    -3.1920    -0.5600 H     1 <1>   0.0800 
 27 H       -2.1280     1.9090     0.8770 H     1 <1>   0.1500 
 28 H        0.8010     1.8360    -1.7070 H     1 <1>   0.0800 
 29 H       -0.3400     2.9640    -1.0480 H     1 <1>   0.0800 
 30 H       -3.0740    -2.7290     1.6130 H     1 <1>   0.4500 
 31 H        0.8820     3.0020     1.0910 H     1 <1>   0.0800 
 32 H       -4.0600    -1.7780    -0.2210 H     1 <1>   0.0800 
 33 H       -3.5150    -3.1070    -1.2420 H     1 <1>   0.0800 
 34 H       -2.2630    -5.2400     0.4120 H     1 <1>   0.0800 
 35 H       -2.8330    -4.9010     2.0350 H     1 <1>   0.0800 
 36 H        2.6240     3.6470    -1.3040 H     1 <1>   0.0800 
 37 H        2.8080     4.3120     0.3010 H     1 <1>   0.0800 
 38 H        1.3880     4.6870    -0.6360 H     1 <1>   0.0800 
 39 H        2.9140     1.2430    -0.3120 H     1 <1>   0.0800 
 40 H        1.9620     0.8110     1.0890 H     1 <1>   0.0800 
 41 H        3.1750     2.0490     1.2160 H     1 <1>   0.0800 
 42 H       -5.8040    -3.7290    -0.5930 H     1 <1>   0.0800 
 43 H       -4.9390    -5.4630     1.3770 H     1 <1>   0.0800 
 44 H       -6.4260    -3.5180     1.5580 H     1 <1>   0.4000 
 45 H       -4.1050    -5.5520    -1.5340 H     1 <1>   0.0800 
 46 H       -5.4350    -6.3740    -0.7680 H     1 <1>   0.0800 
 47 H       -2.3150    -7.6890    -2.1050 H     1 <1>   0.1500 
 48 H       -0.1710    -9.3520    -0.8910 H     1 <1>   0.0800 
 49 H       -1.4240   -10.4760    -1.3780 H     1 <1>   0.0800 
 50 H       -0.8540   -10.4630     0.2740 H     1 <1>   0.0800 
@<TRIPOS>BOND
  1   1   2  1   
  2   1   3  1   
  3   2   4  2   
  4   2   5  1   
  5   3   6  2   
  6   3   7  1   
  7   4   6  1   
  8   4  24  1   
  9   5   8  1   
 10   5  25  1   
 11   5  26  1   
 12   6  27  1   
 13   7   9  1   
 14   7  28  1   
 15   7  29  1   
 16   8  10  1   
 17   8  11  1   
 18   8  30  1   
 19   9  12  1   
 20   9  13  1   
 21   9  31  1   
 22  10  14  1   
 23  10  32  1   
 24  10  33  1   
 25  11  15  1   
 26  11  34  1   
 27  11  35  1   
 28  12  36  1   
 29  12  37  1   
 30  12  38  1   
 31  13  39  1   
 32  13  40  1   
 33  13  41  1   
 34  14  15  1   
 35  14  16  1   
 36  14  42  1   
 37  15  17  1   
 38  15  43  1   
 39  16  44  1   
 40  17  18  1   
 41  17  45  1   
 42  17  46  1   
 43  18  19  1   
 44  18  20  2   
 45  19  21  1   
 46  20  22  1   
 47  20  47  1   
 48  21  22  2   
 49  22  23  1   
 50  23  48  1   
 51  23  49  1   
 52  23  50  1   
@<TRIPOS>SUBSTRUCTURE
  1 ****   5 GROUP 4 **** **** 0

# MOE 2024.06 (io_trps.svl 2023.06)
