@<TRIPOS>MOLECULE
NONAME
46 48 1 0 0 
SMALL
USER_CHARGES


@<TRIPOS>ATOM
  1 O       -0.4130     0.2240     0.7900 O.2   1 <1>  -0.5700 
  2 C       -1.4570     0.8370     0.6620 C.2   1 <1>   0.7150 
  3 N       -2.6130     0.1250     0.4540 N.am  1 <1>  -0.6600 
  4 C       -1.4650     2.2720     0.7100 C.2   1 <1>  -0.2370 
  5 C       -3.8560     0.6790    -0.1380 C.3   1 <1>   0.1400 
  6 C       -2.6290    -1.3580     0.4060 C.3   1 <1>   0.1400 
  7 N       -0.4670     3.0620     0.2270 N.pl3 1 <1>   0.3140 
  8 C       -2.3900     3.1340     1.2200 C.2   1 <1>  -0.1500 
  9 C       -4.5380    -0.5160    -0.8020 C.3   1 <1>   0.2000 
 10 C       -4.0460    -1.7350    -0.0290 C.3   1 <1>  -0.0800 
 11 N       -0.7380     4.3700     0.4030 N.2   1 <1>  -0.7070 
 12 C        0.7950     2.5910    -0.4130 C.3   1 <1>   0.0960 
 13 C       -1.8870     4.4000     0.9980 C.2   1 <1>   0.1080 
 14 O       -5.9180    -0.4240    -0.7280 O.3   1 <1>  -0.6800 
 15 C       -4.1150    -3.0400    -0.8380 C.3   1 <1>   0.0210 
 16 C        1.5020     3.6670    -1.2530 C.3   1 <1>  -0.2400 
 17 C       -2.5540     5.6980     1.3870 C.3   1 <1>  -0.0590 
 18 C       -3.4660    -4.1880    -0.0880 C.2   1 <1>   0.1080 
 19 N       -3.7480    -4.4760     1.1440 N.2   1 <1>  -0.7070 
 20 C       -2.5040    -5.0400    -0.6200 C.2   1 <1>  -0.1500 
 21 N       -2.9660    -5.5330     1.4350 N.pl3 1 <1>   0.3000 
 22 C       -2.2020    -5.8920     0.3820 C.2   1 <1>  -0.3320 
 23 C       -1.2150    -7.0440     0.4000 C.3   1 <1>  -0.0600 
 24 H       -4.4730     1.0760     0.6490 H     1 <1>   0.0800 
 25 H       -3.6310     1.4440    -0.8600 H     1 <1>   0.0800 
 26 H       -1.9020    -1.6970    -0.3130 H     1 <1>   0.0800 
 27 H       -2.3930    -1.7760     1.3700 H     1 <1>   0.0800 
 28 H       -3.3180     2.8990     1.7070 H     1 <1>   0.1500 
 29 H       -4.2540    -0.5630    -1.8400 H     1 <1>   0.0800 
 30 H       -4.6260    -1.8510     0.8710 H     1 <1>   0.0800 
 31 H        1.4510     2.2490     0.3660 H     1 <1>   0.0800 
 32 H        0.5600     1.7550    -1.0450 H     1 <1>   0.0800 
 33 H       -6.2170    -0.5530     0.1930 H     1 <1>   0.4000 
 34 H       -3.6200    -2.9120    -1.7840 H     1 <1>   0.0800 
 35 H       -5.1430    -3.2890    -1.0290 H     1 <1>   0.0800 
 36 H        1.7980     4.4910    -0.6280 H     1 <1>   0.0800 
 37 H        0.8440     4.0280    -2.0240 H     1 <1>   0.0800 
 38 H        2.3810     3.2540    -1.7130 H     1 <1>   0.0800 
 39 H       -3.4950     5.5100     1.8690 H     1 <1>   0.0800 
 40 H       -2.7180     6.2930     0.5080 H     1 <1>   0.0800 
 41 H       -1.9140     6.2400     2.0590 H     1 <1>   0.0800 
 42 H       -2.1040    -5.0060    -1.6170 H     1 <1>   0.1500 
 43 H       -2.9760    -5.9830     2.3580 H     1 <1>   0.2700 
 44 H       -0.7300    -7.1300    -0.5570 H     1 <1>   0.0800 
 45 H       -1.7240    -7.9680     0.6090 H     1 <1>   0.0800 
 46 H       -0.4620    -6.8790     1.1500 H     1 <1>   0.0800 
@<TRIPOS>BOND
  1   1   2  2   
  2   2   3  am  
  3   2   4  1   
  4   3   5  1   
  5   3   6  1   
  6   4   7  1   
  7   4   8  2   
  8   5   9  1   
  9   5  24  1   
 10   5  25  1   
 11   6  10  1   
 12   6  26  1   
 13   6  27  1   
 14   7  11  1   
 15   7  12  1   
 16   8  13  1   
 17   8  28  1   
 18   9  10  1   
 19   9  14  1   
 20   9  29  1   
 21  10  15  1   
 22  10  30  1   
 23  11  13  2   
 24  12  16  1   
 25  12  31  1   
 26  12  32  1   
 27  13  17  1   
 28  14  33  1   
 29  15  18  1   
 30  15  34  1   
 31  15  35  1   
 32  16  36  1   
 33  16  37  1   
 34  16  38  1   
 35  17  39  1   
 36  17  40  1   
 37  17  41  1   
 38  18  19  2   
 39  18  20  1   
 40  19  21  1   
 41  20  22  2   
 42  20  42  1   
 43  21  22  1   
 44  21  43  1   
 45  22  23  1   
 46  23  44  1   
 47  23  45  1   
 48  23  46  1   
@<TRIPOS>SUBSTRUCTURE
  1 ****   3 GROUP 4 **** **** 0

# MOE 2024.06 (io_trps.svl 2023.06)
