@<TRIPOS>MOLECULE
NONAME
53 55 1 0 0 
SMALL
USER_CHARGES


@<TRIPOS>ATOM
  1 O       -1.5350     1.0340     1.7820 O.2   1 <1>  -0.5700 
  2 C       -2.1680     1.7690     1.0420 C.2   1 <1>   0.6160 
  3 N       -3.5230     1.5350     0.8800 N.am  1 <1>  -0.6600 
  4 C       -1.4980     2.8750     0.4200 C.2   1 <1>   0.0290 
  5 C       -4.1660     0.3760     1.5650 C.3   1 <1>   0.1400 
  6 C       -4.3870     2.3180    -0.0520 C.3   1 <1>   0.1400 
  7 C       -1.0940     2.6740    -0.9320 C.2   1 <1>   0.6160 
  8 C       -1.2280     4.0820     1.0340 C.2   1 <1>  -0.1380 
  9 C       -3.9610    -0.9170     0.7620 C.3   1 <1>   0.1400 
 10 C       -5.1820     1.4440    -1.0350 C.3   1 <1>  -0.1600 
 11 O       -1.3270     1.6710    -1.5910 O.2   1 <1>  -0.5700 
 12 N       -0.4280     3.6790    -1.5660 N.am  1 <1>  -0.5390 
 13 C       -0.5550     5.1110     0.3120 C.2   1 <1>  -0.1380 
 14 C       -1.6370     4.3290     2.4890 C.3   1 <1>  -0.1020 
 15 N       -4.7950    -0.9400    -0.4810 N.am  1 <1>  -0.6600 
 16 C       -4.4900     0.1440    -1.4600 C.3   1 <1>   0.1400 
 17 C       -0.1470     4.8780    -0.9760 C.2   1 <1>  -0.0290 
 18 C       -0.3060     6.4520     1.0060 C.3   1 <1>  -0.1020 
 19 C       -5.8040    -1.8430    -0.7480 C.2   1 <1>   0.5690 
 20 C        0.6180     5.8530    -1.8580 C.3   1 <1>  -0.1020 
 21 O       -6.6010    -1.6250    -1.6360 O.2   1 <1>  -0.5700 
 22 C       -5.9790    -3.1230     0.1080 C.3   1 <1>   0.2610 
 23 O       -6.3950    -4.2370    -0.6410 O.3   1 <1>  -0.5600 
 24 C       -7.0370    -2.9560     1.2090 C.3   1 <1>  -0.1600 
 25 C       -7.7700    -4.3840    -0.5490 C.3   1 <1>   0.1200 
 26 C       -8.0930    -4.0030     0.8850 C.3   1 <1>  -0.1600 
 27 H       -5.2160     0.5600     1.7080 H     1 <1>   0.0800 
 28 H       -3.7220     0.2540     2.5380 H     1 <1>   0.0800 
 29 H       -3.7820     2.9950    -0.6280 H     1 <1>   0.0800 
 30 H       -5.0710     2.9160     0.5250 H     1 <1>   0.0800 
 31 H       -4.2120    -1.7380     1.4050 H     1 <1>   0.0800 
 32 H       -2.9210    -1.0170     0.5010 H     1 <1>   0.0800 
 33 H       -5.3590     2.0330    -1.9160 H     1 <1>   0.0800 
 34 H       -6.1500     1.2140    -0.6250 H     1 <1>   0.0800 
 35 H       -0.1500     3.4620    -2.5220 H     1 <1>   0.3700 
 36 H       -0.7820     4.6340     3.0660 H     1 <1>   0.0800 
 37 H       -2.0390     3.4510     2.9600 H     1 <1>   0.0800 
 38 H       -2.3860     5.0980     2.5390 H     1 <1>   0.0800 
 39 H       -3.4260     0.2800    -1.5440 H     1 <1>   0.0800 
 40 H       -4.8520    -0.1450    -2.4330 H     1 <1>   0.0800 
 41 H       -1.2110     6.8140     1.4590 H     1 <1>   0.0800 
 42 H        0.0200     7.2140     0.3250 H     1 <1>   0.0800 
 43 H        0.4440     6.3370     1.7670 H     1 <1>   0.0800 
 44 H        1.1950     5.3230    -2.5940 H     1 <1>   0.0800 
 45 H        1.3050     6.4430    -1.2810 H     1 <1>   0.0800 
 46 H       -0.0710     6.5050    -2.3650 H     1 <1>   0.0800 
 47 H       -5.0340    -3.4030     0.5310 H     1 <1>   0.0800 
 48 H       -7.4600    -1.9670     1.1680 H     1 <1>   0.0800 
 49 H       -6.6100    -3.1130     2.1830 H     1 <1>   0.0800 
 50 H       -8.0380    -5.3990    -0.7860 H     1 <1>   0.0800 
 51 H       -8.2260    -3.7030    -1.2500 H     1 <1>   0.0800 
 52 H       -9.0960    -3.6260     0.9800 H     1 <1>   0.0800 
 53 H       -7.9740    -4.8670     1.5150 H     1 <1>   0.0800 
@<TRIPOS>BOND
  1   1   2  2   
  2   2   3  am  
  3   2   4  1   
  4   3   5  1   
  5   3   6  1   
  6   4   7  1   
  7   4   8  2   
  8   5   9  1   
  9   5  27  1   
 10   5  28  1   
 11   6  10  1   
 12   6  29  1   
 13   6  30  1   
 14   7  11  2   
 15   7  12  am  
 16   8  13  1   
 17   8  14  1   
 18   9  15  1   
 19   9  31  1   
 20   9  32  1   
 21  10  16  1   
 22  10  33  1   
 23  10  34  1   
 24  12  17  1   
 25  12  35  1   
 26  13  17  2   
 27  13  18  1   
 28  14  36  1   
 29  14  37  1   
 30  14  38  1   
 31  15  16  1   
 32  15  19  am  
 33  16  39  1   
 34  16  40  1   
 35  17  20  1   
 36  18  41  1   
 37  18  42  1   
 38  18  43  1   
 39  19  21  2   
 40  19  22  1   
 41  20  44  1   
 42  20  45  1   
 43  20  46  1   
 44  22  23  1   
 45  22  24  1   
 46  22  47  1   
 47  23  25  1   
 48  24  26  1   
 49  24  48  1   
 50  24  49  1   
 51  25  26  1   
 52  25  50  1   
 53  25  51  1   
 54  26  52  1   
 55  26  53  1   
@<TRIPOS>SUBSTRUCTURE
  1 ****   3 GROUP 4 **** **** 0

# MOE 2024.06 (io_trps.svl 2023.06)
