@<TRIPOS>MOLECULE
NONAME
48 50 1 0 0 
SMALL
USER_CHARGES


@<TRIPOS>ATOM
  1 O       -0.6410    -0.4290     1.7360 O.3   1 <1>  -0.5600 
  2 C        0.1510     0.7140     1.7900 C.3   1 <1>   0.1200 
  3 C       -1.8960    -0.1430     1.1930 C.3   1 <1>   0.1200 
  4 C       -0.3440     1.5910     0.6500 C.3   1 <1>   0.2890 
  5 C       -1.8300     1.2820     0.6340 C.3   1 <1>  -0.0800 
  6 N       -0.0980     3.0360     0.8870 N.pl3 1 <1>  -0.8690 
  7 C       -2.4640     1.4370    -0.7570 C.3   1 <1>  -0.0170 
  8 C        0.7840     3.8660     0.3320 C.ar  1 <1>   0.4100 
  9 C       -3.9400     1.0720    -0.7300 C.ar  1 <1>  -0.1430 
 10 N        0.7150     5.1170     0.7840 N.ar  1 <1>  -0.6200 
 11 C        1.7240     3.5010    -0.6370 C.ar  1 <1>  -0.1500 
 12 C       -4.4090    -0.1320    -1.2160 C.ar  1 <1>  -0.1500 
 13 C       -4.8900     1.9300    -0.2130 C.ar  1 <1>  -0.1500 
 14 C        1.5450     5.9930     0.2990 C.ar  1 <1>   0.5280 
 15 C        2.5810     4.4430    -1.1250 C.ar  1 <1>   0.2180 
 16 C       -5.7640    -0.4140    -1.1580 C.ar  1 <1>   0.1600 
 17 C       -6.2220     1.5520    -0.2030 C.ar  1 <1>   0.1600 
 18 N        2.4720     5.6960    -0.6370 N.ar  1 <1>  -0.1790 
 19 C        1.4700     7.4250     0.8120 C.3   1 <1>  -0.0160 
 20 C        3.6350     4.1440    -2.1780 C.3   1 <1>  -0.0970 
 21 N       -6.6820     0.3990    -0.6610 N.ar  1 <1>  -0.6200 
 22 C        0.9460     8.4040    -0.2520 C.3   1 <1>  -0.1600 
 23 C        0.8660     9.8310     0.3000 C.3   1 <1>  -0.2400 
 24 H       -0.0120     1.1840     2.7440 H     1 <1>   0.0800 
 25 H        1.1820     0.4320     1.6760 H     1 <1>   0.0800 
 26 H       -2.0910    -0.8720     0.4260 H     1 <1>   0.0800 
 27 H       -2.6370    -0.2300     1.9690 H     1 <1>   0.0800 
 28 H        0.1160     1.2600    -0.2650 H     1 <1>   0.0800 
 29 H       -2.3400     1.9230     1.3310 H     1 <1>   0.0800 
 30 H       -0.7000     3.4440     1.6100 H     1 <1>   0.4000 
 31 H       -1.9520     0.8110    -1.4670 H     1 <1>   0.0800 
 32 H       -2.3600     2.4560    -1.0860 H     1 <1>   0.0800 
 33 H        1.7610     2.4850    -0.9810 H     1 <1>   0.1500 
 34 H       -3.7370    -0.8560    -1.6390 H     1 <1>   0.1500 
 35 H       -4.6090     2.8890     0.1810 H     1 <1>   0.1500 
 36 H       -6.1110    -1.3580    -1.5420 H     1 <1>   0.1500 
 37 H       -6.9480     2.2350     0.2040 H     1 <1>   0.1500 
 38 H        3.0870     6.4400    -0.9690 H     1 <1>   0.4570 
 39 H        0.8110     7.4520     1.6640 H     1 <1>   0.0800 
 40 H        2.4420     7.7350     1.1530 H     1 <1>   0.0800 
 41 H        3.5980     3.1070    -2.4640 H     1 <1>   0.0800 
 42 H        4.6190     4.3490    -1.7950 H     1 <1>   0.0800 
 43 H        3.4690     4.7400    -3.0580 H     1 <1>   0.0800 
 44 H        1.5840     8.4060    -1.1180 H     1 <1>   0.0800 
 45 H       -0.0400     8.0980    -0.5640 H     1 <1>   0.0800 
 46 H        1.8370    10.1820     0.6040 H     1 <1>   0.0800 
 47 H        0.2030     9.8750     1.1480 H     1 <1>   0.0800 
 48 H        0.4870    10.4980    -0.4550 H     1 <1>   0.0800 
@<TRIPOS>BOND
  1   1   2  1   
  2   1   3  1   
  3   2   4  1   
  4   2  24  1   
  5   2  25  1   
  6   3   5  1   
  7   3  26  1   
  8   3  27  1   
  9   4   5  1   
 10   4   6  1   
 11   4  28  1   
 12   5   7  1   
 13   5  29  1   
 14   6   8  1   
 15   6  30  1   
 16   7   9  1   
 17   7  31  1   
 18   7  32  1   
 19   8  10  ar  
 20   8  11  ar  
 21   9  12  ar  
 22   9  13  ar  
 23  10  14  ar  
 24  11  15  ar  
 25  11  33  1   
 26  12  16  ar  
 27  12  34  1   
 28  13  17  ar  
 29  13  35  1   
 30  14  18  ar  
 31  14  19  1   
 32  15  18  ar  
 33  15  20  1   
 34  16  21  ar  
 35  16  36  1   
 36  17  21  ar  
 37  17  37  1   
 38  18  38  1   
 39  19  22  1   
 40  19  39  1   
 41  19  40  1   
 42  20  41  1   
 43  20  42  1   
 44  20  43  1   
 45  22  23  1   
 46  22  44  1   
 47  22  45  1   
 48  23  46  1   
 49  23  47  1   
 50  23  48  1   
@<TRIPOS>SUBSTRUCTURE
  1 ****   6 GROUP 4 **** **** 0

# MOE 2024.06 (io_trps.svl 2023.06)
