@<TRIPOS>MOLECULE
NONAME
48 50 1 0 0 
SMALL
USER_CHARGES


@<TRIPOS>ATOM
  1 CL      -3.8390    -1.2230     3.6770 Cl    1 <1>  -0.1230 
  2 C       -3.0920    -0.4020     2.3280 C.2   1 <1>   0.1230 
  3 C       -2.6040    -1.0260     1.2440 C.2   1 <1>  -0.1400 
  4 C       -2.9760     1.0210     2.3220 C.2   1 <1>  -0.1500 
  5 S       -1.9550     0.1660     0.1240 S.3   1 <1>  -0.0800 
  6 C       -2.5290    -2.4880     0.8800 C.3   1 <1>   0.5230 
  7 C       -2.3860     1.4890     1.2050 C.2   1 <1>  -0.1100 
  8 N       -3.7940    -2.8910     0.2090 N.4   1 <1>  -0.9590 
  9 C       -3.9220    -4.3830     0.0760 C.3   1 <1>   0.5660 
 10 C       -4.0240    -2.1920    -1.0990 C.3   1 <1>   0.3430 
 11 C       -2.6540    -4.9590    -0.5610 C.ar  1 <1>  -0.1430 
 12 C       -5.2310    -4.7920    -0.6660 C.3   1 <1>   0.2000 
 13 C       -5.2720    -2.7290    -1.8390 C.3   1 <1>   0.1200 
 14 C       -1.7410    -5.5920     0.2730 C.ar  1 <1>  -0.1500 
 15 C       -2.3700    -4.8750    -1.9210 C.ar  1 <1>  -0.1500 
 16 O       -5.9740    -3.6590    -1.0600 O.3   1 <1>  -0.5600 
 17 C       -6.1470    -5.6400     0.2260 C.3   1 <1>   0.1200 
 18 C       -0.5580    -6.1110    -0.2240 C.ar  1 <1>   0.0830 
 19 C       -1.1840    -5.3820    -2.4240 C.ar  1 <1>  -0.1500 
 20 O       -5.3880    -6.5730     0.9220 O.3   1 <1>  -0.6800 
 21 O        0.2610    -6.7280     0.6590 O.3   1 <1>  -0.3630 
 22 C       -0.2630    -5.9820    -1.5850 C.ar  1 <1>   0.0830 
 23 C        0.4660    -8.1120     0.4690 C.3   1 <1>   0.0400 
 24 O        0.8920    -6.4200    -2.1410 O.3   1 <1>  -0.3630 
 25 C        2.0880    -5.8080    -1.7070 C.3   1 <1>   0.0400 
 26 H       -3.3370     1.6110     3.1470 H     1 <1>   0.1500 
 27 H       -2.4000    -3.0640     1.7820 H     1 <1>   0.0800 
 28 H       -1.6810    -2.6700     0.2390 H     1 <1>   0.0800 
 29 H       -2.1460     2.4900     0.8870 H     1 <1>   0.1500 
 30 H       -4.5750    -2.6110     0.8140 H     1 <1>   0.4500 
 31 H       -3.9770    -4.8000     1.0680 H     1 <1>   0.0800 
 32 H       -4.1520    -1.1350    -0.9300 H     1 <1>   0.0800 
 33 H       -3.1630    -2.3090    -1.7360 H     1 <1>   0.0800 
 34 H       -5.0020    -5.3640    -1.5480 H     1 <1>   0.0800 
 35 H       -4.9980    -3.1950    -2.7690 H     1 <1>   0.0800 
 36 H       -5.9420    -1.9160    -2.0620 H     1 <1>   0.0800 
 37 H       -1.9330    -5.7080     1.3260 H     1 <1>   0.1500 
 38 H       -3.0540    -4.4240    -2.6150 H     1 <1>   0.1500 
 39 H       -6.8680    -6.1670    -0.3760 H     1 <1>   0.0800 
 40 H       -6.6560    -5.0240     0.9480 H     1 <1>   0.0800 
 41 H       -0.9600    -5.3150    -3.4750 H     1 <1>   0.1500 
 42 H       -5.9660    -7.2270     1.3710 H     1 <1>   0.4000 
 43 H        1.0520    -8.4820     1.2910 H     1 <1>   0.0800 
 44 H        0.9920    -8.2740    -0.4550 H     1 <1>   0.0800 
 45 H       -0.4890    -8.6070     0.4450 H     1 <1>   0.0800 
 46 H        2.8940    -6.1820    -2.3130 H     1 <1>   0.0800 
 47 H        2.2640    -6.0550    -0.6760 H     1 <1>   0.0800 
 48 H        1.9990    -4.7440    -1.8290 H     1 <1>   0.0800 
@<TRIPOS>BOND
  1   1   2  1   
  2   2   3  2   
  3   2   4  1   
  4   3   5  1   
  5   3   6  1   
  6   4   7  2   
  7   4  26  1   
  8   5   7  1   
  9   6   8  1   
 10   6  27  1   
 11   6  28  1   
 12   7  29  1   
 13   8   9  1   
 14   8  10  1   
 15   8  30  1   
 16   9  11  1   
 17   9  12  1   
 18   9  31  1   
 19  10  13  1   
 20  10  32  1   
 21  10  33  1   
 22  11  14  ar  
 23  11  15  ar  
 24  12  16  1   
 25  12  17  1   
 26  12  34  1   
 27  13  16  1   
 28  13  35  1   
 29  13  36  1   
 30  14  18  ar  
 31  14  37  1   
 32  15  19  ar  
 33  15  38  1   
 34  17  20  1   
 35  17  39  1   
 36  17  40  1   
 37  18  21  1   
 38  18  22  ar  
 39  19  22  ar  
 40  19  41  1   
 41  20  42  1   
 42  21  23  1   
 43  22  24  1   
 44  23  43  1   
 45  23  44  1   
 46  23  45  1   
 47  24  25  1   
 48  25  46  1   
 49  25  47  1   
 50  25  48  1   
@<TRIPOS>SUBSTRUCTURE
  1 ****  11 GROUP 4 **** **** 0

# MOE 2024.06 (io_trps.svl 2023.06)
