@<TRIPOS>MOLECULE
NONAME
54 57 1 0 0 
SMALL
USER_CHARGES


@<TRIPOS>ATOM
  1 O       -1.0440     0.5490    -1.4310 O.2   1 <1>  -0.5700 
  2 C       -0.7350     1.5010    -0.7530 C.2   1 <1>   0.5690 
  3 N       -1.4780     2.6550    -0.7090 N.am  1 <1>  -0.5090 
  4 C        0.5700     1.4010     0.0460 C.3   1 <1>   0.1810 
  5 C       -0.9970     3.8530     0.0480 C.3   1 <1>   0.3640 
  6 C       -2.8180     2.7650    -1.3380 C.3   1 <1>   0.0490 
  7 O        0.7480     2.4350     0.9850 O.3   1 <1>  -0.5600 
  8 C       -1.1510     5.1310    -0.7770 C.ar  1 <1>  -0.1440 
  9 C        0.4790     3.7230     0.4740 C.3   1 <1>   0.2610 
 10 C       -3.9910     3.1380    -0.4840 C.3   1 <1>  -0.2000 
 11 C       -3.8670     1.7470    -1.0170 C.3   1 <1>  -0.2000 
 12 C       -0.7280     5.1920    -2.0980 C.ar  1 <1>   0.1600 
 13 C       -1.6870     6.2670    -0.2030 C.ar  1 <1>  -0.1500 
 14 C        0.8230     4.8360     1.4770 C.2   1 <1>   0.5690 
 15 N       -0.7760     6.2720    -2.8620 N.ar  1 <1>  -0.6200 
 16 C       -1.7590     7.3960    -0.9890 C.ar  1 <1>  -0.1500 
 17 O        0.0470     5.0400     2.3860 O.2   1 <1>  -0.5700 
 18 N        1.9280     5.6370     1.2980 N.am  1 <1>  -0.6600 
 19 C       -1.2960     7.3460    -2.2910 C.ar  1 <1>   0.1600 
 20 C        3.0230     5.4030     0.3230 C.3   1 <1>   0.1400 
 21 C        1.9850     6.9970     1.8940 C.3   1 <1>   0.1400 
 22 C        2.8340     6.3660    -0.8520 C.3   1 <1>  -0.1600 
 23 C        1.7870     8.0200     0.7700 C.3   1 <1>  -0.1600 
 24 C        2.7970     7.8340    -0.3830 C.3   1 <1>  -0.0800 
 25 C        2.4740     8.7530    -1.5700 C.3   1 <1>   0.1200 
 26 O        2.4920    10.0770    -1.1410 O.3   1 <1>  -0.5600 
 27 C        2.2170    10.9970    -2.1460 C.3   1 <1>   0.0400 
 28 H        1.4030     1.4140    -0.6330 H     1 <1>   0.0800 
 29 H        0.5820     0.4700     0.5840 H     1 <1>   0.0800 
 30 H       -1.6010     3.9350     0.9350 H     1 <1>   0.0800 
 31 H       -2.7740     3.1410    -2.3480 H     1 <1>   0.1000 
 32 H        1.0800     3.8470    -0.4040 H     1 <1>   0.0800 
 33 H       -3.8670     3.2780     0.5750 H     1 <1>   0.1000 
 34 H       -4.7500     3.7750    -0.9010 H     1 <1>   0.1000 
 35 H       -4.5320     1.4340    -1.8020 H     1 <1>   0.1000 
 36 H       -3.6130     0.9450    -0.3460 H     1 <1>   0.1000 
 37 H       -0.3220     4.3060    -2.5560 H     1 <1>   0.1500 
 38 H       -2.0270     6.2810     0.8210 H     1 <1>   0.1500 
 39 H       -2.1670     8.3100    -0.5950 H     1 <1>   0.1500 
 40 H       -1.3560     8.2360    -2.8940 H     1 <1>   0.1500 
 41 H        3.9660     5.5990     0.8050 H     1 <1>   0.0800 
 42 H        3.0400     4.3810    -0.0110 H     1 <1>   0.0800 
 43 H        1.2210     7.1230     2.6420 H     1 <1>   0.0800 
 44 H        2.9410     7.1420     2.3670 H     1 <1>   0.0800 
 45 H        3.6420     6.2320    -1.5510 H     1 <1>   0.0800 
 46 H        1.9180     6.1240    -1.3610 H     1 <1>   0.0800 
 47 H        0.7840     7.9250     0.3940 H     1 <1>   0.0800 
 48 H        1.8850     9.0100     1.1790 H     1 <1>   0.0800 
 49 H        3.7780     8.0930    -0.0210 H     1 <1>   0.0800 
 50 H        1.4950     8.5300    -1.9610 H     1 <1>   0.0800 
 51 H        3.2100     8.6350    -2.3460 H     1 <1>   0.0800 
 52 H        2.2490    11.9820    -1.7150 H     1 <1>   0.0800 
 53 H        1.2360    10.8060    -2.5450 H     1 <1>   0.0800 
 54 H        2.9640    10.9150    -2.9170 H     1 <1>   0.0800 
@<TRIPOS>BOND
  1   1   2  2   
  2   2   3  am  
  3   2   4  1   
  4   3   5  1   
  5   3   6  1   
  6   4   7  1   
  7   4  28  1   
  8   4  29  1   
  9   5   8  1   
 10   5   9  1   
 11   5  30  1   
 12   6  10  1   
 13   6  11  1   
 14   6  31  1   
 15   7   9  1   
 16   8  12  ar  
 17   8  13  ar  
 18   9  14  1   
 19   9  32  1   
 20  10  11  1   
 21  10  33  1   
 22  10  34  1   
 23  11  35  1   
 24  11  36  1   
 25  12  15  ar  
 26  12  37  1   
 27  13  16  ar  
 28  13  38  1   
 29  14  17  2   
 30  14  18  am  
 31  15  19  ar  
 32  16  19  ar  
 33  16  39  1   
 34  18  20  1   
 35  18  21  1   
 36  19  40  1   
 37  20  22  1   
 38  20  41  1   
 39  20  42  1   
 40  21  23  1   
 41  21  43  1   
 42  21  44  1   
 43  22  24  1   
 44  22  45  1   
 45  22  46  1   
 46  23  24  1   
 47  23  47  1   
 48  23  48  1   
 49  24  25  1   
 50  24  49  1   
 51  25  26  1   
 52  25  50  1   
 53  25  51  1   
 54  26  27  1   
 55  27  52  1   
 56  27  53  1   
 57  27  54  1   
@<TRIPOS>SUBSTRUCTURE
  1 ****   8 GROUP 4 **** **** 0

# MOE 2024.06 (io_trps.svl 2023.06)
