@<TRIPOS>MOLECULE
NONAME
49 51 1 0 0 
SMALL
USER_CHARGES


@<TRIPOS>ATOM
  1 O       -0.7650     0.9390    -0.6120 O.2   1 <1>  -0.5700 
  2 C       -0.8530     2.1440    -0.6040 C.2   1 <1>   0.5690 
  3 N       -1.6500     2.8470     0.2640 N.am  1 <1>  -0.6600 
  4 C       -0.0290     2.9150    -1.6310 C.3   1 <1>   0.1810 
  5 C       -1.7170     4.3470     0.1970 C.3   1 <1>   0.3640 
  6 C       -2.4330     2.2380     1.3760 C.3   1 <1>   0.2200 
  7 O        0.3710     4.1690    -1.1430 O.3   1 <1>  -0.5600 
  8 C       -3.1420     4.7700    -0.1730 C.ar  1 <1>  -0.1440 
  9 C       -0.7100     5.0160    -0.7810 C.3   1 <1>   0.2610 
 10 C       -1.4910     1.5970     2.3950 C.3   1 <1>  -0.2400 
 11 C       -3.4700     1.2440     0.8510 C.3   1 <1>  -0.2400 
 12 C       -3.8130     4.1820    -1.2380 C.ar  1 <1>  -0.1500 
 13 C       -3.7800     5.7640     0.5550 C.ar  1 <1>  -0.1500 
 14 C       -0.1730     6.3170    -0.1680 C.2   1 <1>   0.5690 
 15 C       -5.0970     4.5780    -1.5660 C.ar  1 <1>  -0.1500 
 16 C       -5.0650     6.1610     0.2280 C.ar  1 <1>  -0.1500 
 17 O       -0.9380     7.1340     0.2890 O.2   1 <1>  -0.5700 
 18 N        1.1690     6.5390    -0.1480 N.am  1 <1>  -0.7300 
 19 C       -5.7250     5.5680    -0.8330 C.ar  1 <1>  -0.1500 
 20 C        1.8410     7.7030     0.4790 C.3   1 <1>   0.1400 
 21 C        1.6020     8.9650    -0.3500 C.3   1 <1>   0.0960 
 22 N        2.2350    10.1160     0.3100 N.pl3 1 <1>   0.3140 
 23 N        3.5600    10.2930     0.3410 N.2   1 <1>  -0.4180 
 24 C        1.6380    11.1070     0.9730 C.2   1 <1>  -0.3020 
 25 N        3.8120    11.3690     1.0020 N.2   1 <1>  -0.2270 
 26 C        2.6440    11.8850     1.3990 C.2   1 <1>   0.0770 
 27 H       -0.6010     3.0550    -2.5300 H     1 <1>   0.0800 
 28 H        0.8590     2.3560    -1.8650 H     1 <1>   0.0800 
 29 H       -1.5020     4.7150     1.1860 H     1 <1>   0.0800 
 30 H       -2.9750     3.0190     1.8840 H     1 <1>   0.0800 
 31 H       -1.2220     5.2770    -1.6890 H     1 <1>   0.0800 
 32 H       -0.9750     0.7590     1.9640 H     1 <1>   0.0800 
 33 H       -2.0540     1.2450     3.2390 H     1 <1>   0.0800 
 34 H       -0.7730     2.3170     2.7400 H     1 <1>   0.0800 
 35 H       -2.9990     0.3880     0.4040 H     1 <1>   0.0800 
 36 H       -4.1070     1.7180     0.1280 H     1 <1>   0.0800 
 37 H       -4.0830     0.8990     1.6630 H     1 <1>   0.0800 
 38 H       -3.3430     3.4040    -1.8140 H     1 <1>   0.1500 
 39 H       -3.2800     6.2440     1.3800 H     1 <1>   0.1500 
 40 H       -5.6100     4.1140    -2.3910 H     1 <1>   0.1500 
 41 H       -5.5500     6.9340     0.7990 H     1 <1>   0.1500 
 42 H        1.7670     5.7890    -0.5190 H     1 <1>   0.3700 
 43 H       -6.7240     5.8770    -1.0870 H     1 <1>   0.1500 
 44 H        1.4430     7.8430     1.4700 H     1 <1>   0.0800 
 45 H        2.8980     7.5070     0.5530 H     1 <1>   0.0800 
 46 H        0.5490     9.1580    -0.4410 H     1 <1>   0.0800 
 47 H        2.0330     8.8540    -1.3270 H     1 <1>   0.0800 
 48 H        0.5760    11.1950     1.0980 H     1 <1>   0.1500 
 49 H        2.5960    12.7930     1.9740 H     1 <1>   0.1500 
@<TRIPOS>BOND
  1   1   2  2   
  2   2   3  am  
  3   2   4  1   
  4   3   5  1   
  5   3   6  1   
  6   4   7  1   
  7   4  27  1   
  8   4  28  1   
  9   5   8  1   
 10   5   9  1   
 11   5  29  1   
 12   6  10  1   
 13   6  11  1   
 14   6  30  1   
 15   7   9  1   
 16   8  12  ar  
 17   8  13  ar  
 18   9  14  1   
 19   9  31  1   
 20  10  32  1   
 21  10  33  1   
 22  10  34  1   
 23  11  35  1   
 24  11  36  1   
 25  11  37  1   
 26  12  15  ar  
 27  12  38  1   
 28  13  16  ar  
 29  13  39  1   
 30  14  17  2   
 31  14  18  am  
 32  15  19  ar  
 33  15  40  1   
 34  16  19  ar  
 35  16  41  1   
 36  18  20  1   
 37  18  42  1   
 38  19  43  1   
 39  20  21  1   
 40  20  44  1   
 41  20  45  1   
 42  21  22  1   
 43  21  46  1   
 44  21  47  1   
 45  22  23  1   
 46  22  24  1   
 47  23  25  2   
 48  24  26  2   
 49  24  48  1   
 50  25  26  1   
 51  26  49  1   
@<TRIPOS>SUBSTRUCTURE
  1 ****  14 GROUP 4 **** **** 0

# MOE 2024.06 (io_trps.svl 2023.06)
