@<TRIPOS>MOLECULE
NONAME
42 44 1 0 0 
SMALL
USER_CHARGES


@<TRIPOS>ATOM
  1 O       -0.3720     0.3950     0.2590 O.2   1 <1>  -0.5700 
  2 C       -1.4400     0.9410     0.1240 C.2   1 <1>   0.5690 
  3 N       -2.5970     0.2300    -0.0110 N.am  1 <1>  -0.6600 
  4 C       -1.4880     2.4570     0.1010 C.3   1 <1>  -0.0990 
  5 C       -3.9610     0.7770    -0.2290 C.3   1 <1>   0.1400 
  6 C       -2.6280    -1.2530     0.0300 C.3   1 <1>   0.1400 
  7 C       -0.1150     3.0820     0.3820 C.3   1 <1>   0.0960 
  8 C       -4.8260    -0.4440    -0.5380 C.3   1 <1>   0.2000 
  9 C       -4.1100    -1.6210     0.1190 C.3   1 <1>  -0.0800 
 10 N       -0.2090     4.5530     0.3560 N.pl3 1 <1>   0.0480 
 11 O       -6.1030    -0.3060    -0.0210 O.3   1 <1>  -0.6800 
 12 C       -4.4470    -2.9760    -0.5230 C.3   1 <1>   0.0210 
 13 C       -0.4670     5.3900     1.3620 C.2   1 <1>   0.0370 
 14 C       -0.0850     5.3780    -0.6840 C.2   1 <1>   0.0360 
 15 C       -3.6160    -4.0870     0.0870 C.2   1 <1>   0.1080 
 16 N       -0.5020     6.6150     0.9690 N.2   1 <1>  -0.3380 
 17 N       -0.2560     6.6080    -0.3440 N.2   1 <1>  -0.3380 
 18 N       -3.6130    -4.3470     1.3580 N.2   1 <1>  -0.7070 
 19 C       -2.7670    -4.9300    -0.6230 C.2   1 <1>  -0.1500 
 20 N       -2.7540    -5.3740     1.4930 N.pl3 1 <1>   0.3000 
 21 C       -2.2270    -5.7440     0.3070 C.2   1 <1>  -0.3320 
 22 C       -1.2240    -6.8700     0.1330 C.3   1 <1>  -0.0600 
 23 H       -1.8320     2.7690    -0.8670 H     1 <1>   0.0800 
 24 H       -2.1870     2.7860     0.8470 H     1 <1>   0.0800 
 25 H       -4.2970     1.2610     0.6720 H     1 <1>   0.0800 
 26 H       -3.9700     1.4670    -1.0540 H     1 <1>   0.0800 
 27 H       -2.1860    -1.6380    -0.8730 H     1 <1>   0.0800 
 28 H       -2.0800    -1.6280     0.8800 H     1 <1>   0.0800 
 29 H        0.5960     2.7650    -0.3600 H     1 <1>   0.0800 
 30 H        0.2440     2.7710     1.3480 H     1 <1>   0.0800 
 31 H       -4.9030    -0.5730    -1.6040 H     1 <1>   0.0800 
 32 H       -4.3600    -1.6580     1.1650 H     1 <1>   0.0800 
 33 H       -6.0940    -0.4290     0.9480 H     1 <1>   0.4000 
 34 H       -4.2690    -2.9390    -1.5820 H     1 <1>   0.0800 
 35 H       -5.4870    -3.1980    -0.3660 H     1 <1>   0.0800 
 36 H       -0.6270     5.0660     2.3750 H     1 <1>   0.1500 
 37 H        0.1310     5.0420    -1.6820 H     1 <1>   0.1500 
 38 H       -2.5960    -4.9130    -1.6850 H     1 <1>   0.1500 
 39 H       -2.5480    -5.7980     2.4060 H     1 <1>   0.2700 
 40 H       -0.9570    -6.9700    -0.9040 H     1 <1>   0.0800 
 41 H       -1.6460    -7.8000     0.4700 H     1 <1>   0.0800 
 42 H       -0.3320    -6.6630     0.6980 H     1 <1>   0.0800 
@<TRIPOS>BOND
  1   1   2  2   
  2   2   3  am  
  3   2   4  1   
  4   3   5  1   
  5   3   6  1   
  6   4   7  1   
  7   4  23  1   
  8   4  24  1   
  9   5   8  1   
 10   5  25  1   
 11   5  26  1   
 12   6   9  1   
 13   6  27  1   
 14   6  28  1   
 15   7  10  1   
 16   7  29  1   
 17   7  30  1   
 18   8   9  1   
 19   8  11  1   
 20   8  31  1   
 21   9  12  1   
 22   9  32  1   
 23  10  13  1   
 24  10  14  1   
 25  11  33  1   
 26  12  15  1   
 27  12  34  1   
 28  12  35  1   
 29  13  16  2   
 30  13  36  1   
 31  14  17  2   
 32  14  37  1   
 33  15  18  2   
 34  15  19  1   
 35  16  17  1   
 36  18  20  1   
 37  19  21  2   
 38  19  38  1   
 39  20  21  1   
 40  20  39  1   
 41  21  22  1   
 42  22  40  1   
 43  22  41  1   
 44  22  42  1   
@<TRIPOS>SUBSTRUCTURE
  1 ****   3 GROUP 4 **** **** 0

# MOE 2024.06 (io_trps.svl 2023.06)
