@<TRIPOS>MOLECULE
NONAME
55 57 1 0 0 
SMALL
USER_CHARGES


@<TRIPOS>ATOM
  1 O       -1.8240     1.8000    -2.4840 O.2   1 <1>  -0.5700 
  2 C       -2.2670     1.4660    -1.4090 C.2   1 <1>   0.5690 
  3 N       -3.2480     0.5110    -1.3000 N.am  1 <1>  -0.6600 
  4 C       -1.7050     2.1250    -0.1590 C.3   1 <1>  -0.0990 
  5 C       -3.8670     0.1160     0.0010 C.3   1 <1>   0.1400 
  6 C       -3.7410    -0.1880    -2.5260 C.3   1 <1>   0.1400 
  7 C       -0.4580     2.9590    -0.4430 C.3   1 <1>   0.1200 
  8 C       -5.2700    -0.4680    -0.1950 C.3   1 <1>  -0.1600 
  9 C       -4.1430    -1.6180    -2.1790 C.3   1 <1>  -0.1600 
 10 O        0.0040     3.4610     0.7690 O.3   1 <1>  -0.5600 
 11 C       -5.3370    -1.6330    -1.2060 C.3   1 <1>   0.4240 
 12 C        1.1280     4.2660     0.6490 C.3   1 <1>   0.1200 
 13 O       -6.4900    -1.3630    -1.9670 O.3   1 <1>  -0.5600 
 14 C       -5.4370    -2.9870    -0.4640 C.ar  1 <1>  -0.1440 
 15 C        1.5100     4.7330     2.0480 C.3   1 <1>  -0.2400 
 16 C       -7.1330    -2.4320    -2.5910 C.3   1 <1>   0.1200 
 17 C       -6.5490    -3.8040    -0.6110 C.ar  1 <1>  -0.1440 
 18 C       -4.4120    -3.4110     0.3750 C.ar  1 <1>  -0.1500 
 19 C       -7.6780    -3.3730    -1.5230 C.3   1 <1>  -0.0170 
 20 C       -6.6280    -5.0080     0.0660 C.ar  1 <1>  -0.1500 
 21 C       -4.4780    -4.6190     1.0660 C.ar  1 <1>   0.0820 
 22 C       -5.6070    -5.4350     0.8960 C.ar  1 <1>   0.0820 
 23 O       -3.4760    -5.0070     1.9110 O.3   1 <1>  -0.3620 
 24 O       -5.8170    -6.6470     1.4840 O.3   1 <1>  -0.3620 
 25 C       -2.4040    -4.1570     2.2570 C.3   1 <1>   0.0400 
 26 C       -4.7460    -7.5040     1.8100 C.3   1 <1>   0.0400 
 27 H       -1.4480     1.3630     0.5500 H     1 <1>   0.0800 
 28 H       -2.4590     2.7650     0.2590 H     1 <1>   0.0800 
 29 H       -3.9430     0.9730     0.6470 H     1 <1>   0.0800 
 30 H       -3.2310    -0.6060     0.4810 H     1 <1>   0.0800 
 31 H       -2.9670    -0.2060    -3.2760 H     1 <1>   0.0800 
 32 H       -4.5850     0.3490    -2.9260 H     1 <1>   0.0800 
 33 H       -0.6940     3.7810    -1.0980 H     1 <1>   0.0800 
 34 H        0.3130     2.3500    -0.8850 H     1 <1>   0.0800 
 35 H       -5.9020     0.3370    -0.5280 H     1 <1>   0.0800 
 36 H       -5.6520    -0.7940     0.7550 H     1 <1>   0.0800 
 37 H       -3.2900    -2.1040    -1.7430 H     1 <1>   0.0800 
 38 H       -4.3830    -2.1580    -3.0750 H     1 <1>   0.0800 
 39 H        0.8890     5.1070     0.0190 H     1 <1>   0.0800 
 40 H        1.9240     3.6890     0.2090 H     1 <1>   0.0800 
 41 H        0.7020     5.2940     2.4820 H     1 <1>   0.0800 
 42 H        2.3790     5.3630     1.9970 H     1 <1>   0.0800 
 43 H        1.7340     3.8860     2.6700 H     1 <1>   0.0800 
 44 H       -6.4370    -2.9410    -3.2340 H     1 <1>   0.0800 
 45 H       -7.9350    -2.0320    -3.1860 H     1 <1>   0.0800 
 46 H       -3.5530    -2.7830     0.4820 H     1 <1>   0.1500 
 47 H       -8.1220    -4.2300    -1.9970 H     1 <1>   0.0800 
 48 H       -8.4370    -2.8690    -0.9520 H     1 <1>   0.0800 
 49 H       -7.4920    -5.6380    -0.0460 H     1 <1>   0.1500 
 50 H       -1.8000    -4.6650     2.9870 H     1 <1>   0.0800 
 51 H       -2.8000    -3.2500     2.6790 H     1 <1>   0.0800 
 52 H       -1.8190    -3.9560     1.3780 H     1 <1>   0.0800 
 53 H       -5.1350    -8.4980     1.9270 H     1 <1>   0.0800 
 54 H       -4.3080    -7.1740     2.7350 H     1 <1>   0.0800 
 55 H       -4.0220    -7.4800     1.0140 H     1 <1>   0.0800 
@<TRIPOS>BOND
  1   1   2  2   
  2   2   3  am  
  3   2   4  1   
  4   3   5  1   
  5   3   6  1   
  6   4   7  1   
  7   4  27  1   
  8   4  28  1   
  9   5   8  1   
 10   5  29  1   
 11   5  30  1   
 12   6   9  1   
 13   6  31  1   
 14   6  32  1   
 15   7  10  1   
 16   7  33  1   
 17   7  34  1   
 18   8  11  1   
 19   8  35  1   
 20   8  36  1   
 21   9  11  1   
 22   9  37  1   
 23   9  38  1   
 24  10  12  1   
 25  11  13  1   
 26  11  14  1   
 27  12  15  1   
 28  12  39  1   
 29  12  40  1   
 30  13  16  1   
 31  14  17  ar  
 32  14  18  ar  
 33  15  41  1   
 34  15  42  1   
 35  15  43  1   
 36  16  19  1   
 37  16  44  1   
 38  16  45  1   
 39  17  19  1   
 40  17  20  ar  
 41  18  21  ar  
 42  18  46  1   
 43  19  47  1   
 44  19  48  1   
 45  20  22  ar  
 46  20  49  1   
 47  21  22  ar  
 48  21  23  1   
 49  22  24  1   
 50  23  25  1   
 51  24  26  1   
 52  25  50  1   
 53  25  51  1   
 54  25  52  1   
 55  26  53  1   
 56  26  54  1   
 57  26  55  1   
@<TRIPOS>SUBSTRUCTURE
  1 ****   5 GROUP 4 **** **** 0

# MOE 2024.06 (io_trps.svl 2023.06)
