@<TRIPOS>MOLECULE
NONAME
44 47 1 0 0 
SMALL
USER_CHARGES


@<TRIPOS>ATOM
  1 CL      -0.1350    -0.3500    -0.5140 Cl    1 <1>  -0.1770 
  2 C       -1.6690    -1.1610    -0.4140 C.ar  1 <1>   0.1770 
  3 C       -1.7480    -2.5010    -0.6780 C.ar  1 <1>  -0.1500 
  4 C       -2.7950    -0.4320    -0.0500 C.ar  1 <1>  -0.1500 
  5 C       -2.9830    -3.1570    -0.5950 C.ar  1 <1>   0.3610 
  6 C       -4.0110    -1.0640     0.0170 C.ar  1 <1>  -0.1500 
  7 N       -3.0600    -4.5220    -0.7660 N.ar  1 <1>  -0.1790 
  8 C       -4.1580    -2.4310    -0.2980 C.ar  1 <1>   0.0000 
  9 C       -4.2250    -5.1870    -0.6600 C.ar  1 <1>   0.2110 
 10 C       -5.4170    -3.1180    -0.2790 C.ar  1 <1>   0.1000 
 11 C       -5.3880    -4.5080    -0.4200 C.ar  1 <1>  -0.1500 
 12 N       -6.6070    -2.4770    -0.1750 N.pl3 1 <1>  -0.8380 
 13 C       -7.7220    -2.9230     0.7500 C.3   1 <1>   0.2090 
 14 C       -6.9830    -1.3500    -1.0800 C.3   1 <1>   0.2090 
 15 C       -9.1680    -2.3500     0.3350 C.3   1 <1>   0.0000 
 16 C       -7.7380    -0.2740    -0.2980 C.3   1 <1>  -0.1600 
 17 C      -10.5740    -1.7690    -0.1350 C.3   1 <1>   0.2000 
 18 C       -8.6830    -0.8780     0.7590 C.3   1 <1>  -0.1600 
 19 C       -9.6320    -3.8350    -0.0280 C.3   1 <1>  -0.1600 
 20 O      -11.4140    -1.6610     0.9680 O.3   1 <1>  -0.6800 
 21 C      -11.2850    -2.6410    -1.1490 C.3   1 <1>  -0.1600 
 22 C      -11.0270    -4.0050    -0.6150 C.3   1 <1>  -0.1600 
 23 H       -0.8510    -3.0330    -0.9390 H     1 <1>   0.1500 
 24 H       -2.6920     0.6160     0.1790 H     1 <1>   0.1500 
 25 H       -4.8750    -0.5050     0.3280 H     1 <1>   0.1500 
 26 H       -2.1920    -5.0280    -0.9600 H     1 <1>   0.4570 
 27 H       -4.2280    -6.2590    -0.7800 H     1 <1>   0.1500 
 28 H       -6.3110    -5.0570    -0.3760 H     1 <1>   0.1500 
 29 H       -7.6380    -3.9900     0.8410 H     1 <1>   0.0800 
 30 H       -7.4560    -2.6360     1.7520 H     1 <1>   0.0800 
 31 H       -6.1230    -0.9320    -1.5720 H     1 <1>   0.0800 
 32 H       -7.6320    -1.7410    -1.8470 H     1 <1>   0.0800 
 33 H       -7.0400     0.3890     0.1820 H     1 <1>   0.0800 
 34 H       -8.3040     0.3140    -0.9980 H     1 <1>   0.0800 
 35 H      -10.5230    -0.7970    -0.6010 H     1 <1>   0.0800 
 36 H       -9.4440    -0.1380     0.9570 H     1 <1>   0.0800 
 37 H       -8.1790    -0.8500     1.7100 H     1 <1>   0.0800 
 38 H       -8.9710    -4.2440    -0.7790 H     1 <1>   0.0800 
 39 H       -9.6100    -4.4750     0.8400 H     1 <1>   0.0800 
 40 H      -11.5660    -2.5480     1.3400 H     1 <1>   0.4000 
 41 H      -12.3330    -2.4090    -1.2370 H     1 <1>   0.0800 
 42 H      -10.8120    -2.5270    -2.1090 H     1 <1>   0.0800 
 43 H      -11.7390    -4.2480     0.1550 H     1 <1>   0.0800 
 44 H      -11.0660    -4.7570    -1.3860 H     1 <1>   0.0800 
@<TRIPOS>BOND
  1   1   2  1   
  2   2   3  ar  
  3   2   4  ar  
  4   3   5  ar  
  5   3  23  1   
  6   4   6  ar  
  7   4  24  1   
  8   5   7  ar  
  9   5   8  ar  
 10   6   8  ar  
 11   6  25  1   
 12   7   9  ar  
 13   7  26  1   
 14   8  10  ar  
 15   9  11  ar  
 16   9  27  1   
 17  10  11  ar  
 18  10  12  1   
 19  11  28  1   
 20  12  13  1   
 21  12  14  1   
 22  13  15  1   
 23  13  29  1   
 24  13  30  1   
 25  14  16  1   
 26  14  31  1   
 27  14  32  1   
 28  15  17  1   
 29  15  18  1   
 30  15  19  1   
 31  16  18  1   
 32  16  33  1   
 33  16  34  1   
 34  17  20  1   
 35  17  21  1   
 36  17  35  1   
 37  18  36  1   
 38  18  37  1   
 39  19  22  1   
 40  19  38  1   
 41  19  39  1   
 42  20  40  1   
 43  21  22  1   
 44  21  41  1   
 45  21  42  1   
 46  22  43  1   
 47  22  44  1   
@<TRIPOS>SUBSTRUCTURE
  1 ****  12 GROUP 4 **** **** 0

# MOE 2024.06 (io_trps.svl 2023.06)
