@<TRIPOS>MOLECULE
NONAME
43 45 1 0 0 
SMALL
USER_CHARGES


@<TRIPOS>ATOM
  1 O       -0.2980    -0.6840     1.5590 O.3   1 <1>  -0.5320 
  2 C       -0.3990    -1.9740     1.2110 C.ar  1 <1>   0.0820 
  3 C       -1.0360    -2.3520     0.0600 C.ar  1 <1>  -0.1500 
  4 C        0.1690    -2.9320     2.0570 C.ar  1 <1>  -0.1500 
  5 C       -1.1350    -3.7120    -0.2950 C.ar  1 <1>   0.0000 
  6 C        0.0870    -4.2570     1.7340 C.ar  1 <1>  -0.1500 
  7 C       -0.5660    -4.6830     0.5580 C.ar  1 <1>   0.0000 
  8 C       -1.7790    -4.1430    -1.4710 C.ar  1 <1>  -0.1500 
  9 C       -0.6710    -6.0420     0.2020 C.ar  1 <1>  -0.1500 
 10 C       -1.8670    -5.4690    -1.7910 C.ar  1 <1>  -0.1500 
 11 C       -1.3140    -6.4390    -0.9420 C.ar  1 <1>  -0.1440 
 12 C       -1.4410    -7.9070    -1.3000 C.3   1 <1>   0.4860 
 13 N       -2.5240    -8.5040    -0.4720 N.4   1 <1>  -0.9590 
 14 C       -2.5320   -10.0010    -0.5960 C.3   1 <1>   0.3430 
 15 C       -3.8550    -7.9110    -0.7970 C.3   1 <1>   0.3430 
 16 C       -3.6240   -10.6560     0.2690 C.3   1 <1>   0.2000 
 17 C       -4.9280    -8.5070     0.1140 C.3   1 <1>  -0.1600 
 18 O       -3.6390   -12.0030    -0.0450 O.3   1 <1>  -0.6800 
 19 C       -5.0100   -10.0450    -0.0070 C.3   1 <1>  -0.0800 
 20 C       -6.0860   -10.6340     0.9230 C.3   1 <1>   0.1200 
 21 O       -7.2970   -10.0290     0.6420 O.3   1 <1>  -0.6800 
 22 H       -0.7070    -0.0750     0.9190 H     1 <1>   0.4500 
 23 H       -1.4710    -1.6190    -0.5920 H     1 <1>   0.1500 
 24 H        0.6630    -2.5970     2.9520 H     1 <1>   0.1500 
 25 H        0.5250    -4.9950     2.3820 H     1 <1>   0.1500 
 26 H       -2.2020    -3.3960    -2.1210 H     1 <1>   0.1500 
 27 H       -0.2200    -6.7580     0.8680 H     1 <1>   0.1500 
 28 H       -2.3610    -5.7640    -2.7020 H     1 <1>   0.1500 
 29 H       -0.5040    -8.4010    -1.0960 H     1 <1>   0.0800 
 30 H       -1.6620    -8.0160    -2.3490 H     1 <1>   0.0800 
 31 H       -2.3150    -8.2480     0.5010 H     1 <1>   0.4500 
 32 H       -2.7140   -10.2710    -1.6240 H     1 <1>   0.0800 
 33 H       -1.5750   -10.4000    -0.3030 H     1 <1>   0.0800 
 34 H       -3.8280    -6.8410    -0.6600 H     1 <1>   0.0800 
 35 H       -4.1070    -8.1140    -1.8250 H     1 <1>   0.0800 
 36 H       -3.3650   -10.5650     1.3100 H     1 <1>   0.0800 
 37 H       -4.7390    -8.2180     1.1330 H     1 <1>   0.0800 
 38 H       -5.8720    -8.0740    -0.1680 H     1 <1>   0.0800 
 39 H       -4.2650   -12.5050     0.5170 H     1 <1>   0.4000 
 40 H       -5.2840   -10.2870    -1.0210 H     1 <1>   0.0800 
 41 H       -5.8520   -10.4500     1.9590 H     1 <1>   0.0800 
 42 H       -6.2010   -11.6920     0.7610 H     1 <1>   0.0800 
 43 H       -8.0210   -10.4160     1.1760 H     1 <1>   0.4000 
@<TRIPOS>BOND
  1   1   2  1   
  2   1  22  1   
  3   2   3  ar  
  4   2   4  ar  
  5   3   5  ar  
  6   3  23  1   
  7   4   6  ar  
  8   4  24  1   
  9   5   7  ar  
 10   5   8  ar  
 11   6   7  ar  
 12   6  25  1   
 13   7   9  ar  
 14   8  10  ar  
 15   8  26  1   
 16   9  11  ar  
 17   9  27  1   
 18  10  11  ar  
 19  10  28  1   
 20  11  12  1   
 21  12  13  1   
 22  12  29  1   
 23  12  30  1   
 24  13  14  1   
 25  13  15  1   
 26  13  31  1   
 27  14  16  1   
 28  14  32  1   
 29  14  33  1   
 30  15  17  1   
 31  15  34  1   
 32  15  35  1   
 33  16  18  1   
 34  16  19  1   
 35  16  36  1   
 36  17  19  1   
 37  17  37  1   
 38  17  38  1   
 39  18  39  1   
 40  19  20  1   
 41  19  40  1   
 42  20  21  1   
 43  20  41  1   
 44  20  42  1   
 45  21  43  1   
@<TRIPOS>SUBSTRUCTURE
  1 ****  11 GROUP 4 **** **** 0

# MOE 2024.06 (io_trps.svl 2023.06)
