@<TRIPOS>MOLECULE
NONAME
46 48 1 0 0 
SMALL
USER_CHARGES


@<TRIPOS>ATOM
  1 S       -0.7070    -0.0670    -0.1790 S.3   1 <1>  -0.0800 
  2 C        0.6790    -1.1020    -0.4440 C.2   1 <1>   0.1980 
  3 C        0.3780     1.2600     0.1120 C.2   1 <1>  -0.1100 
  4 N        1.8010    -0.5160    -0.3240 N.2   1 <1>  -0.5650 
  5 C        0.4190    -2.5540    -0.7750 C.3   1 <1>   0.0200 
  6 C        1.6450     0.8290    -0.0100 C.2   1 <1>   0.0460 
  7 C        0.0790    -3.3290     0.4970 C.3   1 <1>   0.1400 
  8 C        2.9220     1.6510     0.1590 C.3   1 <1>   0.1010 
  9 N       -0.1250    -4.7610     0.1810 N.am  1 <1>  -0.7300 
 10 C        2.6580     3.0210     0.8000 C.3   1 <1>  -0.2400 
 11 C        3.6230     1.8360    -1.1920 C.3   1 <1>  -0.2400 
 12 C       -1.3100    -5.3550    -0.1540 C.2   1 <1>   0.7160 
 13 O       -2.3030    -4.6550    -0.2570 O.2   1 <1>  -0.5700 
 14 C       -1.3460    -6.7920    -0.3850 C.2   1 <1>   0.2030 
 15 N       -0.3090    -7.6080    -0.2960 N.2   1 <1>  -0.7070 
 16 C       -2.4840    -7.5130    -0.7340 C.2   1 <1>  -0.1500 
 17 N       -0.7850    -8.8240    -0.5830 N.pl3 1 <1>   0.3140 
 18 C       -2.1120    -8.8130    -0.8540 C.2   1 <1>  -0.2370 
 19 C        0.1090    -9.9900    -0.5600 C.3   1 <1>   0.0960 
 20 C       -2.9240    -9.9390    -1.2150 C.2   1 <1>   0.7150 
 21 C       -0.4640   -11.0500     0.3760 C.3   1 <1>   0.2000 
 22 O       -4.0240    -9.7600    -1.6870 O.2   1 <1>  -0.5700 
 23 N       -2.5670   -11.2420    -1.0790 N.am  1 <1>  -0.7300 
 24 O        0.5750   -11.8650     0.8100 O.3   1 <1>  -0.6800 
 25 C       -1.5230   -11.9460    -0.2840 C.3   1 <1>   0.1400 
 26 H       -0.0510     2.2170     0.3410 H     1 <1>   0.1500 
 27 H        1.3020    -2.9680    -1.2240 H     1 <1>   0.0800 
 28 H       -0.3940    -2.6190    -1.4750 H     1 <1>   0.0800 
 29 H       -0.8190    -2.9270     0.9360 H     1 <1>   0.0800 
 30 H        0.8780    -3.2310     1.2110 H     1 <1>   0.0800 
 31 H        3.5790     1.0990     0.8110 H     1 <1>   0.0800 
 32 H        0.6810    -5.3900     0.2430 H     1 <1>   0.3700 
 33 H        2.0300     3.6210     0.1650 H     1 <1>   0.0800 
 34 H        3.5860     3.5410     0.9570 H     1 <1>   0.0800 
 35 H        2.1750     2.8950     1.7520 H     1 <1>   0.0800 
 36 H        2.9830     2.3650    -1.8760 H     1 <1>   0.0800 
 37 H        3.8560     0.8760    -1.6180 H     1 <1>   0.0800 
 38 H        4.5380     2.3860    -1.0710 H     1 <1>   0.0800 
 39 H       -3.4650    -7.0930    -0.8790 H     1 <1>   0.1500 
 40 H        1.0660    -9.6610    -0.1960 H     1 <1>   0.0800 
 41 H        0.2140   -10.3660    -1.5600 H     1 <1>   0.0800 
 42 H       -0.8720   -10.5820     1.2570 H     1 <1>   0.0800 
 43 H       -3.2980   -11.8600    -1.4400 H     1 <1>   0.3700 
 44 H        1.0390   -12.2940     0.0650 H     1 <1>   0.4000 
 45 H       -2.0120   -12.5170     0.4870 H     1 <1>   0.0800 
 46 H       -1.0290   -12.6380    -0.9450 H     1 <1>   0.0800 
@<TRIPOS>BOND
  1   1   2  1   
  2   1   3  1   
  3   2   4  2   
  4   2   5  1   
  5   3   6  2   
  6   3  26  1   
  7   4   6  1   
  8   5   7  1   
  9   5  27  1   
 10   5  28  1   
 11   6   8  1   
 12   7   9  1   
 13   7  29  1   
 14   7  30  1   
 15   8  10  1   
 16   8  11  1   
 17   8  31  1   
 18   9  12  am  
 19   9  32  1   
 20  10  33  1   
 21  10  34  1   
 22  10  35  1   
 23  11  36  1   
 24  11  37  1   
 25  11  38  1   
 26  12  13  2   
 27  12  14  1   
 28  14  15  2   
 29  14  16  1   
 30  15  17  1   
 31  16  18  2   
 32  16  39  1   
 33  17  18  1   
 34  17  19  1   
 35  18  20  1   
 36  19  21  1   
 37  19  40  1   
 38  19  41  1   
 39  20  22  2   
 40  20  23  am  
 41  21  24  1   
 42  21  25  1   
 43  21  42  1   
 44  23  25  1   
 45  23  43  1   
 46  24  44  1   
 47  25  45  1   
 48  25  46  1   
@<TRIPOS>SUBSTRUCTURE
  1 ****   9 GROUP 4 **** **** 0

# MOE 2024.06 (io_trps.svl 2023.06)
