@<TRIPOS>MOLECULE
NONAME
39 40 1 0 0 
SMALL
USER_CHARGES


@<TRIPOS>ATOM
  1 O        0.2040    -0.8510     1.1490 O.2   1 <1>  -0.5700 
  2 C        0.2610    -2.0650     1.1910 C.2   1 <1>   0.7160 
  3 N        1.0420    -2.5760     2.1810 N.am  1 <1>  -0.8000 
  4 C       -0.4510    -2.9420     0.2550 C.2   1 <1>   0.4300 
  5 N       -1.2580    -2.5800    -0.6860 N.2   1 <1>  -0.4100 
  6 N       -0.3250    -4.2820     0.2960 N.2   1 <1>  -0.5650 
  7 O       -1.6910    -3.6460    -1.2770 O.3   1 <1>  -0.0190 
  8 C       -1.1080    -4.6300    -0.6430 C.2   1 <1>   0.2980 
  9 C       -1.3960    -6.0590    -1.1000 C.3   1 <1>   0.2900 
 10 N       -2.6130    -6.6550    -0.4960 N.3   1 <1>  -0.8100 
 11 C       -2.6770    -8.1020    -0.8000 C.3   1 <1>   0.1100 
 12 C       -3.8470    -5.9720    -0.9220 C.3   1 <1>   0.1100 
 13 C       -3.8580    -8.7770    -0.0890 C.3   1 <1>   0.2000 
 14 C       -5.0600    -6.5700    -0.2010 C.3   1 <1>  -0.1600 
 15 O       -3.9060   -10.1030    -0.5180 O.3   1 <1>  -0.5600 
 16 C       -5.1790    -8.0820    -0.4420 C.3   1 <1>  -0.1600 
 17 C       -4.5170   -10.9890     0.3640 C.3   1 <1>   0.1200 
 18 C       -4.4590   -12.3820    -0.2600 C.3   1 <1>  -0.1600 
 19 C       -5.1090   -13.4300     0.6500 C.3   1 <1>  -0.2400 
 20 H        1.5130    -1.9500     2.8320 H     1 <1>   0.3700 
 21 H        1.1350    -3.5840     2.3170 H     1 <1>   0.3700 
 22 H       -0.5480    -6.6580    -0.8200 H     1 <1>   0.0800 
 23 H       -1.4740    -6.0790    -2.1730 H     1 <1>   0.0800 
 24 H       -1.7700    -8.5790    -0.4700 H     1 <1>   0.0800 
 25 H       -2.7800    -8.2450    -1.8620 H     1 <1>   0.0800 
 26 H       -3.9720    -6.0660    -1.9890 H     1 <1>   0.0800 
 27 H       -3.7930    -4.9250    -0.6760 H     1 <1>   0.0800 
 28 H       -3.6790    -8.7520     0.9730 H     1 <1>   0.0800 
 29 H       -5.9540    -6.0790    -0.5430 H     1 <1>   0.0800 
 30 H       -4.9620    -6.3760     0.8530 H     1 <1>   0.0800 
 31 H       -5.9800    -8.4740     0.1570 H     1 <1>   0.0800 
 32 H       -5.4020    -8.2580    -1.4800 H     1 <1>   0.0800 
 33 H       -5.5390   -10.6880     0.5160 H     1 <1>   0.0800 
 34 H       -3.9830   -10.9710     1.2990 H     1 <1>   0.0800 
 35 H       -3.4300   -12.6480    -0.4310 H     1 <1>   0.0800 
 36 H       -4.9710   -12.3650    -1.2060 H     1 <1>   0.0800 
 37 H       -4.6010   -13.4740     1.5970 H     1 <1>   0.0800 
 38 H       -5.0540   -14.4000     0.1880 H     1 <1>   0.0800 
 39 H       -6.1440   -13.1910     0.8200 H     1 <1>   0.0800 
@<TRIPOS>BOND
  1   1   2  2   
  2   2   3  am  
  3   2   4  1   
  4   3  20  1   
  5   3  21  1   
  6   4   5  2   
  7   4   6  1   
  8   5   7  1   
  9   6   8  2   
 10   7   8  1   
 11   8   9  1   
 12   9  10  1   
 13   9  22  1   
 14   9  23  1   
 15  10  11  1   
 16  10  12  1   
 17  11  13  1   
 18  11  24  1   
 19  11  25  1   
 20  12  14  1   
 21  12  26  1   
 22  12  27  1   
 23  13  15  1   
 24  13  16  1   
 25  13  28  1   
 26  14  16  1   
 27  14  29  1   
 28  14  30  1   
 29  15  17  1   
 30  16  31  1   
 31  16  32  1   
 32  17  18  1   
 33  17  33  1   
 34  17  34  1   
 35  18  19  1   
 36  18  35  1   
 37  18  36  1   
 38  19  37  1   
 39  19  38  1   
 40  19  39  1   
@<TRIPOS>SUBSTRUCTURE
  1 ****  10 GROUP 4 **** **** 0

# MOE 2024.06 (io_trps.svl 2023.06)
