@<TRIPOS>MOLECULE
NONAME
57 59 1 0 0 
SMALL
USER_CHARGES


@<TRIPOS>ATOM
  1 O        2.0510     2.7880    -1.6630 O.co2 1 <1>  -0.9000 
  2 C        2.1460     2.0570    -0.6740 C.2   1 <1>   0.9060 
  3 O        2.0800     2.5240     0.4650 O.co2 1 <1>  -0.9000 
  4 C        2.7160     0.6330    -0.8560 C.3   1 <1>  -0.1060 
  5 C        4.0690     0.6360    -0.1180 C.3   1 <1>   0.4230 
  6 C        3.0010     0.3100    -2.3610 C.3   1 <1>  -0.1600 
  7 C        1.7790    -0.4620    -0.2830 C.3   1 <1>  -0.1600 
  8 N        3.8440     0.7760     1.3660 N.4   1 <1>  -0.9590 
  9 C        5.0030     1.7320    -0.7300 C.3   1 <1>   0.3430 
 10 C        4.1530     1.1020    -3.0190 C.3   1 <1>   0.3430 
 11 C        1.6870    -0.4210     1.2520 C.3   1 <1>  -0.1600 
 12 C        3.0580    -0.3560     1.9270 C.3   1 <1>   0.3430 
 13 C        5.0370     1.1040     2.2010 C.3   1 <1>   0.2630 
 14 N        4.6130     2.1870    -2.1210 N.4   1 <1>  -0.9590 
 15 C        5.5280     3.1850    -2.7300 C.3   1 <1>   0.4860 
 16 C        5.8640     4.2130    -1.6660 C.ar  1 <1>  -0.1430 
 17 C        7.1520     4.2980    -1.1610 C.ar  1 <1>  -0.1500 
 18 C        4.8730     5.0340    -1.1500 C.ar  1 <1>  -0.1500 
 19 C        7.4540     5.1750    -0.1320 C.ar  1 <1>  -0.1430 
 20 C        5.1650     5.9150    -0.1270 C.ar  1 <1>  -0.1500 
 21 C        6.4530     5.9880     0.3950 C.ar  1 <1>   0.0830 
 22 C        8.8820     5.2090     0.4020 C.3   1 <1>   0.1220 
 23 O        6.7810     6.8210     1.4180 O.3   1 <1>  -0.3630 
 24 C        9.0920     4.0640     1.3800 C.2   1 <1>  -0.2880 
 25 C        5.8450     7.7180     1.9770 C.3   1 <1>   0.0400 
 26 C        9.9640     3.0630     1.2280 C.2   1 <1>  -0.3000 
 27 H        4.5390    -0.3170    -0.2920 H     1 <1>   0.0800 
 28 H        2.1040     0.4960    -2.9280 H     1 <1>   0.0800 
 29 H        3.2200    -0.7360    -2.4850 H     1 <1>   0.0800 
 30 H        0.7920    -0.3450    -0.7000 H     1 <1>   0.0800 
 31 H        2.1370    -1.4370    -0.5690 H     1 <1>   0.0800 
 32 H        3.1740     1.5960     1.4090 H     1 <1>   0.4500 
 33 H        6.0140     1.3640    -0.7430 H     1 <1>   0.0800 
 34 H        4.9660     2.5910    -0.0790 H     1 <1>   0.0800 
 35 H        3.8000     1.5240    -3.9470 H     1 <1>   0.0800 
 36 H        4.9740     0.4390    -3.2400 H     1 <1>   0.0800 
 37 H        1.1640    -1.2950     1.6000 H     1 <1>   0.0800 
 38 H        1.1050     0.4310     1.5600 H     1 <1>   0.0800 
 39 H        3.5870    -1.2820     1.7710 H     1 <1>   0.0800 
 40 H        2.9200    -0.2160     2.9870 H     1 <1>   0.0800 
 41 H        5.7630     0.3100     2.1520 H     1 <1>   0.0800 
 42 H        4.7390     1.2370     3.2290 H     1 <1>   0.0800 
 43 H        5.4920     2.0220     1.8660 H     1 <1>   0.0800 
 44 H        3.7230     2.7380    -1.9770 H     1 <1>   0.4500 
 45 H        6.4280     2.7060    -3.0750 H     1 <1>   0.0800 
 46 H        5.0460     3.6690    -3.5640 H     1 <1>   0.0800 
 47 H        7.9340     3.6710    -1.5550 H     1 <1>   0.1500 
 48 H        3.8590     4.9860    -1.5220 H     1 <1>   0.1500 
 49 H        4.3690     6.5300     0.2520 H     1 <1>   0.1500 
 50 H        9.5740     5.1230    -0.4170 H     1 <1>   0.0800 
 51 H        9.0910     6.1430     0.8930 H     1 <1>   0.0800 
 52 H        8.4490     4.1530     2.2400 H     1 <1>   0.1500 
 53 H        6.3400     8.2800     2.7480 H     1 <1>   0.0800 
 54 H        5.0310     7.1560     2.4000 H     1 <1>   0.0800 
 55 H        5.4950     8.3830     1.2070 H     1 <1>   0.0800 
 56 H       10.0980     2.2690     1.9430 H     1 <1>   0.1500 
 57 H       10.6240     2.9540     0.3840 H     1 <1>   0.1500 
@<TRIPOS>BOND
  1   1   2  ar  
  2   2   3  ar  
  3   2   4  1   
  4   4   5  1   
  5   4   6  1   
  6   4   7  1   
  7   5   8  1   
  8   5   9  1   
  9   5  27  1   
 10   6  10  1   
 11   6  28  1   
 12   6  29  1   
 13   7  11  1   
 14   7  30  1   
 15   7  31  1   
 16   8  12  1   
 17   8  13  1   
 18   8  32  1   
 19   9  14  1   
 20   9  33  1   
 21   9  34  1   
 22  10  14  1   
 23  10  35  1   
 24  10  36  1   
 25  11  12  1   
 26  11  37  1   
 27  11  38  1   
 28  12  39  1   
 29  12  40  1   
 30  13  41  1   
 31  13  42  1   
 32  13  43  1   
 33  14  15  1   
 34  14  44  1   
 35  15  16  1   
 36  15  45  1   
 37  15  46  1   
 38  16  17  ar  
 39  16  18  ar  
 40  17  19  ar  
 41  17  47  1   
 42  18  20  ar  
 43  18  48  1   
 44  19  21  ar  
 45  19  22  1   
 46  20  21  ar  
 47  20  49  1   
 48  21  23  1   
 49  22  24  1   
 50  22  50  1   
 51  22  51  1   
 52  23  25  1   
 53  24  26  2   
 54  24  52  1   
 55  25  53  1   
 56  25  54  1   
 57  25  55  1   
 58  26  56  1   
 59  26  57  1   
@<TRIPOS>SUBSTRUCTURE
  1 ****   9 GROUP 4 **** **** 0

# MOE 2024.06 (io_trps.svl 2023.06)
