@<TRIPOS>MOLECULE
NONAME
35 36 1 0 0 
SMALL
USER_CHARGES


@<TRIPOS>ATOM
  1 O       -1.4000    -0.2020     0.3830 O.2   1 <1>  -0.5700 
  2 C       -2.2060     0.7110     0.4830 C.2   1 <1>   0.7150 
  3 N       -3.4140     0.4240     1.0890 N.am  1 <1>  -0.6600 
  4 C       -1.8810     2.0150    -0.0620 C.2   1 <1>   0.0550 
  5 C       -3.6040    -0.8670     1.8110 C.3   1 <1>   0.3200 
  6 C       -4.6890     1.1430     0.7800 C.3   1 <1>   0.1400 
  7 O       -2.4410     3.1160     0.4240 O.3   1 <1>  -0.2800 
  8 C       -1.0330     2.3710    -1.0520 C.2   1 <1>   0.0460 
  9 C       -4.0700    -1.9330     0.8360 C.2   1 <1>   0.0060 
 10 C       -5.0750     0.9790    -0.6960 C.3   1 <1>   0.1200 
 11 C       -1.8950     4.0560    -0.3170 C.2   1 <1>   0.2980 
 12 N       -1.0540     3.6890    -1.2080 N.2   1 <1>  -0.5650 
 13 C       -0.1340     1.5400    -1.9460 C.3   1 <1>  -0.0590 
 14 N       -5.2640    -2.4350     0.7920 N.2   1 <1>  -0.5650 
 15 N       -3.2370    -2.4340    -0.1000 N.pl3 1 <1>   0.0330 
 16 O       -6.3570     1.4690    -0.8880 O.3   1 <1>  -0.6800 
 17 C       -2.3060     5.4850    -0.0580 C.3   1 <1>  -0.0600 
 18 C       -5.2020    -3.3170    -0.2250 C.2   1 <1>   0.0770 
 19 C       -3.9720    -3.3280    -0.7840 C.2   1 <1>  -0.3020 
 20 H       -4.3360    -0.7460     2.5900 H     1 <1>   0.0800 
 21 H       -2.6820    -1.1750     2.2730 H     1 <1>   0.0800 
 22 H       -4.5930     2.1870     1.0170 H     1 <1>   0.0800 
 23 H       -5.4800     0.7390     1.3880 H     1 <1>   0.0800 
 24 H       -5.0690    -0.0570    -0.9870 H     1 <1>   0.0800 
 25 H       -4.4100     1.5420    -1.3270 H     1 <1>   0.0800 
 26 H       -0.2630     0.4900    -1.7670 H     1 <1>   0.0800 
 27 H        0.8920     1.8010    -1.7630 H     1 <1>   0.0800 
 28 H       -0.3630     1.7450    -2.9760 H     1 <1>   0.0800 
 29 H       -2.2620    -2.1390    -0.2430 H     1 <1>   0.2700 
 30 H       -7.0170     0.8410    -0.5300 H     1 <1>   0.4000 
 31 H       -3.3630     5.5900    -0.2130 H     1 <1>   0.0800 
 32 H       -1.7850     6.1430    -0.7290 H     1 <1>   0.0800 
 33 H       -2.0660     5.7520     0.9540 H     1 <1>   0.0800 
 34 H       -6.0590    -3.9070    -0.5070 H     1 <1>   0.1500 
 35 H       -3.5910    -3.9060    -1.6070 H     1 <1>   0.1500 
@<TRIPOS>BOND
  1   1   2  2   
  2   2   3  am  
  3   2   4  1   
  4   3   5  1   
  5   3   6  1   
  6   4   7  1   
  7   4   8  2   
  8   5   9  1   
  9   5  20  1   
 10   5  21  1   
 11   6  10  1   
 12   6  22  1   
 13   6  23  1   
 14   7  11  1   
 15   8  12  1   
 16   8  13  1   
 17   9  14  2   
 18   9  15  1   
 19  10  16  1   
 20  10  24  1   
 21  10  25  1   
 22  11  12  2   
 23  11  17  1   
 24  13  26  1   
 25  13  27  1   
 26  13  28  1   
 27  14  18  1   
 28  15  19  1   
 29  15  29  1   
 30  16  30  1   
 31  17  31  1   
 32  17  32  1   
 33  17  33  1   
 34  18  19  2   
 35  18  34  1   
 36  19  35  1   
@<TRIPOS>SUBSTRUCTURE
  1 ****   2 GROUP 4 **** **** 0

# MOE 2024.06 (io_trps.svl 2023.06)
