@<TRIPOS>MOLECULE
NONAME
53 56 1 0 0 
SMALL
USER_CHARGES


@<TRIPOS>ATOM
  1 S        0.7470    -0.9090     0.0670 S.3   1 <1>  -0.2860 
  2 C        0.1860     0.7450     0.4710 C.2   1 <1>   0.2420 
  3 C        0.0410    -1.9800     1.4150 C.3   1 <1>   0.1310 
  4 N       -0.6230     1.0390     1.4230 N.2   1 <1>  -0.3380 
  5 N        0.5850     1.7980    -0.2190 N.pl3 1 <1>   0.0330 
  6 C       -0.7510    -3.1330     0.8130 C.2   1 <1>   0.5690 
  7 N       -0.7770     2.3640     1.3680 N.2   1 <1>  -0.3380 
  8 C       -0.0470     2.8170     0.3810 C.2   1 <1>   0.1860 
  9 O       -0.3140    -4.2480     0.9740 O.2   1 <1>  -0.5700 
 10 N       -1.9340    -2.9420     0.1340 N.am  1 <1>  -0.6600 
 11 C        0.0950     4.1870    -0.0410 C.2   1 <1>   0.1400 
 12 C       -2.6010    -4.0770    -0.5630 C.3   1 <1>   0.1400 
 13 C       -2.7100    -1.6690     0.1060 C.3   1 <1>   0.1400 
 14 O       -0.5230     5.1620     0.6150 O.3   1 <1>  -0.2800 
 15 C        0.8010     4.7390    -1.0680 C.2   1 <1>  -0.1500 
 16 C       -3.9800    -4.3440     0.0790 C.3   1 <1>   0.4230 
 17 C       -4.0800    -1.9180     0.7480 C.3   1 <1>  -0.1600 
 18 C       -0.2350     6.3100     0.0410 C.2   1 <1>  -0.0100 
 19 C        0.5840     6.1180    -1.0130 C.2   1 <1>  -0.1500 
 20 N       -4.6710    -5.5960    -0.4490 N.4   1 <1>  -0.9590 
 21 C       -4.8830    -3.0750     0.0840 C.3   1 <1>   0.0000 
 22 C       -6.1440    -5.6470    -0.1690 C.3   1 <1>   0.3430 
 23 C       -4.4160    -5.9150    -1.8930 C.3   1 <1>   0.2630 
 24 C       -6.1540    -3.3540     0.9400 C.3   1 <1>  -0.1600 
 25 C       -5.2800    -2.6930    -1.3710 C.3   1 <1>   0.1200 
 26 C       -6.4900    -4.8510     1.0880 C.3   1 <1>  -0.1600 
 27 O       -5.9110    -1.4620    -1.4260 O.3   1 <1>  -0.6800 
 28 H        0.8760    -2.3580     1.9750 H     1 <1>   0.0800 
 29 H       -0.5750    -1.3840     2.0580 H     1 <1>   0.0800 
 30 H        1.2260     1.8170    -1.0110 H     1 <1>   0.2700 
 31 H       -2.6950    -3.8240    -1.6030 H     1 <1>   0.0800 
 32 H       -1.9980    -4.9650    -0.4890 H     1 <1>   0.0800 
 33 H       -2.2060    -0.8920     0.6500 H     1 <1>   0.0800 
 34 H       -2.8220    -1.3320    -0.9120 H     1 <1>   0.0800 
 35 H        1.4150     4.2480    -1.8000 H     1 <1>   0.1500 
 36 H       -3.7650    -4.5380     1.1170 H     1 <1>   0.0800 
 37 H       -3.9090    -2.1380     1.7880 H     1 <1>   0.0800 
 38 H       -4.6420    -1.0000     0.7200 H     1 <1>   0.0800 
 39 H       -0.6560     7.2140     0.4470 H     1 <1>   0.1500 
 40 H        0.9970     6.8510    -1.6830 H     1 <1>   0.1500 
 41 H       -4.2540    -6.3650     0.0970 H     1 <1>   0.4500 
 42 H       -6.6880    -5.2270    -0.9990 H     1 <1>   0.0800 
 43 H       -6.4590    -6.6720    -0.0510 H     1 <1>   0.0800 
 44 H       -4.7870    -5.1260    -2.5270 H     1 <1>   0.0800 
 45 H       -4.9090    -6.8340    -2.1660 H     1 <1>   0.0800 
 46 H       -3.3600    -6.0350    -2.0740 H     1 <1>   0.0800 
 47 H       -6.0380    -2.9530     1.9330 H     1 <1>   0.0800 
 48 H       -7.0030    -2.8470     0.5150 H     1 <1>   0.0800 
 49 H       -5.9520    -3.4140    -1.8000 H     1 <1>   0.0800 
 50 H       -4.4160    -2.6150    -2.0070 H     1 <1>   0.0800 
 51 H       -7.5410    -4.9560     1.2960 H     1 <1>   0.0800 
 52 H       -5.9610    -5.2690     1.9270 H     1 <1>   0.0800 
 53 H       -6.7390    -1.4430    -0.9060 H     1 <1>   0.4000 
@<TRIPOS>BOND
  1   1   2  1   
  2   1   3  1   
  3   2   4  2   
  4   2   5  1   
  5   3   6  1   
  6   3  28  1   
  7   3  29  1   
  8   4   7  1   
  9   5   8  1   
 10   5  30  1   
 11   6   9  2   
 12   6  10  am  
 13   7   8  2   
 14   8  11  1   
 15  10  12  1   
 16  10  13  1   
 17  11  14  1   
 18  11  15  2   
 19  12  16  1   
 20  12  31  1   
 21  12  32  1   
 22  13  17  1   
 23  13  33  1   
 24  13  34  1   
 25  14  18  1   
 26  15  19  1   
 27  15  35  1   
 28  16  20  1   
 29  16  21  1   
 30  16  36  1   
 31  17  21  1   
 32  17  37  1   
 33  17  38  1   
 34  18  19  2   
 35  18  39  1   
 36  19  40  1   
 37  20  22  1   
 38  20  23  1   
 39  20  41  1   
 40  21  24  1   
 41  21  25  1   
 42  22  26  1   
 43  22  42  1   
 44  22  43  1   
 45  23  44  1   
 46  23  45  1   
 47  23  46  1   
 48  24  26  1   
 49  24  47  1   
 50  24  48  1   
 51  25  27  1   
 52  25  49  1   
 53  25  50  1   
 54  26  51  1   
 55  26  52  1   
 56  27  53  1   
@<TRIPOS>SUBSTRUCTURE
  1 ****  13 GROUP 4 **** **** 0

# MOE 2024.06 (io_trps.svl 2023.06)
