@<TRIPOS>MOLECULE
NONAME
51 52 1 0 0 
SMALL
USER_CHARGES


@<TRIPOS>ATOM
  1 O       -2.9100     1.5050     2.6160 O.2   1 <1>  -0.5700 
  2 C       -2.5960     1.0380     1.5440 C.2   1 <1>   0.5690 
  3 N       -2.7100    -0.3050     1.3050 N.am  1 <1>  -0.6600 
  4 C       -2.2230     2.0090     0.3990 C.3   1 <1>   0.4840 
  5 C       -1.8940    -1.0460     0.2980 C.3   1 <1>   0.3210 
  6 C       -3.9170    -1.0230     1.8160 C.3   1 <1>   0.1400 
  7 N       -3.4810     2.6040    -0.2210 N.4   1 <1>  -0.9590 
  8 C       -1.1890     3.0480     0.8850 C.3   1 <1>  -0.0170 
  9 C       -2.6610    -1.2110    -1.0110 C.2   1 <1>   0.0460 
 10 C       -5.2360    -0.3380     1.3860 C.3   1 <1>   0.1200 
 11 C       -3.2780     3.1010    -1.6130 C.3   1 <1>   0.2630 
 12 C       -4.1660     3.6020     0.6510 C.3   1 <1>   0.2630 
 13 C       -0.6970     3.9630    -0.2260 C.ar  1 <1>  -0.1440 
 14 N       -2.9120    -0.1460    -1.8030 N.2   1 <1>  -0.5650 
 15 C       -3.1760    -2.3410    -1.5510 C.2   1 <1>  -0.3320 
 16 O       -5.1430     0.2340     0.1130 O.3   1 <1>  -0.6800 
 17 C       -0.9630     5.3230    -0.1830 C.ar  1 <1>  -0.1500 
 18 C        0.0110     3.4410    -1.2990 C.ar  1 <1>  -0.1500 
 19 C       -3.5540    -0.6500    -2.8080 C.2   1 <1>   0.0360 
 20 N       -3.7480    -1.9810    -2.7150 N.pl3 1 <1>   0.0330 
 21 C       -3.1740    -3.7840    -1.0680 C.3   1 <1>  -0.0600 
 22 C       -0.5440     6.1490    -1.2110 C.ar  1 <1>  -0.1500 
 23 C        0.4300     4.2670    -2.3270 C.ar  1 <1>  -0.1500 
 24 C        0.1500     5.6210    -2.2850 C.ar  1 <1>  -0.1500 
 25 H       -1.7420     1.4200    -0.3600 H     1 <1>   0.0800 
 26 H       -0.9740    -0.5230     0.1070 H     1 <1>   0.0800 
 27 H       -1.6380    -2.0110     0.6970 H     1 <1>   0.0800 
 28 H       -3.9210    -2.0380     1.4570 H     1 <1>   0.0800 
 29 H       -3.8760    -1.0640     2.8920 H     1 <1>   0.0800 
 30 H       -4.1250     1.7820    -0.2850 H     1 <1>   0.4500 
 31 H       -1.5950     3.6230     1.6970 H     1 <1>   0.0800 
 32 H       -0.3400     2.5190     1.2810 H     1 <1>   0.0800 
 33 H       -5.4860     0.4460     2.0800 H     1 <1>   0.0800 
 34 H       -6.0410    -1.0530     1.3800 H     1 <1>   0.0800 
 35 H       -2.6790     3.9960    -1.6160 H     1 <1>   0.0800 
 36 H       -4.2280     3.3230    -2.0690 H     1 <1>   0.0800 
 37 H       -2.7810     2.3500    -2.2060 H     1 <1>   0.0800 
 38 H       -3.5600     4.4870     0.7540 H     1 <1>   0.0800 
 39 H       -4.3420     3.1840     1.6290 H     1 <1>   0.0800 
 40 H       -5.1150     3.8790     0.2220 H     1 <1>   0.0800 
 41 H       -4.6290    -0.3620    -0.4860 H     1 <1>   0.4000 
 42 H       -1.4930     5.7550     0.6480 H     1 <1>   0.1500 
 43 H        0.2480     2.3920    -1.3490 H     1 <1>   0.1500 
 44 H       -3.9100    -0.0870    -3.6550 H     1 <1>   0.1500 
 45 H       -4.2220    -2.5860    -3.3950 H     1 <1>   0.2700 
 46 H       -2.6780    -3.8760    -0.1190 H     1 <1>   0.0800 
 47 H       -2.6620    -4.4110    -1.7770 H     1 <1>   0.0800 
 48 H       -4.1830    -4.1410    -0.9590 H     1 <1>   0.0800 
 49 H       -0.7500     7.2060    -1.1740 H     1 <1>   0.1500 
 50 H        0.9800     3.8600    -3.1580 H     1 <1>   0.1500 
 51 H        0.4790     6.2640    -3.0830 H     1 <1>   0.1500 
@<TRIPOS>BOND
  1   1   2  2   
  2   2   3  am  
  3   2   4  1   
  4   3   5  1   
  5   3   6  1   
  6   4   7  1   
  7   4   8  1   
  8   4  25  1   
  9   5   9  1   
 10   5  26  1   
 11   5  27  1   
 12   6  10  1   
 13   6  28  1   
 14   6  29  1   
 15   7  11  1   
 16   7  12  1   
 17   7  30  1   
 18   8  13  1   
 19   8  31  1   
 20   8  32  1   
 21   9  14  1   
 22   9  15  2   
 23  10  16  1   
 24  10  33  1   
 25  10  34  1   
 26  11  35  1   
 27  11  36  1   
 28  11  37  1   
 29  12  38  1   
 30  12  39  1   
 31  12  40  1   
 32  13  17  ar  
 33  13  18  ar  
 34  14  19  2   
 35  15  20  1   
 36  15  21  1   
 37  16  41  1   
 38  17  22  ar  
 39  17  42  1   
 40  18  23  ar  
 41  18  43  1   
 42  19  20  1   
 43  19  44  1   
 44  20  45  1   
 45  21  46  1   
 46  21  47  1   
 47  21  48  1   
 48  22  24  ar  
 49  22  49  1   
 50  23  24  ar  
 51  23  50  1   
 52  24  51  1   
@<TRIPOS>SUBSTRUCTURE
  1 ****   4 GROUP 4 **** **** 0

# MOE 2024.06 (io_trps.svl 2023.06)
