@<TRIPOS>MOLECULE
NONAME
50 53 1 0 0 
SMALL
USER_CHARGES


@<TRIPOS>ATOM
  1 S        0.8730    -1.4620     3.0040 S.3   1 <1>  -0.2420 
  2 C        1.7910    -1.2410     1.5200 C.2   1 <1>   0.6410 
  3 C       -0.2890    -2.5380     2.2000 C.2   1 <1>  -0.0490 
  4 N        2.8380    -0.4960     1.5110 N.2   1 <1>  -0.6610 
  5 N        1.1780    -1.9650     0.5520 N.pl3 1 <1>  -0.5500 
  6 C        0.0280    -2.6870     0.9000 C.2   1 <1>   0.1460 
  7 C        3.5490    -0.3160     0.3670 C.2   1 <1>   0.7200 
  8 C       -0.6300    -3.4700    -0.1200 C.2   1 <1>  -0.0460 
  9 O        3.2360    -0.7780    -0.7090 O.2   1 <1>  -0.5700 
 10 C        4.8010     0.5360     0.4990 C.3   1 <1>   0.2370 
 11 C       -2.0020    -3.8470    -0.1440 C.ar  1 <1>   0.0000 
 12 C       -0.0690    -3.9980    -1.2450 C.2   1 <1>  -0.3020 
 13 N        5.8990    -0.3890     0.8390 N.pl3 1 <1>   0.3140 
 14 C        5.1200     1.4490    -0.7210 C.3   1 <1>  -0.0800 
 15 C       -2.1920    -4.6090    -1.2930 C.ar  1 <1>  -0.1520 
 16 C       -3.0980    -3.6020     0.6900 C.ar  1 <1>  -0.1500 
 17 N       -0.9980    -4.6890    -1.9600 N.pl3 1 <1>   0.0330 
 18 N        6.5490    -1.1450    -0.0220 N.2   1 <1>  -0.4180 
 19 C        6.4070    -0.6300     2.0320 C.2   1 <1>   0.0370 
 20 C        6.4290     2.2480    -0.5060 C.3   1 <1>  -0.1600 
 21 C        3.9430     2.4100    -1.0000 C.3   1 <1>  -0.2400 
 22 C       -3.4400    -5.1470    -1.6110 C.ar  1 <1>  -0.1500 
 23 C       -4.3340    -4.1280     0.3870 C.ar  1 <1>   0.0830 
 24 N        7.4190    -1.8030     0.6560 N.2   1 <1>   0.0000 
 25 N        7.3440    -1.4920     1.9460 N.2   1 <1>  -0.3380 
 26 C        6.8530     3.0800    -1.7240 C.3   1 <1>  -0.2400 
 27 C       -4.5040    -4.9080    -0.7720 C.ar  1 <1>  -0.1500 
 28 O       -5.3470    -3.8490     1.2530 O.3   1 <1>  -0.3630 
 29 C       -6.6580    -4.3090     1.0100 C.3   1 <1>   0.0400 
 30 H       -1.0790    -2.9450     2.8040 H     1 <1>   0.1500 
 31 H        1.5580    -1.9490    -0.4000 H     1 <1>   0.4000 
 32 H        4.6570     1.1780     1.3480 H     1 <1>   0.0800 
 33 H        0.9530    -3.9260    -1.5720 H     1 <1>   0.1500 
 34 H        5.2420     0.8180    -1.5870 H     1 <1>   0.0800 
 35 H       -2.9840    -2.9980     1.5680 H     1 <1>   0.1500 
 36 H       -0.8480    -5.1900    -2.8410 H     1 <1>   0.2700 
 37 H        6.0690    -0.1640     2.9390 H     1 <1>   0.1500 
 38 H        6.3280     2.9010     0.3450 H     1 <1>   0.0800 
 39 H        7.2380     1.5690    -0.2970 H     1 <1>   0.0800 
 40 H        3.8170     3.1080    -0.1910 H     1 <1>   0.0800 
 41 H        3.0220     1.8710    -1.1360 H     1 <1>   0.0800 
 42 H        4.1110     2.9640    -1.9060 H     1 <1>   0.0800 
 43 H       -3.5600    -5.7380    -2.5020 H     1 <1>   0.1500 
 44 H        6.1750     3.8960    -1.8970 H     1 <1>   0.0800 
 45 H        6.8930     2.4640    -2.6050 H     1 <1>   0.0800 
 46 H        7.8320     3.4940    -1.5580 H     1 <1>   0.0800 
 47 H       -5.4610    -5.3250    -1.0180 H     1 <1>   0.1500 
 48 H       -7.2860    -3.9590     1.8090 H     1 <1>   0.0800 
 49 H       -6.6530    -5.3840     0.9940 H     1 <1>   0.0800 
 50 H       -7.0010    -3.9070     0.0730 H     1 <1>   0.0800 
@<TRIPOS>BOND
  1   1   2  1   
  2   1   3  1   
  3   2   4  2   
  4   2   5  1   
  5   3   6  2   
  6   3  30  1   
  7   4   7  1   
  8   5   6  1   
  9   5  31  1   
 10   6   8  1   
 11   7   9  2   
 12   7  10  1   
 13   8  11  1   
 14   8  12  2   
 15  10  13  1   
 16  10  14  1   
 17  10  32  1   
 18  11  15  ar  
 19  11  16  ar  
 20  12  17  1   
 21  12  33  1   
 22  13  18  1   
 23  13  19  1   
 24  14  20  1   
 25  14  21  1   
 26  14  34  1   
 27  15  17  1   
 28  15  22  ar  
 29  16  23  ar  
 30  16  35  1   
 31  17  36  1   
 32  18  24  2   
 33  19  25  2   
 34  19  37  1   
 35  20  26  1   
 36  20  38  1   
 37  20  39  1   
 38  21  40  1   
 39  21  41  1   
 40  21  42  1   
 41  22  27  ar  
 42  22  43  1   
 43  23  27  ar  
 44  23  28  1   
 45  24  25  1   
 46  26  44  1   
 47  26  45  1   
 48  26  46  1   
 49  27  47  1   
 50  28  29  1   
 51  29  48  1   
 52  29  49  1   
 53  29  50  1   
@<TRIPOS>SUBSTRUCTURE
  1 ****   5 GROUP 4 **** **** 0

# MOE 2024.06 (io_trps.svl 2023.06)
