@<TRIPOS>MOLECULE
NONAME
53 56 1 0 0 
SMALL
USER_CHARGES


@<TRIPOS>ATOM
  1 O       -3.4490    -0.6230     1.6960 O.2   1 <1>  -0.5700 
  2 C       -3.1700     0.1710     0.8120 C.2   1 <1>   0.7150 
  3 N       -3.7770    -0.0040    -0.4200 N.am  1 <1>  -0.6600 
  4 C       -2.2410     1.2470     1.1010 C.2   1 <1>   0.0550 
  5 C       -4.3550    -1.3230    -0.8140 C.3   1 <1>   0.1400 
  6 C       -4.1240     1.1210    -1.3320 C.3   1 <1>   0.1400 
  7 O       -1.6100     1.9260     0.1430 O.3   1 <1>  -0.2800 
  8 C       -1.8270     1.7330     2.3050 C.2   1 <1>  -0.1500 
  9 C       -5.8890    -1.2270    -0.8950 C.3   1 <1>   0.2890 
 10 C       -5.6510     1.2250    -1.4630 C.3   1 <1>  -0.1600 
 11 C       -0.8240     2.8190     0.6990 C.2   1 <1>  -0.0100 
 12 C       -0.9120     2.7540     2.0430 C.2   1 <1>  -0.1500 
 13 N       -6.4890    -2.5080    -1.3640 N.pl3 1 <1>  -0.8690 
 14 C       -6.3060    -0.1100    -1.8590 C.3   1 <1>  -0.1600 
 15 C       -6.7010    -3.5670    -0.5680 C.ar  1 <1>   0.7710 
 16 N       -6.2920    -3.5040     0.6900 N.ar  1 <1>  -0.6200 
 17 N       -7.3040    -4.6520    -1.0600 N.ar  1 <1>  -0.1790 
 18 C       -6.4740    -4.5340     1.4640 C.ar  1 <1>   0.4100 
 19 C       -7.5410    -5.7700    -0.2970 C.ar  1 <1>   0.3610 
 20 N       -6.0000    -4.3890     2.7030 N.pl3 1 <1>  -0.9000 
 21 C       -7.1220    -5.7330     1.0340 C.ar  1 <1>   0.0000 
 22 C       -8.1670    -6.9040    -0.8130 C.ar  1 <1>  -0.1500 
 23 C       -7.3680    -6.8560     1.8380 C.ar  1 <1>  -0.1500 
 24 C       -8.3850    -8.0080    -0.0220 C.ar  1 <1>   0.0820 
 25 C       -8.0000    -7.9680     1.3340 C.ar  1 <1>   0.0820 
 26 O       -8.9640    -9.0690    -0.6250 O.3   1 <1>  -0.3620 
 27 O       -8.2340    -8.9940     2.1810 O.3   1 <1>  -0.3620 
 28 C       -8.5090   -10.3810    -0.3610 C.3   1 <1>   0.0400 
 29 C       -9.5440    -9.0720     2.7020 C.3   1 <1>   0.0400 
 30 H       -4.0770    -2.0800    -0.1010 H     1 <1>   0.0800 
 31 H       -3.9550    -1.6000    -1.7730 H     1 <1>   0.0800 
 32 H       -3.6770     0.9440    -2.2960 H     1 <1>   0.0800 
 33 H       -3.7470     2.0550    -0.9550 H     1 <1>   0.0800 
 34 H       -2.1360     1.3970     3.2790 H     1 <1>   0.1500 
 35 H       -6.2600    -0.9960     0.0920 H     1 <1>   0.0800 
 36 H       -5.8900     1.9770    -2.1950 H     1 <1>   0.0800 
 37 H       -6.0520     1.5570    -0.5200 H     1 <1>   0.0800 
 38 H       -0.2330     3.4620     0.0690 H     1 <1>   0.1500 
 39 H       -0.3990     3.3450     2.7810 H     1 <1>   0.1500 
 40 H       -6.7310    -2.4770    -2.3540 H     1 <1>   0.4000 
 41 H       -7.3750     0.0050    -1.8420 H     1 <1>   0.0800 
 42 H       -5.9970    -0.3590    -2.8600 H     1 <1>   0.0800 
 43 H       -7.5980    -4.6350    -2.0290 H     1 <1>   0.4570 
 44 H       -6.0330    -5.0900     3.4450 H     1 <1>   0.4000 
 45 H       -5.5200    -3.5190     2.9630 H     1 <1>   0.4000 
 46 H       -8.4830    -6.9420    -1.8390 H     1 <1>   0.1500 
 47 H       -7.0660    -6.8570     2.8700 H     1 <1>   0.1500 
 48 H       -8.7730   -11.0030    -1.1970 H     1 <1>   0.0800 
 49 H       -8.9880   -10.7500     0.5260 H     1 <1>   0.0800 
 50 H       -7.4400   -10.3700    -0.2350 H     1 <1>   0.0800 
 51 H       -9.6050    -9.9430     3.3300 H     1 <1>   0.0800 
 52 H      -10.2430    -9.1560     1.8890 H     1 <1>   0.0800 
 53 H       -9.7440    -8.1880     3.2800 H     1 <1>   0.0800 
@<TRIPOS>BOND
  1   1   2  2   
  2   2   3  am  
  3   2   4  1   
  4   3   5  1   
  5   3   6  1   
  6   4   7  1   
  7   4   8  2   
  8   5   9  1   
  9   5  30  1   
 10   5  31  1   
 11   6  10  1   
 12   6  32  1   
 13   6  33  1   
 14   7  11  1   
 15   8  12  1   
 16   8  34  1   
 17   9  13  1   
 18   9  14  1   
 19   9  35  1   
 20  10  14  1   
 21  10  36  1   
 22  10  37  1   
 23  11  12  2   
 24  11  38  1   
 25  12  39  1   
 26  13  15  1   
 27  13  40  1   
 28  14  41  1   
 29  14  42  1   
 30  15  16  ar  
 31  15  17  ar  
 32  16  18  ar  
 33  17  19  ar  
 34  17  43  1   
 35  18  20  1   
 36  18  21  ar  
 37  19  21  ar  
 38  19  22  ar  
 39  20  44  1   
 40  20  45  1   
 41  21  23  ar  
 42  22  24  ar  
 43  22  46  1   
 44  23  25  ar  
 45  23  47  1   
 46  24  25  ar  
 47  24  26  1   
 48  25  27  1   
 49  26  28  1   
 50  27  29  1   
 51  28  48  1   
 52  28  49  1   
 53  28  50  1   
 54  29  51  1   
 55  29  52  1   
 56  29  53  1   
@<TRIPOS>SUBSTRUCTURE
  1 ****  16 GROUP 4 **** **** 0

# MOE 2024.06 (io_trps.svl 2023.06)
