@<TRIPOS>MOLECULE
NONAME
53 57 1 0 0 
SMALL
USER_CHARGES


@<TRIPOS>ATOM
  1 S       -0.7940     0.5200     1.8740 S.3   1 <1>  -0.0800 
  2 C       -0.4300     1.8310     0.7730 C.2   1 <1>  -0.1400 
  3 C        0.6820     0.8400     2.7720 C.2   1 <1>  -0.1100 
  4 C        0.7250     2.4360     1.0770 C.2   1 <1>  -0.1810 
  5 C       -1.3350     2.2070    -0.3680 C.3   1 <1>   0.0200 
  6 C        1.3630     1.8700     2.2320 C.2   1 <1>  -0.1500 
  7 C        1.2560     3.5990     0.2330 C.3   1 <1>   0.4610 
  8 C       -0.9600     3.6370    -0.7860 C.3   1 <1>   0.1200 
  9 O        0.4370     3.7900    -0.9060 O.3   1 <1>  -0.5600 
 10 C        1.2580     4.9040     1.0460 C.3   1 <1>  -0.1600 
 11 C        2.6510     3.2630    -0.3290 C.3   1 <1>  -0.1600 
 12 C        2.1870     5.9370     0.4140 C.3   1 <1>   0.1400 
 13 C        3.7870     3.9560     0.4250 C.3   1 <1>   0.1400 
 14 N        3.5980     5.4410     0.4320 N.am  1 <1>  -0.6600 
 15 C        4.7030     6.2570     0.4870 C.2   1 <1>   0.5690 
 16 O        5.8130     5.7990     0.6200 O.2   1 <1>  -0.5700 
 17 C        4.5680     7.7750     0.3960 C.3   1 <1>  -0.0190 
 18 C        5.7940     8.4800    -0.2060 C.3   1 <1>   0.1400 
 19 C        4.3800     8.4460     1.7620 C.3   1 <1>  -0.0990 
 20 N        5.8180     9.8040     0.4530 N.am  1 <1>  -0.4770 
 21 C        5.0320     9.7860     1.5710 C.2   1 <1>   0.5690 
 22 C        6.5630    10.8750    -0.0840 C.ar  1 <1>   0.1170 
 23 O        4.8310    10.6960     2.3380 O.2   1 <1>  -0.5700 
 24 C        7.7690    10.6490    -0.7410 C.ar  1 <1>  -0.1500 
 25 C        6.1080    12.1880     0.0160 C.ar  1 <1>  -0.1500 
 26 C        8.4860    11.7010    -1.2800 C.ar  1 <1>   0.0820 
 27 C        6.8280    13.2420    -0.5210 C.ar  1 <1>  -0.1500 
 28 O        9.6450    11.4510    -1.9090 O.3   1 <1>  -0.5330 
 29 C        8.0230    13.0020    -1.1750 C.ar  1 <1>  -0.1500 
 30 H        0.8860     0.2140     3.6220 H     1 <1>   0.1500 
 31 H       -2.3640     2.1750    -0.0600 H     1 <1>   0.0800 
 32 H       -1.1940     1.5280    -1.1890 H     1 <1>   0.0800 
 33 H        2.2960     2.2540     2.6040 H     1 <1>   0.1500 
 34 H       -1.3210     4.3420    -0.0580 H     1 <1>   0.0800 
 35 H       -1.3990     3.8720    -1.7390 H     1 <1>   0.0800 
 36 H        1.6000     4.7100     2.0470 H     1 <1>   0.0800 
 37 H        0.2630     5.2970     1.1270 H     1 <1>   0.0800 
 38 H        2.7130     3.5670    -1.3590 H     1 <1>   0.0800 
 39 H        2.8060     2.2000    -0.3020 H     1 <1>   0.0800 
 40 H        2.1070     6.8560     0.9660 H     1 <1>   0.0800 
 41 H        1.8860     6.1190    -0.6050 H     1 <1>   0.0800 
 42 H        4.7230     3.7080    -0.0470 H     1 <1>   0.0800 
 43 H        3.8270     3.6050     1.4410 H     1 <1>   0.0800 
 44 H        3.7360     8.0220    -0.2360 H     1 <1>   0.0800 
 45 H        5.7030     8.5830    -1.2740 H     1 <1>   0.0800 
 46 H        6.7080     7.9630     0.0310 H     1 <1>   0.0800 
 47 H        4.9070     7.9150     2.5350 H     1 <1>   0.0800 
 48 H        3.3450     8.5560     2.0270 H     1 <1>   0.0800 
 49 H        8.1660     9.6570    -0.8320 H     1 <1>   0.1500 
 50 H        5.1810    12.3900     0.5220 H     1 <1>   0.1500 
 51 H        6.4550    14.2470    -0.4270 H     1 <1>   0.1500 
 52 H       10.0840    12.2570    -2.2330 H     1 <1>   0.4500 
 53 H        8.5800    13.8210    -1.5910 H     1 <1>   0.1500 
@<TRIPOS>BOND
  1   1   2  1   
  2   1   3  1   
  3   2   4  2   
  4   2   5  1   
  5   3   6  2   
  6   3  30  1   
  7   4   6  1   
  8   4   7  1   
  9   5   8  1   
 10   5  31  1   
 11   5  32  1   
 12   6  33  1   
 13   7   9  1   
 14   7  10  1   
 15   7  11  1   
 16   8   9  1   
 17   8  34  1   
 18   8  35  1   
 19  10  12  1   
 20  10  36  1   
 21  10  37  1   
 22  11  13  1   
 23  11  38  1   
 24  11  39  1   
 25  12  14  1   
 26  12  40  1   
 27  12  41  1   
 28  13  14  1   
 29  13  42  1   
 30  13  43  1   
 31  14  15  am  
 32  15  16  2   
 33  15  17  1   
 34  17  18  1   
 35  17  19  1   
 36  17  44  1   
 37  18  20  1   
 38  18  45  1   
 39  18  46  1   
 40  19  21  1   
 41  19  47  1   
 42  19  48  1   
 43  20  21  am  
 44  20  22  1   
 45  21  23  2   
 46  22  24  ar  
 47  22  25  ar  
 48  24  26  ar  
 49  24  49  1   
 50  25  27  ar  
 51  25  50  1   
 52  26  28  1   
 53  26  29  ar  
 54  27  29  ar  
 55  27  51  1   
 56  28  52  1   
 57  29  53  1   
@<TRIPOS>SUBSTRUCTURE
  1 ****  15 GROUP 4 **** **** 0

# MOE 2024.06 (io_trps.svl 2023.06)
