@<TRIPOS>MOLECULE
NONAME
42 44 1 0 0 
SMALL
USER_CHARGES


@<TRIPOS>ATOM
  1 O       -0.3790     0.2410     0.9100 O.2   1 <1>  -0.5700 
  2 C       -1.3830     0.8940     0.6740 C.2   1 <1>   0.5440 
  3 N       -2.5160     0.1950     0.3020 N.am  1 <1>  -0.6600 
  4 C       -1.3560     2.3600     0.7560 C.ar  1 <1>   0.3960 
  5 C       -3.8310     0.7980    -0.0230 C.3   1 <1>   0.1400 
  6 C       -2.5860    -1.2850     0.2550 C.3   1 <1>   0.1400 
  7 N       -2.2750     2.9730     1.5290 N.ar  1 <1>  -0.6200 
  8 C       -0.4000     3.0990     0.0360 C.ar  1 <1>  -0.1430 
  9 C       -4.6720    -0.3670    -0.5390 C.3   1 <1>   0.2000 
 10 C       -4.0730    -1.6140     0.1080 C.3   1 <1>  -0.0800 
 11 C       -2.2310     4.2880     1.5990 C.ar  1 <1>   0.1600 
 12 C       -0.3790     4.4760     0.1250 C.ar  1 <1>  -0.1500 
 13 C        0.6340     2.4230    -0.8610 C.3   1 <1>  -0.0960 
 14 O       -6.0050    -0.2340    -0.1850 O.3   1 <1>  -0.6800 
 15 C       -4.3460    -2.8970    -0.6900 C.3   1 <1>   0.0210 
 16 C       -1.3180     5.0770     0.9290 C.ar  1 <1>  -0.1500 
 17 C       -3.6580    -4.0910    -0.0580 C.2   1 <1>   0.1080 
 18 N       -3.9940    -4.5630     1.1020 N.2   1 <1>  -0.7070 
 19 C       -2.6040    -4.7970    -0.6280 C.2   1 <1>  -0.1500 
 20 N       -3.1540    -5.5950     1.3050 N.pl3 1 <1>   0.3000 
 21 C       -2.3010    -5.7560     0.2720 C.2   1 <1>  -0.3320 
 22 C       -1.2340    -6.8330     0.2070 C.3   1 <1>  -0.0600 
 23 H       -4.2590     1.2120     0.8740 H     1 <1>   0.0800 
 24 H       -3.7240     1.5630    -0.7720 H     1 <1>   0.0800 
 25 H       -2.0240    -1.6330    -0.5950 H     1 <1>   0.0800 
 26 H       -2.1760    -1.7180     1.1530 H     1 <1>   0.0800 
 27 H       -4.6080    -0.4110    -1.6130 H     1 <1>   0.0800 
 28 H       -4.4670    -1.7300     1.1030 H     1 <1>   0.0800 
 29 H       -2.9630     4.7680     2.2270 H     1 <1>   0.1500 
 30 H        0.3440     5.0680    -0.4100 H     1 <1>   0.1500 
 31 H        1.1510     3.1420    -1.4720 H     1 <1>   0.0800 
 32 H        0.1590     1.7100    -1.5120 H     1 <1>   0.0800 
 33 H        1.3600     1.9070    -0.2570 H     1 <1>   0.0800 
 34 H       -6.1020    -0.3020     0.7850 H     1 <1>   0.4000 
 35 H       -4.0030    -2.7830    -1.7030 H     1 <1>   0.0800 
 36 H       -5.4050    -3.0840    -0.7150 H     1 <1>   0.0800 
 37 H       -1.3440     6.1470     1.0370 H     1 <1>   0.1500 
 38 H       -2.1460    -4.5990    -1.5810 H     1 <1>   0.1500 
 39 H       -3.1890    -6.1660     2.1580 H     1 <1>   0.2700 
 40 H       -0.6850    -6.7540    -0.7140 H     1 <1>   0.0800 
 41 H       -1.6850    -7.8080     0.2550 H     1 <1>   0.0800 
 42 H       -0.5450    -6.7230     1.0260 H     1 <1>   0.0800 
@<TRIPOS>BOND
  1   1   2  2   
  2   2   3  am  
  3   2   4  1   
  4   3   5  1   
  5   3   6  1   
  6   4   7  ar  
  7   4   8  ar  
  8   5   9  1   
  9   5  23  1   
 10   5  24  1   
 11   6  10  1   
 12   6  25  1   
 13   6  26  1   
 14   7  11  ar  
 15   8  12  ar  
 16   8  13  1   
 17   9  10  1   
 18   9  14  1   
 19   9  27  1   
 20  10  15  1   
 21  10  28  1   
 22  11  16  ar  
 23  11  29  1   
 24  12  16  ar  
 25  12  30  1   
 26  13  31  1   
 27  13  32  1   
 28  13  33  1   
 29  14  34  1   
 30  15  17  1   
 31  15  35  1   
 32  15  36  1   
 33  16  37  1   
 34  17  18  2   
 35  17  19  1   
 36  18  20  1   
 37  19  21  2   
 38  19  38  1   
 39  20  21  1   
 40  20  39  1   
 41  21  22  1   
 42  22  40  1   
 43  22  41  1   
 44  22  42  1   
@<TRIPOS>SUBSTRUCTURE
  1 ****   3 GROUP 4 **** **** 0

# MOE 2024.06 (io_trps.svl 2023.06)
