@<TRIPOS>MOLECULE
NONAME
49 51 1 0 0 
SMALL
USER_CHARGES


@<TRIPOS>ATOM
  1 O       -0.6090     0.2070     0.1850 O.2   1 <1>  -0.5700 
  2 C       -1.5450     0.8340     0.6440 C.2   1 <1>   0.6160 
  3 N       -2.7270     0.1720     0.8870 N.am  1 <1>  -0.6600 
  4 C       -1.4010     2.2540     0.9040 C.2   1 <1>   0.0140 
  5 C       -2.7990    -1.3240     0.9250 C.3   1 <1>   0.1400 
  6 C       -4.0700     0.8040     0.7140 C.3   1 <1>   0.1400 
  7 C       -1.9620     2.8790     1.9850 C.2   1 <1>  -0.1360 
  8 C       -0.6350     3.0680     0.0120 C.2   1 <1>  -0.1500 
  9 C       -3.6250    -1.8700    -0.2520 C.3   1 <1>   0.3440 
 10 C       -4.8340     0.1500    -0.4610 C.3   1 <1>   0.2000 
 11 C       -1.8260     4.2710     2.2000 C.2   1 <1>   0.6160 
 12 C       -0.4930     4.4040     0.2150 C.2   1 <1>  -0.0290 
 13 O       -4.8810    -1.2400    -0.2900 O.3   1 <1>  -0.5600 
 14 C       -3.8140    -3.3790    -0.1200 C.ar  1 <1>  -0.1440 
 15 C       -6.2830     0.6590    -0.6390 C.3   1 <1>  -0.0800 
 16 O       -2.3390     4.8560     3.1400 O.2   1 <1>  -0.5700 
 17 N       -1.0950     4.9900     1.3020 N.am  1 <1>  -0.5390 
 18 C        0.3090     5.3100    -0.6970 C.3   1 <1>  -0.1020 
 19 C       -2.8960    -4.2370    -0.7100 C.ar  1 <1>  -0.1500 
 20 C       -4.8780    -3.9180     0.5910 C.ar  1 <1>  -0.1500 
 21 C       -6.3280     2.1560    -0.9830 C.3   1 <1>  -0.2400 
 22 C       -7.1890     0.3810     0.5740 C.3   1 <1>  -0.2400 
 23 C       -3.0380    -5.6080    -0.5910 C.ar  1 <1>  -0.1500 
 24 C       -5.0210    -5.2890     0.7110 C.ar  1 <1>  -0.1500 
 25 C       -4.1010    -6.1360     0.1200 C.ar  1 <1>  -0.1500 
 26 H       -1.8130    -1.7550     0.8950 H     1 <1>   0.0800 
 27 H       -3.2590    -1.6330     1.8470 H     1 <1>   0.0800 
 28 H       -4.6310     0.6850     1.6240 H     1 <1>   0.0800 
 29 H       -3.9680     1.8550     0.5180 H     1 <1>   0.0800 
 30 H       -2.5300     2.3410     2.7190 H     1 <1>   0.1500 
 31 H       -0.1710     2.5770    -0.8270 H     1 <1>   0.1500 
 32 H       -3.1190    -1.6550    -1.1770 H     1 <1>   0.0800 
 33 H       -4.2960     0.3440    -1.3740 H     1 <1>   0.0800 
 34 H       -6.6920     0.1280    -1.4820 H     1 <1>   0.0800 
 35 H       -1.0180     5.9870     1.5050 H     1 <1>   0.3700 
 36 H        1.1060     5.7750    -0.1450 H     1 <1>   0.0800 
 37 H       -0.3260     6.0750    -1.1060 H     1 <1>   0.0800 
 38 H        0.7360     4.7490    -1.5080 H     1 <1>   0.0800 
 39 H       -2.0630    -3.8420    -1.2660 H     1 <1>   0.1500 
 40 H       -5.6010    -3.2670     1.0510 H     1 <1>   0.1500 
 41 H       -6.0010     2.7590    -0.1530 H     1 <1>   0.0800 
 42 H       -7.3350     2.4460    -1.2300 H     1 <1>   0.0800 
 43 H       -5.7030     2.3660    -1.8330 H     1 <1>   0.0800 
 44 H       -6.8770     0.9430     1.4350 H     1 <1>   0.0800 
 45 H       -7.1710    -0.6660     0.8200 H     1 <1>   0.0800 
 46 H       -8.2040     0.6500     0.3440 H     1 <1>   0.0800 
 47 H       -2.3210    -6.2660    -1.0520 H     1 <1>   0.1500 
 48 H       -5.8510    -5.6950     1.2630 H     1 <1>   0.1500 
 49 H       -4.2120    -7.2020     0.2130 H     1 <1>   0.1500 
@<TRIPOS>BOND
  1   1   2  2   
  2   2   3  am  
  3   2   4  1   
  4   3   5  1   
  5   3   6  1   
  6   4   7  2   
  7   4   8  1   
  8   5   9  1   
  9   5  26  1   
 10   5  27  1   
 11   6  10  1   
 12   6  28  1   
 13   6  29  1   
 14   7  11  1   
 15   7  30  1   
 16   8  12  2   
 17   8  31  1   
 18   9  13  1   
 19   9  14  1   
 20   9  32  1   
 21  10  13  1   
 22  10  15  1   
 23  10  33  1   
 24  11  16  2   
 25  11  17  am  
 26  12  17  1   
 27  12  18  1   
 28  14  19  ar  
 29  14  20  ar  
 30  15  21  1   
 31  15  22  1   
 32  15  34  1   
 33  17  35  1   
 34  18  36  1   
 35  18  37  1   
 36  18  38  1   
 37  19  23  ar  
 38  19  39  1   
 39  20  24  ar  
 40  20  40  1   
 41  21  41  1   
 42  21  42  1   
 43  21  43  1   
 44  22  44  1   
 45  22  45  1   
 46  22  46  1   
 47  23  25  ar  
 48  23  47  1   
 49  24  25  ar  
 50  24  48  1   
 51  25  49  1   
@<TRIPOS>SUBSTRUCTURE
  1 ****   3 GROUP 4 **** **** 0

# MOE 2024.06 (io_trps.svl 2023.06)
