@<TRIPOS>MOLECULE
NONAME
50 53 1 0 0 
SMALL
USER_CHARGES


@<TRIPOS>ATOM
  1 O       -0.9610     0.3380     0.8570 O.2   1 <1>  -0.5700 
  2 C       -1.6670     1.0240     0.1430 C.2   1 <1>   0.7150 
  3 N       -2.6540     0.4230    -0.6010 N.am  1 <1>  -0.6600 
  4 C       -1.4740     2.4490     0.0910 C.2   1 <1>  -0.2370 
  5 C       -4.0280     1.0090    -0.6890 C.3   1 <1>   0.1400 
  6 C       -2.6400    -1.0520    -0.8500 C.3   1 <1>   0.1400 
  7 N       -1.6870     3.1850    -1.0500 N.pl3 1 <1>   0.0330 
  8 C       -1.0520     3.3090     1.0640 C.2   1 <1>  -0.1500 
  9 C       -5.0320     0.1790     0.1350 C.3   1 <1>   0.2950 
 10 C       -3.7200    -1.7650    -0.0090 C.3   1 <1>   0.2000 
 11 C       -1.4220     4.5020    -0.7930 C.ar  1 <1>  -0.1520 
 12 C       -1.0190     4.6100     0.5330 C.ar  1 <1>   0.0000 
 13 O       -4.9650    -1.1670    -0.2330 O.3   1 <1>  -0.5600 
 14 C       -6.4710     0.6500    -0.0950 C.3   1 <1>  -0.1950 
 15 C       -3.8740    -3.2510    -0.3570 C.3   1 <1>  -0.1600 
 16 C       -1.4960     5.6290    -1.6160 C.ar  1 <1>  -0.1500 
 17 C       -0.6830     5.8660     1.0530 C.ar  1 <1>  -0.1500 
 18 C       -7.0490     1.7840     0.6930 C.3   1 <1>  -0.2000 
 19 C       -7.5440     0.3820     0.9120 C.3   1 <1>  -0.2000 
 20 C       -2.6230    -4.0800    -0.0230 C.3   1 <1>  -0.1600 
 21 C       -1.1630     6.8570    -1.0920 C.ar  1 <1>  -0.1500 
 22 C       -0.7570     6.9750     0.2440 C.ar  1 <1>  -0.1500 
 23 C       -2.8630    -5.5690    -0.2970 C.3   1 <1>  -0.1600 
 24 C       -1.6170    -6.3970     0.0320 C.3   1 <1>  -0.2400 
 25 H       -4.0360     2.0180    -0.3180 H     1 <1>   0.0800 
 26 H       -4.3420     1.0260    -1.7170 H     1 <1>   0.0800 
 27 H       -2.8250    -1.2350    -1.8940 H     1 <1>   0.0800 
 28 H       -1.6710    -1.4560    -0.6140 H     1 <1>   0.0800 
 29 H       -1.9610     2.7970    -1.9580 H     1 <1>   0.2700 
 30 H       -0.7810     3.0580     2.0740 H     1 <1>   0.1500 
 31 H       -4.7930     0.2530     1.1830 H     1 <1>   0.0800 
 32 H       -3.4840    -1.6680     1.0380 H     1 <1>   0.0800 
 33 H       -6.7520     0.5840    -1.1320 H     1 <1>   0.1000 
 34 H       -4.7050    -3.6400     0.2060 H     1 <1>   0.0800 
 35 H       -4.1030    -3.3480    -1.4030 H     1 <1>   0.0800 
 36 H       -1.8070     5.5300    -2.6410 H     1 <1>   0.1500 
 37 H       -0.3710     5.9390     2.0790 H     1 <1>   0.1500 
 38 H       -6.4680     2.2430     1.4750 H     1 <1>   0.1000 
 39 H       -7.6980     2.4850     0.1970 H     1 <1>   0.1000 
 40 H       -8.5220     0.1090     0.5540 H     1 <1>   0.1000 
 41 H       -7.2810    -0.1340     1.8190 H     1 <1>   0.1000 
 42 H       -1.7900    -3.7460    -0.6170 H     1 <1>   0.0800 
 43 H       -2.3700    -3.9450     1.0150 H     1 <1>   0.0800 
 44 H       -1.2110     7.7410    -1.7040 H     1 <1>   0.1500 
 45 H       -0.5010     7.9470     0.6280 H     1 <1>   0.1500 
 46 H       -3.6870    -5.9190     0.3010 H     1 <1>   0.0800 
 47 H       -3.1190    -5.7110    -1.3330 H     1 <1>   0.0800 
 48 H       -1.3550    -6.2870     1.0690 H     1 <1>   0.0800 
 49 H       -0.7850    -6.0810    -0.5720 H     1 <1>   0.0800 
 50 H       -1.8060    -7.4380    -0.1640 H     1 <1>   0.0800 
@<TRIPOS>BOND
  1   1   2  2   
  2   2   3  am  
  3   2   4  1   
  4   3   5  1   
  5   3   6  1   
  6   4   7  1   
  7   4   8  2   
  8   5   9  1   
  9   5  25  1   
 10   5  26  1   
 11   6  10  1   
 12   6  27  1   
 13   6  28  1   
 14   7  11  1   
 15   7  29  1   
 16   8  12  1   
 17   8  30  1   
 18   9  13  1   
 19   9  14  1   
 20   9  31  1   
 21  10  13  1   
 22  10  15  1   
 23  10  32  1   
 24  11  12  ar  
 25  11  16  ar  
 26  12  17  ar  
 27  14  18  1   
 28  14  19  1   
 29  14  33  1   
 30  15  20  1   
 31  15  34  1   
 32  15  35  1   
 33  16  21  ar  
 34  16  36  1   
 35  17  22  ar  
 36  17  37  1   
 37  18  19  1   
 38  18  38  1   
 39  18  39  1   
 40  19  40  1   
 41  19  41  1   
 42  20  23  1   
 43  20  42  1   
 44  20  43  1   
 45  21  22  ar  
 46  21  44  1   
 47  22  45  1   
 48  23  24  1   
 49  23  46  1   
 50  23  47  1   
 51  24  48  1   
 52  24  49  1   
 53  24  50  1   
@<TRIPOS>SUBSTRUCTURE
  1 ****   3 GROUP 4 **** **** 0

# MOE 2024.06 (io_trps.svl 2023.06)
