@<TRIPOS>MOLECULE
NONAME
46 48 1 0 0 
SMALL
USER_CHARGES


@<TRIPOS>ATOM
  1 S       -0.0920    -0.2950     0.4060 S.o2  1 <1>   1.3330 
  2 O        0.1340    -0.9530     1.6730 O.2   1 <1>  -0.6500 
  3 O       -0.9130     0.8920     0.3550 O.2   1 <1>  -0.6500 
  4 N       -0.7430    -1.4420    -0.6640 N.am  1 <1>  -0.8490 
  5 C        1.4830     0.0960    -0.3570 C.3   1 <1>  -0.0550 
  6 C       -0.2920    -2.8120    -0.3970 C.3   1 <1>   0.1160 
  7 C       -2.2080    -1.3980    -0.7040 C.3   1 <1>   0.1160 
  8 C        2.2580     1.2150     0.3670 C.3   1 <1>  -0.0800 
  9 C        3.4830     1.6350    -0.4300 C.3   1 <1>   0.2200 
 10 C        2.8610     0.7400     1.6990 C.3   1 <1>   0.1200 
 11 N        3.8040     3.0430    -0.1110 N.am  1 <1>  -0.7300 
 12 C        4.5580     0.7320     0.1550 C.3   1 <1>   0.1200 
 13 O        4.2400     0.6170     1.5060 O.3   1 <1>  -0.5600 
 14 C        3.8760     4.0640    -1.0150 C.2   1 <1>   0.5440 
 15 O        3.6590     3.8140    -2.1840 O.2   1 <1>  -0.5700 
 16 C        4.2210     5.4090    -0.5920 C.ar  1 <1>   0.0860 
 17 C        4.8590     6.2930    -1.4620 C.ar  1 <1>  -0.1500 
 18 C        3.9360     5.8800     0.6920 C.ar  1 <1>  -0.1500 
 19 C        5.2030     7.5740    -1.0740 C.ar  1 <1>  -0.1500 
 20 C        4.2780     7.1600     1.0880 C.ar  1 <1>  -0.1500 
 21 C        4.9170     8.0310     0.2090 C.ar  1 <1>  -0.0230 
 22 N        5.2690     9.3540     0.6040 N.pl3 1 <1>   0.5930 
 23 N        6.3630     9.9960     0.2250 N.2   1 <1>  -0.4180 
 24 C        4.6090    10.1910     1.3930 C.2   1 <1>   0.0360 
 25 N        6.3340    11.1540     0.7790 N.2   1 <1>   0.0000 
 26 N        5.2390    11.2940     1.5170 N.2   1 <1>  -0.3380 
 27 H        2.0880    -0.7880    -0.4070 H     1 <1>   0.0800 
 28 H        1.2890     0.4170    -1.3630 H     1 <1>   0.0800 
 29 H       -0.6590    -3.4770    -1.1600 H     1 <1>   0.0800 
 30 H       -0.6510    -3.1470     0.5630 H     1 <1>   0.0800 
 31 H        0.7840    -2.8560    -0.3970 H     1 <1>   0.0800 
 32 H       -2.5850    -2.1250    -1.4030 H     1 <1>   0.0800 
 33 H       -2.5390    -0.4240    -1.0240 H     1 <1>   0.0800 
 34 H       -2.6160    -1.5980     0.2730 H     1 <1>   0.0800 
 35 H        1.5930     2.0490     0.5180 H     1 <1>   0.0800 
 36 H        3.3710     1.4980    -1.4930 H     1 <1>   0.0800 
 37 H        2.4820    -0.2150     2.0200 H     1 <1>   0.0800 
 38 H        2.7010     1.4640     2.4790 H     1 <1>   0.0800 
 39 H        4.1380     3.1790     0.8450 H     1 <1>   0.3700 
 40 H        5.5480     1.1390     0.0460 H     1 <1>   0.0800 
 41 H        4.5150    -0.2510    -0.2800 H     1 <1>   0.0800 
 42 H        5.0860     5.9620    -2.4620 H     1 <1>   0.1500 
 43 H        3.4320     5.2340     1.3890 H     1 <1>   0.1500 
 44 H        5.7000     8.2230    -1.7770 H     1 <1>   0.1500 
 45 H        4.0450     7.4750     2.0910 H     1 <1>   0.1500 
 46 H        3.6700     9.9510     1.8510 H     1 <1>   0.1500 
@<TRIPOS>BOND
  1   1   2  2   
  2   1   3  2   
  3   1   4  am  
  4   1   5  1   
  5   4   6  1   
  6   4   7  1   
  7   5   8  1   
  8   5  27  1   
  9   5  28  1   
 10   6  29  1   
 11   6  30  1   
 12   6  31  1   
 13   7  32  1   
 14   7  33  1   
 15   7  34  1   
 16   8   9  1   
 17   8  10  1   
 18   8  35  1   
 19   9  11  1   
 20   9  12  1   
 21   9  36  1   
 22  10  13  1   
 23  10  37  1   
 24  10  38  1   
 25  11  14  am  
 26  11  39  1   
 27  12  13  1   
 28  12  40  1   
 29  12  41  1   
 30  14  15  2   
 31  14  16  1   
 32  16  17  ar  
 33  16  18  ar  
 34  17  19  ar  
 35  17  42  1   
 36  18  20  ar  
 37  18  43  1   
 38  19  21  ar  
 39  19  44  1   
 40  20  21  ar  
 41  20  45  1   
 42  21  22  1   
 43  22  23  1   
 44  22  24  1   
 45  23  25  2   
 46  24  26  2   
 47  24  46  1   
 48  25  26  1   
@<TRIPOS>SUBSTRUCTURE
  1 ****  11 GROUP 4 **** **** 0

# MOE 2024.06 (io_trps.svl 2023.06)
