@<TRIPOS>MOLECULE
NONAME
45 46 1 0 0 
SMALL
USER_CHARGES


@<TRIPOS>ATOM
  1 S        0.3730     0.4130     0.9570 S.3   1 <1>  -0.0800 
  2 C        1.8690    -0.4430     1.2440 C.2   1 <1>   0.1980 
  3 C        1.2400     1.5440    -0.0410 C.2   1 <1>  -0.1400 
  4 N        2.8830     0.0600     0.6670 N.2   1 <1>  -0.5650 
  5 C        1.8090    -1.6670     2.1280 C.3   1 <1>  -0.0600 
  6 C        2.5410     1.1930    -0.0670 C.2   1 <1>   0.0460 
  7 C        0.4300     2.6600    -0.6730 C.3   1 <1>  -0.0600 
  8 C        3.6800     1.8960    -0.8200 C.3   1 <1>   0.3710 
  9 N        3.6530     3.3780    -0.6550 N.3   1 <1>  -0.8100 
 10 C        3.5890     1.4910    -2.2960 C.3   1 <1>  -0.2400 
 11 C        4.7370     4.0700    -1.4260 C.3   1 <1>   0.1710 
 12 C        3.6890     3.7450     0.7740 C.3   1 <1>   0.0300 
 13 C        4.8050     5.6010    -1.3150 C.2   1 <1>   0.5690 
 14 O        4.2900     6.2830    -2.1700 O.2   1 <1>  -0.5700 
 15 N        5.4870     6.1640    -0.2820 N.am  1 <1>  -0.7300 
 16 C        5.6840     7.6110    -0.0870 C.3   1 <1>   0.2840 
 17 C        7.1570     7.8590     0.1780 C.ar  1 <1>  -0.1440 
 18 C        7.6680     7.9130     1.4660 C.ar  1 <1>   0.1900 
 19 C        8.0390     8.0330    -0.8790 C.ar  1 <1>  -0.1500 
 20 F        6.8660     7.7400     2.4830 F     1 <1>  -0.1900 
 21 C        9.0070     8.1360     1.7250 C.ar  1 <1>  -0.1500 
 22 C        9.3870     8.2580    -0.6390 C.ar  1 <1>  -0.1500 
 23 C        9.8720     8.3110     0.6590 C.ar  1 <1>  -0.1500 
 24 H        1.1490    -2.3950     1.6940 H     1 <1>   0.0800 
 25 H        1.4490    -1.3950     3.1020 H     1 <1>   0.0800 
 26 H        2.7900    -2.0950     2.2220 H     1 <1>   0.0800 
 27 H       -0.0090     3.2710     0.0940 H     1 <1>   0.0800 
 28 H       -0.3520     2.2450    -1.2820 H     1 <1>   0.0800 
 29 H        1.0540     3.2800    -1.2900 H     1 <1>   0.0800 
 30 H        4.6090     1.5250    -0.4200 H     1 <1>   0.0800 
 31 H        2.7550     1.9820    -2.7630 H     1 <1>   0.0800 
 32 H        3.4380     0.4290    -2.3620 H     1 <1>   0.0800 
 33 H        4.4950     1.7210    -2.8210 H     1 <1>   0.0800 
 34 H        4.6060     3.8650    -2.4720 H     1 <1>   0.0800 
 35 H        5.6900     3.6700    -1.1330 H     1 <1>   0.0800 
 36 H        2.8920     3.2640     1.3140 H     1 <1>   0.0800 
 37 H        3.5500     4.8050     0.8910 H     1 <1>   0.0800 
 38 H        4.6270     3.4540     1.2160 H     1 <1>   0.0800 
 39 H        5.9250     5.5750     0.4260 H     1 <1>   0.3700 
 40 H        5.0830     7.9450     0.7420 H     1 <1>   0.0800 
 41 H        5.3710     8.1520    -0.9640 H     1 <1>   0.0800 
 42 H        7.6780     7.9920    -1.8930 H     1 <1>   0.1500 
 43 H        9.3620     8.1720     2.7400 H     1 <1>   0.1500 
 44 H       10.0610     8.3930    -1.4680 H     1 <1>   0.1500 
 45 H       10.9200     8.4870     0.8360 H     1 <1>   0.1500 
@<TRIPOS>BOND
  1   1   2  1   
  2   1   3  1   
  3   2   4  2   
  4   2   5  1   
  5   3   6  2   
  6   3   7  1   
  7   4   6  1   
  8   5  24  1   
  9   5  25  1   
 10   5  26  1   
 11   6   8  1   
 12   7  27  1   
 13   7  28  1   
 14   7  29  1   
 15   8   9  1   
 16   8  10  1   
 17   8  30  1   
 18   9  11  1   
 19   9  12  1   
 20  10  31  1   
 21  10  32  1   
 22  10  33  1   
 23  11  13  1   
 24  11  34  1   
 25  11  35  1   
 26  12  36  1   
 27  12  37  1   
 28  12  38  1   
 29  13  14  2   
 30  13  15  am  
 31  15  16  1   
 32  15  39  1   
 33  16  17  1   
 34  16  40  1   
 35  16  41  1   
 36  17  18  ar  
 37  17  19  ar  
 38  18  20  1   
 39  18  21  ar  
 40  19  22  ar  
 41  19  42  1   
 42  21  23  ar  
 43  21  43  1   
 44  22  23  ar  
 45  22  44  1   
 46  23  45  1   
@<TRIPOS>SUBSTRUCTURE
  1 ****  12 GROUP 4 **** **** 0

# MOE 2024.06 (io_trps.svl 2023.06)
