@<TRIPOS>MOLECULE
NONAME
51 54 1 0 0 
SMALL
USER_CHARGES


@<TRIPOS>ATOM
  1 O       -0.6660     0.9700     1.9870 O.2   1 <1>  -0.5700 
  2 C       -0.8110     1.7350     1.0540 C.2   1 <1>   0.7150 
  3 N       -1.9960     1.6900     0.3450 N.am  1 <1>  -0.6600 
  4 C        0.2140     2.6850     0.7320 C.2   1 <1>  -0.2370 
  5 C       -3.2490     1.2640     1.0460 C.3   1 <1>   0.1400 
  6 C       -2.0410     2.0260    -1.1100 C.3   1 <1>   0.1400 
  7 N       -0.0560     4.0080     0.5140 N.pl3 1 <1>   0.0330 
  8 C        1.5680     2.5170     0.6060 C.2   1 <1>  -0.1500 
  9 C       -4.3600     2.3510     1.1080 C.3   1 <1>   0.4230 
 10 C       -3.2260     2.9210    -1.5240 C.3   1 <1>  -0.0800 
 11 C        1.1040     4.6470     0.2360 C.2   1 <1>  -0.3020 
 12 C        2.1270     3.7520     0.2860 C.2   1 <1>  -0.1500 
 13 N       -5.2490     2.4140    -0.1110 N.4   1 <1>  -0.9590 
 14 C       -3.8180     3.7730     1.4210 C.3   1 <1>   0.1200 
 15 C       -3.2480     4.3320    -0.8880 C.3   1 <1>   0.1200 
 16 C       -4.5490     2.1610    -1.4030 C.3   1 <1>   0.3430 
 17 C       -6.5250     1.6290     0.0190 C.3   1 <1>   0.3430 
 18 O       -2.9290     4.3170     0.4720 O.3   1 <1>  -0.5600 
 19 C       -6.3360     0.1150     0.1600 C.3   1 <1>  -0.0170 
 20 C       -7.7060    -0.5330     0.1650 C.ar  1 <1>  -0.1440 
 21 C       -8.3870    -0.7210     1.3590 C.ar  1 <1>  -0.1500 
 22 C       -8.2950    -0.9310    -1.0250 C.ar  1 <1>  -0.1500 
 23 C       -9.6460    -1.2940     1.3610 C.ar  1 <1>  -0.1500 
 24 C       -9.5550    -1.5040    -1.0220 C.ar  1 <1>  -0.1500 
 25 C      -10.2320    -1.6850     0.1700 C.ar  1 <1>  -0.1500 
 26 H       -3.6160     0.3620     0.5940 H     1 <1>   0.0800 
 27 H       -3.0090     1.0150     2.0660 H     1 <1>   0.0800 
 28 H       -1.1250     2.5090    -1.4050 H     1 <1>   0.0800 
 29 H       -2.0840     1.1010    -1.6610 H     1 <1>   0.0800 
 30 H       -1.0000     4.4230     0.5700 H     1 <1>   0.2700 
 31 H        2.1170     1.5980     0.7330 H     1 <1>   0.1500 
 32 H       -4.9890     2.0840     1.9410 H     1 <1>   0.0800 
 33 H       -3.0980     3.0800    -2.5800 H     1 <1>   0.0800 
 34 H        1.1520     5.7010     0.0250 H     1 <1>   0.1500 
 35 H        3.1750     3.9390     0.1200 H     1 <1>   0.1500 
 36 H       -5.5360     3.4010    -0.1540 H     1 <1>   0.4500 
 37 H       -3.2810     3.7380     2.3530 H     1 <1>   0.0800 
 38 H       -4.6330     4.4640     1.5450 H     1 <1>   0.0800 
 39 H       -4.1940     4.8270    -1.0240 H     1 <1>   0.0800 
 40 H       -2.4940     4.9360    -1.3650 H     1 <1>   0.0800 
 41 H       -4.3560     1.1070    -1.5200 H     1 <1>   0.0800 
 42 H       -5.1960     2.4630    -2.2120 H     1 <1>   0.0800 
 43 H       -7.0780     1.9800     0.8760 H     1 <1>   0.0800 
 44 H       -7.1410     1.8090    -0.8480 H     1 <1>   0.0800 
 45 H       -5.7650    -0.2830    -0.6590 H     1 <1>   0.0800 
 46 H       -5.8380    -0.1240     1.0820 H     1 <1>   0.0800 
 47 H       -7.9510    -0.4310     2.2990 H     1 <1>   0.1500 
 48 H       -7.7870    -0.8070    -1.9650 H     1 <1>   0.1500 
 49 H      -10.1730    -1.4410     2.2880 H     1 <1>   0.1500 
 50 H      -10.0120    -1.8140    -1.9470 H     1 <1>   0.1500 
 51 H      -11.2110    -2.1310     0.1720 H     1 <1>   0.1500 
@<TRIPOS>BOND
  1   1   2  2   
  2   2   3  am  
  3   2   4  1   
  4   3   5  1   
  5   3   6  1   
  6   4   7  1   
  7   4   8  2   
  8   5   9  1   
  9   5  26  1   
 10   5  27  1   
 11   6  10  1   
 12   6  28  1   
 13   6  29  1   
 14   7  11  1   
 15   7  30  1   
 16   8  12  1   
 17   8  31  1   
 18   9  13  1   
 19   9  14  1   
 20   9  32  1   
 21  10  15  1   
 22  10  16  1   
 23  10  33  1   
 24  11  12  2   
 25  11  34  1   
 26  12  35  1   
 27  13  16  1   
 28  13  17  1   
 29  13  36  1   
 30  14  18  1   
 31  14  37  1   
 32  14  38  1   
 33  15  18  1   
 34  15  39  1   
 35  15  40  1   
 36  16  41  1   
 37  16  42  1   
 38  17  19  1   
 39  17  43  1   
 40  17  44  1   
 41  19  20  1   
 42  19  45  1   
 43  19  46  1   
 44  20  21  ar  
 45  20  22  ar  
 46  21  23  ar  
 47  21  47  1   
 48  22  24  ar  
 49  22  48  1   
 50  23  25  ar  
 51  23  49  1   
 52  24  25  ar  
 53  24  50  1   
 54  25  51  1   
@<TRIPOS>SUBSTRUCTURE
  1 ****   5 GROUP 4 **** **** 0

# MOE 2024.06 (io_trps.svl 2023.06)
