@<TRIPOS>MOLECULE
NONAME
56 59 1 0 0 
SMALL
USER_CHARGES


@<TRIPOS>ATOM
  1 CL      -0.2590     0.3600     0.8380 Cl    1 <1>  -0.1770 
  2 C        0.9480    -0.5630    -0.0400 C.ar  1 <1>   0.1770 
  3 C        0.6900    -1.8820    -0.4320 C.ar  1 <1>   0.1000 
  4 C        2.1490     0.0570    -0.3250 C.ar  1 <1>  -0.1500 
  5 N       -0.5040    -2.5630    -0.1720 N.pl3 1 <1>  -0.8380 
  6 C        1.6880    -2.5530    -1.1270 C.ar  1 <1>  -0.1500 
  7 C        3.1290    -0.6340    -1.0180 C.ar  1 <1>  -0.1500 
  8 C       -1.6890    -2.1370    -0.9520 C.3   1 <1>   0.2090 
  9 C       -0.7630    -2.9330     1.2380 C.3   1 <1>   0.2090 
 10 C        2.8950    -1.9400    -1.4180 C.ar  1 <1>  -0.1500 
 11 C       -2.6890    -3.2890    -0.9640 C.3   1 <1>  -0.1600 
 12 C       -1.7490    -4.0960     1.2510 C.3   1 <1>  -0.1600 
 13 C       -3.0120    -3.7080     0.4730 C.3   1 <1>   0.4230 
 14 N       -4.0180    -4.8010     0.4720 N.4   1 <1>  -0.9590 
 15 C       -3.5620    -6.0790    -0.1720 C.3   1 <1>   0.3430 
 16 C       -4.6540    -5.0610     1.7820 C.3   1 <1>   0.3430 
 17 C       -4.6560    -7.1620    -0.1730 C.3   1 <1>  -0.1060 
 18 C       -5.9790    -5.7980     1.5590 C.3   1 <1>  -0.1600 
 19 C       -4.6970    -7.6610    -1.6110 C.2   1 <1>   0.9060 
 20 C       -6.0280    -6.5570     0.2210 C.3   1 <1>   0.2000 
 21 C       -4.3180    -8.3410     0.7840 C.3   1 <1>  -0.0650 
 22 O       -5.7910    -7.8280    -2.1580 O.co2 1 <1>  -0.9000 
 23 O       -3.6320    -7.7860    -2.2200 O.co2 1 <1>  -0.9000 
 24 O       -6.4080    -5.6390    -0.7460 O.3   1 <1>  -0.6800 
 25 C       -2.8650    -8.8350     0.7210 C.3   1 <1>  -0.1950 
 26 C       -2.3210    -9.6890     1.8200 C.3   1 <1>  -0.2000 
 27 C       -1.8070    -8.2920     1.6310 C.3   1 <1>  -0.2000 
 28 H        2.3150     1.0700    -0.0080 H     1 <1>   0.1500 
 29 H        1.5060    -3.5660    -1.4390 H     1 <1>   0.1500 
 30 H        4.0690    -0.1600    -1.2450 H     1 <1>   0.1500 
 31 H       -2.1250    -1.2600    -0.5040 H     1 <1>   0.0800 
 32 H       -1.3920    -1.8960    -1.9590 H     1 <1>   0.0800 
 33 H        0.1620    -3.2240     1.7100 H     1 <1>   0.0800 
 34 H       -1.1660    -2.0870     1.7690 H     1 <1>   0.0800 
 35 H        3.6530    -2.4810    -1.9570 H     1 <1>   0.1500 
 36 H       -2.2470    -4.0990    -1.5160 H     1 <1>   0.0800 
 37 H       -3.5820    -2.9720    -1.4700 H     1 <1>   0.0800 
 38 H       -1.9860    -4.3330     2.2700 H     1 <1>   0.0800 
 39 H       -1.2640    -4.9430     0.7990 H     1 <1>   0.0800 
 40 H       -3.4470    -2.8520     0.9630 H     1 <1>   0.0800 
 41 H       -4.8100    -4.5240    -0.1410 H     1 <1>   0.4500 
 42 H       -3.2880    -5.8690    -1.1930 H     1 <1>   0.0800 
 43 H       -2.6810    -6.4500     0.3160 H     1 <1>   0.0800 
 44 H       -3.9960    -5.6680     2.3810 H     1 <1>   0.0800 
 45 H       -4.8410    -4.1360     2.3020 H     1 <1>   0.0800 
 46 H       -6.7990    -5.1040     1.6070 H     1 <1>   0.0800 
 47 H       -6.1180    -6.4900     2.3680 H     1 <1>   0.0800 
 48 H       -6.7890    -7.3220     0.2430 H     1 <1>   0.0800 
 49 H       -4.5290    -8.0760     1.8030 H     1 <1>   0.0800 
 50 H       -4.9620    -9.1690     0.5360 H     1 <1>   0.0800 
 51 H       -6.4960    -6.1740    -1.5880 H     1 <1>   0.4000 
 52 H       -2.5710    -9.1180    -0.2790 H     1 <1>   0.1000 
 53 H       -2.9410    -9.9060     2.6730 H     1 <1>   0.1000 
 54 H       -1.6870   -10.5180     1.5530 H     1 <1>   0.1000 
 55 H       -0.8130    -8.1600     1.2380 H     1 <1>   0.1000 
 56 H       -2.0560    -7.5610     2.3790 H     1 <1>   0.1000 
@<TRIPOS>BOND
  1   1   2  1   
  2   2   3  ar  
  3   2   4  ar  
  4   3   5  1   
  5   3   6  ar  
  6   4   7  ar  
  7   4  28  1   
  8   5   8  1   
  9   5   9  1   
 10   6  10  ar  
 11   6  29  1   
 12   7  10  ar  
 13   7  30  1   
 14   8  11  1   
 15   8  31  1   
 16   8  32  1   
 17   9  12  1   
 18   9  33  1   
 19   9  34  1   
 20  10  35  1   
 21  11  13  1   
 22  11  36  1   
 23  11  37  1   
 24  12  13  1   
 25  12  38  1   
 26  12  39  1   
 27  13  14  1   
 28  13  40  1   
 29  14  15  1   
 30  14  16  1   
 31  14  41  1   
 32  15  17  1   
 33  15  42  1   
 34  15  43  1   
 35  16  18  1   
 36  16  44  1   
 37  16  45  1   
 38  17  19  1   
 39  17  20  1   
 40  17  21  1   
 41  18  20  1   
 42  18  46  1   
 43  18  47  1   
 44  19  22  ar  
 45  19  23  ar  
 46  20  24  1   
 47  20  48  1   
 48  21  25  1   
 49  21  49  1   
 50  21  50  1   
 51  24  51  1   
 52  25  26  1   
 53  25  27  1   
 54  25  52  1   
 55  26  27  1   
 56  26  53  1   
 57  26  54  1   
 58  27  55  1   
 59  27  56  1   
@<TRIPOS>SUBSTRUCTURE
  1 ****  13 GROUP 4 **** **** 0

# MOE 2024.06 (io_trps.svl 2023.06)
