@<TRIPOS>MOLECULE
NONAME
58 61 1 0 0 
SMALL
USER_CHARGES


@<TRIPOS>ATOM
  1 O       -0.3340    -0.0170     0.8470 O.2   1 <1>  -0.5700 
  2 C       -1.3380     0.5520     0.4660 C.2   1 <1>   0.7160 
  3 N       -2.4970    -0.1580     0.4480 N.am  1 <1>  -0.7300 
  4 C       -1.3090     1.9200     0.0420 C.2   1 <1>  -0.0860 
  5 C       -2.6160    -1.6200     0.6720 C.3   1 <1>   0.1400 
  6 C       -2.4130     2.7690    -0.1220 C.2   1 <1>   0.3720 
  7 C       -0.2540     2.7180    -0.2880 C.2   1 <1>   0.0870 
  8 C       -3.8900    -2.2240     0.0390 C.3   1 <1>   0.0000 
  9 N       -2.0440     3.9430    -0.4990 N.2   1 <1>  -0.4100 
 10 N       -3.7570     2.4350     0.1130 N.pl3 1 <1>  -0.8210 
 11 O       -0.7450     3.8920    -0.5910 O.3   1 <1>  -0.0190 
 12 C        1.1720     2.5180    -0.3710 C.ar  1 <1>   0.0530 
 13 C       -4.0150    -1.8430    -1.4570 C.3   1 <1>  -0.1600 
 14 C       -5.1610    -1.6620     0.7180 C.3   1 <1>  -0.1600 
 15 C       -3.7960    -3.7590     0.2130 C.3   1 <1>   0.1200 
 16 C       -4.1370     2.6230     1.5490 C.3   1 <1>   0.2090 
 17 C       -4.7290     3.1690    -0.7660 C.3   1 <1>   0.2090 
 18 C        1.7300     1.3480    -0.8870 C.ar  1 <1>  -0.1500 
 19 C        2.0520     3.5150     0.0510 C.ar  1 <1>  -0.1500 
 20 C       -5.1420    -0.8160    -1.5420 C.3   1 <1>  -0.1600 
 21 C       -6.0840    -1.2090    -0.4120 C.3   1 <1>  -0.1600 
 22 O       -4.9510    -4.3860    -0.2550 O.3   1 <1>  -0.5600 
 23 C       -5.6220     2.2980     1.7910 C.3   1 <1>   0.1200 
 24 C       -6.1880     2.8230    -0.4210 C.3   1 <1>   0.1200 
 25 C        3.0990     1.1780    -0.9710 C.ar  1 <1>  -0.1500 
 26 C        3.4220     3.3530    -0.0320 C.ar  1 <1>  -0.1500 
 27 C       -4.9290    -5.7720    -0.1440 C.3   1 <1>   0.0400 
 28 O       -6.4450     3.0400     0.9370 O.3   1 <1>  -0.5600 
 29 C        3.9500     2.1810    -0.5430 C.ar  1 <1>  -0.1500 
 30 H       -3.3430     0.3470     0.1490 H     1 <1>   0.3700 
 31 H       -2.6140    -1.8070     1.7320 H     1 <1>   0.0800 
 32 H       -1.7470    -2.1000     0.2530 H     1 <1>   0.0800 
 33 H       -4.3040    -2.7030    -2.0370 H     1 <1>   0.0800 
 34 H       -3.0990    -1.4590    -1.8710 H     1 <1>   0.0800 
 35 H       -4.9210    -0.8160     1.3350 H     1 <1>   0.0800 
 36 H       -5.6520    -2.3930     1.3360 H     1 <1>   0.0800 
 37 H       -3.6820    -4.0060     1.2550 H     1 <1>   0.0800 
 38 H       -2.9550    -4.1430    -0.3390 H     1 <1>   0.0800 
 39 H       -3.9480     3.6430     1.8400 H     1 <1>   0.0800 
 40 H       -3.5300     1.9840     2.1670 H     1 <1>   0.0800 
 41 H       -4.5350     2.9180    -1.7950 H     1 <1>   0.0800 
 42 H       -4.5970     4.2320    -0.6540 H     1 <1>   0.0800 
 43 H        1.0820     0.5600    -1.2260 H     1 <1>   0.1500 
 44 H        1.6520     4.4310     0.4500 H     1 <1>   0.1500 
 45 H       -5.6320    -0.8360    -2.5000 H     1 <1>   0.0800 
 46 H       -4.7480     0.1690    -1.3660 H     1 <1>   0.0800 
 47 H       -6.7350    -0.4080    -0.1120 H     1 <1>   0.0800 
 48 H       -6.6820    -2.0470    -0.7290 H     1 <1>   0.0800 
 49 H       -5.8940     2.5450     2.8020 H     1 <1>   0.0800 
 50 H       -5.8140     1.2540     1.6280 H     1 <1>   0.0800 
 51 H       -6.3990     1.7960    -0.6540 H     1 <1>   0.0800 
 52 H       -6.8580     3.4480    -0.9850 H     1 <1>   0.0800 
 53 H        3.5040     0.2630    -1.3680 H     1 <1>   0.1500 
 54 H        4.0800     4.1370     0.3010 H     1 <1>   0.1500 
 55 H       -5.8600    -6.1520    -0.5280 H     1 <1>   0.0800 
 56 H       -4.8270    -6.0440     0.8920 H     1 <1>   0.0800 
 57 H       -4.1110    -6.1620    -0.7240 H     1 <1>   0.0800 
 58 H        5.0160     2.0500    -0.6080 H     1 <1>   0.1500 
@<TRIPOS>BOND
  1   1   2  2   
  2   2   3  am  
  3   2   4  1   
  4   3   5  1   
  5   3  30  1   
  6   4   6  1   
  7   4   7  2   
  8   5   8  1   
  9   5  31  1   
 10   5  32  1   
 11   6   9  2   
 12   6  10  1   
 13   7  11  1   
 14   7  12  1   
 15   8  13  1   
 16   8  14  1   
 17   8  15  1   
 18   9  11  1   
 19  10  16  1   
 20  10  17  1   
 21  12  18  ar  
 22  12  19  ar  
 23  13  20  1   
 24  13  33  1   
 25  13  34  1   
 26  14  21  1   
 27  14  35  1   
 28  14  36  1   
 29  15  22  1   
 30  15  37  1   
 31  15  38  1   
 32  16  23  1   
 33  16  39  1   
 34  16  40  1   
 35  17  24  1   
 36  17  41  1   
 37  17  42  1   
 38  18  25  ar  
 39  18  43  1   
 40  19  26  ar  
 41  19  44  1   
 42  20  21  1   
 43  20  45  1   
 44  20  46  1   
 45  21  47  1   
 46  21  48  1   
 47  22  27  1   
 48  23  28  1   
 49  23  49  1   
 50  23  50  1   
 51  24  28  1   
 52  24  51  1   
 53  24  52  1   
 54  25  29  ar  
 55  25  53  1   
 56  26  29  ar  
 57  26  54  1   
 58  27  55  1   
 59  27  56  1   
 60  27  57  1   
 61  29  58  1   
@<TRIPOS>SUBSTRUCTURE
  1 ****   3 GROUP 4 **** **** 0

# MOE 2024.06 (io_trps.svl 2023.06)
