@<TRIPOS>MOLECULE
NONAME
48 51 1 0 0 
SMALL
USER_CHARGES


@<TRIPOS>ATOM
  1 CL       1.8530     1.4660    -2.3030 Cl    1 <1>  -0.1770 
  2 C        1.1120     2.4820    -1.0860 C.ar  1 <1>   0.1770 
  3 C        1.6000     2.5380     0.2170 C.ar  1 <1>  -0.1440 
  4 C        0.0230     3.2370    -1.4830 C.ar  1 <1>  -0.1500 
  5 C        0.9650     3.3880     1.1140 C.ar  1 <1>  -0.1500 
  6 C        2.8060     1.7350     0.7070 C.3   1 <1>   0.3640 
  7 C       -0.5990     4.0740    -0.5740 C.ar  1 <1>  -0.1500 
  8 C       -0.1250     4.1480     0.7230 C.ar  1 <1>  -0.1500 
  9 N        2.5710     0.2870     0.5030 N.am  1 <1>  -0.7300 
 10 C        4.1230     2.2080     0.0430 C.3   1 <1>   0.2610 
 11 C        3.5430    -0.5650     0.1070 C.2   1 <1>   0.5690 
 12 O        5.1710     1.2800     0.2690 O.3   1 <1>  -0.5600 
 13 C        4.4910     3.6220     0.5220 C.2   1 <1>   0.5690 
 14 O        3.3250    -1.7460     0.0190 O.2   1 <1>  -0.5700 
 15 C        4.9270    -0.0100    -0.2550 C.3   1 <1>   0.1810 
 16 O        4.1870     3.9430     1.6510 O.2   1 <1>  -0.5700 
 17 N        5.0940     4.5110    -0.3350 N.am  1 <1>  -0.6600 
 18 C        5.0440     5.9710    -0.0300 C.3   1 <1>   0.4100 
 19 C        5.7300     4.1050    -1.6260 C.3   1 <1>   0.0600 
 20 C        4.1890     6.6810    -1.0900 C.3   1 <1>  -0.1950 
 21 C        6.4570     6.5690     0.0610 C.3   1 <1>  -0.1950 
 22 C        3.3090     7.8360    -0.7240 C.3   1 <1>  -0.2000 
 23 C        2.7000     6.5180    -1.1080 C.3   1 <1>  -0.2000 
 24 C        7.3510     6.2620     1.2220 C.3   1 <1>  -0.2000 
 25 C        6.7690     7.6380     1.0630 C.3   1 <1>  -0.2000 
 26 H       -0.3310     3.1700    -2.4950 H     1 <1>   0.1500 
 27 H        1.3200     3.4720     2.1290 H     1 <1>   0.1500 
 28 H        2.9040     1.8820     1.7690 H     1 <1>   0.0800 
 29 H       -1.4470     4.6650    -0.8750 H     1 <1>   0.1500 
 30 H       -0.6040     4.8010     1.4330 H     1 <1>   0.1500 
 31 H        1.6510    -0.0870     0.7350 H     1 <1>   0.3700 
 32 H        3.9700     2.2550    -1.0170 H     1 <1>   0.0800 
 33 H        5.0210     0.0360    -1.3240 H     1 <1>   0.0800 
 34 H        5.6840    -0.6680     0.1310 H     1 <1>   0.0800 
 35 H        4.5680     6.1180     0.9240 H     1 <1>   0.0800 
 36 H        6.6250     4.6740    -1.8020 H     1 <1>   0.0800 
 37 H        5.0430     4.2710    -2.4380 H     1 <1>   0.0800 
 38 H        6.0070     3.0660    -1.6030 H     1 <1>   0.0800 
 39 H        4.6920     6.7540    -2.0370 H     1 <1>   0.1000 
 40 H        6.9140     6.6950    -0.9040 H     1 <1>   0.1000 
 41 H        3.2500     8.1490     0.3040 H     1 <1>   0.1000 
 42 H        3.2290     8.6620    -1.4100 H     1 <1>   0.1000 
 43 H        2.2020     6.4290    -2.0580 H     1 <1>   0.1000 
 44 H        2.2330     5.9200    -0.3430 H     1 <1>   0.1000 
 45 H        6.9730     5.6200     2.0010 H     1 <1>   0.1000 
 46 H        8.4000     6.1120     1.0390 H     1 <1>   0.1000 
 47 H        7.4220     8.4430     0.7750 H     1 <1>   0.1000 
 48 H        6.0080     7.9520     1.7560 H     1 <1>   0.1000 
@<TRIPOS>BOND
  1   1   2  1   
  2   2   3  ar  
  3   2   4  ar  
  4   3   5  ar  
  5   3   6  1   
  6   4   7  ar  
  7   4  26  1   
  8   5   8  ar  
  9   5  27  1   
 10   6   9  1   
 11   6  10  1   
 12   6  28  1   
 13   7   8  ar  
 14   7  29  1   
 15   8  30  1   
 16   9  11  am  
 17   9  31  1   
 18  10  12  1   
 19  10  13  1   
 20  10  32  1   
 21  11  14  2   
 22  11  15  1   
 23  12  15  1   
 24  13  16  2   
 25  13  17  am  
 26  15  33  1   
 27  15  34  1   
 28  17  18  1   
 29  17  19  1   
 30  18  20  1   
 31  18  21  1   
 32  18  35  1   
 33  19  36  1   
 34  19  37  1   
 35  19  38  1   
 36  20  22  1   
 37  20  23  1   
 38  20  39  1   
 39  21  24  1   
 40  21  25  1   
 41  21  40  1   
 42  22  23  1   
 43  22  41  1   
 44  22  42  1   
 45  23  43  1   
 46  23  44  1   
 47  24  25  1   
 48  24  45  1   
 49  24  46  1   
 50  25  47  1   
 51  25  48  1   
@<TRIPOS>SUBSTRUCTURE
  1 ****  13 GROUP 4 **** **** 0

# MOE 2024.06 (io_trps.svl 2023.06)
