@<TRIPOS>MOLECULE
NONAME
40 41 1 0 0 
SMALL
USER_CHARGES


@<TRIPOS>ATOM
  1 CL       1.2270    -0.9410     2.5060 Cl    1 <1>  -0.1770 
  2 C        0.7800    -2.0140     1.2030 C.ar  1 <1>   0.1770 
  3 C        1.6240    -2.1410     0.1130 C.ar  1 <1>  -0.1440 
  4 C       -0.4190    -2.7040     1.2800 C.ar  1 <1>  -0.1500 
  5 C        1.2150    -2.9820    -0.9070 C.ar  1 <1>   0.1900 
  6 C        2.9410    -1.4060     0.0370 C.3   1 <1>   0.4860 
  7 C       -0.7980    -3.5430     0.2420 C.ar  1 <1>  -0.1500 
  8 F        1.9810    -3.1100    -1.9560 F     1 <1>  -0.1900 
  9 C        0.0250    -3.6850    -0.8640 C.ar  1 <1>  -0.1500 
 10 N        2.6560     0.0270    -0.2120 N.4   1 <1>  -0.9060 
 11 C        3.8860     0.8540    -0.3000 C.3   1 <1>   0.4230 
 12 C        3.5680     2.3400    -0.0700 C.3   1 <1>   0.0960 
 13 C        4.5290     0.6170    -1.6700 C.3   1 <1>  -0.2400 
 14 N        4.8240     3.0480     0.2010 N.pl3 1 <1>   0.3140 
 15 N        5.7260     2.5050     1.0370 N.2   1 <1>  -0.7070 
 16 C        5.2550     4.2280    -0.2950 C.2   1 <1>  -0.3320 
 17 C        6.7070     3.3500     1.0610 C.2   1 <1>   0.1080 
 18 C        6.4710     4.4490     0.2450 C.2   1 <1>  -0.1500 
 19 C        4.4960     5.1170    -1.2660 C.3   1 <1>  -0.0600 
 20 C        7.9500     3.1340     1.8940 C.3   1 <1>  -0.0590 
 21 H       -1.0520    -2.5860     2.1430 H     1 <1>   0.1500 
 22 H        3.5440    -1.8150    -0.7590 H     1 <1>   0.0800 
 23 H        3.4770    -1.5240     0.9660 H     1 <1>   0.0800 
 24 H       -1.7290    -4.0840     0.2970 H     1 <1>   0.1500 
 25 H       -0.2540    -4.3310    -1.6800 H     1 <1>   0.1500 
 26 H        2.0720     0.3490     0.5710 H     1 <1>   0.4500 
 27 H        2.1030     0.1100    -1.0730 H     1 <1>   0.4500 
 28 H        4.5690     0.5390     0.4760 H     1 <1>   0.0800 
 29 H        2.9440     2.4640     0.7950 H     1 <1>   0.0800 
 30 H        3.0930     2.7730    -0.9300 H     1 <1>   0.0800 
 31 H        3.8740     0.9170    -2.4680 H     1 <1>   0.0800 
 32 H        4.8090    -0.4120    -1.8010 H     1 <1>   0.0800 
 33 H        5.4320     1.1990    -1.7470 H     1 <1>   0.0800 
 34 H        7.1360     5.2820     0.0990 H     1 <1>   0.1500 
 35 H        3.5520     5.4150    -0.8440 H     1 <1>   0.0800 
 36 H        4.3250     4.6030    -2.1950 H     1 <1>   0.0800 
 37 H        5.0670     6.0060    -1.4730 H     1 <1>   0.0800 
 38 H        7.6770     3.0410     2.9290 H     1 <1>   0.0800 
 39 H        8.6250     3.9620     1.7820 H     1 <1>   0.0800 
 40 H        8.4430     2.2330     1.5800 H     1 <1>   0.0800 
@<TRIPOS>BOND
  1   1   2  1   
  2   2   3  ar  
  3   2   4  ar  
  4   3   5  ar  
  5   3   6  1   
  6   4   7  ar  
  7   4  21  1   
  8   5   8  1   
  9   5   9  ar  
 10   6  10  1   
 11   6  22  1   
 12   6  23  1   
 13   7   9  ar  
 14   7  24  1   
 15   9  25  1   
 16  10  11  1   
 17  10  26  1   
 18  10  27  1   
 19  11  12  1   
 20  11  13  1   
 21  11  28  1   
 22  12  14  1   
 23  12  29  1   
 24  12  30  1   
 25  13  31  1   
 26  13  32  1   
 27  13  33  1   
 28  14  15  1   
 29  14  16  1   
 30  15  17  2   
 31  16  18  2   
 32  16  19  1   
 33  17  18  1   
 34  17  20  1   
 35  18  34  1   
 36  19  35  1   
 37  19  36  1   
 38  19  37  1   
 39  20  38  1   
 40  20  39  1   
 41  20  40  1   
@<TRIPOS>SUBSTRUCTURE
  1 ****  10 GROUP 4 **** **** 0

# MOE 2024.06 (io_trps.svl 2023.06)
