@<TRIPOS>MOLECULE
NONAME
47 51 1 0 0 
SMALL
USER_CHARGES


@<TRIPOS>ATOM
  1 S       -0.0020     0.8660    -2.2800 S.3   1 <1>  -0.0800 
  2 C       -1.0850     1.4590    -1.0300 C.2   1 <1>  -0.1400 
  3 C       -1.2350    -0.2440    -2.8650 C.2   1 <1>  -0.1100 
  4 C       -2.2730     0.8450    -1.1010 C.2   1 <1>  -0.1810 
  5 C       -0.6780     2.5310    -0.0250 C.3   1 <1>   0.4600 
  6 C       -2.3660    -0.1330    -2.1410 C.2   1 <1>  -0.1500 
  7 C       -3.3650     1.2180    -0.1240 C.3   1 <1>   0.0210 
  8 O       -1.7080     2.6590     0.9370 O.3   1 <1>  -0.5600 
  9 C       -0.4570     3.8880    -0.7080 C.3   1 <1>  -0.1600 
 10 C        0.5800     2.1150     0.7430 C.3   1 <1>  -0.1600 
 11 C       -3.0430     2.5940     0.4920 C.3   1 <1>   0.1200 
 12 C       -0.0060     4.9610     0.2850 C.3   1 <1>   0.1400 
 13 C        1.0140     3.1960     1.7330 C.3   1 <1>   0.1400 
 14 N        1.2070     4.4870     1.0130 N.am  1 <1>  -0.6600 
 15 C        2.4050     5.1820     1.0630 C.2   1 <1>   0.7150 
 16 O        3.4030     4.5630     1.4020 O.2   1 <1>  -0.5700 
 17 C        2.5350     6.5860     0.7170 C.2   1 <1>   0.1020 
 18 N        1.6330     7.5260     0.8630 N.2   1 <1>  -0.3380 
 19 N        3.6550     7.1240     0.1970 N.pl3 1 <1>   0.0480 
 20 N        2.1530     8.6690     0.4340 N.2   1 <1>  -0.3380 
 21 C        3.3530     8.4100     0.0490 C.2   1 <1>   0.0060 
 22 C        4.9690     6.5070    -0.1070 C.3   1 <1>   0.0960 
 23 C        4.3300     9.4240    -0.5200 C.3   1 <1>   0.0200 
 24 C        5.8350     7.4390    -0.9740 C.3   1 <1>  -0.1600 
 25 C        5.7730     8.8930    -0.4770 C.3   1 <1>  -0.1600 
 26 H       -0.9780    -0.8710    -3.6990 H     1 <1>   0.1500 
 27 H       -3.2670    -0.7010    -2.2950 H     1 <1>   0.1500 
 28 H       -3.4280     0.4760     0.6510 H     1 <1>   0.0800 
 29 H       -4.3130     1.2670    -0.6290 H     1 <1>   0.0800 
 30 H       -1.3520     4.2020    -1.2080 H     1 <1>   0.0800 
 31 H        0.3030     3.7810    -1.4600 H     1 <1>   0.0800 
 32 H        1.3870     1.9390     0.0560 H     1 <1>   0.0800 
 33 H        0.3880     1.1950     1.2640 H     1 <1>   0.0800 
 34 H       -3.6790     2.7790     1.3390 H     1 <1>   0.0800 
 35 H       -3.1990     3.3740    -0.2320 H     1 <1>   0.0800 
 36 H       -0.7880     5.1620     0.9970 H     1 <1>   0.0800 
 37 H        0.1940     5.8640    -0.2620 H     1 <1>   0.0800 
 38 H        1.9200     2.8900     2.2280 H     1 <1>   0.0800 
 39 H        0.2560     3.3270     2.4870 H     1 <1>   0.0800 
 40 H        4.8150     5.5690    -0.6100 H     1 <1>   0.0800 
 41 H        5.4660     6.3130     0.8280 H     1 <1>   0.0800 
 42 H        4.2570    10.3440     0.0340 H     1 <1>   0.0800 
 43 H        4.0490     9.6260    -1.5380 H     1 <1>   0.0800 
 44 H        5.4910     7.3910    -1.9930 H     1 <1>   0.0800 
 45 H        6.8540     7.0900    -0.9590 H     1 <1>   0.0800 
 46 H        6.1340     8.9380     0.5360 H     1 <1>   0.0800 
 47 H        6.4050     9.5200    -1.0830 H     1 <1>   0.0800 
@<TRIPOS>BOND
  1   1   2  1   
  2   1   3  1   
  3   2   4  2   
  4   2   5  1   
  5   3   6  2   
  6   3  26  1   
  7   4   6  1   
  8   4   7  1   
  9   5   8  1   
 10   5   9  1   
 11   5  10  1   
 12   6  27  1   
 13   7  11  1   
 14   7  28  1   
 15   7  29  1   
 16   8  11  1   
 17   9  12  1   
 18   9  30  1   
 19   9  31  1   
 20  10  13  1   
 21  10  32  1   
 22  10  33  1   
 23  11  34  1   
 24  11  35  1   
 25  12  14  1   
 26  12  36  1   
 27  12  37  1   
 28  13  14  1   
 29  13  38  1   
 30  13  39  1   
 31  14  15  am  
 32  15  16  2   
 33  15  17  1   
 34  17  18  2   
 35  17  19  1   
 36  18  20  1   
 37  19  21  1   
 38  19  22  1   
 39  20  21  2   
 40  21  23  1   
 41  22  24  1   
 42  22  40  1   
 43  22  41  1   
 44  23  25  1   
 45  23  42  1   
 46  23  43  1   
 47  24  25  1   
 48  24  44  1   
 49  24  45  1   
 50  25  46  1   
 51  25  47  1   
@<TRIPOS>SUBSTRUCTURE
  1 ****  14 GROUP 4 **** **** 0

# MOE 2024.06 (io_trps.svl 2023.06)
