@<TRIPOS>MOLECULE
NONAME
57 59 1 0 0 
SMALL
USER_CHARGES


@<TRIPOS>ATOM
  1 O       -0.6700     0.5710    -2.8380 O.2   1 <1>  -0.5700 
  2 C        0.0380    -0.1620    -2.1910 C.2   1 <1>   0.5690 
  3 N        1.1630     0.2270    -1.5220 N.am  1 <1>  -0.4940 
  4 C       -0.3160    -1.6460    -2.0720 C.3   1 <1>   0.1710 
  5 C        1.8380     1.4370    -1.2750 C.2   1 <1>  -0.0880 
  6 N        0.2240    -2.2580    -0.8180 N.3   1 <1>  -0.8100 
  7 N        1.4010     2.7160    -1.4360 N.pl3 1 <1>   0.3140 
  8 C        3.0990     1.5110    -0.7630 C.2   1 <1>  -0.0540 
  9 C        0.2030    -3.7180    -0.7950 C.3   1 <1>   0.1100 
 10 C       -0.5110    -1.8390     0.3860 C.3   1 <1>   0.1100 
 11 N        2.3280     3.6030    -1.0180 N.2   1 <1>  -0.7070 
 12 C        0.1090     3.2060    -1.9350 C.3   1 <1>   0.0160 
 13 C        4.0200     0.4440    -0.4440 C.ar  1 <1>   0.0540 
 14 C        3.3260     2.8850    -0.6260 C.2   1 <1>   0.1080 
 15 C        0.4980    -4.0350     0.6780 C.3   1 <1>   0.4230 
 16 C       -0.4450    -3.0330     1.3450 C.3   1 <1>  -0.1600 
 17 C        3.7940    -0.5600     0.5160 C.ar  1 <1>   0.0830 
 18 C        5.2260     0.4020    -1.1410 C.ar  1 <1>  -0.1500 
 19 C        4.5870     3.5160    -0.0780 C.3   1 <1>  -0.0590 
 20 N        1.9170    -3.6820     1.0340 N.4   1 <1>  -0.9590 
 21 O        2.6440    -0.6670     1.2320 O.3   1 <1>  -0.3630 
 22 C        4.7630    -1.5150     0.7770 C.ar  1 <1>  -0.1500 
 23 C        6.1820    -0.5640    -0.8910 C.ar  1 <1>  -0.1500 
 24 C        2.9300    -4.3690     0.1740 C.3   1 <1>   0.2630 
 25 C        2.2380    -3.9040     2.4770 C.3   1 <1>   0.2630 
 26 C        2.2450     0.4550     2.0000 C.3   1 <1>   0.0400 
 27 C        5.9550    -1.5240     0.0760 C.ar  1 <1>  -0.1500 
 28 H        1.5850    -0.5760    -1.0430 H     1 <1>   0.3700 
 29 H        0.1080    -2.1450    -2.9250 H     1 <1>   0.0800 
 30 H       -1.3850    -1.7580    -2.1170 H     1 <1>   0.0800 
 31 H        0.9140    -4.1400    -1.4810 H     1 <1>   0.0800 
 32 H       -0.7810    -4.0750    -1.0530 H     1 <1>   0.0800 
 33 H       -1.5390    -1.6080     0.1550 H     1 <1>   0.0800 
 34 H       -0.0460    -0.9650     0.8130 H     1 <1>   0.0800 
 35 H       -0.6860     2.7050    -1.4180 H     1 <1>   0.0800 
 36 H        0.0440     3.0110    -2.9880 H     1 <1>   0.0800 
 37 H        0.0410     4.2630    -1.7610 H     1 <1>   0.0800 
 38 H        0.2720    -5.0580     0.9310 H     1 <1>   0.0800 
 39 H       -1.4280    -3.4680     1.4050 H     1 <1>   0.0800 
 40 H       -0.1640    -2.7330     2.3360 H     1 <1>   0.0800 
 41 H        5.4140     1.1460    -1.8970 H     1 <1>   0.1500 
 42 H        5.0480     2.8720     0.6470 H     1 <1>   0.0800 
 43 H        4.3480     4.4520     0.3910 H     1 <1>   0.0800 
 44 H        5.2760     3.6980    -0.8820 H     1 <1>   0.0800 
 45 H        1.9800    -2.6620     0.8260 H     1 <1>   0.4500 
 46 H        4.5960    -2.2470     1.5420 H     1 <1>   0.1500 
 47 H        7.1050    -0.5640    -1.4470 H     1 <1>   0.1500 
 48 H        2.8190    -5.4380     0.2420 H     1 <1>   0.0800 
 49 H        3.9270    -4.1040     0.4870 H     1 <1>   0.0800 
 50 H        2.8150    -4.0680    -0.8550 H     1 <1>   0.0800 
 51 H        2.1040    -4.9420     2.7350 H     1 <1>   0.0800 
 52 H        1.6030    -3.3050     3.1060 H     1 <1>   0.0800 
 53 H        3.2610    -3.6280     2.6770 H     1 <1>   0.0800 
 54 H        1.6460     0.1090     2.8220 H     1 <1>   0.0800 
 55 H        1.6620     1.1190     1.3870 H     1 <1>   0.0800 
 56 H        3.1180     0.9630     2.3720 H     1 <1>   0.0800 
 57 H        6.7080    -2.2660     0.2820 H     1 <1>   0.1500 
@<TRIPOS>BOND
  1   1   2  2   
  2   2   3  am  
  3   2   4  1   
  4   3   5  1   
  5   3  28  1   
  6   4   6  1   
  7   4  29  1   
  8   4  30  1   
  9   5   7  1   
 10   5   8  2   
 11   6   9  1   
 12   6  10  1   
 13   7  11  1   
 14   7  12  1   
 15   8  13  1   
 16   8  14  1   
 17   9  15  1   
 18   9  31  1   
 19   9  32  1   
 20  10  16  1   
 21  10  33  1   
 22  10  34  1   
 23  11  14  2   
 24  12  35  1   
 25  12  36  1   
 26  12  37  1   
 27  13  17  ar  
 28  13  18  ar  
 29  14  19  1   
 30  15  16  1   
 31  15  20  1   
 32  15  38  1   
 33  16  39  1   
 34  16  40  1   
 35  17  21  1   
 36  17  22  ar  
 37  18  23  ar  
 38  18  41  1   
 39  19  42  1   
 40  19  43  1   
 41  19  44  1   
 42  20  24  1   
 43  20  25  1   
 44  20  45  1   
 45  21  26  1   
 46  22  27  ar  
 47  22  46  1   
 48  23  27  ar  
 49  23  47  1   
 50  24  48  1   
 51  24  49  1   
 52  24  50  1   
 53  25  51  1   
 54  25  52  1   
 55  25  53  1   
 56  26  54  1   
 57  26  55  1   
 58  26  56  1   
 59  27  57  1   
@<TRIPOS>SUBSTRUCTURE
  1 ****  21 GROUP 4 **** **** 0

# MOE 2024.06 (io_trps.svl 2023.06)
