@<TRIPOS>MOLECULE
NONAME
51 53 1 0 0 
SMALL
USER_CHARGES


@<TRIPOS>ATOM
  1 S        0.9050     1.1160    -0.2720 S.o2  1 <1>   1.3330 
  2 O        2.1330     1.6470     0.2750 O.2   1 <1>  -0.6500 
  3 O        0.4620     1.5470    -1.5790 O.2   1 <1>  -0.6500 
  4 N        1.0450    -0.5760    -0.3150 N.am  1 <1>  -0.8490 
  5 C       -0.4140     1.3610     0.9250 C.3   1 <1>  -0.0550 
  6 C        2.4040    -1.0130    -0.6510 C.3   1 <1>   0.1160 
  7 C        0.0810    -1.2200    -1.2140 C.3   1 <1>   0.1160 
  8 C       -0.8190     2.8180     1.2440 C.3   1 <1>  -0.0800 
  9 C       -1.1850     3.6410     0.0050 C.3   1 <1>   0.2000 
 10 C        0.2880     3.6290     1.9430 C.3   1 <1>   0.1100 
 11 O       -2.2300     4.4730     0.3590 O.3   1 <1>  -0.6800 
 12 C        0.0390     4.5230    -0.2110 C.3   1 <1>   0.1100 
 13 N        0.4860     4.8500     1.1510 N.3   1 <1>  -0.8100 
 14 C        1.8930     5.3010     1.1790 C.3   1 <1>   0.2480 
 15 C        2.0770     6.7090     0.6150 C.2   1 <1>  -0.1240 
 16 C        3.4190     7.0780     0.2770 C.2   1 <1>   0.6160 
 17 C        1.0640     7.5940     0.4480 C.2   1 <1>  -0.1780 
 18 O        4.3480     6.3070     0.4760 O.2   1 <1>  -0.5700 
 19 N        3.6580     8.3340    -0.2700 N.am  1 <1>  -0.4770 
 20 C        1.3000     8.8970    -0.0830 C.ar  1 <1>   0.0280 
 21 C        2.6120     9.2630    -0.4410 C.ar  1 <1>   0.1170 
 22 C        5.0480     8.6970    -0.6830 C.3   1 <1>   0.0600 
 23 C        0.2570     9.8100    -0.2520 C.ar  1 <1>  -0.1500 
 24 C        2.8200    10.5500    -0.9530 C.ar  1 <1>  -0.1500 
 25 C        0.4890    11.0670    -0.7610 C.ar  1 <1>  -0.1500 
 26 C        1.7780    11.4390    -1.1120 C.ar  1 <1>  -0.1500 
 27 H       -1.2880     0.8530     0.5680 H     1 <1>   0.0800 
 28 H       -0.1300     0.8840     1.8430 H     1 <1>   0.0800 
 29 H        2.4600    -2.0880    -0.6580 H     1 <1>   0.0800 
 30 H        3.1030    -0.6470     0.0830 H     1 <1>   0.0800 
 31 H        2.6910    -0.6350    -1.6190 H     1 <1>   0.0800 
 32 H        0.1550    -2.2910    -1.1300 H     1 <1>   0.0800 
 33 H        0.2710    -0.9360    -2.2370 H     1 <1>   0.0800 
 34 H       -0.9220    -0.9280    -0.9570 H     1 <1>   0.0800 
 35 H       -1.6690     2.7630     1.9030 H     1 <1>   0.0800 
 36 H       -1.4750     3.0680    -0.8600 H     1 <1>   0.0800 
 37 H        1.2030     3.0650     2.0070 H     1 <1>   0.0800 
 38 H       -0.0110     3.8990     2.9420 H     1 <1>   0.0800 
 39 H       -1.8560     5.1240     0.9900 H     1 <1>   0.4000 
 40 H       -0.2010     5.4050    -0.7800 H     1 <1>   0.0800 
 41 H        0.8030     3.9720    -0.7330 H     1 <1>   0.0800 
 42 H        2.2450     5.3050     2.1960 H     1 <1>   0.0800 
 43 H        2.5020     4.6020     0.6270 H     1 <1>   0.0800 
 44 H        0.0510     7.3480     0.7130 H     1 <1>   0.1500 
 45 H        5.0520     8.9850    -1.7180 H     1 <1>   0.0800 
 46 H        5.7280     7.8710    -0.5660 H     1 <1>   0.0800 
 47 H        5.4000     9.5130    -0.0780 H     1 <1>   0.0800 
 48 H       -0.7420     9.5200     0.0210 H     1 <1>   0.1500 
 49 H        3.8040    10.8730    -1.2320 H     1 <1>   0.1500 
 50 H       -0.3220    11.7630    -0.8870 H     1 <1>   0.1500 
 51 H        1.9590    12.4230    -1.5080 H     1 <1>   0.1500 
@<TRIPOS>BOND
  1   1   2  2   
  2   1   3  2   
  3   1   4  am  
  4   1   5  1   
  5   4   6  1   
  6   4   7  1   
  7   5   8  1   
  8   5  27  1   
  9   5  28  1   
 10   6  29  1   
 11   6  30  1   
 12   6  31  1   
 13   7  32  1   
 14   7  33  1   
 15   7  34  1   
 16   8   9  1   
 17   8  10  1   
 18   8  35  1   
 19   9  11  1   
 20   9  12  1   
 21   9  36  1   
 22  10  13  1   
 23  10  37  1   
 24  10  38  1   
 25  11  39  1   
 26  12  13  1   
 27  12  40  1   
 28  12  41  1   
 29  13  14  1   
 30  14  15  1   
 31  14  42  1   
 32  14  43  1   
 33  15  16  1   
 34  15  17  2   
 35  16  18  2   
 36  16  19  am  
 37  17  20  1   
 38  17  44  1   
 39  19  21  1   
 40  19  22  1   
 41  20  21  ar  
 42  20  23  ar  
 43  21  24  ar  
 44  22  45  1   
 45  22  46  1   
 46  22  47  1   
 47  23  25  ar  
 48  23  48  1   
 49  24  26  ar  
 50  24  49  1   
 51  25  26  ar  
 52  25  50  1   
 53  26  51  1   
@<TRIPOS>SUBSTRUCTURE
  1 ****  14 GROUP 4 **** **** 0

# MOE 2024.06 (io_trps.svl 2023.06)
