@<TRIPOS>MOLECULE
NONAME
58 60 1 0 0 
SMALL
USER_CHARGES


@<TRIPOS>ATOM
  1 O       -3.6770     2.9100     0.0640 O.2   1 <1>  -0.5700 
  2 C       -2.8930     2.4290    -0.7270 C.2   1 <1>   0.6300 
  3 N       -3.1360     1.1790    -1.2460 N.am  1 <1>  -0.6600 
  4 C       -1.6190     3.2220    -1.0610 C.3   1 <1>   0.0320 
  5 C       -2.1500     0.4050    -2.0490 C.3   1 <1>   0.3200 
  6 C       -4.3640     0.4360    -0.8260 C.3   1 <1>   0.1400 
  7 C       -0.4850     2.8270    -0.1170 C.ar  1 <1>  -0.0320 
  8 C       -1.6970     4.6600    -1.5210 C.3   1 <1>  -0.1900 
  9 C       -1.3180     3.6070    -2.5000 C.3   1 <1>  -0.2000 
 10 C       -1.7490    -0.8170    -1.2490 C.2   1 <1>  -0.3320 
 11 C       -4.1810    -0.1180     0.6040 C.3   1 <1>   0.3430 
 12 C        0.6260     2.1210    -0.5570 C.ar  1 <1>  -0.1500 
 13 C       -0.5760     3.1720     1.2230 C.ar  1 <1>  -0.1500 
 14 C       -3.0510     5.3570    -1.7150 C.3   1 <1>  -0.1450 
 15 C       -0.6150     5.6680    -1.1020 C.3   1 <1>  -0.1450 
 16 N       -1.9020    -2.0920    -1.6620 N.pl3 1 <1>   0.0330 
 17 C       -1.2080    -0.8810    -0.0110 C.2   1 <1>   0.0770 
 18 N       -5.3770     0.0650     1.4940 N.4   1 <1>  -0.9590 
 19 C        1.6200     1.7570     0.3340 C.ar  1 <1>  -0.1500 
 20 C        0.4170     2.8130     2.1170 C.ar  1 <1>  -0.1500 
 21 C       -1.4820    -2.8470    -0.6260 C.2   1 <1>   0.0360 
 22 N       -1.0760    -2.1570     0.3900 N.2   1 <1>  -0.5650 
 23 C       -5.5890     1.5170     1.8050 C.3   1 <1>   0.2630 
 24 C       -5.1730    -0.7040     2.7590 C.3   1 <1>   0.2630 
 25 C        1.5250     2.0970     1.6720 C.ar  1 <1>   0.0820 
 26 O        2.5410     1.7010     2.4770 O.3   1 <1>  -0.3620 
 27 C        2.5380     1.9830     3.8580 C.3   1 <1>   0.0400 
 28 H       -1.2750     0.9840    -2.2730 H     1 <1>   0.0800 
 29 H       -2.6020     0.1170    -2.9830 H     1 <1>   0.0800 
 30 H       -4.5530    -0.3740    -1.5080 H     1 <1>   0.0800 
 31 H       -5.2020     1.1090    -0.8690 H     1 <1>   0.0800 
 32 H       -2.0240     3.3500    -3.2690 H     1 <1>   0.1000 
 33 H       -0.3040     3.5970    -2.8590 H     1 <1>   0.1000 
 34 H       -3.3400     0.3850     1.0520 H     1 <1>   0.0800 
 35 H       -3.9320    -1.1640     0.5360 H     1 <1>   0.0800 
 36 H        0.7300     1.8480    -1.5900 H     1 <1>   0.1500 
 37 H       -1.4300     3.7290     1.5690 H     1 <1>   0.1500 
 38 H       -3.7910     4.6790    -2.1010 H     1 <1>   0.0800 
 39 H       -2.9550     6.1750    -2.4070 H     1 <1>   0.0800 
 40 H       -3.4030     5.7410    -0.7740 H     1 <1>   0.0800 
 41 H        0.3560     5.2080    -1.0560 H     1 <1>   0.0800 
 42 H       -0.8440     6.0720    -0.1320 H     1 <1>   0.0800 
 43 H       -0.5660     6.4770    -1.8090 H     1 <1>   0.0800 
 44 H       -2.2430    -2.4380    -2.5650 H     1 <1>   0.2700 
 45 H       -0.9120    -0.0620     0.6280 H     1 <1>   0.1500 
 46 H       -6.2130    -0.3000     1.0150 H     1 <1>   0.4500 
 47 H        2.4800     1.2070    -0.0030 H     1 <1>   0.1500 
 48 H        0.3150     3.0990     3.1460 H     1 <1>   0.1500 
 49 H       -1.4870    -3.9240    -0.6600 H     1 <1>   0.1500 
 50 H       -4.7060     1.9350     2.2620 H     1 <1>   0.0800 
 51 H       -6.4210     1.6430     2.4780 H     1 <1>   0.0800 
 52 H       -5.7890     2.0740     0.9040 H     1 <1>   0.0800 
 53 H       -4.3000    -0.3410     3.2790 H     1 <1>   0.0800 
 54 H       -5.0320    -1.7510     2.5420 H     1 <1>   0.0800 
 55 H       -6.0290    -0.5970     3.4050 H     1 <1>   0.0800 
 56 H        3.4360     1.5720     4.2840 H     1 <1>   0.0800 
 57 H        1.6770     1.5210     4.3060 H     1 <1>   0.0800 
 58 H        2.5220     3.0490     3.9970 H     1 <1>   0.0800 
@<TRIPOS>BOND
  1   1   2  2   
  2   2   3  am  
  3   2   4  1   
  4   3   5  1   
  5   3   6  1   
  6   4   7  1   
  7   4   8  1   
  8   4   9  1   
  9   5  10  1   
 10   5  28  1   
 11   5  29  1   
 12   6  11  1   
 13   6  30  1   
 14   6  31  1   
 15   7  12  ar  
 16   7  13  ar  
 17   8   9  1   
 18   8  14  1   
 19   8  15  1   
 20   9  32  1   
 21   9  33  1   
 22  10  16  1   
 23  10  17  2   
 24  11  18  1   
 25  11  34  1   
 26  11  35  1   
 27  12  19  ar  
 28  12  36  1   
 29  13  20  ar  
 30  13  37  1   
 31  14  38  1   
 32  14  39  1   
 33  14  40  1   
 34  15  41  1   
 35  15  42  1   
 36  15  43  1   
 37  16  21  1   
 38  16  44  1   
 39  17  22  1   
 40  17  45  1   
 41  18  23  1   
 42  18  24  1   
 43  18  46  1   
 44  19  25  ar  
 45  19  47  1   
 46  20  25  ar  
 47  20  48  1   
 48  21  22  2   
 49  21  49  1   
 50  23  50  1   
 51  23  51  1   
 52  23  52  1   
 53  24  53  1   
 54  24  54  1   
 55  24  55  1   
 56  25  26  1   
 57  26  27  1   
 58  27  56  1   
 59  27  57  1   
 60  27  58  1   
@<TRIPOS>SUBSTRUCTURE
  1 ****   2 GROUP 4 **** **** 0

# MOE 2024.06 (io_trps.svl 2023.06)
