@<TRIPOS>MOLECULE
NONAME
50 53 1 0 0 
SMALL
USER_CHARGES


@<TRIPOS>ATOM
  1 O        2.6510    -1.8350     2.1880 O.2   1 <1>  -0.5700 
  2 C        2.6040    -1.9110     0.9790 C.2   1 <1>   0.5690 
  3 N        3.2570    -0.9650     0.2220 N.am  1 <1>  -0.6600 
  4 C        1.7930    -3.0660     0.3270 C.3   1 <1>   0.2040 
  5 C        3.9400     0.2090     0.8350 C.3   1 <1>   0.1400 
  6 C        3.2290    -0.7960    -1.2540 C.3   1 <1>   0.1400 
  7 C        0.6430    -2.4800    -0.5290 C.ar  1 <1>  -0.1440 
  8 C        2.7360    -4.0270    -0.4330 C.3   1 <1>  -0.1600 
  9 C        1.1620    -4.0300     1.3530 C.3   1 <1>  -0.1600 
 10 C        3.8500     1.3170    -0.2200 C.3   1 <1>   0.4240 
 11 C        3.9510     0.5260    -1.5220 C.3   1 <1>  -0.1600 
 12 C       -0.1350    -1.4650     0.0200 C.ar  1 <1>  -0.1500 
 13 C        0.3420    -2.9050    -1.8200 C.ar  1 <1>  -0.1500 
 14 C        2.1020    -5.4270    -0.3940 C.3   1 <1>  -0.1600 
 15 C        0.9450    -5.3420     0.6020 C.3   1 <1>  -0.1600 
 16 O        2.5690     1.8380    -0.1700 O.3   1 <1>  -0.6800 
 17 C        4.8590     2.4700    -0.1200 C.ar  1 <1>  -0.1440 
 18 C       -1.1620    -0.8790    -0.6980 C.ar  1 <1>  -0.1500 
 19 C       -0.6870    -2.3230    -2.5410 C.ar  1 <1>  -0.1500 
 20 C        5.7660     2.5860     0.9300 C.ar  1 <1>  -0.1500 
 21 C        4.8720     3.4440    -1.1120 C.ar  1 <1>  -0.1500 
 22 C       -1.4380    -1.3060    -1.9820 C.ar  1 <1>  -0.1500 
 23 C        6.6690     3.6350     0.9720 C.ar  1 <1>  -0.1500 
 24 C        5.7740     4.4930    -1.0720 C.ar  1 <1>  -0.1500 
 25 C        6.6770     4.5880    -0.0290 C.ar  1 <1>  -0.1500 
 26 H        4.9660    -0.0580     1.0100 H     1 <1>   0.0800 
 27 H        3.4820     0.5100     1.7620 H     1 <1>   0.0800 
 28 H        2.2110    -0.7290    -1.5980 H     1 <1>   0.0800 
 29 H        3.7290    -1.6110    -1.7470 H     1 <1>   0.0800 
 30 H        3.6730    -4.0720     0.0950 H     1 <1>   0.0800 
 31 H        2.9440    -3.7060    -1.4360 H     1 <1>   0.0800 
 32 H        0.2480    -3.6460     1.7700 H     1 <1>   0.0800 
 33 H        1.8550    -4.2120     2.1570 H     1 <1>   0.0800 
 34 H        3.5330     1.0550    -2.3590 H     1 <1>   0.0800 
 35 H        4.9850     0.3210    -1.7290 H     1 <1>   0.0800 
 36 H        0.0540    -1.1180     1.0230 H     1 <1>   0.1500 
 37 H        0.8920    -3.6970    -2.2910 H     1 <1>   0.1500 
 38 H        2.8290    -6.1500    -0.0650 H     1 <1>   0.0800 
 39 H        1.7390    -5.7210    -1.3630 H     1 <1>   0.0800 
 40 H        0.0110    -5.2960     0.0670 H     1 <1>   0.0800 
 41 H        0.9240    -6.1850     1.2710 H     1 <1>   0.0800 
 42 H        1.9510     1.0900    -0.0650 H     1 <1>   0.4000 
 43 H       -1.7490    -0.0930    -0.2540 H     1 <1>   0.1500 
 44 H       -0.9040    -2.6630    -3.5380 H     1 <1>   0.1500 
 45 H        5.7860     1.8730     1.7330 H     1 <1>   0.1500 
 46 H        4.1670     3.3910    -1.9220 H     1 <1>   0.1500 
 47 H       -2.2380    -0.8530    -2.5430 H     1 <1>   0.1500 
 48 H        7.3660     3.7110     1.7880 H     1 <1>   0.1500 
 49 H        5.7700     5.2360    -1.8500 H     1 <1>   0.1500 
 50 H        7.3790     5.4020     0.0040 H     1 <1>   0.1500 
@<TRIPOS>BOND
  1   1   2  2   
  2   2   3  am  
  3   2   4  1   
  4   3   5  1   
  5   3   6  1   
  6   4   7  1   
  7   4   8  1   
  8   4   9  1   
  9   5  10  1   
 10   5  26  1   
 11   5  27  1   
 12   6  11  1   
 13   6  28  1   
 14   6  29  1   
 15   7  12  ar  
 16   7  13  ar  
 17   8  14  1   
 18   8  30  1   
 19   8  31  1   
 20   9  15  1   
 21   9  32  1   
 22   9  33  1   
 23  10  11  1   
 24  10  16  1   
 25  10  17  1   
 26  11  34  1   
 27  11  35  1   
 28  12  18  ar  
 29  12  36  1   
 30  13  19  ar  
 31  13  37  1   
 32  14  15  1   
 33  14  38  1   
 34  14  39  1   
 35  15  40  1   
 36  15  41  1   
 37  16  42  1   
 38  17  20  ar  
 39  17  21  ar  
 40  18  22  ar  
 41  18  43  1   
 42  19  22  ar  
 43  19  44  1   
 44  20  23  ar  
 45  20  45  1   
 46  21  24  ar  
 47  21  46  1   
 48  22  47  1   
 49  23  25  ar  
 50  23  48  1   
 51  24  25  ar  
 52  24  49  1   
 53  25  50  1   
@<TRIPOS>SUBSTRUCTURE
  1 ****   3 GROUP 4 **** **** 0

# MOE 2024.06 (io_trps.svl 2023.06)
