@<TRIPOS>MOLECULE
NONAME
58 60 1 0 0 
SMALL
USER_CHARGES


@<TRIPOS>ATOM
  1 O        0.7520    -1.5360    -2.4450 O.2   1 <1>  -0.5700 
  2 C        1.7540    -1.9450    -1.9110 C.2   1 <1>   0.5690 
  3 N        2.8560    -2.3710    -2.6010 N.am  1 <1>  -0.6600 
  4 C        1.8080    -2.0020    -0.3970 C.3   1 <1>  -0.0990 
  5 C        4.0480    -2.8760    -1.8750 C.3   1 <1>   0.1400 
  6 C        2.9090    -2.4040    -4.0870 C.3   1 <1>   0.0600 
  7 C        3.1480    -1.4440     0.1130 C.3   1 <1>  -0.0800 
  8 C        4.3720    -1.9550    -0.6850 C.3   1 <1>  -0.0800 
  9 C        3.4220    -1.7690     1.5890 C.3   1 <1>  -0.1600 
 10 C        5.2900    -2.6210     0.3450 C.3   1 <1>  -0.1600 
 11 C        4.9400    -1.9230     1.6540 C.3   1 <1>   0.2200 
 12 N        5.4590    -2.6520     2.8520 N.am  1 <1>  -0.6600 
 13 C        6.5650    -2.2390     3.5680 C.2   1 <1>   0.5690 
 14 C        4.7490    -3.9060     3.2560 C.3   1 <1>   0.0600 
 15 O        6.9440    -2.8490     4.5420 O.2   1 <1>  -0.5700 
 16 C        7.3700    -0.9920     3.2020 C.3   1 <1>   0.0440 
 17 C        7.9880    -1.0530     1.8080 C.ar  1 <1>  -0.1440 
 18 C        7.7290    -0.0590     0.8760 C.ar  1 <1>  -0.1500 
 19 C        8.7950    -2.1200     1.4490 C.ar  1 <1>  -0.1500 
 20 C        8.2340    -0.1320    -0.4130 C.ar  1 <1>   0.0820 
 21 C        9.3180    -2.2070     0.1700 C.ar  1 <1>   0.0820 
 22 O        7.8660     0.8880    -1.2380 O.3   1 <1>  -0.3620 
 23 C        9.0580    -1.2070    -0.7710 C.ar  1 <1>   0.0820 
 24 O       10.0860    -3.2880    -0.1140 O.3   1 <1>  -0.3620 
 25 C        7.6150     0.6450    -2.6050 C.3   1 <1>   0.0400 
 26 O        9.6180    -1.2810    -2.0090 O.3   1 <1>  -0.3630 
 27 C        9.5310    -4.2330    -1.0000 C.3   1 <1>   0.0400 
 28 C       10.9810    -0.9260    -2.0690 C.3   1 <1>   0.0400 
 29 H        0.9920    -1.4360     0.0130 H     1 <1>   0.0800 
 30 H        1.6890    -3.0280    -0.1060 H     1 <1>   0.0800 
 31 H        3.8320    -3.8720    -1.5280 H     1 <1>   0.0800 
 32 H        4.8960    -2.9240    -2.5370 H     1 <1>   0.0800 
 33 H        3.7090    -1.7750    -4.4360 H     1 <1>   0.0800 
 34 H        1.9830    -2.0470    -4.5060 H     1 <1>   0.0800 
 35 H        3.0730    -3.4120    -4.4240 H     1 <1>   0.0800 
 36 H        3.1200    -0.3720    -0.0010 H     1 <1>   0.0800 
 37 H        4.8880    -1.0930    -1.0740 H     1 <1>   0.0800 
 38 H        2.9310    -2.6880     1.8470 H     1 <1>   0.0800 
 39 H        3.0780    -0.9830     2.2380 H     1 <1>   0.0800 
 40 H        6.3240    -2.4960     0.0830 H     1 <1>   0.0800 
 41 H        5.0660    -3.6690     0.4160 H     1 <1>   0.0800 
 42 H        5.3460    -0.9290     1.6240 H     1 <1>   0.0800 
 43 H        4.4480    -4.4680     2.3910 H     1 <1>   0.0800 
 44 H        3.8800    -3.6560     3.8380 H     1 <1>   0.0800 
 45 H        5.3900    -4.5330     3.8520 H     1 <1>   0.0800 
 46 H        6.7300    -0.1360     3.2970 H     1 <1>   0.0800 
 47 H        8.1630    -0.8750     3.9180 H     1 <1>   0.0800 
 48 H        7.1170     0.7860     1.1330 H     1 <1>   0.1500 
 49 H        9.0180    -2.9000     2.1570 H     1 <1>   0.1500 
 50 H        6.9870     1.4340    -2.9760 H     1 <1>   0.0800 
 51 H        7.1180    -0.3040    -2.7110 H     1 <1>   0.0800 
 52 H        8.5490     0.6460    -3.1360 H     1 <1>   0.0800 
 53 H       10.2020    -5.0700    -1.0600 H     1 <1>   0.0800 
 54 H        9.4150    -3.7850    -1.9700 H     1 <1>   0.0800 
 55 H        8.5780    -4.5510    -0.6150 H     1 <1>   0.0800 
 56 H       11.3010    -0.9860    -3.0930 H     1 <1>   0.0800 
 57 H       11.5500    -1.6100    -1.4640 H     1 <1>   0.0800 
 58 H       11.0920     0.0790    -1.7030 H     1 <1>   0.0800 
@<TRIPOS>BOND
  1   1   2  2   
  2   2   3  am  
  3   2   4  1   
  4   3   5  1   
  5   3   6  1   
  6   4   7  1   
  7   4  29  1   
  8   4  30  1   
  9   5   8  1   
 10   5  31  1   
 11   5  32  1   
 12   6  33  1   
 13   6  34  1   
 14   6  35  1   
 15   7   8  1   
 16   7   9  1   
 17   7  36  1   
 18   8  10  1   
 19   8  37  1   
 20   9  11  1   
 21   9  38  1   
 22   9  39  1   
 23  10  11  1   
 24  10  40  1   
 25  10  41  1   
 26  11  12  1   
 27  11  42  1   
 28  12  13  am  
 29  12  14  1   
 30  13  15  2   
 31  13  16  1   
 32  14  43  1   
 33  14  44  1   
 34  14  45  1   
 35  16  17  1   
 36  16  46  1   
 37  16  47  1   
 38  17  18  ar  
 39  17  19  ar  
 40  18  20  ar  
 41  18  48  1   
 42  19  21  ar  
 43  19  49  1   
 44  20  22  1   
 45  20  23  ar  
 46  21  23  ar  
 47  21  24  1   
 48  22  25  1   
 49  23  26  1   
 50  24  27  1   
 51  25  50  1   
 52  25  51  1   
 53  25  52  1   
 54  26  28  1   
 55  27  53  1   
 56  27  54  1   
 57  27  55  1   
 58  28  56  1   
 59  28  57  1   
 60  28  58  1   
@<TRIPOS>SUBSTRUCTURE
  1 ****  10 GROUP 4 **** **** 0

# MOE 2024.06 (io_trps.svl 2023.06)
