@<TRIPOS>MOLECULE
NONAME
51 53 1 0 0 
SMALL
USER_CHARGES


@<TRIPOS>ATOM
  1 F       -0.4410    -1.7440    -1.8880 F     1 <1>  -0.1900 
  2 C       -0.3400    -2.5500    -0.8630 C.ar  1 <1>   0.1900 
  3 C        0.9040    -2.7680    -0.2890 C.ar  1 <1>  -0.1440 
  4 C       -1.4930    -3.1520    -0.3960 C.ar  1 <1>  -0.1500 
  5 C        0.9710    -3.6290     0.7950 C.ar  1 <1>  -0.1500 
  6 C        2.1560    -2.0920    -0.8270 C.3   1 <1>  -0.0960 
  7 C       -1.4130    -4.0080     0.6920 C.ar  1 <1>  -0.1440 
  8 C       -0.1760    -4.2430     1.2780 C.ar  1 <1>  -0.1500 
  9 C       -2.6710    -4.6790     1.2410 C.3   1 <1>   0.0450 
 10 C       -2.9310    -6.0920     0.7220 C.2   1 <1>   0.5690 
 11 O       -2.0280    -6.6860     0.1780 O.2   1 <1>  -0.5700 
 12 N       -4.1680    -6.6670     0.8850 N.am  1 <1>  -0.6600 
 13 C       -4.5100    -7.9870     0.2630 C.3   1 <1>   0.1400 
 14 C       -5.3210    -6.0730     1.6210 C.3   1 <1>   0.1400 
 15 C       -5.6770    -7.7960    -0.7190 C.3   1 <1>   0.2000 
 16 C       -6.4920    -5.8680     0.6500 C.3   1 <1>  -0.1600 
 17 O       -5.9850    -9.0110    -1.3090 O.3   1 <1>  -0.6800 
 18 C       -6.9330    -7.1960    -0.0340 C.3   1 <1>  -0.1060 
 19 C       -7.4790    -8.2090     0.9950 C.2   1 <1>   0.9060 
 20 C       -8.0170    -6.9240    -1.1140 C.3   1 <1>  -0.0160 
 21 O       -7.7630    -7.8510     2.1440 O.co2 1 <1>  -0.9000 
 22 O       -7.6130    -9.3930     0.6490 O.co2 1 <1>  -0.9000 
 23 C       -9.1030    -5.9270    -0.7120 C.ar  1 <1>  -0.1440 
 24 C      -10.0250    -6.2470     0.2720 C.ar  1 <1>  -0.1500 
 25 C       -9.1800    -4.6880    -1.3320 C.ar  1 <1>  -0.1500 
 26 C      -11.0070    -5.3430     0.6350 C.ar  1 <1>  -0.1500 
 27 C      -10.1630    -3.7820    -0.9730 C.ar  1 <1>  -0.1500 
 28 C      -11.0780    -4.1090     0.0130 C.ar  1 <1>  -0.1500 
 29 H       -2.4280    -2.9520    -0.8840 H     1 <1>   0.1500 
 30 H        1.9150    -3.8330     1.2690 H     1 <1>   0.1500 
 31 H        3.0220    -2.3740    -0.2570 H     1 <1>   0.0800 
 32 H        2.0440    -1.0240    -0.7780 H     1 <1>   0.0800 
 33 H        2.3110    -2.3770    -1.8520 H     1 <1>   0.0800 
 34 H       -0.1010    -4.9170     2.1130 H     1 <1>   0.1500 
 35 H       -3.5110    -4.0620     0.9870 H     1 <1>   0.0800 
 36 H       -2.6070    -4.7250     2.3110 H     1 <1>   0.0800 
 37 H       -3.6650    -8.3860    -0.2690 H     1 <1>   0.0800 
 38 H       -4.7890    -8.6810     1.0360 H     1 <1>   0.0800 
 39 H       -5.6100    -6.7440     2.4130 H     1 <1>   0.0800 
 40 H       -5.0650    -5.1370     2.0800 H     1 <1>   0.0800 
 41 H       -5.3400    -7.1480    -1.5080 H     1 <1>   0.0800 
 42 H       -7.3170    -5.4600     1.2090 H     1 <1>   0.0800 
 43 H       -6.2120    -5.1430    -0.0930 H     1 <1>   0.0800 
 44 H       -6.6170    -9.4660    -0.6700 H     1 <1>   0.4000 
 45 H       -7.5370    -6.5590    -2.0030 H     1 <1>   0.0800 
 46 H       -8.4880    -7.8540    -1.3830 H     1 <1>   0.0800 
 47 H       -9.9760    -7.2030     0.7680 H     1 <1>   0.1500 
 48 H       -8.4730    -4.4250    -2.0980 H     1 <1>   0.1500 
 49 H      -11.7100    -5.6060     1.4050 H     1 <1>   0.1500 
 50 H      -10.2160    -2.8250    -1.4590 H     1 <1>   0.1500 
 51 H      -11.8410    -3.4070     0.2960 H     1 <1>   0.1500 
@<TRIPOS>BOND
  1   1   2  1   
  2   2   3  ar  
  3   2   4  ar  
  4   3   5  ar  
  5   3   6  1   
  6   4   7  ar  
  7   4  29  1   
  8   5   8  ar  
  9   5  30  1   
 10   6  31  1   
 11   6  32  1   
 12   6  33  1   
 13   7   8  ar  
 14   7   9  1   
 15   8  34  1   
 16   9  10  1   
 17   9  35  1   
 18   9  36  1   
 19  10  11  2   
 20  10  12  am  
 21  12  13  1   
 22  12  14  1   
 23  13  15  1   
 24  13  37  1   
 25  13  38  1   
 26  14  16  1   
 27  14  39  1   
 28  14  40  1   
 29  15  17  1   
 30  15  18  1   
 31  15  41  1   
 32  16  18  1   
 33  16  42  1   
 34  16  43  1   
 35  17  44  1   
 36  18  19  1   
 37  18  20  1   
 38  19  21  ar  
 39  19  22  ar  
 40  20  23  1   
 41  20  45  1   
 42  20  46  1   
 43  23  24  ar  
 44  23  25  ar  
 45  24  26  ar  
 46  24  47  1   
 47  25  27  ar  
 48  25  48  1   
 49  26  28  ar  
 50  26  49  1   
 51  27  28  ar  
 52  27  50  1   
 53  28  51  1   
@<TRIPOS>SUBSTRUCTURE
  1 ****  12 GROUP 4 **** **** 0

# MOE 2024.06 (io_trps.svl 2023.06)
