@<TRIPOS>MOLECULE
NONAME
44 46 1 0 0 
SMALL
USER_CHARGES


@<TRIPOS>ATOM
  1 CL       3.5010     4.4690     2.1700 Cl    1 <1>  -0.1770 
  2 C        2.0040     3.8200     1.5370 C.ar  1 <1>   0.1770 
  3 C        2.0060     2.8630     0.5280 C.ar  1 <1>  -0.1440 
  4 C        0.8250     4.2950     2.0810 C.ar  1 <1>  -0.1500 
  5 C        0.7800     2.3900     0.0730 C.ar  1 <1>  -0.1500 
  6 C        3.3110     2.3490    -0.0770 C.3   1 <1>   0.3640 
  7 C       -0.3860     3.8130     1.6170 C.ar  1 <1>  -0.1500 
  8 C       -0.4050     2.8610     0.6140 C.ar  1 <1>  -0.1500 
  9 N        3.2540     0.8670    -0.1520 N.am  1 <1>  -0.7300 
 10 C        3.5880     2.9680    -1.4700 C.3   1 <1>   0.2610 
 11 C        3.7100     0.1560    -1.2080 C.2   1 <1>   0.5690 
 12 O        4.6170     2.2450    -2.1340 O.3   1 <1>  -0.5600 
 13 C        3.9630     4.4430    -1.3230 C.2   1 <1>   0.5690 
 14 O        3.6480    -1.0460    -1.2100 O.2   1 <1>  -0.5700 
 15 C        4.2840     0.9010    -2.4190 C.3   1 <1>   0.1810 
 16 O        3.0840     5.2690    -1.2500 O.2   1 <1>  -0.5700 
 17 N        5.2770     4.7970    -1.2700 N.am  1 <1>  -0.7300 
 18 C        5.7870     6.1840    -1.1730 C.3   1 <1>   0.1400 
 19 C        5.6150     6.6980     0.2570 C.3   1 <1>  -0.0990 
 20 C        6.1670     8.0990     0.4390 C.2   1 <1>   0.4490 
 21 N        6.9240     8.7210    -0.3860 N.2   1 <1>  -0.5120 
 22 N        5.8850     8.8350     1.5750 N.am  1 <1>  -0.4200 
 23 N        7.1590     9.9350     0.2190 N.am  1 <1>  -0.3680 
 24 C        6.5300    10.0070     1.4050 C.2   1 <1>   0.6900 
 25 C        5.0360     8.4570     2.7280 C.3   1 <1>   0.0600 
 26 O        6.5470    10.9600     2.1770 O.2   1 <1>  -0.5700 
 27 H        0.8570     5.0370     2.8590 H     1 <1>   0.1500 
 28 H        0.7360     1.6490    -0.7080 H     1 <1>   0.1500 
 29 H        4.1350     2.6020     0.5650 H     1 <1>   0.0800 
 30 H       -1.3090     4.1780     2.0340 H     1 <1>   0.1500 
 31 H       -1.3470     2.4850     0.2510 H     1 <1>   0.1500 
 32 H        2.8770     0.3650     0.6540 H     1 <1>   0.3700 
 33 H        2.7010     2.9130    -2.0750 H     1 <1>   0.0800 
 34 H        3.5650     0.8910    -3.2180 H     1 <1>   0.0800 
 35 H        5.1780     0.4040    -2.7510 H     1 <1>   0.0800 
 36 H        5.9670     4.0670    -1.4760 H     1 <1>   0.3700 
 37 H        6.8270     6.2030    -1.4540 H     1 <1>   0.0800 
 38 H        5.2390     6.8160    -1.8540 H     1 <1>   0.0800 
 39 H        6.1190     6.0400     0.9400 H     1 <1>   0.0800 
 40 H        4.5670     6.7130     0.4920 H     1 <1>   0.0800 
 41 H        7.7250    10.6940    -0.1660 H     1 <1>   0.3700 
 42 H        5.3960     7.5410     3.1600 H     1 <1>   0.0800 
 43 H        4.0190     8.3250     2.4010 H     1 <1>   0.0800 
 44 H        5.0660     9.2330     3.4740 H     1 <1>   0.0800 
@<TRIPOS>BOND
  1   1   2  1   
  2   2   3  ar  
  3   2   4  ar  
  4   3   5  ar  
  5   3   6  1   
  6   4   7  ar  
  7   4  27  1   
  8   5   8  ar  
  9   5  28  1   
 10   6   9  1   
 11   6  10  1   
 12   6  29  1   
 13   7   8  ar  
 14   7  30  1   
 15   8  31  1   
 16   9  11  am  
 17   9  32  1   
 18  10  12  1   
 19  10  13  1   
 20  10  33  1   
 21  11  14  2   
 22  11  15  1   
 23  12  15  1   
 24  13  16  2   
 25  13  17  am  
 26  15  34  1   
 27  15  35  1   
 28  17  18  1   
 29  17  36  1   
 30  18  19  1   
 31  18  37  1   
 32  18  38  1   
 33  19  20  1   
 34  19  39  1   
 35  19  40  1   
 36  20  21  2   
 37  20  22  1   
 38  21  23  1   
 39  22  24  am  
 40  22  25  1   
 41  23  24  am  
 42  23  41  1   
 43  24  26  2   
 44  25  42  1   
 45  25  43  1   
 46  25  44  1   
@<TRIPOS>SUBSTRUCTURE
  1 ****  13 GROUP 4 **** **** 0

# MOE 2024.06 (io_trps.svl 2023.06)
