@<TRIPOS>MOLECULE
NONAME
49 52 1 0 0 
SMALL
USER_CHARGES


@<TRIPOS>ATOM
  1 O       -0.6510     0.5980     0.6640 O.2   1 <1>  -0.5700 
  2 C       -1.6760     1.1260     0.2770 C.2   1 <1>   0.7160 
  3 N       -2.8880     0.6130     0.6910 N.am  1 <1>  -0.6600 
  4 C       -1.5870     2.2620    -0.6090 C.2   1 <1>  -0.0860 
  5 C       -2.9910    -0.2840     1.8760 C.3   1 <1>   0.1400 
  6 C       -4.1350     0.6910    -0.1180 C.3   1 <1>   0.1400 
  7 C       -0.6490     2.5050    -1.5630 C.2   1 <1>  -0.0100 
  8 C       -2.4330     3.3920    -0.6710 C.2   1 <1>  -0.1500 
  9 C       -3.3680    -1.6940     1.4190 C.3   1 <1>  -0.1600 
 10 C       -4.5200    -0.7140    -0.5900 C.3   1 <1>  -0.1600 
 11 O       -0.8700     3.6410    -2.1800 O.3   1 <1>  -0.2800 
 12 C       -1.9430     4.1840    -1.6460 C.2   1 <1>  -0.0100 
 13 C       -4.6560    -1.7000     0.5830 C.3   1 <1>   0.4240 
 14 O       -5.6610    -1.2170     1.4440 O.3   1 <1>  -0.5600 
 15 C       -4.9670    -3.1260     0.0810 C.ar  1 <1>  -0.1430 
 16 C       -6.9830    -1.5320     1.1330 C.3   1 <1>   0.1200 
 17 C       -6.1580    -3.7620     0.4050 C.ar  1 <1>  -0.1430 
 18 C       -4.0550    -3.8060    -0.7160 C.ar  1 <1>  -0.1500 
 19 C       -7.1750    -3.0400     1.2660 C.3   1 <1>  -0.0170 
 20 C       -6.4230    -5.0420    -0.0550 C.ar  1 <1>  -0.1500 
 21 C       -4.3000    -5.0870    -1.1800 C.ar  1 <1>   0.0830 
 22 C       -5.5100    -5.7210    -0.8570 C.ar  1 <1>   0.0830 
 23 O       -3.3030    -5.6220    -1.9390 O.3   1 <1>  -0.3630 
 24 O       -5.7770    -6.9690    -1.3440 O.3   1 <1>  -0.3630 
 25 C       -3.0130    -7.0010    -1.8860 C.3   1 <1>   0.0400 
 26 C       -7.0410    -7.5770    -1.1960 C.3   1 <1>   0.0400 
 27 H       -3.7450     0.1000     2.5430 H     1 <1>   0.0800 
 28 H       -2.0590    -0.3120     2.4150 H     1 <1>   0.0800 
 29 H       -3.9980     1.3200    -0.9790 H     1 <1>   0.0800 
 30 H       -4.9230     1.1070     0.4870 H     1 <1>   0.0800 
 31 H        0.2010     1.9070    -1.8460 H     1 <1>   0.1500 
 32 H       -3.2880     3.5560    -0.0400 H     1 <1>   0.1500 
 33 H       -3.5000    -2.3320     2.2740 H     1 <1>   0.0800 
 34 H       -2.5490    -2.0880     0.8480 H     1 <1>   0.0800 
 35 H       -3.7570    -1.0610    -1.2610 H     1 <1>   0.0800 
 36 H       -5.4350    -0.6780    -1.1480 H     1 <1>   0.0800 
 37 H       -2.2820     5.1360    -2.0170 H     1 <1>   0.1500 
 38 H       -7.2020    -1.2000     0.1340 H     1 <1>   0.0800 
 39 H       -7.6180    -1.0100     1.8270 H     1 <1>   0.0800 
 40 H       -3.1230    -3.3490    -0.9930 H     1 <1>   0.1500 
 41 H       -8.1730    -3.2970     0.9610 H     1 <1>   0.0800 
 42 H       -7.0490    -3.3270     2.2940 H     1 <1>   0.0800 
 43 H       -7.3540    -5.4960     0.2230 H     1 <1>   0.1500 
 44 H       -2.0050    -7.1450    -2.2280 H     1 <1>   0.0800 
 45 H       -3.6940    -7.5240    -2.5330 H     1 <1>   0.0800 
 46 H       -3.1120    -7.3430    -0.8710 H     1 <1>   0.0800 
 47 H       -7.0230    -8.5140    -1.7220 H     1 <1>   0.0800 
 48 H       -7.7910    -6.9340    -1.6220 H     1 <1>   0.0800 
 49 H       -7.2260    -7.7500    -0.1510 H     1 <1>   0.0800 
@<TRIPOS>BOND
  1   1   2  2   
  2   2   3  am  
  3   2   4  1   
  4   3   5  1   
  5   3   6  1   
  6   4   7  2   
  7   4   8  1   
  8   5   9  1   
  9   5  27  1   
 10   5  28  1   
 11   6  10  1   
 12   6  29  1   
 13   6  30  1   
 14   7  11  1   
 15   7  31  1   
 16   8  12  2   
 17   8  32  1   
 18   9  13  1   
 19   9  33  1   
 20   9  34  1   
 21  10  13  1   
 22  10  35  1   
 23  10  36  1   
 24  11  12  1   
 25  12  37  1   
 26  13  14  1   
 27  13  15  1   
 28  14  16  1   
 29  15  17  ar  
 30  15  18  ar  
 31  16  19  1   
 32  16  38  1   
 33  16  39  1   
 34  17  19  1   
 35  17  20  ar  
 36  18  21  ar  
 37  18  40  1   
 38  19  41  1   
 39  19  42  1   
 40  20  22  ar  
 41  20  43  1   
 42  21  22  ar  
 43  21  23  1   
 44  22  24  1   
 45  23  25  1   
 46  24  26  1   
 47  25  44  1   
 48  25  45  1   
 49  25  46  1   
 50  26  47  1   
 51  26  48  1   
 52  26  49  1   
@<TRIPOS>SUBSTRUCTURE
  1 ****  13 GROUP 4 **** **** 0

# MOE 2024.06 (io_trps.svl 2023.06)
