@<TRIPOS>MOLECULE
NONAME
56 60 1 0 0 
SMALL
USER_CHARGES


@<TRIPOS>ATOM
  1 F        0.6510     1.6170    -1.7070 F     1 <1>  -0.1900 
  2 C        1.8450     2.0820    -1.4440 C.ar  1 <1>   0.1900 
  3 C        2.0690     2.7490    -0.2490 C.ar  1 <1>  -0.1440 
  4 C        2.8410     1.8830    -2.3800 C.ar  1 <1>  -0.1500 
  5 C        3.3480     3.2270    -0.0060 C.ar  1 <1>  -0.1500 
  6 C        0.9530     2.9540     0.7640 C.3   1 <1>  -0.0960 
  7 C        4.1100     2.3690    -2.1160 C.ar  1 <1>  -0.1500 
  8 C        4.3720     3.0430    -0.9290 C.ar  1 <1>  -0.1440 
  9 C        5.7770     3.5740    -0.6500 C.3   1 <1>   0.0640 
 10 C        6.4270     2.8720     0.5670 C.3   1 <1>  -0.1600 
 11 C        5.8050     5.1190    -0.5710 C.3   1 <1>  -0.1600 
 12 C        7.5920     3.6660     1.1940 C.3   1 <1>   0.2890 
 13 C        7.0330     5.6830     0.1750 C.3   1 <1>   0.2890 
 14 N        8.0720     4.6330     0.1910 N.pl3 1 <1>  -0.8380 
 15 C        7.1110     4.5700     2.3330 C.3   1 <1>  -0.1600 
 16 C        6.7370     5.8940     1.6630 C.3   1 <1>  -0.1600 
 17 C        9.4260     4.9240     0.1180 C.ar  1 <1>   0.4100 
 18 N        9.7970     6.1650     0.3820 N.ar  1 <1>  -0.6200 
 19 C       10.3490     3.9220    -0.2180 C.ar  1 <1>   0.1600 
 20 C       11.1220     6.3750     0.3130 C.ar  1 <1>   0.3960 
 21 N       11.6540     4.0850    -0.2920 N.ar  1 <1>  -0.6200 
 22 C       11.7020     7.6960     0.5830 C.2   1 <1>   0.5440 
 23 C       11.9990     5.3350    -0.0130 C.ar  1 <1>   0.1600 
 24 O       12.8620     7.7610     0.9590 O.2   1 <1>  -0.5700 
 25 N       11.0330     8.8990     0.4190 N.am  1 <1>  -0.6600 
 26 C        9.6570     9.0760    -0.1000 C.3   1 <1>   0.1400 
 27 C       11.6940    10.2100     0.6030 C.3   1 <1>   0.1400 
 28 C        9.4300    10.5850    -0.1330 C.3   1 <1>  -0.1600 
 29 C       10.8280    11.1930    -0.1750 C.3   1 <1>  -0.1600 
 30 H        2.6230     1.3600    -3.2930 H     1 <1>   0.1500 
 31 H        3.5500     3.7490     0.9130 H     1 <1>   0.1500 
 32 H        1.3040     3.4950     1.6240 H     1 <1>   0.0800 
 33 H        0.5760     2.0000     1.0880 H     1 <1>   0.0800 
 34 H        0.1490     3.5080     0.3140 H     1 <1>   0.0800 
 35 H        4.8910     2.2180    -2.8410 H     1 <1>   0.1500 
 36 H        6.4010     3.3210    -1.4910 H     1 <1>   0.0800 
 37 H        6.8040     1.9210     0.2390 H     1 <1>   0.0800 
 38 H        5.6900     2.6580     1.3180 H     1 <1>   0.0800 
 39 H        4.9050     5.4930    -0.1210 H     1 <1>   0.0800 
 40 H        5.8180     5.5020    -1.5750 H     1 <1>   0.0800 
 41 H        8.3730     3.0060     1.5340 H     1 <1>   0.0800 
 42 H        7.3750     6.5930    -0.2890 H     1 <1>   0.0800 
 43 H        6.2900     4.1430     2.8800 H     1 <1>   0.0800 
 44 H        7.9260     4.7310     3.0170 H     1 <1>   0.0800 
 45 H        7.3730     6.6780     2.0340 H     1 <1>   0.0800 
 46 H        5.7150     6.1720     1.8460 H     1 <1>   0.0800 
 47 H        9.9560     2.9470    -0.4350 H     1 <1>   0.1500 
 48 H       13.0520     5.5550    -0.0470 H     1 <1>   0.1500 
 49 H        9.5940     8.6590    -1.0900 H     1 <1>   0.0800 
 50 H        8.9400     8.5970     0.5450 H     1 <1>   0.0800 
 51 H       11.6990    10.4540     1.6510 H     1 <1>   0.0800 
 52 H       12.7060    10.1930     0.2310 H     1 <1>   0.0800 
 53 H        8.8280    10.8800    -0.9740 H     1 <1>   0.0800 
 54 H        8.9320    10.8810     0.7740 H     1 <1>   0.0800 
 55 H       10.8620    12.1790     0.2510 H     1 <1>   0.0800 
 56 H       11.1790    11.2360    -1.1920 H     1 <1>   0.0800 
@<TRIPOS>BOND
  1   1   2  1   
  2   2   3  ar  
  3   2   4  ar  
  4   3   5  ar  
  5   3   6  1   
  6   4   7  ar  
  7   4  30  1   
  8   5   8  ar  
  9   5  31  1   
 10   6  32  1   
 11   6  33  1   
 12   6  34  1   
 13   7   8  ar  
 14   7  35  1   
 15   8   9  1   
 16   9  10  1   
 17   9  11  1   
 18   9  36  1   
 19  10  12  1   
 20  10  37  1   
 21  10  38  1   
 22  11  13  1   
 23  11  39  1   
 24  11  40  1   
 25  12  14  1   
 26  12  15  1   
 27  12  41  1   
 28  13  14  1   
 29  13  16  1   
 30  13  42  1   
 31  14  17  1   
 32  15  16  1   
 33  15  43  1   
 34  15  44  1   
 35  16  45  1   
 36  16  46  1   
 37  17  18  ar  
 38  17  19  ar  
 39  18  20  ar  
 40  19  21  ar  
 41  19  47  1   
 42  20  22  1   
 43  20  23  ar  
 44  21  23  ar  
 45  22  24  2   
 46  22  25  am  
 47  23  48  1   
 48  25  26  1   
 49  25  27  1   
 50  26  28  1   
 51  26  49  1   
 52  26  50  1   
 53  27  29  1   
 54  27  51  1   
 55  27  52  1   
 56  28  29  1   
 57  28  53  1   
 58  28  54  1   
 59  29  55  1   
 60  29  56  1   
@<TRIPOS>SUBSTRUCTURE
  1 ****  13 GROUP 4 **** **** 0

# MOE 2024.06 (io_trps.svl 2023.06)
