@<TRIPOS>MOLECULE
NONAME
56 59 1 0 0 
SMALL
USER_CHARGES


@<TRIPOS>ATOM
  1 O        0.7610     0.7520     1.3420 O.3   1 <1>  -0.5600 
  2 C        0.5350    -0.6160     1.1430 C.3   1 <1>   0.1200 
  3 C        1.5950     1.3200     0.3810 C.3   1 <1>   0.1200 
  4 C        1.8610    -1.4120     1.1500 C.3   1 <1>   0.2850 
  5 C        2.9710     0.6290     0.4150 C.3   1 <1>   0.1900 
  6 N        2.8310    -0.8330     0.1810 N.3   1 <1>  -0.8100 
  7 C        1.5660    -2.8780     0.7990 C.3   1 <1>  -0.1950 
  8 C        3.9070     1.2630    -0.6350 C.3   1 <1>   0.3430 
  9 C        4.1490    -1.5010     0.2070 C.3   1 <1>   0.1100 
 10 C        0.9090    -3.7790     1.8000 C.3   1 <1>  -0.2000 
 11 C        2.3330    -4.0200     1.3960 C.3   1 <1>  -0.2000 
 12 N        5.2560     0.5890    -0.6770 N.4   1 <1>  -0.9590 
 13 C        5.1080    -0.8970    -0.8390 C.3   1 <1>   0.3430 
 14 C        6.1330     1.1760    -1.7240 C.3   1 <1>   0.4860 
 15 C        6.3760     2.6330    -1.3820 C.ar  1 <1>  -0.1440 
 16 C        7.1970     2.9700    -0.3150 C.ar  1 <1>  -0.1500 
 17 C        5.7780     3.6400    -2.1270 C.ar  1 <1>  -0.1500 
 18 C        7.4130     4.2950     0.0200 C.ar  1 <1>   0.0820 
 19 C        5.9800     4.9680    -1.7910 C.ar  1 <1>  -0.1500 
 20 O        8.2470     4.5330     1.0620 O.3   1 <1>  -0.3620 
 21 C        6.7770     5.3050    -0.7100 C.ar  1 <1>   0.0820 
 22 C        9.3900     5.3250     0.8090 C.3   1 <1>   0.0400 
 23 O        6.8970     6.6200    -0.4120 O.3   1 <1>  -0.3630 
 24 C        6.3050     7.0480     0.7930 C.3   1 <1>   0.1200 
 25 C        6.5350     8.5510     0.9240 C.3   1 <1>  -0.2400 
 26 H       -0.1050    -0.9610     1.9360 H     1 <1>   0.0800 
 27 H        0.0210    -0.7470     0.2070 H     1 <1>   0.0800 
 28 H        1.1290     1.2150    -0.5840 H     1 <1>   0.0800 
 29 H        1.6880     2.3660     0.6150 H     1 <1>   0.0800 
 30 H        2.2690    -1.3640     2.1450 H     1 <1>   0.0800 
 31 H        3.3920     0.7980     1.3920 H     1 <1>   0.0800 
 32 H        1.2260    -2.9820    -0.2180 H     1 <1>   0.1000 
 33 H        4.0290     2.3090    -0.4080 H     1 <1>   0.0800 
 34 H        3.4330     1.1850    -1.5990 H     1 <1>   0.0800 
 35 H        4.5820    -1.4290     1.1910 H     1 <1>   0.0800 
 36 H        4.0300    -2.5440    -0.0260 H     1 <1>   0.0800 
 37 H        0.7160    -3.4220     2.7970 H     1 <1>   0.1000 
 38 H        0.1540    -4.4690     1.4600 H     1 <1>   0.1000 
 39 H        2.5520    -4.8780     0.7840 H     1 <1>   0.1000 
 40 H        3.1000    -3.8300     2.1280 H     1 <1>   0.1000 
 41 H        5.7050     0.7730     0.2280 H     1 <1>   0.4500 
 42 H        4.7130    -1.1180    -1.8180 H     1 <1>   0.0800 
 43 H        6.0700    -1.3760    -0.7530 H     1 <1>   0.0800 
 44 H        7.0770     0.6560    -1.7550 H     1 <1>   0.0800 
 45 H        5.6650     1.0960    -2.6920 H     1 <1>   0.0800 
 46 H        7.6950     2.2180     0.2720 H     1 <1>   0.1500 
 47 H        5.1530     3.4120    -2.9740 H     1 <1>   0.1500 
 48 H        5.5190     5.7560    -2.3620 H     1 <1>   0.1500 
 49 H       10.0530     5.2370     1.6520 H     1 <1>   0.0800 
 50 H        9.0970     6.3510     0.6860 H     1 <1>   0.0800 
 51 H        9.8770     4.9660    -0.0800 H     1 <1>   0.0800 
 52 H        5.2540     6.8230     0.7530 H     1 <1>   0.0800 
 53 H        6.7580     6.5210     1.6140 H     1 <1>   0.0800 
 54 H        6.0850     9.0670     0.0950 H     1 <1>   0.0800 
 55 H        7.5890     8.7620     0.9510 H     1 <1>   0.0800 
 56 H        6.0900     8.9090     1.8350 H     1 <1>   0.0800 
@<TRIPOS>BOND
  1   1   2  1   
  2   1   3  1   
  3   2   4  1   
  4   2  26  1   
  5   2  27  1   
  6   3   5  1   
  7   3  28  1   
  8   3  29  1   
  9   4   6  1   
 10   4   7  1   
 11   4  30  1   
 12   5   6  1   
 13   5   8  1   
 14   5  31  1   
 15   6   9  1   
 16   7  10  1   
 17   7  11  1   
 18   7  32  1   
 19   8  12  1   
 20   8  33  1   
 21   8  34  1   
 22   9  13  1   
 23   9  35  1   
 24   9  36  1   
 25  10  11  1   
 26  10  37  1   
 27  10  38  1   
 28  11  39  1   
 29  11  40  1   
 30  12  13  1   
 31  12  14  1   
 32  12  41  1   
 33  13  42  1   
 34  13  43  1   
 35  14  15  1   
 36  14  44  1   
 37  14  45  1   
 38  15  16  ar  
 39  15  17  ar  
 40  16  18  ar  
 41  16  46  1   
 42  17  19  ar  
 43  17  47  1   
 44  18  20  1   
 45  18  21  ar  
 46  19  21  ar  
 47  19  48  1   
 48  20  22  1   
 49  21  23  1   
 50  22  49  1   
 51  22  50  1   
 52  22  51  1   
 53  23  24  1   
 54  24  25  1   
 55  24  52  1   
 56  24  53  1   
 57  25  54  1   
 58  25  55  1   
 59  25  56  1   
@<TRIPOS>SUBSTRUCTURE
  1 ****   8 GROUP 4 **** **** 0

# MOE 2024.06 (io_trps.svl 2023.06)
