@<TRIPOS>MOLECULE
NONAME
35 36 1 0 0 
SMALL
USER_CHARGES


@<TRIPOS>ATOM
  1 O       -0.5740     0.4250     0.8440 O.2   1 <1>  -0.5700 
  2 C       -1.5380     0.9970     0.3480 C.2   1 <1>   0.6160 
  3 N       -2.5300     0.2860    -0.3050 N.am  1 <1>  -0.4690 
  4 C       -1.6550     2.4070     0.4260 C.2   1 <1>  -0.1360 
  5 C       -3.6010     0.9570    -0.8610 C.2   1 <1>  -0.0410 
  6 C       -2.4600    -1.1940    -0.4010 C.3   1 <1>   0.1400 
  7 C       -2.7000     3.0940    -0.1330 C.2   1 <1>   0.0140 
  8 C       -3.6970     2.3090    -0.7860 C.2   1 <1>  -0.1500 
  9 C       -3.2090    -1.8210     0.7730 C.3   1 <1>  -0.2400 
 10 C       -2.8320     4.5390    -0.0850 C.2   1 <1>   0.6160 
 11 O       -3.9310     5.0530    -0.1750 O.2   1 <1>  -0.5700 
 12 N       -1.7100     5.3160     0.0480 N.am  1 <1>  -0.4930 
 13 C       -1.5900     6.7250     0.1720 C.2   1 <1>   0.0630 
 14 C       -0.4040     7.4620     0.2270 C.2   1 <1>   0.1080 
 15 C       -2.5610     7.6550     0.2670 C.2   1 <1>  -0.3020 
 16 N       -0.6180     8.7350     0.3450 N.2   1 <1>  -0.7070 
 17 C        0.9940     6.8870     0.1590 C.3   1 <1>  -0.0590 
 18 N       -1.9560     8.8550     0.3690 N.pl3 1 <1>   0.3140 
 19 C       -2.6190    10.1560     0.4940 C.3   1 <1>   0.0160 
 20 H       -0.8680     2.8960     0.9650 H     1 <1>   0.1500 
 21 H       -4.3570     0.3660    -1.3520 H     1 <1>   0.1500 
 22 H       -1.4320    -1.5140    -0.3940 H     1 <1>   0.0800 
 23 H       -2.8990    -1.5130    -1.3310 H     1 <1>   0.0800 
 24 H       -4.5370     2.8250    -1.2210 H     1 <1>   0.1500 
 25 H       -2.7540    -1.5240     1.7010 H     1 <1>   0.0800 
 26 H       -3.1640    -2.8920     0.7010 H     1 <1>   0.0800 
 27 H       -4.2410    -1.5190     0.7670 H     1 <1>   0.0800 
 28 H       -0.8230     4.8230     0.0100 H     1 <1>   0.3700 
 29 H       -3.6270     7.5270     0.2670 H     1 <1>   0.1500 
 30 H        1.1200     6.3360    -0.7540 H     1 <1>   0.0800 
 31 H        1.1650     6.2420     1.0000 H     1 <1>   0.0800 
 32 H        1.7150     7.6850     0.1830 H     1 <1>   0.0800 
 33 H       -3.3530    10.2540    -0.2830 H     1 <1>   0.0800 
 34 H       -1.8850    10.9350     0.3980 H     1 <1>   0.0800 
 35 H       -3.0900    10.2190     1.4560 H     1 <1>   0.0800 
@<TRIPOS>BOND
  1   1   2  2   
  2   2   3  am  
  3   2   4  1   
  4   3   5  1   
  5   3   6  1   
  6   4   7  2   
  7   4  20  1   
  8   5   8  2   
  9   5  21  1   
 10   6   9  1   
 11   6  22  1   
 12   6  23  1   
 13   7   8  1   
 14   7  10  1   
 15   8  24  1   
 16   9  25  1   
 17   9  26  1   
 18   9  27  1   
 19  10  11  2   
 20  10  12  am  
 21  12  13  1   
 22  12  28  1   
 23  13  14  1   
 24  13  15  2   
 25  14  16  2   
 26  14  17  1   
 27  15  18  1   
 28  15  29  1   
 29  16  18  1   
 30  17  30  1   
 31  17  31  1   
 32  17  32  1   
 33  18  19  1   
 34  19  33  1   
 35  19  34  1   
 36  19  35  1   
@<TRIPOS>SUBSTRUCTURE
  1 ****  10 GROUP 4 **** **** 0

# MOE 2024.06 (io_trps.svl 2023.06)
