@<TRIPOS>MOLECULE
NONAME
48 50 1 0 0 
SMALL
USER_CHARGES


@<TRIPOS>ATOM
  1 O       -0.4030     0.8190     0.6560 O.2   1 <1>  -0.5700 
  2 C       -0.3240     1.8940     0.1180 C.2   1 <1>   0.5690 
  3 N       -0.6270     3.0260     0.7930 N.am  1 <1>  -0.7300 
  4 C        0.0940     1.9890    -1.3540 C.3   1 <1>   0.1810 
  5 C       -0.5550     4.3800     0.1940 C.3   1 <1>   0.3640 
  6 O        0.4980     3.2890    -1.7310 O.3   1 <1>  -0.5600 
  7 C       -1.7800     5.1830     0.6140 C.ar  1 <1>  -0.1440 
  8 C       -0.4110     4.3110    -1.3450 C.3   1 <1>   0.2610 
  9 C       -3.0560     4.6370     0.5650 C.ar  1 <1>  -0.1500 
 10 C       -1.6230     6.4930     1.0470 C.ar  1 <1>  -0.1500 
 11 C       -0.0290     5.6870    -1.9080 C.2   1 <1>   0.5690 
 12 C       -4.1550     5.3870     0.9470 C.ar  1 <1>  -0.1500 
 13 C       -2.7210     7.2420     1.4290 C.ar  1 <1>  -0.1500 
 14 O       -0.8660     6.2330    -2.5920 O.2   1 <1>  -0.5700 
 15 N        1.1770     6.3070    -1.6430 N.am  1 <1>  -0.6600 
 16 C       -3.9880     6.6900     1.3800 C.ar  1 <1>  -0.1500 
 17 C        1.4200     7.7130    -2.0760 C.3   1 <1>   0.1400 
 18 C        2.3680     5.6640    -1.0170 C.3   1 <1>   0.1400 
 19 C        1.8490     8.5550    -0.8730 C.3   1 <1>  -0.1600 
 20 C        2.8120     6.4810     0.1990 C.3   1 <1>  -0.1600 
 21 C        3.0700     7.9390    -0.1790 C.3   1 <1>   0.2000 
 22 O        3.3200     8.6230     1.0050 O.3   1 <1>  -0.5600 
 23 C        4.0750     9.7840     0.8810 C.3   1 <1>   0.1200 
 24 C        4.2580    10.3590     2.2800 C.3   1 <1>  -0.2400 
 25 H       -0.9360     2.9600     1.7640 H     1 <1>   0.3700 
 26 H       -0.7290     1.6960    -1.9800 H     1 <1>   0.0800 
 27 H        0.9190     1.3240    -1.5340 H     1 <1>   0.0800 
 28 H        0.3150     4.8630     0.5990 H     1 <1>   0.0800 
 29 H       -1.3670     4.0550    -1.7650 H     1 <1>   0.0800 
 30 H       -3.2050     3.6250     0.2290 H     1 <1>   0.1500 
 31 H       -0.6450     6.9430     1.0870 H     1 <1>   0.1500 
 32 H       -5.1410     4.9570     0.9060 H     1 <1>   0.1500 
 33 H       -2.5900     8.2570     1.7620 H     1 <1>   0.1500 
 34 H       -4.8420     7.2740     1.6760 H     1 <1>   0.1500 
 35 H        2.1900     7.7200    -2.8290 H     1 <1>   0.0800 
 36 H        0.5320     8.1420    -2.5090 H     1 <1>   0.0800 
 37 H        2.1650     4.6560    -0.7120 H     1 <1>   0.0800 
 38 H        3.1640     5.6300    -1.7420 H     1 <1>   0.0800 
 39 H        1.0280     8.6140    -0.1810 H     1 <1>   0.0800 
 40 H        2.0790     9.5470    -1.2150 H     1 <1>   0.0800 
 41 H        3.7130     6.0550     0.6020 H     1 <1>   0.0800 
 42 H        2.0490     6.4350     0.9540 H     1 <1>   0.0800 
 43 H        3.9390     7.9950    -0.8140 H     1 <1>   0.0800 
 44 H        5.0280     9.5360     0.4460 H     1 <1>   0.0800 
 45 H        3.5500    10.4830     0.2530 H     1 <1>   0.0800 
 46 H        4.7710     9.6500     2.9050 H     1 <1>   0.0800 
 47 H        3.3010    10.5890     2.7110 H     1 <1>   0.0800 
 48 H        4.8410    11.2610     2.2310 H     1 <1>   0.0800 
@<TRIPOS>BOND
  1   1   2  2   
  2   2   3  am  
  3   2   4  1   
  4   3   5  1   
  5   3  25  1   
  6   4   6  1   
  7   4  26  1   
  8   4  27  1   
  9   5   7  1   
 10   5   8  1   
 11   5  28  1   
 12   6   8  1   
 13   7   9  ar  
 14   7  10  ar  
 15   8  11  1   
 16   8  29  1   
 17   9  12  ar  
 18   9  30  1   
 19  10  13  ar  
 20  10  31  1   
 21  11  14  2   
 22  11  15  am  
 23  12  16  ar  
 24  12  32  1   
 25  13  16  ar  
 26  13  33  1   
 27  15  17  1   
 28  15  18  1   
 29  16  34  1   
 30  17  19  1   
 31  17  35  1   
 32  17  36  1   
 33  18  20  1   
 34  18  37  1   
 35  18  38  1   
 36  19  21  1   
 37  19  39  1   
 38  19  40  1   
 39  20  21  1   
 40  20  41  1   
 41  20  42  1   
 42  21  22  1   
 43  21  43  1   
 44  22  23  1   
 45  23  24  1   
 46  23  44  1   
 47  23  45  1   
 48  24  46  1   
 49  24  47  1   
 50  24  48  1   
@<TRIPOS>SUBSTRUCTURE
  1 ****   5 GROUP 4 **** **** 0

# MOE 2024.06 (io_trps.svl 2023.06)
