@<TRIPOS>MOLECULE
NONAME
42 43 1 0 0 
SMALL
USER_CHARGES


@<TRIPOS>ATOM
  1 S        0.3610    -0.0070     0.6350 S.o2  1 <1>   1.3330 
  2 O       -0.6730    -0.0980     1.6410 O.2   1 <1>  -0.6500 
  3 O        1.7430     0.1190     1.0390 O.2   1 <1>  -0.6500 
  4 N        0.2350    -1.3530    -0.3910 N.am  1 <1>  -0.8490 
  5 C       -0.0600     1.3570    -0.4460 C.3   1 <1>  -0.0550 
  6 C        1.4500    -1.6060    -1.1740 C.3   1 <1>   0.1160 
  7 C       -0.1540    -2.5690     0.3310 C.3   1 <1>   0.1160 
  8 C       -0.0970     2.7120     0.2810 C.3   1 <1>  -0.0800 
  9 C       -0.5940     3.8390    -0.6170 C.3   1 <1>   0.2000 
 10 C        1.2700     3.2030     0.7660 C.3   1 <1>   0.1400 
 11 O       -1.9780     3.8460    -0.6560 O.3   1 <1>  -0.6800 
 12 C       -0.0360     5.1170     0.0000 C.3   1 <1>   0.1400 
 13 N        1.2050     4.6850     0.6920 N.am  1 <1>  -0.6600 
 14 C        2.3320     5.4730     0.8140 C.2   1 <1>   0.7150 
 15 O        3.4040     4.9150     0.9670 O.2   1 <1>  -0.5700 
 16 C        2.2490     6.9180     0.7580 C.2   1 <1>   0.0550 
 17 O        3.2270     7.6360     0.2110 O.3   1 <1>  -0.2800 
 18 C        1.2820     7.7790     1.1870 C.2   1 <1>  -0.1500 
 19 C        2.9170     8.9120     0.2720 C.2   1 <1>  -0.0400 
 20 C        1.7150     9.0670     0.8700 C.2   1 <1>  -0.1500 
 21 C        3.8990     9.9220    -0.2960 C.3   1 <1>   0.3000 
 22 O        3.2700    11.1490    -0.4390 O.3   1 <1>  -0.6800 
 23 H        0.6410     1.4040    -1.2560 H     1 <1>   0.0800 
 24 H       -1.0300     1.1700    -0.8650 H     1 <1>   0.0800 
 25 H        1.2810    -2.4100    -1.8690 H     1 <1>   0.0800 
 26 H        2.2690    -1.8700    -0.5240 H     1 <1>   0.0800 
 27 H        1.7220    -0.7260    -1.7310 H     1 <1>   0.0800 
 28 H       -0.2400    -3.3970    -0.3500 H     1 <1>   0.0800 
 29 H       -1.1100    -2.4250     0.8070 H     1 <1>   0.0800 
 30 H        0.5770    -2.8050     1.0880 H     1 <1>   0.0800 
 31 H       -0.7360     2.6370     1.1450 H     1 <1>   0.0800 
 32 H       -0.2270     3.7330    -1.6240 H     1 <1>   0.0800 
 33 H        2.0600     2.8510     0.1220 H     1 <1>   0.0800 
 34 H        1.4730     2.8820     1.7750 H     1 <1>   0.0800 
 35 H       -2.3520     3.8220     0.2470 H     1 <1>   0.4000 
 36 H       -0.7210     5.5210     0.7250 H     1 <1>   0.0800 
 37 H        0.1790     5.8470    -0.7620 H     1 <1>   0.0800 
 38 H        0.3610     7.5410     1.6860 H     1 <1>   0.1500 
 39 H        1.1860     9.9800     1.0800 H     1 <1>   0.1500 
 40 H        4.2410     9.6050    -1.2660 H     1 <1>   0.0800 
 41 H        4.7430    10.0420     0.3600 H     1 <1>   0.0800 
 42 H        2.4530    11.0290    -0.9580 H     1 <1>   0.4000 
@<TRIPOS>BOND
  1   1   2  2   
  2   1   3  2   
  3   1   4  am  
  4   1   5  1   
  5   4   6  1   
  6   4   7  1   
  7   5   8  1   
  8   5  23  1   
  9   5  24  1   
 10   6  25  1   
 11   6  26  1   
 12   6  27  1   
 13   7  28  1   
 14   7  29  1   
 15   7  30  1   
 16   8   9  1   
 17   8  10  1   
 18   8  31  1   
 19   9  11  1   
 20   9  12  1   
 21   9  32  1   
 22  10  13  1   
 23  10  33  1   
 24  10  34  1   
 25  11  35  1   
 26  12  13  1   
 27  12  36  1   
 28  12  37  1   
 29  13  14  am  
 30  14  15  2   
 31  14  16  1   
 32  16  17  1   
 33  16  18  2   
 34  17  19  1   
 35  18  20  1   
 36  18  38  1   
 37  19  20  2   
 38  19  21  1   
 39  20  39  1   
 40  21  22  1   
 41  21  40  1   
 42  21  41  1   
 43  22  42  1   
@<TRIPOS>SUBSTRUCTURE
  1 ****  13 GROUP 4 **** **** 0

# MOE 2024.06 (io_trps.svl 2023.06)
