@<TRIPOS>MOLECULE
NONAME
40 42 1 0 0 
SMALL
USER_CHARGES


@<TRIPOS>ATOM
  1 S       -0.9730     0.6010     1.1620 S.3   1 <1>  -0.0800 
  2 C       -1.2300    -0.2200    -0.3850 C.2   1 <1>  -0.0450 
  3 C        0.6620     1.0600     0.7360 C.2   1 <1>  -0.1400 
  4 C       -2.4980    -0.8430    -0.6850 C.2   1 <1>   0.7150 
  5 C       -0.1010    -0.0930    -1.1270 C.2   1 <1>  -0.1500 
  6 C        0.9620     0.6180    -0.4980 C.2   1 <1>  -0.1500 
  7 C        1.4550     1.8460     1.7580 C.3   1 <1>  -0.0600 
  8 O       -2.8330    -0.9430    -1.8530 O.2   1 <1>  -0.5700 
  9 N       -3.3260    -1.3550     0.2990 N.am  1 <1>  -0.6600 
 10 C       -4.8130    -1.4120     0.2040 C.3   1 <1>   0.2200 
 11 C       -2.7690    -2.0690     1.4800 C.3   1 <1>   0.0600 
 12 C       -5.3180    -2.5350    -0.6960 C.3   1 <1>  -0.1600 
 13 C       -5.4680    -0.1430    -0.3410 C.3   1 <1>  -0.1600 
 14 C       -6.7480    -2.1220    -1.0690 C.3   1 <1>  -0.0800 
 15 C       -6.8450    -0.6030    -0.8360 C.3   1 <1>  -0.0800 
 16 C       -7.8250    -2.7670    -0.1840 C.3   1 <1>  -0.1600 
 17 C       -7.9700    -0.3930     0.1880 C.3   1 <1>  -0.1600 
 18 C       -8.8210    -1.6490     0.0800 C.3   1 <1>   0.2000 
 19 O       -9.4900    -1.8750     1.2620 O.3   1 <1>  -0.6800 
 20 H        0.0080    -0.4880    -2.1230 H     1 <1>   0.1500 
 21 H        1.9010     0.7670    -1.0020 H     1 <1>   0.1500 
 22 H        2.4350     2.0660     1.3770 H     1 <1>   0.0800 
 23 H        1.5530     1.2750     2.6640 H     1 <1>   0.0800 
 24 H        0.9510     2.7700     1.9800 H     1 <1>   0.0800 
 25 H       -5.2150    -1.5740     1.1900 H     1 <1>   0.0800 
 26 H       -3.2400    -3.0310     1.5830 H     1 <1>   0.0800 
 27 H       -2.9450    -1.4900     2.3700 H     1 <1>   0.0800 
 28 H       -1.7090    -2.2230     1.3660 H     1 <1>   0.0800 
 29 H       -4.7300    -2.5770    -1.5950 H     1 <1>   0.0800 
 30 H       -5.2760    -3.4910    -0.2070 H     1 <1>   0.0800 
 31 H       -5.5320     0.6260     0.4070 H     1 <1>   0.0800 
 32 H       -4.9240     0.2360    -1.1860 H     1 <1>   0.0800 
 33 H       -6.9450    -2.3490    -2.1040 H     1 <1>   0.0800 
 34 H       -7.0980    -0.1060    -1.7580 H     1 <1>   0.0800 
 35 H       -7.3940    -3.0970     0.7450 H     1 <1>   0.0800 
 36 H       -8.2940    -3.5970    -0.6810 H     1 <1>   0.0800 
 37 H       -8.5440     0.4880    -0.0350 H     1 <1>   0.0800 
 38 H       -7.5590    -0.3160     1.1790 H     1 <1>   0.0800 
 39 H       -9.5370    -1.5660    -0.7220 H     1 <1>   0.0800 
 40 H       -8.8520    -1.9430     1.9960 H     1 <1>   0.4000 
@<TRIPOS>BOND
  1   1   2  1   
  2   1   3  1   
  3   2   4  1   
  4   2   5  2   
  5   3   6  2   
  6   3   7  1   
  7   4   8  2   
  8   4   9  am  
  9   5   6  1   
 10   5  20  1   
 11   6  21  1   
 12   7  22  1   
 13   7  23  1   
 14   7  24  1   
 15   9  10  1   
 16   9  11  1   
 17  10  12  1   
 18  10  13  1   
 19  10  25  1   
 20  11  26  1   
 21  11  27  1   
 22  11  28  1   
 23  12  14  1   
 24  12  29  1   
 25  12  30  1   
 26  13  15  1   
 27  13  31  1   
 28  13  32  1   
 29  14  15  1   
 30  14  16  1   
 31  14  33  1   
 32  15  17  1   
 33  15  34  1   
 34  16  18  1   
 35  16  35  1   
 36  16  36  1   
 37  17  18  1   
 38  17  37  1   
 39  17  38  1   
 40  18  19  1   
 41  18  39  1   
 42  19  40  1   
@<TRIPOS>SUBSTRUCTURE
  1 ****   9 GROUP 4 **** **** 0

# MOE 2024.06 (io_trps.svl 2023.06)
