@<TRIPOS>MOLECULE
NONAME
50 53 1 0 0 
SMALL
USER_CHARGES


@<TRIPOS>ATOM
  1 F       -3.4530    -7.1000     1.5470 F     1 <1>  -0.3400 
  2 C       -3.6170    -6.5010     0.3730 C.3   1 <1>   1.1640 
  3 F       -3.9550    -7.4550    -0.4860 F     1 <1>  -0.3400 
  4 F       -2.4230    -6.0640     0.0000 F     1 <1>  -0.3400 
  5 C       -4.6770    -5.3870     0.4020 C.ar  1 <1>  -0.1440 
  6 C       -5.5840    -5.2670     1.4510 C.ar  1 <1>  -0.1500 
  7 C       -4.7460    -4.4680    -0.6390 C.ar  1 <1>  -0.1500 
  8 C       -6.5400    -4.2660     1.4490 C.ar  1 <1>  -0.1500 
  9 C       -5.6970    -3.4630    -0.6370 C.ar  1 <1>  -0.1500 
 10 C       -6.6100    -3.3640     0.4000 C.ar  1 <1>  -0.1430 
 11 C       -7.6860    -2.2810     0.3970 C.3   1 <1>   0.0440 
 12 C       -9.0840    -2.8720     0.5390 C.2   1 <1>   0.5690 
 13 O       -9.6540    -2.7100     1.5890 O.2   1 <1>  -0.5700 
 14 N       -9.6610    -3.6210    -0.4610 N.am  1 <1>  -0.6600 
 15 C      -10.9920    -4.2810    -0.2570 C.3   1 <1>   0.1400 
 16 C       -8.9180    -4.2140    -1.6090 C.3   1 <1>   0.1400 
 17 C      -10.8830    -5.8290    -0.2860 C.3   1 <1>   0.4230 
 18 C       -8.5590    -5.6870    -1.2990 C.3   1 <1>   0.3430 
 19 N       -9.4460    -6.3140    -0.2400 N.4   1 <1>  -0.9590 
 20 C      -11.6150    -6.4360    -1.5060 C.3   1 <1>   0.1200 
 21 C       -9.4380    -7.8090    -0.2470 C.3   1 <1>   0.5180 
 22 O      -11.5250    -7.8350    -1.4900 O.3   1 <1>  -0.5600 
 23 C       -8.0020    -8.3390    -0.1900 C.3   1 <1>  -0.1950 
 24 C      -10.2250    -8.3650    -1.4560 C.3   1 <1>   0.1200 
 25 C       -7.7180    -9.6310     0.5130 C.3   1 <1>  -0.2000 
 26 C       -7.2150    -8.3370     1.0850 C.3   1 <1>  -0.2000 
 27 H       -5.5490    -5.9480     2.2870 H     1 <1>   0.1500 
 28 H       -4.0460    -4.5250    -1.4580 H     1 <1>   0.1500 
 29 H       -7.2240    -4.1840     2.2790 H     1 <1>   0.1500 
 30 H       -5.7130    -2.7550    -1.4500 H     1 <1>   0.1500 
 31 H       -7.6450    -1.6970    -0.5030 H     1 <1>   0.0800 
 32 H       -7.5080    -1.6130     1.2210 H     1 <1>   0.0800 
 33 H      -11.4180    -3.9890     0.6880 H     1 <1>   0.0800 
 34 H      -11.6750    -3.9390    -1.0150 H     1 <1>   0.0800 
 35 H       -9.5450    -4.1800    -2.4830 H     1 <1>   0.0800 
 36 H       -8.0340    -3.6540    -1.8460 H     1 <1>   0.0800 
 37 H      -11.4010    -6.1930     0.5870 H     1 <1>   0.0800 
 38 H       -7.5350    -5.7240    -0.9620 H     1 <1>   0.0800 
 39 H       -8.6160    -6.2500    -2.2140 H     1 <1>   0.0800 
 40 H       -9.0660    -5.9980     0.6620 H     1 <1>   0.4500 
 41 H      -11.2070    -6.0750    -2.4340 H     1 <1>   0.0800 
 42 H      -12.6610    -6.1830    -1.4740 H     1 <1>   0.0800 
 43 H       -9.9420    -8.1560     0.6410 H     1 <1>   0.0800 
 44 H       -7.4660    -8.2040    -1.1140 H     1 <1>   0.1000 
 45 H      -10.3130    -9.4350    -1.3740 H     1 <1>   0.0800 
 46 H       -9.7330    -8.1360    -2.3840 H     1 <1>   0.0800 
 47 H       -8.4990   -10.1470     1.0470 H     1 <1>   0.1000 
 48 H       -6.9980   -10.3120     0.0900 H     1 <1>   0.1000 
 49 H       -6.1510    -8.1770     1.0610 H     1 <1>   0.1000 
 50 H       -7.6580    -7.9910     2.0030 H     1 <1>   0.1000 
@<TRIPOS>BOND
  1   1   2  1   
  2   2   3  1   
  3   2   4  1   
  4   2   5  1   
  5   5   6  ar  
  6   5   7  ar  
  7   6   8  ar  
  8   6  27  1   
  9   7   9  ar  
 10   7  28  1   
 11   8  10  ar  
 12   8  29  1   
 13   9  10  ar  
 14   9  30  1   
 15  10  11  1   
 16  11  12  1   
 17  11  31  1   
 18  11  32  1   
 19  12  13  2   
 20  12  14  am  
 21  14  15  1   
 22  14  16  1   
 23  15  17  1   
 24  15  33  1   
 25  15  34  1   
 26  16  18  1   
 27  16  35  1   
 28  16  36  1   
 29  17  19  1   
 30  17  20  1   
 31  17  37  1   
 32  18  19  1   
 33  18  38  1   
 34  18  39  1   
 35  19  21  1   
 36  19  40  1   
 37  20  22  1   
 38  20  41  1   
 39  20  42  1   
 40  21  23  1   
 41  21  24  1   
 42  21  43  1   
 43  22  24  1   
 44  23  25  1   
 45  23  26  1   
 46  23  44  1   
 47  24  45  1   
 48  24  46  1   
 49  25  26  1   
 50  25  47  1   
 51  25  48  1   
 52  26  49  1   
 53  26  50  1   
@<TRIPOS>SUBSTRUCTURE
  1 ****  18 GROUP 4 **** **** 0

# MOE 2024.06 (io_trps.svl 2023.06)
