@<TRIPOS>MOLECULE
NONAME
47 50 1 0 0 
SMALL
USER_CHARGES


@<TRIPOS>ATOM
  1 F       -3.4630    -7.2520     1.8090 F     1 <1>  -0.1900 
  2 C       -3.8550    -6.0600     1.4500 C.ar  1 <1>   0.1900 
  3 C       -4.7180    -5.3670     2.2770 C.ar  1 <1>  -0.1500 
  4 C       -3.4000    -5.5390     0.2550 C.ar  1 <1>  -0.1500 
  5 C       -5.1540    -4.1150     1.8780 C.ar  1 <1>  -0.1500 
  6 C       -3.8380    -4.2830    -0.1310 C.ar  1 <1>  -0.1500 
  7 C       -4.7270    -3.5750     0.6700 C.ar  1 <1>  -0.1430 
  8 C       -5.2490    -2.2050     0.2380 C.3   1 <1>   0.0440 
  9 C       -6.7710    -2.2040     0.1780 C.2   1 <1>   0.5690 
 10 O       -7.3640    -1.6290     1.0580 O.2   1 <1>  -0.5700 
 11 N       -7.4590    -2.9090    -0.7820 N.am  1 <1>  -0.6600 
 12 C       -8.9360    -3.1240    -0.6540 C.3   1 <1>   0.1400 
 13 C       -6.8460    -3.8850    -1.7320 C.3   1 <1>   0.1400 
 14 C       -9.2580    -4.5850    -0.2390 C.3   1 <1>   0.4230 
 15 C       -7.0570    -5.3350    -1.2340 C.3   1 <1>   0.3430 
 16 N       -8.0080    -5.4310    -0.0610 N.4   1 <1>  -0.9590 
 17 C      -10.2290    -5.2520    -1.2380 C.3   1 <1>   0.1200 
 18 C       -8.3850    -6.8340     0.3050 C.3   1 <1>   0.5180 
 19 O      -10.5110    -6.5670    -0.8470 O.3   1 <1>  -0.5600 
 20 C       -7.1090    -7.6790     0.4890 C.3   1 <1>  -0.1950 
 21 C       -9.3980    -7.4120    -0.7150 C.3   1 <1>   0.1200 
 22 C       -6.3660    -8.3760    -0.6140 C.3   1 <1>  -0.2000 
 23 C       -7.1010    -9.1770     0.4240 C.3   1 <1>  -0.2000 
 24 H       -5.0290    -5.7970     3.2130 H     1 <1>   0.1500 
 25 H       -2.7120    -6.1040    -0.3490 H     1 <1>   0.1500 
 26 H       -5.8180    -3.5560     2.5180 H     1 <1>   0.1500 
 27 H       -3.4730    -3.8620    -1.0530 H     1 <1>   0.1500 
 28 H       -4.8550    -1.9170    -0.7180 H     1 <1>   0.0800 
 29 H       -4.9290    -1.4680     0.9530 H     1 <1>   0.0800 
 30 H       -9.3590    -2.4530     0.0750 H     1 <1>   0.0800 
 31 H       -9.4050    -2.8860    -1.5930 H     1 <1>   0.0800 
 32 H       -7.3140    -3.7720    -2.6950 H     1 <1>   0.0800 
 33 H       -5.7990    -3.6930    -1.8770 H     1 <1>   0.0800 
 34 H       -9.7760    -4.5350     0.7050 H     1 <1>   0.0800 
 35 H       -6.0990    -5.7370    -0.9450 H     1 <1>   0.0800 
 36 H       -7.4200    -5.9320    -2.0540 H     1 <1>   0.0800 
 37 H       -7.5000    -5.0190     0.7330 H     1 <1>   0.4500 
 38 H       -9.8210    -5.2690    -2.2340 H     1 <1>   0.0800 
 39 H      -11.1630    -4.7170    -1.2620 H     1 <1>   0.0800 
 40 H       -8.8900    -6.8140     1.2570 H     1 <1>   0.0800 
 41 H       -6.5210    -7.2820     1.2970 H     1 <1>   0.1000 
 42 H       -9.7620    -8.3640    -0.3720 H     1 <1>   0.0800 
 43 H       -8.9520    -7.5470    -1.6830 H     1 <1>   0.0800 
 44 H       -6.7470    -8.4210    -1.6200 H     1 <1>   0.1000 
 45 H       -5.2890    -8.3950    -0.5880 H     1 <1>   0.1000 
 46 H       -6.5180    -9.7250     1.1470 H     1 <1>   0.1000 
 47 H       -7.9650    -9.7350     0.1050 H     1 <1>   0.1000 
@<TRIPOS>BOND
  1   1   2  1   
  2   2   3  ar  
  3   2   4  ar  
  4   3   5  ar  
  5   3  24  1   
  6   4   6  ar  
  7   4  25  1   
  8   5   7  ar  
  9   5  26  1   
 10   6   7  ar  
 11   6  27  1   
 12   7   8  1   
 13   8   9  1   
 14   8  28  1   
 15   8  29  1   
 16   9  10  2   
 17   9  11  am  
 18  11  12  1   
 19  11  13  1   
 20  12  14  1   
 21  12  30  1   
 22  12  31  1   
 23  13  15  1   
 24  13  32  1   
 25  13  33  1   
 26  14  16  1   
 27  14  17  1   
 28  14  34  1   
 29  15  16  1   
 30  15  35  1   
 31  15  36  1   
 32  16  18  1   
 33  16  37  1   
 34  17  19  1   
 35  17  38  1   
 36  17  39  1   
 37  18  20  1   
 38  18  21  1   
 39  18  40  1   
 40  19  21  1   
 41  20  22  1   
 42  20  23  1   
 43  20  41  1   
 44  21  42  1   
 45  21  43  1   
 46  22  23  1   
 47  22  44  1   
 48  22  45  1   
 49  23  46  1   
 50  23  47  1   
@<TRIPOS>SUBSTRUCTURE
  1 ****  16 GROUP 4 **** **** 0

# MOE 2024.06 (io_trps.svl 2023.06)
