@<TRIPOS>MOLECULE
NONAME
53 56 1 0 0 
SMALL
USER_CHARGES


@<TRIPOS>ATOM
  1 F       -1.4190    -0.7090     1.8060 F     1 <1>  -0.3400 
  2 C       -0.5790    -1.7240     1.9790 C.3   1 <1>   1.2000 
  3 F        0.6380    -1.2100     1.8360 F     1 <1>  -0.3400 
  4 F       -0.6880    -2.0910     3.2500 F     1 <1>  -0.3400 
  5 C       -0.8410    -2.8520     0.9620 C.2   1 <1>   0.0060 
  6 N       -1.1010    -4.1020     1.2030 N.2   1 <1>  -0.5650 
  7 N       -0.8090    -2.5660    -0.3690 N.pl3 1 <1>   0.0330 
  8 C       -1.2450    -4.6720    -0.0250 C.ar  1 <1>   0.2270 
  9 C       -1.0700    -3.7270    -1.0150 C.ar  1 <1>  -0.1520 
 10 C       -1.5260    -5.9900    -0.3560 C.ar  1 <1>  -0.1500 
 11 C       -1.1730    -4.0740    -2.3630 C.ar  1 <1>  -0.1500 
 12 C       -1.6530    -6.3680    -1.6860 C.ar  1 <1>   0.0860 
 13 C       -1.4590    -5.3830    -2.6780 C.ar  1 <1>  -0.1500 
 14 C       -1.9610    -7.7330    -2.0640 C.2   1 <1>   0.5440 
 15 O       -1.2960    -8.2680    -2.9310 O.2   1 <1>  -0.5700 
 16 N       -2.9850    -8.4480    -1.4740 N.am  1 <1>  -0.6600 
 17 C       -3.1000    -9.9340    -1.6320 C.3   1 <1>   0.1400 
 18 C       -4.1630    -7.8090    -0.8290 C.3   1 <1>   0.1400 
 19 C       -3.2810   -10.6300    -0.2610 C.3   1 <1>   0.0000 
 20 C       -4.3880    -8.4320     0.5490 C.3   1 <1>  -0.1600 
 21 C       -4.5000    -9.9540     0.4260 C.3   1 <1>   0.2000 
 22 C       -3.6540   -12.1170    -0.4810 C.3   1 <1>   0.1200 
 23 C       -1.9890   -10.4910     0.6060 C.3   1 <1>  -0.0160 
 24 O       -4.7210   -10.4720     1.6910 O.3   1 <1>  -0.6800 
 25 O       -2.8070   -12.7320    -1.3920 O.3   1 <1>  -0.6800 
 26 C       -0.7940   -11.3170     0.1390 C.ar  1 <1>  -0.1430 
 27 C        0.0600   -10.8350    -0.8420 C.ar  1 <1>  -0.1500 
 28 C       -0.5480   -12.5640     0.6950 C.ar  1 <1>  -0.1500 
 29 C        1.1330   -11.5950    -1.2730 C.ar  1 <1>  -0.1500 
 30 C        0.5260   -13.3250     0.2660 C.ar  1 <1>  -0.1500 
 31 C        1.3660   -12.8410    -0.7210 C.ar  1 <1>  -0.1500 
 32 H       -0.6240    -1.6570    -0.8070 H     1 <1>   0.2700 
 33 H       -1.6390    -6.7050     0.4360 H     1 <1>   0.1500 
 34 H       -1.0270    -3.3350    -3.1320 H     1 <1>   0.1500 
 35 H       -1.5390    -5.6860    -3.7080 H     1 <1>   0.1500 
 36 H       -3.9480   -10.1460    -2.2600 H     1 <1>   0.0800 
 37 H       -2.2340   -10.3280    -2.1340 H     1 <1>   0.0800 
 38 H       -4.0320    -6.7450    -0.7370 H     1 <1>   0.0800 
 39 H       -5.0280    -7.9790    -1.4480 H     1 <1>   0.0800 
 40 H       -5.3000    -8.0380     0.9600 H     1 <1>   0.0800 
 41 H       -3.5770    -8.1540     1.1980 H     1 <1>   0.0800 
 42 H       -5.3830   -10.1770    -0.1510 H     1 <1>   0.0800 
 43 H       -4.6520   -12.2050    -0.8750 H     1 <1>   0.0800 
 44 H       -3.6070   -12.6640     0.4460 H     1 <1>   0.0800 
 45 H       -1.6850    -9.4610     0.6470 H     1 <1>   0.0800 
 46 H       -2.2010   -10.7860     1.6170 H     1 <1>   0.0800 
 47 H       -4.0630   -10.1210     2.3210 H     1 <1>   0.4000 
 48 H       -1.8690   -12.6100    -1.1110 H     1 <1>   0.4000 
 49 H       -0.1030    -9.8670    -1.2810 H     1 <1>   0.1500 
 50 H       -1.1920   -12.9540     1.4640 H     1 <1>   0.1500 
 51 H        1.7840   -11.2110    -2.0390 H     1 <1>   0.1500 
 52 H        0.7070   -14.2930     0.6980 H     1 <1>   0.1500 
 53 H        2.2000   -13.4320    -1.0580 H     1 <1>   0.1500 
@<TRIPOS>BOND
  1   1   2  1   
  2   2   3  1   
  3   2   4  1   
  4   2   5  1   
  5   5   6  2   
  6   5   7  1   
  7   6   8  1   
  8   7   9  1   
  9   7  32  1   
 10   8   9  ar  
 11   8  10  ar  
 12   9  11  ar  
 13  10  12  ar  
 14  10  33  1   
 15  11  13  ar  
 16  11  34  1   
 17  12  13  ar  
 18  12  14  1   
 19  13  35  1   
 20  14  15  2   
 21  14  16  am  
 22  16  17  1   
 23  16  18  1   
 24  17  19  1   
 25  17  36  1   
 26  17  37  1   
 27  18  20  1   
 28  18  38  1   
 29  18  39  1   
 30  19  21  1   
 31  19  22  1   
 32  19  23  1   
 33  20  21  1   
 34  20  40  1   
 35  20  41  1   
 36  21  24  1   
 37  21  42  1   
 38  22  25  1   
 39  22  43  1   
 40  22  44  1   
 41  23  26  1   
 42  23  45  1   
 43  23  46  1   
 44  24  47  1   
 45  25  48  1   
 46  26  27  ar  
 47  26  28  ar  
 48  27  29  ar  
 49  27  49  1   
 50  28  30  ar  
 51  28  50  1   
 52  29  31  ar  
 53  29  51  1   
 54  30  31  ar  
 55  30  52  1   
 56  31  53  1   
@<TRIPOS>SUBSTRUCTURE
  1 ****  10 GROUP 4 **** **** 0

# MOE 2024.06 (io_trps.svl 2023.06)
