@<TRIPOS>MOLECULE
NONAME
50 53 1 0 0 
SMALL
USER_CHARGES


@<TRIPOS>ATOM
  1 O        4.1120    -2.3960     1.0760 O.2   1 <1>  -0.5700 
  2 C        2.9360    -2.4150     0.7540 C.2   1 <1>   0.5440 
  3 N        2.1220    -1.4260     1.2800 N.am  1 <1>  -0.6600 
  4 C        2.4790    -3.4470    -0.1800 C.ar  1 <1>   0.3960 
  5 C        0.6990    -1.1950     0.9390 C.3   1 <1>   0.1400 
  6 C        2.6400    -0.3370     2.1390 C.3   1 <1>   0.1400 
  7 N        1.2390    -3.9570    -0.1010 N.ar  1 <1>  -0.6200 
  8 C        3.3830    -3.8870    -1.1520 C.ar  1 <1>   0.1600 
  9 C        0.2930     0.0410     1.7360 C.3   1 <1>  -0.1600 
 10 C        1.6010     0.7710     2.0260 C.3   1 <1>  -0.1600 
 11 C        0.9750    -4.8820    -1.0090 C.ar  1 <1>   0.4100 
 12 N        3.1410    -4.8080    -2.0750 N.ar  1 <1>  -0.6200 
 13 N       -0.2920    -5.4360    -0.9700 N.pl3 1 <1>  -0.8380 
 14 C        1.9210    -5.2900    -1.9630 C.ar  1 <1>   0.1600 
 15 C       -1.0250    -5.4700     0.3370 C.3   1 <1>   0.3900 
 16 C       -1.1710    -5.3950    -2.1840 C.3   1 <1>   0.2090 
 17 C       -2.2300    -6.3900     0.2300 C.2   1 <1>  -0.1810 
 18 C       -2.0670    -6.6460    -2.2700 C.3   1 <1>   0.0200 
 19 C       -2.7020    -6.9120    -0.9170 C.2   1 <1>  -0.3320 
 20 C       -3.0760    -6.8770     1.2200 C.2   1 <1>   0.1080 
 21 N       -3.7720    -7.6730    -0.6030 N.pl3 1 <1>   0.3140 
 22 N       -4.0060    -7.6440     0.7240 N.2   1 <1>  -0.7070 
 23 C       -2.9660    -6.5710     2.7070 C.3   1 <1>   0.3010 
 24 C       -4.6160    -8.4640    -1.5220 C.3   1 <1>   0.0960 
 25 O       -4.2430    -6.3430     3.1770 O.3   1 <1>  -0.6800 
 26 C       -5.7580    -7.6150    -2.0950 C.3   1 <1>  -0.2400 
 27 H        0.0940    -2.0420     1.2150 H     1 <1>   0.0800 
 28 H        0.6110    -1.0120    -0.1180 H     1 <1>   0.0800 
 29 H        3.6100    -0.0070     1.8090 H     1 <1>   0.0800 
 30 H        2.7060    -0.6950     3.1520 H     1 <1>   0.0800 
 31 H        4.3640    -3.4440    -1.1620 H     1 <1>   0.1500 
 32 H       -0.1600    -0.2750     2.6600 H     1 <1>   0.0800 
 33 H       -0.4080     0.6520     1.1950 H     1 <1>   0.0800 
 34 H        1.8580     1.4050     1.1960 H     1 <1>   0.0800 
 35 H        1.5520     1.3660     2.9210 H     1 <1>   0.0800 
 36 H        1.6280    -6.0600    -2.6500 H     1 <1>   0.1500 
 37 H       -1.3520    -4.4760     0.5920 H     1 <1>   0.0800 
 38 H       -0.3630    -5.8260     1.1070 H     1 <1>   0.0800 
 39 H       -0.5780    -5.3100    -3.0780 H     1 <1>   0.0800 
 40 H       -1.7980    -4.5230    -2.1170 H     1 <1>   0.0800 
 41 H       -1.4730    -7.4930    -2.5620 H     1 <1>   0.0800 
 42 H       -2.8240    -6.4850    -3.0160 H     1 <1>   0.0800 
 43 H       -2.3710    -5.6970     2.8990 H     1 <1>   0.0800 
 44 H       -2.5620    -7.4190     3.2300 H     1 <1>   0.0800 
 45 H       -5.0180    -9.2940    -0.9700 H     1 <1>   0.0800 
 46 H       -3.9980    -8.8470    -2.3120 H     1 <1>   0.0800 
 47 H       -4.8320    -6.8320     2.5570 H     1 <1>   0.4000 
 48 H       -6.3750    -7.2440    -1.2950 H     1 <1>   0.0800 
 49 H       -6.3670    -8.2140    -2.7470 H     1 <1>   0.0800 
 50 H       -5.3660    -6.7850    -2.6550 H     1 <1>   0.0800 
@<TRIPOS>BOND
  1   1   2  2   
  2   2   3  am  
  3   2   4  1   
  4   3   5  1   
  5   3   6  1   
  6   4   7  ar  
  7   4   8  ar  
  8   5   9  1   
  9   5  27  1   
 10   5  28  1   
 11   6  10  1   
 12   6  29  1   
 13   6  30  1   
 14   7  11  ar  
 15   8  12  ar  
 16   8  31  1   
 17   9  10  1   
 18   9  32  1   
 19   9  33  1   
 20  10  34  1   
 21  10  35  1   
 22  11  13  1   
 23  11  14  ar  
 24  12  14  ar  
 25  13  15  1   
 26  13  16  1   
 27  14  36  1   
 28  15  17  1   
 29  15  37  1   
 30  15  38  1   
 31  16  18  1   
 32  16  39  1   
 33  16  40  1   
 34  17  19  2   
 35  17  20  1   
 36  18  19  1   
 37  18  41  1   
 38  18  42  1   
 39  19  21  1   
 40  20  22  2   
 41  20  23  1   
 42  21  22  1   
 43  21  24  1   
 44  23  25  1   
 45  23  43  1   
 46  23  44  1   
 47  24  26  1   
 48  24  45  1   
 49  24  46  1   
 50  25  47  1   
 51  26  48  1   
 52  26  49  1   
 53  26  50  1   
@<TRIPOS>SUBSTRUCTURE
  1 ****  15 GROUP 4 **** **** 0

# MOE 2024.06 (io_trps.svl 2023.06)
