@<TRIPOS>MOLECULE
NONAME
47 49 1 0 0 
SMALL
USER_CHARGES


@<TRIPOS>ATOM
  1 O       -0.9470    -1.3350    -0.0040 O.2   1 <1>  -0.5700 
  2 C       -0.0430    -2.1130    -0.1650 C.2   1 <1>   0.5690 
  3 N       -0.1850    -3.2140    -0.9330 N.am  1 <1>  -0.7300 
  4 C        1.2960    -1.8940     0.5020 C.3   1 <1>  -0.0990 
  5 C        0.8980    -4.1960    -1.1450 C.3   1 <1>   0.1400 
  6 C        2.4410    -2.1820    -0.4870 C.3   1 <1>  -0.0800 
  7 C        2.2410    -3.4610    -1.3400 C.3   1 <1>  -0.0800 
  8 C        3.8050    -2.3230     0.2010 C.3   1 <1>  -0.1600 
  9 C        3.4590    -4.3490    -1.0500 C.3   1 <1>  -0.1600 
 10 C        4.5470    -3.3610    -0.6310 C.3   1 <1>   0.2200 
 11 N        5.7000    -3.9520     0.1160 N.am  1 <1>  -0.6600 
 12 C        6.9930    -3.5010    -0.0420 C.2   1 <1>   0.5690 
 13 C        5.4090    -5.0320     1.1110 C.3   1 <1>   0.0600 
 14 O        7.9260    -4.0390     0.5170 O.2   1 <1>  -0.5700 
 15 C        7.3120    -2.2920    -0.9350 C.3   1 <1>   0.2010 
 16 N        8.6240    -1.6600    -0.6140 N.am  1 <1>  -0.7300 
 17 C        8.9250    -0.3430    -0.8060 C.2   1 <1>   0.5440 
 18 O        8.0820     0.3560    -1.3340 O.2   1 <1>  -0.5700 
 19 C       10.2050     0.2080    -0.3830 C.ar  1 <1>   0.0860 
 20 C       10.3750     1.5850    -0.2320 C.ar  1 <1>  -0.1500 
 21 C       11.3120    -0.6020    -0.1120 C.ar  1 <1>  -0.1500 
 22 C       11.5800     2.1300     0.1740 C.ar  1 <1>  -0.1500 
 23 C       12.5190    -0.0650     0.2960 C.ar  1 <1>  -0.1500 
 24 C       12.6560     1.3040     0.4410 C.ar  1 <1>  -0.1500 
 25 H       -1.1030    -3.3840    -1.3510 H     1 <1>   0.3700 
 26 H        1.3590    -0.8810     0.8580 H     1 <1>   0.0800 
 27 H        1.3500    -2.5540     1.3470 H     1 <1>   0.0800 
 28 H        0.9440    -4.8360    -0.2800 H     1 <1>   0.0800 
 29 H        0.6810    -4.8020    -2.0070 H     1 <1>   0.0800 
 30 H        2.4920    -1.3500    -1.1720 H     1 <1>   0.0800 
 31 H        2.2930    -3.1640    -2.3750 H     1 <1>   0.0800 
 32 H        3.6790    -2.6870     1.2050 H     1 <1>   0.0800 
 33 H        4.3300    -1.3840     0.2280 H     1 <1>   0.0800 
 34 H        3.7530    -4.9170    -1.9150 H     1 <1>   0.0800 
 35 H        3.2160    -5.0180    -0.2450 H     1 <1>   0.0800 
 36 H        4.8970    -2.8850    -1.5310 H     1 <1>   0.0800 
 37 H        4.5430    -4.7800     1.6970 H     1 <1>   0.0800 
 38 H        6.2380    -5.1670     1.7860 H     1 <1>   0.0800 
 39 H        5.2370    -5.9610     0.5980 H     1 <1>   0.0800 
 40 H        6.5410    -1.5520    -0.8220 H     1 <1>   0.0800 
 41 H        7.3280    -2.6150    -1.9590 H     1 <1>   0.0800 
 42 H        9.2210    -2.2590    -0.0340 H     1 <1>   0.3700 
 43 H        9.5440     2.2380    -0.4390 H     1 <1>   0.1500 
 44 H       11.2340    -1.6680    -0.2260 H     1 <1>   0.1500 
 45 H       11.6800     3.1960     0.2820 H     1 <1>   0.1500 
 46 H       13.3560    -0.7110     0.5000 H     1 <1>   0.1500 
 47 H       13.5950     1.7240     0.7580 H     1 <1>   0.1500 
@<TRIPOS>BOND
  1   1   2  2   
  2   2   3  am  
  3   2   4  1   
  4   3   5  1   
  5   3  25  1   
  6   4   6  1   
  7   4  26  1   
  8   4  27  1   
  9   5   7  1   
 10   5  28  1   
 11   5  29  1   
 12   6   7  1   
 13   6   8  1   
 14   6  30  1   
 15   7   9  1   
 16   7  31  1   
 17   8  10  1   
 18   8  32  1   
 19   8  33  1   
 20   9  10  1   
 21   9  34  1   
 22   9  35  1   
 23  10  11  1   
 24  10  36  1   
 25  11  12  am  
 26  11  13  1   
 27  12  14  2   
 28  12  15  1   
 29  13  37  1   
 30  13  38  1   
 31  13  39  1   
 32  15  16  1   
 33  15  40  1   
 34  15  41  1   
 35  16  17  am  
 36  16  42  1   
 37  17  18  2   
 38  17  19  1   
 39  19  20  ar  
 40  19  21  ar  
 41  20  22  ar  
 42  20  43  1   
 43  21  23  ar  
 44  21  44  1   
 45  22  24  ar  
 46  22  45  1   
 47  23  24  ar  
 48  23  46  1   
 49  24  47  1   
@<TRIPOS>SUBSTRUCTURE
  1 ****  15 GROUP 4 **** **** 0

# MOE 2024.06 (io_trps.svl 2023.06)
