@<TRIPOS>MOLECULE
NONAME
53 57 1 0 0 
SMALL
USER_CHARGES


@<TRIPOS>ATOM
  1 O       -1.7350     0.6290    -1.7840 O.2   1 <1>  -0.5700 
  2 C       -1.7580     0.9350    -0.6140 C.2   1 <1>   0.5690 
  3 N       -1.7260    -0.0260     0.3460 N.am  1 <1>  -0.7300 
  4 C       -1.8510     2.4130    -0.1820 C.3   1 <1>   0.0610 
  5 C       -1.6680    -1.4830     0.0980 C.3   1 <1>   0.2200 
  6 C       -0.6440     2.7930     0.7150 C.3   1 <1>  -0.1600 
  7 C       -1.8590     3.3700    -1.4030 C.3   1 <1>  -0.1600 
  8 C       -3.1550     2.6540     0.6210 C.3   1 <1>  -0.1600 
  9 C       -3.0320    -2.1300     0.3070 C.3   1 <1>  -0.0800 
 10 C       -0.8750    -2.1370     1.2200 C.3   1 <1>   0.1200 
 11 C       -0.7380     4.2600     1.1740 C.3   1 <1>  -0.0800 
 12 C       -1.9570     4.8410    -0.9570 C.3   1 <1>  -0.0800 
 13 C       -3.2570     4.1200     1.0800 C.3   1 <1>  -0.0800 
 14 C       -3.0740    -2.3660     1.8220 C.3   1 <1>   0.1200 
 15 C       -4.2390    -1.3500    -0.2470 C.3   1 <1>  -0.0170 
 16 O       -1.7650    -2.2160     2.2920 O.3   1 <1>  -0.5600 
 17 C       -0.7500     5.1770    -0.0620 C.3   1 <1>  -0.1600 
 18 C       -2.0440     4.4600     1.9660 C.3   1 <1>  -0.1600 
 19 C       -3.2560     5.0390    -0.1550 C.3   1 <1>  -0.1600 
 20 C       -5.5270    -2.1350    -0.0570 C.ar  1 <1>  -0.1440 
 21 C       -6.3930    -1.8830     0.9880 C.ar  1 <1>  -0.1500 
 22 C       -5.8950    -3.1430    -0.9240 C.ar  1 <1>  -0.1500 
 23 C       -7.5490    -2.6350     1.1140 C.ar  1 <1>   0.1600 
 24 C       -7.0750    -3.8360    -0.7080 C.ar  1 <1>   0.1600 
 25 N       -7.9100    -3.6070     0.2930 N.ar  1 <1>  -0.6200 
 26 H       -1.7700     0.2290     1.3340 H     1 <1>   0.3700 
 27 H       -1.2530    -1.6890    -0.8740 H     1 <1>   0.0800 
 28 H       -0.6090     2.1560     1.5810 H     1 <1>   0.0800 
 29 H        0.2700     2.6440     0.1670 H     1 <1>   0.0800 
 30 H       -0.9610     3.2280    -1.9800 H     1 <1>   0.0800 
 31 H       -2.6910     3.1330    -2.0440 H     1 <1>   0.0800 
 32 H       -4.0040     2.4080     0.0070 H     1 <1>   0.0800 
 33 H       -3.1830     2.0140     1.4850 H     1 <1>   0.0800 
 34 H       -3.0110    -3.0950    -0.1670 H     1 <1>   0.0800 
 35 H       -0.0070    -1.5690     1.5060 H     1 <1>   0.0800 
 36 H       -0.5890    -3.1390     0.9530 H     1 <1>   0.0800 
 37 H        0.1060     4.5020     1.7960 H     1 <1>   0.0800 
 38 H       -1.9600     5.4830    -1.8210 H     1 <1>   0.0800 
 39 H       -4.1670     4.2660     1.6380 H     1 <1>   0.0800 
 40 H       -3.4200    -3.3570     2.0610 H     1 <1>   0.0800 
 41 H       -3.6850    -1.6370     2.3230 H     1 <1>   0.0800 
 42 H       -4.0880    -1.1590    -1.2960 H     1 <1>   0.0800 
 43 H       -4.3300    -0.3970     0.2430 H     1 <1>   0.0800 
 44 H        0.1620     5.0520    -0.6190 H     1 <1>   0.0800 
 45 H       -0.8040     6.2060     0.2480 H     1 <1>   0.0800 
 46 H       -2.1130     5.4810     2.3000 H     1 <1>   0.0800 
 47 H       -2.0410     3.8320     2.8400 H     1 <1>   0.0800 
 48 H       -4.1050     4.8160    -0.7780 H     1 <1>   0.0800 
 49 H       -3.3390     6.0660     0.1540 H     1 <1>   0.0800 
 50 H       -6.1820    -1.1110     1.7040 H     1 <1>   0.1500 
 51 H       -5.2770    -3.3960    -1.7660 H     1 <1>   0.1500 
 52 H       -8.2130    -2.4250     1.9360 H     1 <1>   0.1500 
 53 H       -7.3470    -4.6190    -1.3950 H     1 <1>   0.1500 
@<TRIPOS>BOND
  1   1   2  2   
  2   2   3  am  
  3   2   4  1   
  4   3   5  1   
  5   3  26  1   
  6   4   6  1   
  7   4   7  1   
  8   4   8  1   
  9   5   9  1   
 10   5  10  1   
 11   5  27  1   
 12   6  11  1   
 13   6  28  1   
 14   6  29  1   
 15   7  12  1   
 16   7  30  1   
 17   7  31  1   
 18   8  13  1   
 19   8  32  1   
 20   8  33  1   
 21   9  14  1   
 22   9  15  1   
 23   9  34  1   
 24  10  16  1   
 25  10  35  1   
 26  10  36  1   
 27  11  17  1   
 28  11  18  1   
 29  11  37  1   
 30  12  17  1   
 31  12  19  1   
 32  12  38  1   
 33  13  18  1   
 34  13  19  1   
 35  13  39  1   
 36  14  16  1   
 37  14  40  1   
 38  14  41  1   
 39  15  20  1   
 40  15  42  1   
 41  15  43  1   
 42  17  44  1   
 43  17  45  1   
 44  18  46  1   
 45  18  47  1   
 46  19  48  1   
 47  19  49  1   
 48  20  21  ar  
 49  20  22  ar  
 50  21  23  ar  
 51  21  50  1   
 52  22  24  ar  
 53  22  51  1   
 54  23  25  ar  
 55  23  52  1   
 56  24  25  ar  
 57  24  53  1   
@<TRIPOS>SUBSTRUCTURE
  1 ****   3 GROUP 4 **** **** 0

# MOE 2024.06 (io_trps.svl 2023.06)
