@<TRIPOS>MOLECULE
NONAME
43 44 1 0 0 
SMALL
USER_CHARGES


@<TRIPOS>ATOM
  1 O       -0.2690     0.7700    -1.7460 O.2   1 <1>  -0.5700 
  2 C       -0.2980     1.8010    -1.1160 C.2   1 <1>   0.5690 
  3 N       -1.3930     2.1900    -0.3860 N.am  1 <1>  -0.6600 
  4 C        0.9460     2.6890    -1.1680 C.3   1 <1>   0.1810 
  5 C       -1.4050     3.5390     0.2990 C.3   1 <1>   0.3640 
  6 C       -2.4650     1.1880    -0.0860 C.3   1 <1>   0.2200 
  7 O        1.0210     3.5910    -0.0950 O.3   1 <1>  -0.5600 
  8 C       -2.6150     4.3660    -0.1390 C.ar  1 <1>  -0.1440 
  9 C       -0.1340     4.3930     0.0420 C.3   1 <1>   0.2610 
 10 C       -3.6710     1.3820    -1.0030 C.3   1 <1>  -0.2400 
 11 C       -2.8810     1.1980     1.3870 C.3   1 <1>  -0.2400 
 12 C       -2.9230     4.5330    -1.4840 C.ar  1 <1>  -0.1500 
 13 C       -3.4100     4.9850     0.8150 C.ar  1 <1>  -0.1500 
 14 C        0.0610     5.4740     1.1240 C.2   1 <1>   0.5690 
 15 C       -4.0100     5.2990    -1.8660 C.ar  1 <1>  -0.1500 
 16 C       -4.4970     5.7510     0.4340 C.ar  1 <1>  -0.1500 
 17 O       -0.4420     5.3060     2.2150 O.2   1 <1>  -0.5700 
 18 N        0.7770     6.6220     0.8490 N.am  1 <1>  -0.6600 
 19 C       -4.7980     5.9090    -0.9070 C.ar  1 <1>  -0.1500 
 20 C        1.5790     6.8400    -0.3870 C.3   1 <1>   0.0600 
 21 C        0.8640     7.7370     1.8350 C.3   1 <1>   0.0600 
 22 H        0.9540     3.2450    -2.0880 H     1 <1>   0.0800 
 23 H        1.8220     2.0680    -1.1310 H     1 <1>   0.0800 
 24 H       -1.4660     3.3580     1.3570 H     1 <1>   0.0800 
 25 H       -2.0710     0.2050    -0.2870 H     1 <1>   0.0800 
 26 H       -0.2680     4.9070    -0.8920 H     1 <1>   0.0800 
 27 H       -4.2210     2.2670    -0.7440 H     1 <1>   0.0800 
 28 H       -4.3340     0.5420    -0.9060 H     1 <1>   0.0800 
 29 H       -3.3490     1.4400    -2.0270 H     1 <1>   0.0800 
 30 H       -3.4020     2.1030     1.6390 H     1 <1>   0.0800 
 31 H       -2.0170     1.0840     2.0170 H     1 <1>   0.0800 
 32 H       -3.5430     0.3720     1.5760 H     1 <1>   0.0800 
 33 H       -2.3230     4.0570    -2.2390 H     1 <1>   0.1500 
 34 H       -3.1820     4.8790     1.8630 H     1 <1>   0.1500 
 35 H       -4.2440     5.4190    -2.9100 H     1 <1>   0.1500 
 36 H       -5.1070     6.2260     1.1820 H     1 <1>   0.1500 
 37 H       -5.6440     6.5040    -1.2030 H     1 <1>   0.1500 
 38 H        2.4910     7.3580    -0.1430 H     1 <1>   0.0800 
 39 H        1.0150     7.4340    -1.0840 H     1 <1>   0.0800 
 40 H        1.8430     5.9050    -0.8470 H     1 <1>   0.0800 
 41 H        0.6400     8.6710     1.3500 H     1 <1>   0.0800 
 42 H        1.8570     7.7780     2.2470 H     1 <1>   0.0800 
 43 H        0.1640     7.5950     2.6400 H     1 <1>   0.0800 
@<TRIPOS>BOND
  1   1   2  2   
  2   2   3  am  
  3   2   4  1   
  4   3   5  1   
  5   3   6  1   
  6   4   7  1   
  7   4  22  1   
  8   4  23  1   
  9   5   8  1   
 10   5   9  1   
 11   5  24  1   
 12   6  10  1   
 13   6  11  1   
 14   6  25  1   
 15   7   9  1   
 16   8  12  ar  
 17   8  13  ar  
 18   9  14  1   
 19   9  26  1   
 20  10  27  1   
 21  10  28  1   
 22  10  29  1   
 23  11  30  1   
 24  11  31  1   
 25  11  32  1   
 26  12  15  ar  
 27  12  33  1   
 28  13  16  ar  
 29  13  34  1   
 30  14  17  2   
 31  14  18  am  
 32  15  19  ar  
 33  15  35  1   
 34  16  19  ar  
 35  16  36  1   
 36  18  20  1   
 37  18  21  1   
 38  19  37  1   
 39  20  38  1   
 40  20  39  1   
 41  20  40  1   
 42  21  41  1   
 43  21  42  1   
 44  21  43  1   
@<TRIPOS>SUBSTRUCTURE
  1 ****   5 GROUP 4 **** **** 0

# MOE 2024.06 (io_trps.svl 2023.06)
