@<TRIPOS>MOLECULE
NONAME
45 46 1 0 0 
SMALL
USER_CHARGES


@<TRIPOS>ATOM
  1 O       -0.2460    -0.7360    -0.3970 O.2   1 <1>  -0.5700 
  2 C       -0.5540    -1.9050    -0.2570 C.2   1 <1>   0.6900 
  3 N        0.3950    -2.8720    -0.0330 N.am  1 <1>  -0.6600 
  4 N       -1.8580    -2.2530    -0.3070 N.am  1 <1>  -0.7300 
  5 C        1.8210    -2.5180     0.2050 C.3   1 <1>   0.0600 
  6 C        0.1070    -4.3330    -0.0580 C.3   1 <1>   0.0600 
  7 C       -2.9840    -1.2790    -0.3150 C.3   1 <1>   0.2010 
  8 C       -4.2870    -1.8520     0.2580 C.2   1 <1>   0.5690 
  9 O       -4.2990    -3.0200     0.5880 O.2   1 <1>  -0.5700 
 10 N       -5.4040    -1.0600     0.3830 N.am  1 <1>  -0.6600 
 11 C       -6.6900    -1.6060     0.9140 C.3   1 <1>   0.1400 
 12 C       -5.4950     0.3710    -0.0210 C.3   1 <1>   0.1400 
 13 C       -7.8190    -1.4960    -0.1430 C.3   1 <1>   0.0000 
 14 C       -6.5860     0.5360    -1.0850 C.3   1 <1>  -0.1600 
 15 C       -9.1670    -2.0260     0.3860 C.3   1 <1>   0.2000 
 16 C       -7.9370    -0.0280    -0.6110 C.3   1 <1>  -0.1600 
 17 C       -7.5490    -2.4580    -1.3140 C.3   1 <1>  -0.1600 
 18 O       -9.3780    -1.7360     1.7230 O.3   1 <1>  -0.6800 
 19 C       -9.1670    -3.5410     0.1680 C.3   1 <1>  -0.1600 
 20 C       -8.0460    -3.8260    -0.8390 C.3   1 <1>  -0.1600 
 21 H       -2.1260    -3.1700     0.0530 H     1 <1>   0.3700 
 22 H        2.1840    -3.0350     1.0760 H     1 <1>   0.0800 
 23 H        1.9300    -1.4590     0.3670 H     1 <1>   0.0800 
 24 H        2.4100    -2.7980    -0.6490 H     1 <1>   0.0800 
 25 H        0.9510    -4.8660    -0.4590 H     1 <1>   0.0800 
 26 H       -0.7470    -4.5410    -0.6790 H     1 <1>   0.0800 
 27 H       -0.0880    -4.6790     0.9420 H     1 <1>   0.0800 
 28 H       -2.7010    -0.4180     0.2640 H     1 <1>   0.0800 
 29 H       -3.1580    -0.9680    -1.3290 H     1 <1>   0.0800 
 30 H       -6.5690    -2.6300     1.2190 H     1 <1>   0.0800 
 31 H       -6.9550    -1.0360     1.7870 H     1 <1>   0.0800 
 32 H       -5.7450     0.9600     0.8460 H     1 <1>   0.0800 
 33 H       -4.5600     0.7340    -0.4080 H     1 <1>   0.0800 
 34 H       -6.6970     1.5810    -1.3160 H     1 <1>   0.0800 
 35 H       -6.2750     0.0370    -1.9860 H     1 <1>   0.0800 
 36 H       -9.9740    -1.5850    -0.1750 H     1 <1>   0.0800 
 37 H       -8.6590     0.0530    -1.4040 H     1 <1>   0.0800 
 38 H       -8.2930     0.5680     0.2120 H     1 <1>   0.0800 
 39 H       -8.1290    -2.1590    -2.1700 H     1 <1>   0.0800 
 40 H       -6.5130    -2.4940    -1.6020 H     1 <1>   0.0800 
 41 H       -8.8420    -2.3290     2.2820 H     1 <1>   0.4000 
 42 H       -8.9810    -4.0780     1.0810 H     1 <1>   0.0800 
 43 H      -10.1170    -3.8460    -0.2350 H     1 <1>   0.0800 
 44 H       -7.2410    -4.3460    -0.3470 H     1 <1>   0.0800 
 45 H       -8.3910    -4.4250    -1.6640 H     1 <1>   0.0800 
@<TRIPOS>BOND
  1   1   2  2   
  2   2   3  am  
  3   2   4  am  
  4   3   5  1   
  5   3   6  1   
  6   4   7  1   
  7   4  21  1   
  8   5  22  1   
  9   5  23  1   
 10   5  24  1   
 11   6  25  1   
 12   6  26  1   
 13   6  27  1   
 14   7   8  1   
 15   7  28  1   
 16   7  29  1   
 17   8   9  2   
 18   8  10  am  
 19  10  11  1   
 20  10  12  1   
 21  11  13  1   
 22  11  30  1   
 23  11  31  1   
 24  12  14  1   
 25  12  32  1   
 26  12  33  1   
 27  13  15  1   
 28  13  16  1   
 29  13  17  1   
 30  14  16  1   
 31  14  34  1   
 32  14  35  1   
 33  15  18  1   
 34  15  19  1   
 35  15  36  1   
 36  16  37  1   
 37  16  38  1   
 38  17  20  1   
 39  17  39  1   
 40  17  40  1   
 41  18  41  1   
 42  19  20  1   
 43  19  42  1   
 44  19  43  1   
 45  20  44  1   
 46  20  45  1   
@<TRIPOS>SUBSTRUCTURE
  1 ****   8 GROUP 4 **** **** 0

# MOE 2024.06 (io_trps.svl 2023.06)
