@<TRIPOS>MOLECULE
NONAME
48 50 1 0 0 
SMALL
USER_CHARGES


@<TRIPOS>ATOM
  1 CL       1.2650     0.0460     1.2220 Cl    1 <1>  -0.1770 
  2 C        1.8180     1.6210     0.7190 C.ar  1 <1>   0.1770 
  3 C        1.7260     2.6870     1.5930 C.ar  1 <1>  -0.1500 
  4 C        2.3420     1.7880    -0.5480 C.ar  1 <1>  -0.1500 
  5 C        2.1660     3.9350     1.1890 C.ar  1 <1>  -0.1500 
  6 C        2.7780     3.0410    -0.9410 C.ar  1 <1>  -0.1500 
  7 C        2.7030     4.1450    -0.0860 C.ar  1 <1>   0.0540 
  8 C        3.1660     5.4570    -0.5120 C.2   1 <1>   0.4620 
  9 N        3.6580     5.7400    -1.6670 N.2   1 <1>  -0.4100 
 10 N        3.1250     6.5320     0.2820 N.2   1 <1>  -0.5650 
 11 O        3.9500     7.0020    -1.6780 O.3   1 <1>  -0.0190 
 12 C        3.6090     7.4170    -0.4870 C.2   1 <1>   0.2980 
 13 C        3.8210     8.8730    -0.1310 C.3   1 <1>   0.0200 
 14 C        5.3150     9.1770    -0.0130 C.3   1 <1>   0.1400 
 15 N        5.5240    10.5810     0.4190 N.am  1 <1>  -0.7300 
 16 C        5.4940    11.6480    -0.4220 C.2   1 <1>   0.5690 
 17 O        5.2150    11.5160    -1.5890 O.2   1 <1>  -0.5700 
 18 C        5.8210    13.0310     0.1450 C.3   1 <1>  -0.0190 
 19 C        5.2840    14.1870    -0.7270 C.3   1 <1>  -0.1600 
 20 C        7.3440    13.1870     0.3750 C.3   1 <1>  -0.1600 
 21 C        5.4950    15.5680    -0.0690 C.3   1 <1>   0.2000 
 22 C        7.8140    14.6530     0.4780 C.3   1 <1>  -0.1600 
 23 O        5.7350    16.5140    -1.0820 O.3   1 <1>  -0.5600 
 24 C        6.6840    15.5810     0.9290 C.3   1 <1>   0.2000 
 25 C        4.6060    16.9340    -1.7840 C.3   1 <1>   0.0400 
 26 O        7.1900    16.8610     1.0150 O.3   1 <1>  -0.6800 
 27 H        1.3150     2.5360     2.5760 H     1 <1>   0.1500 
 28 H        2.4040     0.9450    -1.2140 H     1 <1>   0.1500 
 29 H        2.0920     4.7620     1.8740 H     1 <1>   0.1500 
 30 H        3.1860     3.1660    -1.9300 H     1 <1>   0.1500 
 31 H        3.3820     9.4880    -0.8960 H     1 <1>   0.0800 
 32 H        3.3340     9.0780     0.8040 H     1 <1>   0.0800 
 33 H        5.7900     9.0250    -0.9690 H     1 <1>   0.0800 
 34 H        5.7710     8.5120     0.7010 H     1 <1>   0.0800 
 35 H        5.7730    10.7170     1.4000 H     1 <1>   0.3700 
 36 H        5.3280    13.0990     1.0980 H     1 <1>   0.0800 
 37 H        4.2350    14.0380    -0.9110 H     1 <1>   0.0800 
 38 H        5.7970    14.1590    -1.6730 H     1 <1>   0.0800 
 39 H        7.6120    12.6630     1.2760 H     1 <1>   0.0800 
 40 H        7.8780    12.7210    -0.4360 H     1 <1>   0.0800 
 41 H        4.6110    15.8610     0.4720 H     1 <1>   0.0800 
 42 H        8.1510    14.9770    -0.4930 H     1 <1>   0.0800 
 43 H        8.6410    14.7220     1.1620 H     1 <1>   0.0800 
 44 H        6.3530    15.2910     1.9110 H     1 <1>   0.0800 
 45 H        4.9170    17.6710    -2.5030 H     1 <1>   0.0800 
 46 H        3.9030    17.3730    -1.0980 H     1 <1>   0.0800 
 47 H        4.1670    16.0960    -2.2970 H     1 <1>   0.0800 
 48 H        7.0440    17.2640     0.1290 H     1 <1>   0.4000 
@<TRIPOS>BOND
  1   1   2  1   
  2   2   3  ar  
  3   2   4  ar  
  4   3   5  ar  
  5   3  27  1   
  6   4   6  ar  
  7   4  28  1   
  8   5   7  ar  
  9   5  29  1   
 10   6   7  ar  
 11   6  30  1   
 12   7   8  1   
 13   8   9  2   
 14   8  10  1   
 15   9  11  1   
 16  10  12  2   
 17  11  12  1   
 18  12  13  1   
 19  13  14  1   
 20  13  31  1   
 21  13  32  1   
 22  14  15  1   
 23  14  33  1   
 24  14  34  1   
 25  15  16  am  
 26  15  35  1   
 27  16  17  2   
 28  16  18  1   
 29  18  19  1   
 30  18  20  1   
 31  18  36  1   
 32  19  21  1   
 33  19  37  1   
 34  19  38  1   
 35  20  22  1   
 36  20  39  1   
 37  20  40  1   
 38  21  23  1   
 39  21  24  1   
 40  21  41  1   
 41  22  24  1   
 42  22  42  1   
 43  22  43  1   
 44  23  25  1   
 45  24  26  1   
 46  24  44  1   
 47  25  45  1   
 48  25  46  1   
 49  25  47  1   
 50  26  48  1   
@<TRIPOS>SUBSTRUCTURE
  1 ****  13 GROUP 4 **** **** 0

# MOE 2024.06 (io_trps.svl 2023.06)
