@<TRIPOS>MOLECULE
NONAME
38 39 1 0 0 
SMALL
USER_CHARGES


@<TRIPOS>ATOM
  1 CL      -0.0070    -0.7440     0.7210 Cl    1 <1>  -0.1230 
  2 C       -0.7780    -2.3020     0.9090 C.2   1 <1>   0.4120 
  3 N       -1.6780    -2.5550     1.7870 N.2   1 <1>  -0.4100 
  4 C       -0.4810    -3.4040     0.1170 C.2   1 <1>  -0.1500 
  5 O       -1.9870    -3.8090     1.5990 O.3   1 <1>  -0.0190 
  6 C       -1.3000    -4.3440     0.6170 C.2   1 <1>  -0.0400 
  7 C       -1.5220    -5.7970     0.2410 C.3   1 <1>   0.0200 
  8 C       -2.9770    -6.0300    -0.1950 C.3   1 <1>  -0.0990 
  9 C       -3.2790    -7.4750    -0.5690 C.2   1 <1>   0.5690 
 10 O       -2.3530    -8.2450    -0.6610 O.2   1 <1>  -0.5700 
 11 N       -4.5710    -7.8780    -0.7840 N.am  1 <1>  -0.6600 
 12 C       -4.8630    -9.2640    -1.2480 C.3   1 <1>   0.3200 
 13 C       -5.7660    -6.9850    -0.6650 C.3   1 <1>   0.1400 
 14 C       -5.5850   -10.0300    -0.1580 C.2   1 <1>  -0.3320 
 15 C       -6.3320    -6.9920     0.7610 C.3   1 <1>   0.1200 
 16 N       -5.0220   -10.4370     0.9980 N.pl3 1 <1>   0.0480 
 17 C       -6.8710   -10.4470    -0.1250 C.2   1 <1>   0.0770 
 18 O       -7.1880    -5.9100     0.9160 O.3   1 <1>  -0.6800 
 19 C       -6.0170   -11.0690     1.6590 C.2   1 <1>   0.0360 
 20 C       -3.6300   -10.2580     1.4520 C.3   1 <1>   0.0160 
 21 N       -7.1420   -11.0950     1.0210 N.2   1 <1>  -0.5650 
 22 H        0.2340    -3.4400    -0.6820 H     1 <1>   0.1500 
 23 H       -1.2920    -6.4180     1.0890 H     1 <1>   0.0800 
 24 H       -0.8550    -6.0640    -0.5600 H     1 <1>   0.0800 
 25 H       -3.1900    -5.4080    -1.0440 H     1 <1>   0.0800 
 26 H       -3.6240    -5.7390     0.6110 H     1 <1>   0.0800 
 27 H       -3.9590    -9.7830    -1.5160 H     1 <1>   0.0800 
 28 H       -5.4800    -9.2180    -2.1290 H     1 <1>   0.0800 
 29 H       -6.5340    -7.3130    -1.3450 H     1 <1>   0.0800 
 30 H       -5.4950    -5.9820    -0.9400 H     1 <1>   0.0800 
 31 H       -5.5520    -6.9100     1.4970 H     1 <1>   0.0800 
 32 H       -6.9000    -7.8880     0.9390 H     1 <1>   0.0800 
 33 H       -7.6320   -10.3110    -0.8750 H     1 <1>   0.1500 
 34 H       -6.6930    -5.0780     1.0490 H     1 <1>   0.4000 
 35 H       -5.8680   -11.5070     2.6300 H     1 <1>   0.1500 
 36 H       -2.9580   -10.5210     0.6560 H     1 <1>   0.0800 
 37 H       -3.4410   -10.8880     2.3010 H     1 <1>   0.0800 
 38 H       -3.4750    -9.2310     1.7240 H     1 <1>   0.0800 
@<TRIPOS>BOND
  1   1   2  1   
  2   2   3  2   
  3   2   4  1   
  4   3   5  1   
  5   4   6  2   
  6   4  22  1   
  7   5   6  1   
  8   6   7  1   
  9   7   8  1   
 10   7  23  1   
 11   7  24  1   
 12   8   9  1   
 13   8  25  1   
 14   8  26  1   
 15   9  10  2   
 16   9  11  am  
 17  11  12  1   
 18  11  13  1   
 19  12  14  1   
 20  12  27  1   
 21  12  28  1   
 22  13  15  1   
 23  13  29  1   
 24  13  30  1   
 25  14  16  1   
 26  14  17  2   
 27  15  18  1   
 28  15  31  1   
 29  15  32  1   
 30  16  19  1   
 31  16  20  1   
 32  17  21  1   
 33  17  33  1   
 34  18  34  1   
 35  19  21  2   
 36  19  35  1   
 37  20  36  1   
 38  20  37  1   
 39  20  38  1   
@<TRIPOS>SUBSTRUCTURE
  1 ****   9 GROUP 4 **** **** 0

# MOE 2024.06 (io_trps.svl 2023.06)
