@<TRIPOS>MOLECULE
NONAME
54 57 1 0 0 
SMALL
USER_CHARGES


@<TRIPOS>ATOM
  1 O       -0.6470     0.2540     0.8610 O.2   1 <1>  -0.5700 
  2 C       -1.5300     0.8200     0.2610 C.2   1 <1>   0.5690 
  3 N       -2.5980     0.1310    -0.2400 N.am  1 <1>  -0.6600 
  4 C       -1.4290     2.3170     0.0450 C.3   1 <1>  -0.0990 
  5 C       -3.7270     0.6800    -1.0360 C.3   1 <1>   0.1400 
  6 C       -2.7400    -1.3380    -0.0870 C.3   1 <1>   0.1400 
  7 C       -0.3560     2.9640     0.9310 C.3   1 <1>   0.0960 
  8 C       -4.7820    -0.4250    -1.0040 C.3   1 <1>   0.2000 
  9 C       -3.9560    -1.7170    -0.9440 C.3   1 <1>  -0.0800 
 10 N       -0.2680     4.4080     0.6470 N.pl3 1 <1>   0.3140 
 11 O       -5.5160    -0.2830     0.1640 O.3   1 <1>  -0.6800 
 12 C       -4.7320    -2.9490    -0.4310 C.3   1 <1>  -0.0160 
 13 N       -1.2630     5.2430     1.0020 N.2   1 <1>  -0.7070 
 14 C        0.7240     5.0710     0.0070 C.2   1 <1>  -0.3320 
 15 C       -4.0040    -4.2990    -0.4890 C.ar  1 <1>  -0.1440 
 16 C       -0.8830     6.4100     0.5910 C.2   1 <1>   0.1080 
 17 C        0.3530     6.3680    -0.0410 C.2   1 <1>  -0.1500 
 18 C        1.9930     4.4390    -0.5380 C.3   1 <1>  -0.0600 
 19 C       -4.5770    -5.4310     0.1430 C.ar  1 <1>   0.0000 
 20 C       -2.8140    -4.4900    -1.1370 C.ar  1 <1>  -0.1500 
 21 C       -1.7190     7.6510     0.7950 C.3   1 <1>  -0.0590 
 22 C       -3.8710    -6.6580     0.0810 C.ar  1 <1>   0.3100 
 23 C       -5.8160    -5.4210     0.8280 C.ar  1 <1>  -0.1500 
 24 C       -2.2010    -5.7490    -1.1410 C.ar  1 <1>   0.1600 
 25 N       -2.6860    -6.7990    -0.5620 N.ar  1 <1>  -0.6200 
 26 C       -4.4130    -7.7910     0.7080 C.ar  1 <1>  -0.1500 
 27 C       -6.3190    -6.5450     1.4260 C.ar  1 <1>  -0.1500 
 28 C       -5.6100    -7.7460     1.3690 C.ar  1 <1>  -0.1500 
 29 H       -1.1960     2.4970    -0.9870 H     1 <1>   0.0800 
 30 H       -2.3750     2.7700     0.2770 H     1 <1>   0.0800 
 31 H       -4.1090     1.5990    -0.6260 H     1 <1>   0.0800 
 32 H       -3.3960     0.8420    -2.0470 H     1 <1>   0.0800 
 33 H       -1.8440    -1.8390    -0.4120 H     1 <1>   0.0800 
 34 H       -2.9130    -1.5670     0.9510 H     1 <1>   0.0800 
 35 H        0.6000     2.5090     0.7560 H     1 <1>   0.0800 
 36 H       -0.6100     2.8390     1.9680 H     1 <1>   0.0800 
 37 H       -5.4590    -0.3870    -1.8400 H     1 <1>   0.0800 
 38 H       -3.6150    -1.9120    -1.9450 H     1 <1>   0.0800 
 39 H       -4.8970    -0.1510     0.9110 H     1 <1>   0.4000 
 40 H       -5.6420    -3.0380    -1.0000 H     1 <1>   0.0800 
 41 H       -5.0090    -2.7650     0.5920 H     1 <1>   0.0800 
 42 H        0.8760     7.2050    -0.4670 H     1 <1>   0.1500 
 43 H        2.6020     5.1860    -1.0160 H     1 <1>   0.0800 
 44 H        1.7520     3.6810    -1.2620 H     1 <1>   0.0800 
 45 H        2.5610     3.9960     0.2610 H     1 <1>   0.0800 
 46 H       -2.3030    -3.7090    -1.6630 H     1 <1>   0.1500 
 47 H       -1.2340     8.5060     0.3630 H     1 <1>   0.0800 
 48 H       -1.8580     7.8180     1.8470 H     1 <1>   0.0800 
 49 H       -2.6780     7.5160     0.3330 H     1 <1>   0.0800 
 50 H       -6.3860    -4.5130     0.8830 H     1 <1>   0.1500 
 51 H       -1.2630    -5.8480    -1.6600 H     1 <1>   0.1500 
 52 H       -3.8510    -8.7040     0.6470 H     1 <1>   0.1500 
 53 H       -7.2620    -6.5190     1.9450 H     1 <1>   0.1500 
 54 H       -6.0140    -8.6230     1.8440 H     1 <1>   0.1500 
@<TRIPOS>BOND
  1   1   2  2   
  2   2   3  am  
  3   2   4  1   
  4   3   5  1   
  5   3   6  1   
  6   4   7  1   
  7   4  29  1   
  8   4  30  1   
  9   5   8  1   
 10   5  31  1   
 11   5  32  1   
 12   6   9  1   
 13   6  33  1   
 14   6  34  1   
 15   7  10  1   
 16   7  35  1   
 17   7  36  1   
 18   8   9  1   
 19   8  11  1   
 20   8  37  1   
 21   9  12  1   
 22   9  38  1   
 23  10  13  1   
 24  10  14  1   
 25  11  39  1   
 26  12  15  1   
 27  12  40  1   
 28  12  41  1   
 29  13  16  2   
 30  14  17  2   
 31  14  18  1   
 32  15  19  ar  
 33  15  20  ar  
 34  16  17  1   
 35  16  21  1   
 36  17  42  1   
 37  18  43  1   
 38  18  44  1   
 39  18  45  1   
 40  19  22  ar  
 41  19  23  ar  
 42  20  24  ar  
 43  20  46  1   
 44  21  47  1   
 45  21  48  1   
 46  21  49  1   
 47  22  25  ar  
 48  22  26  ar  
 49  23  27  ar  
 50  23  50  1   
 51  24  25  ar  
 52  24  51  1   
 53  26  28  ar  
 54  26  52  1   
 55  27  28  ar  
 56  27  53  1   
 57  28  54  1   
@<TRIPOS>SUBSTRUCTURE
  1 ****   6 GROUP 4 **** **** 0

# MOE 2024.06 (io_trps.svl 2023.06)
