@<TRIPOS>MOLECULE
NONAME
21 22 1 0 0 
SMALL
USER_CHARGES


@<TRIPOS>ATOM
  1 O        6.0750    -1.2150    -2.2900 O.2   1 <1>  -0.5700 
  2 C        6.5070    -0.6650    -1.3060 C.2   1 <1>   0.5770 
  3 N        7.8070    -0.5980    -0.9950 N.am  1 <1>  -0.7300 
  4 C        5.7550     0.0790    -0.2280 C.3   1 <1>   0.2630 
  5 C        8.0550     0.1020     0.2670 C.3   1 <1>   0.4100 
  6 N        6.8050     0.8440     0.5320 N.3   1 <1>  -0.7500 
  7 C        4.9070    -0.8430     0.6740 C.3   1 <1>   0.2100 
  8 C        4.4160     0.7620    -0.5960 C.3   1 <1>   0.2100 
  9 C        6.9390     2.2210     0.0280 C.3   1 <1>   0.0300 
 10 N        3.6920    -0.4270    -0.0750 N.3   1 <1>  -0.7790 
 11 H        8.5310    -1.0780    -1.5270 H     1 <1>   0.3700 
 12 H        8.9020     0.7650     0.1860 H     1 <1>   0.0800 
 13 H        8.2290    -0.6150     1.0520 H     1 <1>   0.0800 
 14 H        4.8530    -0.5170     1.6980 H     1 <1>   0.0000 
 15 H        5.1040    -1.8930     0.5520 H     1 <1>   0.0000 
 16 H        4.2570     0.8900    -1.6510 H     1 <1>   0.0000 
 17 H        4.1830     1.6290    -0.0030 H     1 <1>   0.0000 
 18 H        6.0500     2.7860     0.2500 H     1 <1>   0.0800 
 19 H        7.1040     2.2250    -1.0370 H     1 <1>   0.0800 
 20 H        7.7670     2.7090     0.5130 H     1 <1>   0.0800 
 21 H        2.9950    -0.1050     0.6040 H     1 <1>   0.3600 
@<TRIPOS>BOND
  1   1   2  2   
  2   2   3  am  
  3   2   4  1   
  4   3   5  1   
  5   3  11  1   
  6   4   6  1   
  7   4   7  1   
  8   4   8  1   
  9   5   6  1   
 10   5  12  1   
 11   5  13  1   
 12   6   9  1   
 13   7  10  1   
 14   7  14  1   
 15   7  15  1   
 16   8  10  1   
 17   8  16  1   
 18   8  17  1   
 19   9  18  1   
 20   9  19  1   
 21   9  20  1   
 22  10  21  1   
@<TRIPOS>SUBSTRUCTURE
  1 ****   4 GROUP 4 **** **** 0

# MOE 2024.06 (io_trps.svl 2023.06)
