@<TRIPOS>MOLECULE
NONAME
50 53 1 0 0 
SMALL
USER_CHARGES


@<TRIPOS>ATOM
  1 CL      -1.3910    -0.0260    -2.5810 Cl    1 <1>  -0.1770 
  2 C       -2.1940    -0.8230    -1.2390 C.ar  1 <1>   0.1770 
  3 C       -2.8260    -0.0730    -0.2390 C.ar  1 <1>   0.1000 
  4 C       -2.1810    -2.2010    -1.2270 C.ar  1 <1>  -0.1500 
  5 N       -2.8430     1.3250    -0.2500 N.pl3 1 <1>  -0.8380 
  6 C       -3.4340    -0.7920     0.7880 C.ar  1 <1>  -0.1500 
  7 C       -2.8100    -2.9160    -0.2090 C.ar  1 <1>   0.0860 
  8 C       -1.5740     2.0760    -0.1080 C.3   1 <1>   0.2090 
  9 C       -3.9890     2.1450     0.2160 C.3   1 <1>   0.2090 
 10 C       -3.4240    -2.1740     0.8020 C.ar  1 <1>  -0.1500 
 11 C       -2.8080    -4.3640    -0.2090 C.2   1 <1>   0.5440 
 12 C       -1.9360     3.3030     0.7180 C.3   1 <1>  -0.1600 
 13 C       -3.4120     3.5410     0.4150 C.3   1 <1>  -0.1600 
 14 O       -1.7670    -4.9650    -0.3930 O.2   1 <1>  -0.5700 
 15 N       -3.9620    -5.0910    -0.0200 N.am  1 <1>  -0.6600 
 16 C       -5.3360    -4.5650    -0.2210 C.3   1 <1>   0.1400 
 17 C       -3.9660    -6.5750    -0.0320 C.3   1 <1>   0.1400 
 18 C       -6.1970    -5.8000    -0.4890 C.3   1 <1>   0.2000 
 19 C       -5.4350    -6.9720     0.1260 C.3   1 <1>  -0.0800 
 20 O       -7.4490    -5.6900     0.0960 O.3   1 <1>  -0.6800 
 21 C       -5.7990    -8.3200    -0.5200 C.3   1 <1>  -0.0160 
 22 C       -5.0700    -9.4770     0.1430 C.ar  1 <1>   0.1670 
 23 N       -3.8370    -9.7150    -0.2730 N.ar  1 <1>  -0.6200 
 24 C       -5.7020   -10.2210     1.1380 C.ar  1 <1>   0.1600 
 25 C       -3.2830   -10.7310     0.3660 C.ar  1 <1>   0.1600 
 26 N       -5.1500   -11.2370     1.7790 N.ar  1 <1>  -0.6200 
 27 C       -3.9180   -11.4670     1.3590 C.ar  1 <1>   0.1600 
 28 H       -1.6800    -2.7360    -2.0130 H     1 <1>   0.1500 
 29 H       -3.9090    -0.2650     1.5930 H     1 <1>   0.1500 
 30 H       -0.8180     1.4790     0.3740 H     1 <1>   0.0800 
 31 H       -1.2320     2.3720    -1.0850 H     1 <1>   0.0800 
 32 H       -4.7770     2.1450    -0.5180 H     1 <1>   0.0800 
 33 H       -4.3640     1.7700     1.1510 H     1 <1>   0.0800 
 34 H       -3.8920    -2.6990     1.6170 H     1 <1>   0.1500 
 35 H       -1.8080     3.0700     1.7600 H     1 <1>   0.0800 
 36 H       -1.3220     4.1490     0.4660 H     1 <1>   0.0800 
 37 H       -3.5120     4.0920    -0.5040 H     1 <1>   0.0800 
 38 H       -3.9150     4.0740     1.2020 H     1 <1>   0.0800 
 39 H       -5.6580    -4.0630     0.6740 H     1 <1>   0.0800 
 40 H       -5.3650    -3.8900    -1.0590 H     1 <1>   0.0800 
 41 H       -3.5710    -6.9210    -0.9730 H     1 <1>   0.0800 
 42 H       -3.3590    -6.9660     0.7670 H     1 <1>   0.0800 
 43 H       -6.3260    -5.9300    -1.5510 H     1 <1>   0.0800 
 44 H       -5.6380    -7.0160     1.1820 H     1 <1>   0.0800 
 45 H       -7.3650    -5.5740     1.0630 H     1 <1>   0.4000 
 46 H       -5.5530    -8.3050    -1.5680 H     1 <1>   0.0800 
 47 H       -6.8610    -8.4740    -0.4410 H     1 <1>   0.0800 
 48 H       -6.7080    -9.9630     1.4170 H     1 <1>   0.1500 
 49 H       -2.2770   -10.9950     0.0910 H     1 <1>   0.1500 
 50 H       -3.3840   -12.2780     1.8220 H     1 <1>   0.1500 
@<TRIPOS>BOND
  1   1   2  1   
  2   2   3  ar  
  3   2   4  ar  
  4   3   5  1   
  5   3   6  ar  
  6   4   7  ar  
  7   4  28  1   
  8   5   8  1   
  9   5   9  1   
 10   6  10  ar  
 11   6  29  1   
 12   7  10  ar  
 13   7  11  1   
 14   8  12  1   
 15   8  30  1   
 16   8  31  1   
 17   9  13  1   
 18   9  32  1   
 19   9  33  1   
 20  10  34  1   
 21  11  14  2   
 22  11  15  am  
 23  12  13  1   
 24  12  35  1   
 25  12  36  1   
 26  13  37  1   
 27  13  38  1   
 28  15  16  1   
 29  15  17  1   
 30  16  18  1   
 31  16  39  1   
 32  16  40  1   
 33  17  19  1   
 34  17  41  1   
 35  17  42  1   
 36  18  19  1   
 37  18  20  1   
 38  18  43  1   
 39  19  21  1   
 40  19  44  1   
 41  20  45  1   
 42  21  22  1   
 43  21  46  1   
 44  21  47  1   
 45  22  23  ar  
 46  22  24  ar  
 47  23  25  ar  
 48  24  26  ar  
 49  24  48  1   
 50  25  27  ar  
 51  25  49  1   
 52  26  27  ar  
 53  27  50  1   
@<TRIPOS>SUBSTRUCTURE
  1 ****  15 GROUP 4 **** **** 0

# MOE 2024.06 (io_trps.svl 2023.06)
