@<TRIPOS>MOLECULE
NONAME
53 56 1 0 0 
SMALL
USER_CHARGES


@<TRIPOS>ATOM
  1 O       -0.4870    -0.8070     1.6700 O.2   1 <1>  -0.5700 
  2 C       -0.9820    -1.3230     0.6860 C.2   1 <1>   0.7150 
  3 N       -0.4760    -2.5380     0.2760 N.am  1 <1>  -0.6600 
  4 C       -2.1270    -0.7510     0.0380 C.2   1 <1>   0.1020 
  5 C       -0.4520    -3.6630     1.2730 C.3   1 <1>   0.2200 
  6 C       -0.1850    -2.8160    -1.1660 C.3   1 <1>   0.1400 
  7 N       -2.9960    -1.4230    -0.6820 N.2   1 <1>  -0.3380 
  8 N       -2.4800     0.5450     0.1230 N.pl3 1 <1>   0.3340 
  9 C        0.7820    -4.5670     1.1350 C.3   1 <1>   0.1200 
 10 C       -1.7610    -4.4890     1.1900 C.3   1 <1>   0.3430 
 11 C       -0.4060    -4.2780    -1.6040 C.3   1 <1>  -0.0800 
 12 N       -3.9280    -0.5870    -1.0830 N.2   1 <1>  -0.3380 
 13 C       -3.6220     0.5930    -0.6040 C.2   1 <1>   0.3120 
 14 C       -1.9890     1.6980     0.7120 C.2   1 <1>  -0.1810 
 15 O        0.5560    -5.5730     0.1920 O.3   1 <1>  -0.5600 
 16 N       -2.5020    -4.3280    -0.1160 N.4   1 <1>  -0.9590 
 17 C        0.7270    -5.2030    -1.1340 C.3   1 <1>   0.1200 
 18 C       -1.7990    -4.8790    -1.3180 C.3   1 <1>   0.3430 
 19 N       -4.3400     1.7440    -0.7950 N.2   1 <1>  -0.5760 
 20 C       -2.6930     2.8440     0.5280 C.2   1 <1>  -0.1360 
 21 C       -3.9380    -4.7500    -0.0580 C.3   1 <1>   0.3430 
 22 C       -3.8840     2.8200    -0.2460 C.2   1 <1>   0.3750 
 23 C       -4.2080    -6.1020     0.6430 C.3   1 <1>  -0.0800 
 24 C       -4.6470     4.1130    -0.4330 C.3   1 <1>  -0.1790 
 25 C       -3.4570    -7.3000     0.0370 C.3   1 <1>  -0.2400 
 26 C       -5.7150    -6.3900     0.5970 C.3   1 <1>  -0.2400 
 27 H       -0.3970    -3.2360     2.2600 H     1 <1>   0.0800 
 28 H       -0.7860    -2.1760    -1.7890 H     1 <1>   0.0800 
 29 H        0.8420    -2.5490    -1.3560 H     1 <1>   0.0800 
 30 H        0.9590    -5.0650     2.0720 H     1 <1>   0.0800 
 31 H        1.6660    -4.0060     0.8820 H     1 <1>   0.0800 
 32 H       -2.4010    -4.1660     1.9940 H     1 <1>   0.0800 
 33 H       -1.5360    -5.5290     1.3600 H     1 <1>   0.0800 
 34 H       -0.3100    -4.2700    -2.6750 H     1 <1>   0.0800 
 35 H       -1.0800     1.6280     1.2850 H     1 <1>   0.1500 
 36 H       -2.5310    -3.3060    -0.2860 H     1 <1>   0.4500 
 37 H        1.6960    -4.7460    -1.2510 H     1 <1>   0.0800 
 38 H        0.7180    -6.1130    -1.7110 H     1 <1>   0.0800 
 39 H       -1.6970    -5.9460    -1.2260 H     1 <1>   0.0800 
 40 H       -2.4180    -4.6910    -2.1800 H     1 <1>   0.0800 
 41 H       -2.3780     3.7810     0.9540 H     1 <1>   0.1500 
 42 H       -4.4960    -3.9900     0.4650 H     1 <1>   0.0800 
 43 H       -4.3350    -4.7910    -1.0600 H     1 <1>   0.0800 
 44 H       -3.9410    -6.0170     1.6820 H     1 <1>   0.0800 
 45 H       -4.0250     4.8390    -0.9220 H     1 <1>   0.0800 
 46 H       -4.9600     4.4950     0.5210 H     1 <1>   0.0800 
 47 H       -5.5200     3.9450    -1.0390 H     1 <1>   0.0800 
 48 H       -3.6490    -7.3790    -1.0190 H     1 <1>   0.0800 
 49 H       -3.7810    -8.2140     0.5040 H     1 <1>   0.0800 
 50 H       -2.3980    -7.2200     0.2010 H     1 <1>   0.0800 
 51 H       -6.0540    -6.5060    -0.4190 H     1 <1>   0.0800 
 52 H       -6.2700    -5.5880     1.0530 H     1 <1>   0.0800 
 53 H       -5.9420    -7.2960     1.1330 H     1 <1>   0.0800 
@<TRIPOS>BOND
  1   1   2  2   
  2   2   3  am  
  3   2   4  1   
  4   3   5  1   
  5   3   6  1   
  6   4   7  2   
  7   4   8  1   
  8   5   9  1   
  9   5  10  1   
 10   5  27  1   
 11   6  11  1   
 12   6  28  1   
 13   6  29  1   
 14   7  12  1   
 15   8  13  1   
 16   8  14  1   
 17   9  15  1   
 18   9  30  1   
 19   9  31  1   
 20  10  16  1   
 21  10  32  1   
 22  10  33  1   
 23  11  17  1   
 24  11  18  1   
 25  11  34  1   
 26  12  13  2   
 27  13  19  1   
 28  14  20  2   
 29  14  35  1   
 30  15  17  1   
 31  16  18  1   
 32  16  21  1   
 33  16  36  1   
 34  17  37  1   
 35  17  38  1   
 36  18  39  1   
 37  18  40  1   
 38  19  22  2   
 39  20  22  1   
 40  20  41  1   
 41  21  23  1   
 42  21  42  1   
 43  21  43  1   
 44  22  24  1   
 45  23  25  1   
 46  23  26  1   
 47  23  44  1   
 48  24  45  1   
 49  24  46  1   
 50  24  47  1   
 51  25  48  1   
 52  25  49  1   
 53  25  50  1   
 54  26  51  1   
 55  26  52  1   
 56  26  53  1   
@<TRIPOS>SUBSTRUCTURE
  1 ****   7 GROUP 4 **** **** 0

# MOE 2024.06 (io_trps.svl 2023.06)
