@<TRIPOS>MOLECULE
NONAME
43 45 1 0 0 
SMALL
USER_CHARGES


@<TRIPOS>ATOM
  1 CL      -1.4660    -0.1020    -1.5040 Cl    1 <1>  -0.1770 
  2 C       -1.0990    -1.5050    -0.5270 C.ar  1 <1>   0.1770 
  3 C       -1.8180    -2.6870    -0.6660 C.ar  1 <1>  -0.1440 
  4 C       -0.0690    -1.3900     0.3900 C.ar  1 <1>  -0.1500 
  5 C       -1.4760    -3.7620     0.1420 C.ar  1 <1>  -0.1500 
  6 C       -2.9640    -2.8520    -1.6660 C.3   1 <1>   0.0450 
  7 C        0.2580    -2.4710     1.1900 C.ar  1 <1>  -0.1500 
  8 C       -0.4470    -3.6550     1.0630 C.ar  1 <1>  -0.1500 
  9 C       -4.2610    -3.3040    -1.0080 C.2   1 <1>   0.5690 
 10 O       -4.6670    -4.4080    -1.2950 O.2   1 <1>  -0.5700 
 11 N       -4.9380    -2.4920    -0.1300 N.am  1 <1>  -0.6600 
 12 C       -6.1920    -2.9530     0.5340 C.3   1 <1>   0.1400 
 13 C       -4.5010    -1.1110     0.2390 C.3   1 <1>   0.1400 
 14 C       -7.3830    -2.0500     0.1410 C.3   1 <1>   0.0000 
 15 C       -5.6570    -0.2730     0.8110 C.3   1 <1>  -0.1600 
 16 C       -8.5560    -2.2910     1.1100 C.3   1 <1>   0.2000 
 17 C       -6.9610    -0.5480     0.0460 C.3   1 <1>  -0.1600 
 18 C       -8.0180    -2.4840    -1.1900 C.3   1 <1>  -0.1600 
 19 O       -8.4380    -1.5650     2.2820 O.3   1 <1>  -0.6800 
 20 C       -9.8260    -1.8980     0.3550 C.3   1 <1>  -0.1600 
 21 C       -9.4600    -1.9670    -1.1350 C.3   1 <1>  -0.1600 
 22 H        0.4690    -0.4640     0.4740 H     1 <1>   0.1500 
 23 H       -2.0140    -4.6930     0.0590 H     1 <1>   0.1500 
 24 H       -2.6750    -3.5950    -2.3870 H     1 <1>   0.0800 
 25 H       -3.1600    -1.9530    -2.2150 H     1 <1>   0.0800 
 26 H        1.0580    -2.3920     1.9060 H     1 <1>   0.1500 
 27 H       -0.1950    -4.4990     1.6830 H     1 <1>   0.1500 
 28 H       -6.4050    -3.9800     0.2900 H     1 <1>   0.0800 
 29 H       -6.0440    -2.9060     1.6000 H     1 <1>   0.0800 
 30 H       -3.7010    -1.1680     0.9590 H     1 <1>   0.0800 
 31 H       -4.1300    -0.6150    -0.6400 H     1 <1>   0.0800 
 32 H       -5.7860    -0.5060     1.8540 H     1 <1>   0.0800 
 33 H       -5.4020     0.7700     0.7440 H     1 <1>   0.0800 
 34 H       -8.6090    -3.3350     1.3730 H     1 <1>   0.0800 
 35 H       -6.7790    -0.2880    -0.9820 H     1 <1>   0.0800 
 36 H       -7.7420     0.1050     0.3900 H     1 <1>   0.0800 
 37 H       -7.4830    -2.1230    -2.0510 H     1 <1>   0.0800 
 38 H       -8.0410    -3.5590    -1.2450 H     1 <1>   0.0800 
 39 H       -8.3070    -0.6240     2.0660 H     1 <1>   0.4000 
 40 H      -10.6170    -2.5890     0.5850 H     1 <1>   0.0800 
 41 H      -10.1380    -0.9000     0.6070 H     1 <1>   0.0800 
 42 H      -10.1250    -2.6150    -1.6800 H     1 <1>   0.0800 
 43 H       -9.5080    -0.9800    -1.5650 H     1 <1>   0.0800 
@<TRIPOS>BOND
  1   1   2  1   
  2   2   3  ar  
  3   2   4  ar  
  4   3   5  ar  
  5   3   6  1   
  6   4   7  ar  
  7   4  22  1   
  8   5   8  ar  
  9   5  23  1   
 10   6   9  1   
 11   6  24  1   
 12   6  25  1   
 13   7   8  ar  
 14   7  26  1   
 15   8  27  1   
 16   9  10  2   
 17   9  11  am  
 18  11  12  1   
 19  11  13  1   
 20  12  14  1   
 21  12  28  1   
 22  12  29  1   
 23  13  15  1   
 24  13  30  1   
 25  13  31  1   
 26  14  16  1   
 27  14  17  1   
 28  14  18  1   
 29  15  17  1   
 30  15  32  1   
 31  15  33  1   
 32  16  19  1   
 33  16  20  1   
 34  16  34  1   
 35  17  35  1   
 36  17  36  1   
 37  18  21  1   
 38  18  37  1   
 39  18  38  1   
 40  19  39  1   
 41  20  21  1   
 42  20  40  1   
 43  20  41  1   
 44  21  42  1   
 45  21  43  1   
@<TRIPOS>SUBSTRUCTURE
  1 ****  11 GROUP 4 **** **** 0

# MOE 2024.06 (io_trps.svl 2023.06)
