@<TRIPOS>MOLECULE
NONAME
56 59 1 0 0 
SMALL
USER_CHARGES


@<TRIPOS>ATOM
  1 F        1.1210    -0.6480     0.2840 F     1 <1>  -0.1900 
  2 C        0.8540    -1.9240     0.2340 C.ar  1 <1>   0.1900 
  3 C       -0.4450    -2.3280    -0.0050 C.ar  1 <1>  -0.1500 
  4 C        1.8800    -2.8300     0.4230 C.ar  1 <1>  -0.1500 
  5 C       -0.7190    -3.6830    -0.0560 C.ar  1 <1>  -0.1500 
  6 C        1.5890    -4.1810     0.3680 C.ar  1 <1>  -0.1500 
  7 C        0.2890    -4.6310     0.1290 C.ar  1 <1>   0.0000 
  8 C       -0.0040    -6.0440     0.0740 C.ar  1 <1>   0.0000 
  9 C        0.2810    -6.8810     1.1480 C.ar  1 <1>  -0.1500 
 10 C       -0.5740    -6.6200    -1.0570 C.ar  1 <1>  -0.1500 
 11 C        0.0020    -8.2340     1.0950 C.ar  1 <1>  -0.1500 
 12 C       -0.8520    -7.9720    -1.1090 C.ar  1 <1>  -0.1500 
 13 C       -0.5800    -8.8170    -0.0310 C.ar  1 <1>   0.0860 
 14 C       -0.8780   -10.2380    -0.0730 C.2   1 <1>   0.5440 
 15 O       -0.1910   -11.0360     0.5420 O.2   1 <1>  -0.5700 
 16 N       -1.9590   -10.7450    -0.7630 N.am  1 <1>  -0.6600 
 17 C       -1.9910   -12.1950    -1.0860 C.3   1 <1>   0.1400 
 18 C       -3.3090   -10.1420    -0.6010 C.3   1 <1>   0.1400 
 19 C       -2.6670   -12.9440     0.0840 C.3   1 <1>   0.4230 
 20 C       -4.0220   -10.8670     0.5500 C.3   1 <1>  -0.1600 
 21 N       -2.5700   -14.4600    -0.0130 N.4   1 <1>  -0.9590 
 22 C       -4.1060   -12.4120     0.3640 C.3   1 <1>   0.0000 
 23 C       -3.5450   -15.1920     0.8590 C.3   1 <1>   0.3430 
 24 C       -2.5950   -15.0240    -1.4020 C.3   1 <1>   0.2630 
 25 C       -4.6390   -13.0450     1.6830 C.3   1 <1>  -0.1600 
 26 C       -5.0460   -12.7620    -0.8250 C.3   1 <1>   0.1200 
 27 C       -3.9280   -14.3540     2.0780 C.3   1 <1>  -0.1600 
 28 O       -6.2750   -12.1340    -0.7100 O.3   1 <1>  -0.6800 
 29 H       -1.2180    -1.5940    -0.1460 H     1 <1>   0.1500 
 30 H        2.8800    -2.4790     0.6060 H     1 <1>   0.1500 
 31 H       -1.7260    -4.0160    -0.2370 H     1 <1>   0.1500 
 32 H        2.3760    -4.9020     0.5080 H     1 <1>   0.1500 
 33 H        0.7240    -6.4630     2.0350 H     1 <1>   0.1500 
 34 H       -0.7930    -5.9960    -1.9060 H     1 <1>   0.1500 
 35 H        0.2380    -8.8580     1.9400 H     1 <1>   0.1500 
 36 H       -1.2830    -8.3860    -2.0040 H     1 <1>   0.1500 
 37 H       -2.5190   -12.3340    -2.0110 H     1 <1>   0.0800 
 38 H       -0.9820   -12.5500    -1.2130 H     1 <1>   0.0800 
 39 H       -3.2300    -9.0930    -0.3690 H     1 <1>   0.0800 
 40 H       -3.8660   -10.2370    -1.5180 H     1 <1>   0.0800 
 41 H       -2.0910   -12.6650     0.9520 H     1 <1>   0.0800 
 42 H       -3.4800   -10.6380     1.4520 H     1 <1>   0.0800 
 43 H       -5.0030   -10.4430     0.6700 H     1 <1>   0.0800 
 44 H       -1.6360   -14.6690     0.3740 H     1 <1>   0.4500 
 45 H       -4.4410   -15.4090     0.3000 H     1 <1>   0.0800 
 46 H       -3.1190   -16.1300     1.1790 H     1 <1>   0.0800 
 47 H       -3.5310   -14.7980    -1.8850 H     1 <1>   0.0800 
 48 H       -2.4750   -16.0960    -1.3710 H     1 <1>   0.0800 
 49 H       -1.7920   -14.6130    -1.9920 H     1 <1>   0.0800 
 50 H       -4.5240   -12.3600     2.5070 H     1 <1>   0.0800 
 51 H       -5.6950   -13.2340     1.6020 H     1 <1>   0.0800 
 52 H       -5.2310   -13.8190    -0.8840 H     1 <1>   0.0800 
 53 H       -4.6320   -12.4370    -1.7630 H     1 <1>   0.0800 
 54 H       -4.5780   -14.9300     2.7140 H     1 <1>   0.0800 
 55 H       -3.0410   -14.1370     2.6480 H     1 <1>   0.0800 
 56 H       -6.7590   -12.4100     0.0930 H     1 <1>   0.4000 
@<TRIPOS>BOND
  1   1   2  1   
  2   2   3  ar  
  3   2   4  ar  
  4   3   5  ar  
  5   3  29  1   
  6   4   6  ar  
  7   4  30  1   
  8   5   7  ar  
  9   5  31  1   
 10   6   7  ar  
 11   6  32  1   
 12   7   8  1   
 13   8   9  ar  
 14   8  10  ar  
 15   9  11  ar  
 16   9  33  1   
 17  10  12  ar  
 18  10  34  1   
 19  11  13  ar  
 20  11  35  1   
 21  12  13  ar  
 22  12  36  1   
 23  13  14  1   
 24  14  15  2   
 25  14  16  am  
 26  16  17  1   
 27  16  18  1   
 28  17  19  1   
 29  17  37  1   
 30  17  38  1   
 31  18  20  1   
 32  18  39  1   
 33  18  40  1   
 34  19  21  1   
 35  19  22  1   
 36  19  41  1   
 37  20  22  1   
 38  20  42  1   
 39  20  43  1   
 40  21  23  1   
 41  21  24  1   
 42  21  44  1   
 43  22  25  1   
 44  22  26  1   
 45  23  27  1   
 46  23  45  1   
 47  23  46  1   
 48  24  47  1   
 49  24  48  1   
 50  24  49  1   
 51  25  27  1   
 52  25  50  1   
 53  25  51  1   
 54  26  28  1   
 55  26  52  1   
 56  26  53  1   
 57  27  54  1   
 58  27  55  1   
 59  28  56  1   
@<TRIPOS>SUBSTRUCTURE
  1 ****  13 GROUP 4 **** **** 0

# MOE 2024.06 (io_trps.svl 2023.06)
