@<TRIPOS>MOLECULE
NONAME
53 55 1 0 0 
SMALL
USER_CHARGES


@<TRIPOS>ATOM
  1 O        1.1990     0.6180     0.9220 O.co2 1 <1>  -0.9000 
  2 C        0.4730     1.5960     0.6470 C.2   1 <1>   1.0330 
  3 O       -0.6870     1.3710     0.2520 O.co2 1 <1>  -0.9000 
  4 C        1.0150     2.9490     0.7990 C.2   1 <1>  -0.0060 
  5 N        0.3940     4.1570     0.5650 N.2   1 <1>  -0.5650 
  6 C        2.2680     3.2320     1.2120 C.2   1 <1>  -0.0100 
  7 C        1.2930     5.0270     0.8430 C.2   1 <1>   0.2980 
  8 O        2.4370     4.5220     1.2410 O.3   1 <1>  -0.2800 
  9 C        1.1280     6.5400     0.7560 C.3   1 <1>   0.2900 
 10 N        1.9650     7.1790    -0.3020 N.3   1 <1>  -0.8100 
 11 C        1.9820     8.6540    -0.2320 C.3   1 <1>   0.1100 
 12 C        1.5920     6.6640    -1.6330 C.3   1 <1>   0.0300 
 13 C        3.3840     9.3430    -0.0260 C.3   1 <1>   0.5030 
 14 N        3.2060    10.8350    -0.2880 N.4   1 <1>  -0.9590 
 15 C        4.4170     8.7990    -1.0600 C.3   1 <1>  -0.1600 
 16 C        3.8880     9.1440     1.4320 C.3   1 <1>  -0.1600 
 17 C        4.4410    11.6820    -0.1320 C.3   1 <1>   0.3430 
 18 C        2.0880    11.4620     0.4950 C.3   1 <1>   0.3430 
 19 C        5.0830     7.4550    -0.7070 C.3   1 <1>  -0.1600 
 20 C        4.5150     7.7710     1.7210 C.3   1 <1>  -0.1600 
 21 C        4.1950    13.0780    -0.7040 C.3   1 <1>  -0.1600 
 22 C        1.7800    12.8590    -0.0490 C.3   1 <1>  -0.1600 
 23 C        5.6280     7.4520     0.7220 C.3   1 <1>  -0.1600 
 24 C        3.0120    13.7680    -0.0180 C.3   1 <1>  -0.1600 
 25 H        3.0640     2.5640     1.4910 H     1 <1>   0.1500 
 26 H        1.3870     6.9460     1.7160 H     1 <1>   0.0800 
 27 H        0.0890     6.7530     0.5710 H     1 <1>   0.0800 
 28 H        1.3340     8.9490     0.5730 H     1 <1>   0.0800 
 29 H        1.5510     9.0370    -1.1400 H     1 <1>   0.0800 
 30 H        1.7290     5.5950    -1.6690 H     1 <1>   0.0800 
 31 H        2.2140     7.1000    -2.3940 H     1 <1>   0.0800 
 32 H        0.5590     6.8830    -1.8490 H     1 <1>   0.0800 
 33 H        2.9460    10.9040    -1.2770 H     1 <1>   0.4500 
 34 H        5.2350     9.4750    -1.1870 H     1 <1>   0.0800 
 35 H        3.9420     8.6980    -2.0190 H     1 <1>   0.0800 
 36 H        3.0790     9.2950     2.1230 H     1 <1>   0.0800 
 37 H        4.6500     9.8610     1.6660 H     1 <1>   0.0800 
 38 H        5.2820    11.2510    -0.6440 H     1 <1>   0.0800 
 39 H        4.6950    11.7690     0.9120 H     1 <1>   0.0800 
 40 H        2.3660    11.5320     1.5340 H     1 <1>   0.0800 
 41 H        1.1910    10.8720     0.4240 H     1 <1>   0.0800 
 42 H        5.8890     7.2620    -1.3940 H     1 <1>   0.0800 
 43 H        4.3870     6.6420    -0.8140 H     1 <1>   0.0800 
 44 H        3.7710     6.9950     1.6740 H     1 <1>   0.0800 
 45 H        4.9200     7.7600     2.7190 H     1 <1>   0.0800 
 46 H        4.0210    13.0080    -1.7640 H     1 <1>   0.0800 
 47 H        5.0810    13.6750    -0.5650 H     1 <1>   0.0800 
 48 H        0.9990    13.3030     0.5460 H     1 <1>   0.0800 
 49 H        1.4070    12.7770    -1.0550 H     1 <1>   0.0800 
 50 H        6.4250     8.1710     0.8150 H     1 <1>   0.0800 
 51 H        6.0350     6.4800     0.9430 H     1 <1>   0.0800 
 52 H        2.7940    14.7010    -0.5110 H     1 <1>   0.0800 
 53 H        3.2700    13.9910     1.0040 H     1 <1>   0.0800 
@<TRIPOS>BOND
  1   1   2  ar  
  2   2   3  ar  
  3   2   4  1   
  4   4   5  1   
  5   4   6  2   
  6   5   7  2   
  7   6   8  1   
  8   6  25  1   
  9   7   8  1   
 10   7   9  1   
 11   9  10  1   
 12   9  26  1   
 13   9  27  1   
 14  10  11  1   
 15  10  12  1   
 16  11  13  1   
 17  11  28  1   
 18  11  29  1   
 19  12  30  1   
 20  12  31  1   
 21  12  32  1   
 22  13  14  1   
 23  13  15  1   
 24  13  16  1   
 25  14  17  1   
 26  14  18  1   
 27  14  33  1   
 28  15  19  1   
 29  15  34  1   
 30  15  35  1   
 31  16  20  1   
 32  16  36  1   
 33  16  37  1   
 34  17  21  1   
 35  17  38  1   
 36  17  39  1   
 37  18  22  1   
 38  18  40  1   
 39  18  41  1   
 40  19  23  1   
 41  19  42  1   
 42  19  43  1   
 43  20  23  1   
 44  20  44  1   
 45  20  45  1   
 46  21  24  1   
 47  21  46  1   
 48  21  47  1   
 49  22  24  1   
 50  22  48  1   
 51  22  49  1   
 52  23  50  1   
 53  23  51  1   
 54  24  52  1   
 55  24  53  1   
@<TRIPOS>SUBSTRUCTURE
  1 ****  10 GROUP 4 **** **** 0

# MOE 2024.06 (io_trps.svl 2023.06)
