@<TRIPOS>MOLECULE
NONAME
56 58 1 0 0 
SMALL
USER_CHARGES


@<TRIPOS>ATOM
  1 O       -5.3820    -0.5180    -2.4470 O.2   1 <1>  -0.5700 
  2 C       -4.7750    -1.0870    -1.5490 C.2   1 <1>   0.4690 
  3 C       -5.0570    -0.8240    -0.1660 C.ar  1 <1>   0.0860 
  4 C       -3.8320    -2.0990    -1.8440 C.2   1 <1>  -0.1360 
  5 C       -4.6320    -1.7600     0.7940 C.ar  1 <1>   0.1000 
  6 C       -5.7370     0.3250     0.2530 C.ar  1 <1>  -0.1500 
  7 C       -3.4590    -3.0050    -0.9070 C.2   1 <1>  -0.0380 
  8 N       -4.0150    -2.9490     0.3600 N.pl3 1 <1>  -0.5690 
  9 C       -4.8470    -1.4720     2.1460 C.ar  1 <1>  -0.1500 
 10 C       -5.9690     0.5690     1.5880 C.ar  1 <1>  -0.1500 
 11 C       -2.4340    -4.0830    -1.2280 C.3   1 <1>  -0.1020 
 12 C       -4.1810    -4.2200     1.1740 C.3   1 <1>   0.2700 
 13 C       -5.5140    -0.3320     2.5390 C.ar  1 <1>  -0.1500 
 14 C       -4.8530    -5.4130     0.4620 C.2   1 <1>   0.5690 
 15 O       -4.2870    -6.4750     0.5820 O.2   1 <1>  -0.5700 
 16 N       -6.0250    -5.3180    -0.2670 N.am  1 <1>  -0.6600 
 17 C       -6.5310    -6.5360    -0.9980 C.3   1 <1>   0.3210 
 18 C       -6.6720    -4.0020    -0.5740 C.3   1 <1>   0.1400 
 19 C       -7.7510    -7.1620    -0.3190 C.2   1 <1>   0.0460 
 20 C       -8.1720    -4.0390    -0.9060 C.3   1 <1>   0.3430 
 21 N       -9.0110    -6.7790    -0.6320 N.2   1 <1>  -0.5650 
 22 C       -7.7710    -8.1480     0.6110 C.2   1 <1>  -0.3320 
 23 N       -8.7330    -2.6760    -1.1980 N.4   1 <1>  -0.9590 
 24 C       -9.7580    -7.5360     0.1050 C.2   1 <1>   0.0360 
 25 N       -9.0650    -8.3870     0.8870 N.pl3 1 <1>   0.0330 
 26 C       -6.6420    -8.9170     1.2790 C.3   1 <1>  -0.0600 
 27 C      -10.2220    -2.7670    -1.2700 C.3   1 <1>   0.2630 
 28 C       -8.1860    -2.0880    -2.4650 C.3   1 <1>   0.2630 
 29 H       -3.4480    -2.1170    -2.8470 H     1 <1>   0.1500 
 30 H       -6.0670     1.0350    -0.4870 H     1 <1>   0.1500 
 31 H       -4.4760    -2.1330     2.9070 H     1 <1>   0.1500 
 32 H       -6.4870     1.4600     1.9000 H     1 <1>   0.1500 
 33 H       -1.6950    -4.1350    -0.4480 H     1 <1>   0.0800 
 34 H       -1.9260    -3.8580    -2.1490 H     1 <1>   0.0800 
 35 H       -2.8990    -5.0450    -1.3350 H     1 <1>   0.0800 
 36 H       -4.7690    -4.0310     2.0490 H     1 <1>   0.0800 
 37 H       -3.2080    -4.5320     1.5100 H     1 <1>   0.0800 
 38 H       -5.6750    -0.1290     3.5840 H     1 <1>   0.1500 
 39 H       -5.7610    -7.2840    -1.0590 H     1 <1>   0.0800 
 40 H       -6.7840    -6.2770    -2.0100 H     1 <1>   0.0800 
 41 H       -6.1440    -3.5690    -1.4030 H     1 <1>   0.0800 
 42 H       -6.5680    -3.3660     0.2830 H     1 <1>   0.0800 
 43 H       -8.6890    -4.4630    -0.0600 H     1 <1>   0.0800 
 44 H       -8.3350    -4.6830    -1.7540 H     1 <1>   0.0800 
 45 H       -8.4860    -2.0500    -0.4150 H     1 <1>   0.4500 
 46 H      -10.8340    -7.5120     0.1110 H     1 <1>   0.1500 
 47 H       -9.4450    -9.0780     1.5410 H     1 <1>   0.2700 
 48 H       -5.6890    -8.6320     0.8730 H     1 <1>   0.0800 
 49 H       -6.7690    -9.9740     1.1240 H     1 <1>   0.0800 
 50 H       -6.6310    -8.7180     2.3350 H     1 <1>   0.0800 
 51 H      -10.5180    -3.4240    -2.0720 H     1 <1>   0.0800 
 52 H      -10.6500    -1.7930    -1.4450 H     1 <1>   0.0800 
 53 H      -10.6180    -3.1570    -0.3460 H     1 <1>   0.0800 
 54 H       -8.4570    -2.6990    -3.3100 H     1 <1>   0.0800 
 55 H       -7.1130    -2.0220    -2.4220 H     1 <1>   0.0800 
 56 H       -8.5770    -1.0950    -2.6190 H     1 <1>   0.0800 
@<TRIPOS>BOND
  1   1   2  2   
  2   2   3  1   
  3   2   4  1   
  4   3   5  ar  
  5   3   6  ar  
  6   4   7  2   
  7   4  29  1   
  8   5   8  1   
  9   5   9  ar  
 10   6  10  ar  
 11   6  30  1   
 12   7   8  1   
 13   7  11  1   
 14   8  12  1   
 15   9  13  ar  
 16   9  31  1   
 17  10  13  ar  
 18  10  32  1   
 19  11  33  1   
 20  11  34  1   
 21  11  35  1   
 22  12  14  1   
 23  12  36  1   
 24  12  37  1   
 25  13  38  1   
 26  14  15  2   
 27  14  16  am  
 28  16  17  1   
 29  16  18  1   
 30  17  19  1   
 31  17  39  1   
 32  17  40  1   
 33  18  20  1   
 34  18  41  1   
 35  18  42  1   
 36  19  21  1   
 37  19  22  2   
 38  20  23  1   
 39  20  43  1   
 40  20  44  1   
 41  21  24  2   
 42  22  25  1   
 43  22  26  1   
 44  23  27  1   
 45  23  28  1   
 46  23  45  1   
 47  24  25  1   
 48  24  46  1   
 49  25  47  1   
 50  26  48  1   
 51  26  49  1   
 52  26  50  1   
 53  27  51  1   
 54  27  52  1   
 55  27  53  1   
 56  28  54  1   
 57  28  55  1   
 58  28  56  1   
@<TRIPOS>SUBSTRUCTURE
  1 ****  18 GROUP 4 **** **** 0

# MOE 2024.06 (io_trps.svl 2023.06)
