@<TRIPOS>MOLECULE
NONAME
38 39 1 0 0 
SMALL
USER_CHARGES


@<TRIPOS>ATOM
  1 F        0.0340    -0.2830     0.3410 F     1 <1>  -0.3400 
  2 C       -1.1560    -0.6830     0.7630 C.3   1 <1>   1.0200 
  3 F       -1.9520     0.3750     0.7250 F     1 <1>  -0.3400 
  4 F       -1.0190    -1.0040     2.0420 F     1 <1>  -0.3400 
  5 C       -1.6980    -1.8490    -0.0630 C.3   1 <1>  -0.1600 
  6 C       -3.0870    -2.3420     0.3960 C.3   1 <1>  -0.0990 
  7 C       -3.5620    -3.5060    -0.4470 C.2   1 <1>   0.5690 
  8 O       -3.8950    -3.3010    -1.5870 O.2   1 <1>  -0.5700 
  9 N       -3.5900    -4.7440     0.0990 N.am  1 <1>  -0.7300 
 10 C       -4.0020    -5.9720    -0.6170 C.3   1 <1>   0.2200 
 11 C       -5.3530    -6.4280    -0.0910 C.3   1 <1>  -0.0800 
 12 C       -3.1040    -7.1290    -0.1970 C.3   1 <1>   0.1200 
 13 C       -4.9670    -7.2450     1.1490 C.3   1 <1>   0.1200 
 14 C       -6.1090    -7.2720    -1.1350 C.3   1 <1>  -0.0160 
 15 O       -3.6140    -7.5790     1.0210 O.3   1 <1>  -0.5600 
 16 C       -7.4700    -7.7130    -0.6180 C.ar  1 <1>  -0.1440 
 17 C       -7.7170    -9.0100    -0.2130 C.ar  1 <1>  -0.1500 
 18 C       -8.5320    -6.8360    -0.5310 C.ar  1 <1>  -0.1500 
 19 C       -8.9760    -9.3540     0.2530 C.ar  1 <1>   0.1600 
 20 C       -9.7520    -7.2820    -0.0510 C.ar  1 <1>   0.1600 
 21 N       -9.9990    -8.5200     0.3460 N.ar  1 <1>  -0.6200 
 22 H       -1.7560    -1.5340    -1.0900 H     1 <1>   0.0800 
 23 H       -0.9930    -2.6580    -0.0050 H     1 <1>   0.0800 
 24 H       -3.8060    -1.5480     0.3020 H     1 <1>   0.0800 
 25 H       -3.0540    -2.6380     1.4300 H     1 <1>   0.0800 
 26 H       -3.3140    -4.9030     1.0700 H     1 <1>   0.3700 
 27 H       -3.9910    -5.8110    -1.6820 H     1 <1>   0.0800 
 28 H       -5.9680    -5.5870     0.1790 H     1 <1>   0.0800 
 29 H       -2.0760    -6.8350    -0.0740 H     1 <1>   0.0800 
 30 H       -3.1690    -7.9390    -0.9010 H     1 <1>   0.0800 
 31 H       -5.5390    -8.1510     1.2530 H     1 <1>   0.0800 
 32 H       -5.0720    -6.6560     2.0430 H     1 <1>   0.0800 
 33 H       -5.5300    -8.1370    -1.4080 H     1 <1>   0.0800 
 34 H       -6.2560    -6.6870    -2.0270 H     1 <1>   0.0800 
 35 H       -6.9450    -9.7560    -0.2530 H     1 <1>   0.1500 
 36 H       -8.4230    -5.8100    -0.8320 H     1 <1>   0.1500 
 37 H       -9.1500   -10.3690     0.5660 H     1 <1>   0.1500 
 38 H      -10.5680    -6.5830     0.0110 H     1 <1>   0.1500 
@<TRIPOS>BOND
  1   1   2  1   
  2   2   3  1   
  3   2   4  1   
  4   2   5  1   
  5   5   6  1   
  6   5  22  1   
  7   5  23  1   
  8   6   7  1   
  9   6  24  1   
 10   6  25  1   
 11   7   8  2   
 12   7   9  am  
 13   9  10  1   
 14   9  26  1   
 15  10  11  1   
 16  10  12  1   
 17  10  27  1   
 18  11  13  1   
 19  11  14  1   
 20  11  28  1   
 21  12  15  1   
 22  12  29  1   
 23  12  30  1   
 24  13  15  1   
 25  13  31  1   
 26  13  32  1   
 27  14  16  1   
 28  14  33  1   
 29  14  34  1   
 30  16  17  ar  
 31  16  18  ar  
 32  17  19  ar  
 33  17  35  1   
 34  18  20  ar  
 35  18  36  1   
 36  19  21  ar  
 37  19  37  1   
 38  20  21  ar  
 39  20  38  1   
@<TRIPOS>SUBSTRUCTURE
  1 ****   9 GROUP 4 **** **** 0

# MOE 2024.06 (io_trps.svl 2023.06)
