@<TRIPOS>MOLECULE
NONAME
42 43 1 0 0 
SMALL
USER_CHARGES


@<TRIPOS>ATOM
  1 O        0.4900     1.8150    -1.4030 O.3   1 <1>  -0.6800 
  2 C        0.3610     1.6570    -0.0280 C.3   1 <1>   0.2000 
  3 C       -0.8810     2.4520     0.4370 C.3   1 <1>  -0.0800 
  4 C        1.6690     2.1420     0.6460 C.3   1 <1>   0.3430 
  5 C       -0.5960     3.1870     1.7670 C.3   1 <1>  -0.1600 
  6 C       -2.1120     1.5360     0.5280 C.3   1 <1>   0.1200 
  7 N        1.7110     3.6330     0.8180 N.4   1 <1>  -0.9590 
  8 C        0.5910     4.1600     1.6700 C.3   1 <1>   0.3430 
  9 O       -3.2120     2.3090     0.8510 O.3   1 <1>  -0.6800 
 10 C        1.7650     4.3210    -0.5070 C.3   1 <1>   0.4860 
 11 C        2.0700     5.7940    -0.2830 C.ar  1 <1>  -0.1440 
 12 C        3.3290     6.1950     0.1690 C.ar  1 <1>  -0.1440 
 13 C        1.0820     6.7500    -0.5260 C.ar  1 <1>  -0.1440 
 14 C        3.5690     7.5370     0.4140 C.ar  1 <1>  -0.1500 
 15 C        4.4870     5.2290     0.4020 C.3   1 <1>  -0.0970 
 16 C        1.3480     8.0860    -0.2750 C.ar  1 <1>  -0.1500 
 17 C       -0.2940     6.3900    -1.0800 C.3   1 <1>  -0.0970 
 18 C        2.5840     8.4790     0.1980 C.ar  1 <1>  -0.1500 
 19 H       -0.2650     1.4060    -1.8800 H     1 <1>   0.4000 
 20 H        0.2460     0.6040     0.1670 H     1 <1>   0.0800 
 21 H       -1.1010     3.2070    -0.2990 H     1 <1>   0.0800 
 22 H        2.5110     1.8010     0.0660 H     1 <1>   0.0800 
 23 H        1.7330     1.6840     1.6190 H     1 <1>   0.0800 
 24 H       -0.4070     2.4720     2.5490 H     1 <1>   0.0800 
 25 H       -1.4600     3.7530     2.0680 H     1 <1>   0.0800 
 26 H       -1.9890     0.7880     1.2930 H     1 <1>   0.0800 
 27 H       -2.3090     1.0580    -0.4170 H     1 <1>   0.0800 
 28 H        2.5870     3.9080     1.2760 H     1 <1>   0.4500 
 29 H        0.9560     4.3550     2.6660 H     1 <1>   0.0800 
 30 H        0.2470     5.1000     1.2730 H     1 <1>   0.0800 
 31 H       -4.0260     1.7670     0.9010 H     1 <1>   0.4000 
 32 H        2.5360     3.8860    -1.1210 H     1 <1>   0.0800 
 33 H        0.8290     4.2020    -1.0240 H     1 <1>   0.0800 
 34 H        4.5300     7.8660     0.7710 H     1 <1>   0.1500 
 35 H        5.4250     5.7460     0.2990 H     1 <1>   0.0800 
 36 H        4.4870     4.4310    -0.3180 H     1 <1>   0.0800 
 37 H        4.4420     4.8220     1.3960 H     1 <1>   0.0800 
 38 H        0.5980     8.8370    -0.4500 H     1 <1>   0.1500 
 39 H       -0.8670     7.2780    -1.2830 H     1 <1>   0.0800 
 40 H       -0.8510     5.7950    -0.3800 H     1 <1>   0.0800 
 41 H       -0.1960     5.8520    -2.0060 H     1 <1>   0.0800 
 42 H        2.7800     9.5200     0.3920 H     1 <1>   0.1500 
@<TRIPOS>BOND
  1   1   2  1   
  2   1  19  1   
  3   2   3  1   
  4   2   4  1   
  5   2  20  1   
  6   3   5  1   
  7   3   6  1   
  8   3  21  1   
  9   4   7  1   
 10   4  22  1   
 11   4  23  1   
 12   5   8  1   
 13   5  24  1   
 14   5  25  1   
 15   6   9  1   
 16   6  26  1   
 17   6  27  1   
 18   7   8  1   
 19   7  10  1   
 20   7  28  1   
 21   8  29  1   
 22   8  30  1   
 23   9  31  1   
 24  10  11  1   
 25  10  32  1   
 26  10  33  1   
 27  11  12  ar  
 28  11  13  ar  
 29  12  14  ar  
 30  12  15  1   
 31  13  16  ar  
 32  13  17  1   
 33  14  18  ar  
 34  14  34  1   
 35  15  35  1   
 36  15  36  1   
 37  15  37  1   
 38  16  18  ar  
 39  16  38  1   
 40  17  39  1   
 41  17  40  1   
 42  17  41  1   
 43  18  42  1   
@<TRIPOS>SUBSTRUCTURE
  1 ****  10 GROUP 4 **** **** 0

# MOE 2024.06 (io_trps.svl 2023.06)
