@<TRIPOS>MOLECULE
NONAME
60 63 1 0 0 
SMALL
USER_CHARGES


@<TRIPOS>ATOM
  1 O        1.3350    -0.4230     1.4790 O.2   1 <1>  -0.5700 
  2 C        1.5380    -0.6480     0.3060 C.2   1 <1>   0.5690 
  3 N        1.9650     0.3390    -0.5450 N.am  1 <1>  -0.4940 
  4 C        1.3490    -2.0680    -0.2850 C.3   1 <1>   0.3950 
  5 C        2.0710     1.7130    -0.2640 C.2   1 <1>  -0.0880 
  6 N        0.2320    -2.8830     0.2810 N.3   1 <1>  -0.8100 
  7 C        2.6720    -2.8170    -0.1580 C.ar  1 <1>  -0.1440 
  8 N        3.2030     2.3990     0.0730 N.pl3 1 <1>   0.3140 
  9 C        1.0460     2.6080    -0.3100 C.2   1 <1>  -0.0540 
 10 C        0.0810    -4.1850    -0.4070 C.3   1 <1>   0.1100 
 11 C       -1.0540    -2.1480     0.2530 C.3   1 <1>   0.1100 
 12 C        3.4040    -3.1550    -1.2860 C.ar  1 <1>   0.1600 
 13 C        3.1730    -3.1580     1.0840 C.ar  1 <1>  -0.1500 
 14 N        2.9190     3.7250     0.2100 N.2   1 <1>  -0.7070 
 15 C        4.6040     1.8490     0.2930 C.3   1 <1>   0.2560 
 16 C       -0.3450     2.3720    -0.5940 C.ar  1 <1>   0.0540 
 17 C        1.6480     3.8270    -0.0100 C.2   1 <1>   0.1390 
 18 C       -1.1180    -4.9760     0.1440 C.3   1 <1>   0.1200 
 19 C       -2.2100    -3.0160     0.7750 C.3   1 <1>   0.1200 
 20 N        4.5700    -3.7770    -1.2760 N.ar  1 <1>  -0.6200 
 21 C        4.3850    -3.8120     1.1140 C.ar  1 <1>  -0.1500 
 22 C        5.6070     2.9870     0.5740 C.3   1 <1>  -0.2400 
 23 C        5.0960     1.0940    -0.9560 C.3   1 <1>  -0.2400 
 24 C        4.6170     0.9040     1.5070 C.3   1 <1>  -0.2400 
 25 C       -0.9420     2.8740    -1.7460 C.ar  1 <1>  -0.1500 
 26 C       -1.1300     1.6240     0.2790 C.ar  1 <1>  -0.1500 
 27 O       -2.2860    -4.2120     0.0550 O.3   1 <1>  -0.5600 
 28 C        5.0330    -4.0920    -0.0760 C.ar  1 <1>   0.1600 
 29 C       -2.2750     2.6300    -2.0230 C.ar  1 <1>  -0.1500 
 30 C       -2.4630     1.3760     0.0090 C.ar  1 <1>  -0.1500 
 31 C       -3.0380     1.8780    -1.1460 C.ar  1 <1>  -0.1500 
 32 H        2.1180     0.0840    -1.5200 H     1 <1>   0.3700 
 33 H        1.1380    -1.9360    -1.3310 H     1 <1>   0.0800 
 34 H        0.9700    -4.7770    -0.2660 H     1 <1>   0.0800 
 35 H       -0.0610    -4.0340    -1.4630 H     1 <1>   0.0800 
 36 H       -1.2830    -1.8310    -0.7510 H     1 <1>   0.0800 
 37 H       -0.9880    -1.2730     0.8750 H     1 <1>   0.0800 
 38 H        3.0160    -2.9020    -2.2580 H     1 <1>   0.1500 
 39 H        2.6330    -2.9190     1.9870 H     1 <1>   0.1500 
 40 H        1.1130     4.7600     0.0370 H     1 <1>   0.1500 
 41 H       -0.9540    -5.2410     1.1740 H     1 <1>   0.0800 
 42 H       -1.2680    -5.8740    -0.4280 H     1 <1>   0.0800 
 43 H       -3.1470    -2.5010     0.6580 H     1 <1>   0.0800 
 44 H       -2.0670    -3.2460     1.8170 H     1 <1>   0.0800 
 45 H        4.8240    -4.1010     2.0520 H     1 <1>   0.1500 
 46 H        5.6360     3.6730    -0.2540 H     1 <1>   0.0800 
 47 H        6.5970     2.5970     0.7250 H     1 <1>   0.0800 
 48 H        5.3210     3.5280     1.4590 H     1 <1>   0.0800 
 49 H        5.0300     1.7270    -1.8220 H     1 <1>   0.0800 
 50 H        4.5260     0.2000    -1.1240 H     1 <1>   0.0800 
 51 H        6.1220     0.7990    -0.8310 H     1 <1>   0.0800 
 52 H        4.2270     1.4090     2.3730 H     1 <1>   0.0800 
 53 H        5.6190     0.5810     1.7230 H     1 <1>   0.0800 
 54 H        4.0230     0.0280     1.3240 H     1 <1>   0.0800 
 55 H       -0.3510     3.4580    -2.4290 H     1 <1>   0.1500 
 56 H       -0.6810     1.2400     1.1800 H     1 <1>   0.1500 
 57 H        5.9800    -4.6030    -0.0400 H     1 <1>   0.1500 
 58 H       -2.7220     3.0250    -2.9190 H     1 <1>   0.1500 
 59 H       -3.0540     0.7980     0.6980 H     1 <1>   0.1500 
 60 H       -4.0760     1.6880    -1.3590 H     1 <1>   0.1500 
@<TRIPOS>BOND
  1   1   2  2   
  2   2   3  am  
  3   2   4  1   
  4   3   5  1   
  5   3  32  1   
  6   4   6  1   
  7   4   7  1   
  8   4  33  1   
  9   5   8  1   
 10   5   9  2   
 11   6  10  1   
 12   6  11  1   
 13   7  12  ar  
 14   7  13  ar  
 15   8  14  1   
 16   8  15  1   
 17   9  16  1   
 18   9  17  1   
 19  10  18  1   
 20  10  34  1   
 21  10  35  1   
 22  11  19  1   
 23  11  36  1   
 24  11  37  1   
 25  12  20  ar  
 26  12  38  1   
 27  13  21  ar  
 28  13  39  1   
 29  14  17  2   
 30  15  22  1   
 31  15  23  1   
 32  15  24  1   
 33  16  25  ar  
 34  16  26  ar  
 35  17  40  1   
 36  18  27  1   
 37  18  41  1   
 38  18  42  1   
 39  19  27  1   
 40  19  43  1   
 41  19  44  1   
 42  20  28  ar  
 43  21  28  ar  
 44  21  45  1   
 45  22  46  1   
 46  22  47  1   
 47  22  48  1   
 48  23  49  1   
 49  23  50  1   
 50  23  51  1   
 51  24  52  1   
 52  24  53  1   
 53  24  54  1   
 54  25  29  ar  
 55  25  55  1   
 56  26  30  ar  
 57  26  56  1   
 58  28  57  1   
 59  29  31  ar  
 60  29  58  1   
 61  30  31  ar  
 62  30  59  1   
 63  31  60  1   
@<TRIPOS>SUBSTRUCTURE
  1 ****   2 GROUP 4 **** **** 0

# MOE 2024.06 (io_trps.svl 2023.06)
