@<TRIPOS>MOLECULE
NONAME
38 39 1 0 0 
SMALL
USER_CHARGES


@<TRIPOS>ATOM
  1 O        1.4680    -0.5080     1.1420 O.3   1 <1>  -0.0190 
  2 N        0.4110    -1.2540     1.2360 N.2   1 <1>  -0.4100 
  3 C        2.0620    -0.9350     0.0570 C.2   1 <1>   0.2980 
  4 C        0.4180    -2.0590     0.2450 C.2   1 <1>   0.3350 
  5 N        1.4740    -1.8900    -0.5480 N.2   1 <1>  -0.5650 
  6 C        3.3670    -0.2690    -0.3610 C.3   1 <1>   0.3890 
  7 C       -0.6510    -3.1340    -0.0550 C.3   1 <1>   0.1810 
  8 N        3.1980     1.1820    -0.6300 N.pl3 1 <1>  -0.8690 
  9 C       -1.2930    -2.8650    -1.4270 C.3   1 <1>  -0.2400 
 10 C       -0.0020    -4.5280    -0.0730 C.3   1 <1>  -0.2400 
 11 C       -1.7670    -3.1360     1.0070 C.3   1 <1>  -0.2400 
 12 C        4.1490     2.0880    -0.3300 C.ar  1 <1>   0.7200 
 13 N        3.6880     3.3070    -0.1050 N.ar  1 <1>  -0.6200 
 14 N        5.4090     1.6750    -0.2830 N.ar  1 <1>  -0.6200 
 15 C        4.5900     4.2090     0.1880 C.ar  1 <1>   0.1660 
 16 C        6.2950     2.5940     0.0100 C.ar  1 <1>   0.1670 
 17 C        5.9290     3.8970     0.2580 C.ar  1 <1>  -0.1500 
 18 C        4.0950     5.6160     0.4460 C.3   1 <1>  -0.0970 
 19 C        7.7440     2.1600     0.0650 C.3   1 <1>  -0.0970 
 20 H        3.7350    -0.7450    -1.2530 H     1 <1>   0.0800 
 21 H        4.0900    -0.4160     0.4220 H     1 <1>   0.0800 
 22 H        2.2580     1.5500    -0.4910 H     1 <1>   0.4000 
 23 H       -0.5470    -2.8960    -2.2010 H     1 <1>   0.0800 
 24 H       -1.7460    -1.8890    -1.4370 H     1 <1>   0.0800 
 25 H       -2.0470    -3.5990    -1.6480 H     1 <1>   0.0800 
 26 H        0.7560    -4.5770    -0.8340 H     1 <1>   0.0800 
 27 H       -0.7350    -5.2900    -0.2700 H     1 <1>   0.0800 
 28 H        0.4610    -4.7310     0.8770 H     1 <1>   0.0800 
 29 H       -2.2540    -2.1770     1.0370 H     1 <1>   0.0800 
 30 H       -1.3540    -3.3340     1.9810 H     1 <1>   0.0800 
 31 H       -2.5040    -3.8870     0.7880 H     1 <1>   0.0800 
 32 H        6.6610     4.6440     0.4980 H     1 <1>   0.1500 
 33 H        3.5860     5.9820    -0.4270 H     1 <1>   0.0800 
 34 H        4.9090     6.2780     0.6770 H     1 <1>   0.0800 
 35 H        3.4060     5.6090     1.2700 H     1 <1>   0.0800 
 36 H        7.8620     1.3970     0.8120 H     1 <1>   0.0800 
 37 H        8.3860     2.9860     0.3060 H     1 <1>   0.0800 
 38 H        8.0340     1.7600    -0.8890 H     1 <1>   0.0800 
@<TRIPOS>BOND
  1   1   2  1   
  2   1   3  1   
  3   2   4  2   
  4   3   5  2   
  5   3   6  1   
  6   4   5  1   
  7   4   7  1   
  8   6   8  1   
  9   6  20  1   
 10   6  21  1   
 11   7   9  1   
 12   7  10  1   
 13   7  11  1   
 14   8  12  1   
 15   8  22  1   
 16   9  23  1   
 17   9  24  1   
 18   9  25  1   
 19  10  26  1   
 20  10  27  1   
 21  10  28  1   
 22  11  29  1   
 23  11  30  1   
 24  11  31  1   
 25  12  13  ar  
 26  12  14  ar  
 27  13  15  ar  
 28  14  16  ar  
 29  15  17  ar  
 30  15  18  1   
 31  16  17  ar  
 32  16  19  1   
 33  17  32  1   
 34  18  33  1   
 35  18  34  1   
 36  18  35  1   
 37  19  36  1   
 38  19  37  1   
 39  19  38  1   
@<TRIPOS>SUBSTRUCTURE
  1 ****   6 GROUP 4 **** **** 0

# MOE 2024.06 (io_trps.svl 2023.06)
