@<TRIPOS>MOLECULE
NONAME
59 63 1 0 0 
SMALL
USER_CHARGES


@<TRIPOS>ATOM
  1 O       -2.2260     0.5030    -1.6470 O.2   1 <1>  -0.5700 
  2 C       -2.5540     0.7490    -0.4980 C.2   1 <1>   0.5440 
  3 N       -3.2680    -0.2400     0.1650 N.am  1 <1>  -0.6600 
  4 C       -2.1960     2.0470     0.0860 C.ar  1 <1>   0.3960 
  5 C       -4.2830     0.0340     1.2150 C.3   1 <1>   0.1400 
  6 C       -3.0970    -1.6720    -0.1900 C.3   1 <1>   0.1400 
  7 N       -2.1470     2.2160     1.4210 N.ar  1 <1>  -0.6200 
  8 C       -1.8890     3.1060    -0.7790 C.ar  1 <1>   0.1600 
  9 C       -5.6330    -0.5130     0.7480 C.3   1 <1>  -0.1600 
 10 C       -4.4300    -2.2150    -0.7000 C.3   1 <1>  -0.1600 
 11 C       -1.7950     3.4350     1.7860 C.ar  1 <1>   0.1600 
 12 N       -1.5460     4.3320    -0.4140 N.ar  1 <1>  -0.6200 
 13 C       -5.5230    -1.9900     0.3540 C.3   1 <1>   0.4230 
 14 C       -1.5040     4.4610     0.8990 C.ar  1 <1>   0.1600 
 15 N       -6.8510    -2.4810    -0.1070 N.4   1 <1>  -0.9590 
 16 C       -7.4030    -1.8990    -1.3680 C.3   1 <1>   0.3430 
 17 C       -6.9680    -3.9650    -0.2480 C.3   1 <1>   0.3430 
 18 C       -8.5330    -2.8590    -1.7380 C.3   1 <1>   0.2000 
 19 C       -7.9010    -4.2210    -1.4420 C.3   1 <1>  -0.0800 
 20 O       -9.5840    -2.6310    -0.8550 O.3   1 <1>  -0.6800 
 21 C       -8.8700    -5.4050    -1.2410 C.3   1 <1>  -0.0170 
 22 C       -8.0890    -6.6450    -0.8190 C.ar  1 <1>  -0.1430 
 23 C       -7.9020    -7.0250     0.5350 C.ar  1 <1>   0.0000 
 24 C       -7.5120    -7.4250    -1.7780 C.ar  1 <1>  -0.1500 
 25 C       -7.0810    -8.1510     0.7900 C.ar  1 <1>   0.3100 
 26 C       -8.4730    -6.3630     1.6500 C.ar  1 <1>  -0.1500 
 27 C       -6.7370    -8.5330    -1.4170 C.ar  1 <1>   0.1600 
 28 N       -6.5060    -8.8850    -0.1940 N.ar  1 <1>  -0.6200 
 29 C       -6.8410    -8.5350     2.1180 C.ar  1 <1>  -0.1500 
 30 C       -8.2220    -6.7670     2.9330 C.ar  1 <1>  -0.1500 
 31 C       -7.3910    -7.8630     3.1730 C.ar  1 <1>  -0.1500 
 32 H       -3.9740    -0.4320     2.1360 H     1 <1>   0.0800 
 33 H       -4.3800     1.0920     1.3890 H     1 <1>   0.0800 
 34 H       -2.3390    -1.7900    -0.9470 H     1 <1>   0.0800 
 35 H       -2.7750    -2.2150     0.6820 H     1 <1>   0.0800 
 36 H       -1.9330     2.9200    -1.8390 H     1 <1>   0.1500 
 37 H       -5.9560     0.0800    -0.0890 H     1 <1>   0.0800 
 38 H       -6.3430    -0.3970     1.5460 H     1 <1>   0.0800 
 39 H       -4.3090    -3.2610    -0.9070 H     1 <1>   0.0800 
 40 H       -4.6570    -1.7020    -1.6160 H     1 <1>   0.0800 
 41 H       -1.7300     3.6360     2.8410 H     1 <1>   0.1500 
 42 H       -5.2430    -2.5410     1.2390 H     1 <1>   0.0800 
 43 H       -1.2270     5.4250     1.2900 H     1 <1>   0.1500 
 44 H       -7.5530    -2.2260     0.6040 H     1 <1>   0.4500 
 45 H       -7.7720    -0.8970    -1.2260 H     1 <1>   0.0800 
 46 H       -6.6570    -1.9060    -2.1440 H     1 <1>   0.0800 
 47 H       -6.0100    -4.4240    -0.4280 H     1 <1>   0.0800 
 48 H       -7.3850    -4.3800     0.6540 H     1 <1>   0.0800 
 49 H       -8.8780    -2.7360    -2.7520 H     1 <1>   0.0800 
 50 H       -7.2640    -4.4690    -2.2740 H     1 <1>   0.0800 
 51 H      -10.4260    -3.0020    -1.1990 H     1 <1>   0.4000 
 52 H       -9.3730    -5.6060    -2.1720 H     1 <1>   0.0800 
 53 H       -9.6370    -5.1780    -0.5250 H     1 <1>   0.0800 
 54 H       -7.6250    -7.2150    -2.8270 H     1 <1>   0.1500 
 55 H       -9.1300    -5.5280     1.5040 H     1 <1>   0.1500 
 56 H       -6.3010    -9.1250    -2.2050 H     1 <1>   0.1500 
 57 H       -6.2060    -9.3880     2.2790 H     1 <1>   0.1500 
 58 H       -8.6630    -6.2570     3.7730 H     1 <1>   0.1500 
 59 H       -7.2000    -8.1720     4.1870 H     1 <1>   0.1500 
@<TRIPOS>BOND
  1   1   2  2   
  2   2   3  am  
  3   2   4  1   
  4   3   5  1   
  5   3   6  1   
  6   4   7  ar  
  7   4   8  ar  
  8   5   9  1   
  9   5  32  1   
 10   5  33  1   
 11   6  10  1   
 12   6  34  1   
 13   6  35  1   
 14   7  11  ar  
 15   8  12  ar  
 16   8  36  1   
 17   9  13  1   
 18   9  37  1   
 19   9  38  1   
 20  10  13  1   
 21  10  39  1   
 22  10  40  1   
 23  11  14  ar  
 24  11  41  1   
 25  12  14  ar  
 26  13  15  1   
 27  13  42  1   
 28  14  43  1   
 29  15  16  1   
 30  15  17  1   
 31  15  44  1   
 32  16  18  1   
 33  16  45  1   
 34  16  46  1   
 35  17  19  1   
 36  17  47  1   
 37  17  48  1   
 38  18  19  1   
 39  18  20  1   
 40  18  49  1   
 41  19  21  1   
 42  19  50  1   
 43  20  51  1   
 44  21  22  1   
 45  21  52  1   
 46  21  53  1   
 47  22  23  ar  
 48  22  24  ar  
 49  23  25  ar  
 50  23  26  ar  
 51  24  27  ar  
 52  24  54  1   
 53  25  28  ar  
 54  25  29  ar  
 55  26  30  ar  
 56  26  55  1   
 57  27  28  ar  
 58  27  56  1   
 59  29  31  ar  
 60  29  57  1   
 61  30  31  ar  
 62  30  58  1   
 63  31  59  1   
@<TRIPOS>SUBSTRUCTURE
  1 ****  13 GROUP 4 **** **** 0

# MOE 2024.06 (io_trps.svl 2023.06)
