@<TRIPOS>MOLECULE
NONAME
53 56 1 0 0 
SMALL
USER_CHARGES


@<TRIPOS>ATOM
  1 O       -1.0150    -0.1690     0.7310 O.3   1 <1>  -0.5600 
  2 C       -0.2100    -1.2740     0.4660 C.3   1 <1>   0.2800 
  3 C       -1.9130     0.2420    -0.2630 C.3   1 <1>   0.1200 
  4 C       -1.1110    -2.4880     0.1240 C.3   1 <1>  -0.1600 
  5 C        0.5450    -1.5370     1.7750 C.3   1 <1>  -0.1600 
  6 C        0.8310    -0.8890    -0.6040 C.3   1 <1>  -0.1600 
  7 C       -2.9070    -0.8810    -0.5680 C.3   1 <1>  -0.1600 
  8 C       -2.1970    -2.1910    -0.9120 C.3   1 <1>   0.2800 
  9 C        1.6060    -2.6200     1.6050 C.3   1 <1>   0.3430 
 10 C        1.8730    -1.9850    -0.7760 C.3   1 <1>   0.3430 
 11 O       -1.5940    -2.0650    -2.1400 O.3   1 <1>  -0.6800 
 12 C       -3.1840    -3.3490    -1.0420 C.3   1 <1>  -0.2400 
 13 N        2.5600    -2.2290     0.5290 N.4   1 <1>  -0.9590 
 14 C        3.6460    -3.2210     0.3830 C.3   1 <1>   0.5230 
 15 C        4.7680    -2.6020    -0.4150 C.2   1 <1>  -0.3320 
 16 N        5.7050    -3.4060    -0.9790 N.pl3 1 <1>   0.5930 
 17 C        5.0940    -1.3240    -0.7200 C.2   1 <1>  -0.1500 
 18 N        6.6100    -2.6630    -1.6470 N.2   1 <1>  -0.7070 
 19 C        5.7300    -4.8220    -0.9080 C.ar  1 <1>  -0.0230 
 20 C        6.2470    -1.4320    -1.4870 C.2   1 <1>   0.1390 
 21 C        5.1300    -5.5890    -1.9010 C.ar  1 <1>  -0.1500 
 22 C        6.3250    -5.4640     0.1740 C.ar  1 <1>  -0.1500 
 23 C        5.1010    -6.9680    -1.8000 C.ar  1 <1>  -0.1500 
 24 C        6.2950    -6.8430     0.2740 C.ar  1 <1>  -0.1500 
 25 C        5.6790    -7.5950    -0.7110 C.ar  1 <1>  -0.1500 
 26 H       -1.3680     0.5330    -1.1430 H     1 <1>   0.0800 
 27 H       -2.4360     1.1060     0.1100 H     1 <1>   0.0800 
 28 H       -1.6120    -2.7870     1.0270 H     1 <1>   0.0800 
 29 H       -0.5320    -3.3310    -0.2020 H     1 <1>   0.0800 
 30 H       -0.1470    -1.8390     2.5400 H     1 <1>   0.0800 
 31 H        1.0180    -0.6300     2.1110 H     1 <1>   0.0800 
 32 H        1.3220     0.0240    -0.3200 H     1 <1>   0.0800 
 33 H        0.3740    -0.7200    -1.5580 H     1 <1>   0.0800 
 34 H       -3.5620    -0.5860    -1.3680 H     1 <1>   0.0800 
 35 H       -3.5160    -1.0250     0.3060 H     1 <1>   0.0800 
 36 H        1.1290    -3.5530     1.3520 H     1 <1>   0.0800 
 37 H        2.1330    -2.7510     2.5370 H     1 <1>   0.0800 
 38 H        2.5890    -1.6820    -1.5230 H     1 <1>   0.0800 
 39 H        1.3910    -2.8870    -1.1190 H     1 <1>   0.0800 
 40 H       -2.2830    -1.9660    -2.8260 H     1 <1>   0.4000 
 41 H       -3.6820    -3.5180    -0.1040 H     1 <1>   0.0800 
 42 H       -2.6720    -4.2540    -1.3180 H     1 <1>   0.0800 
 43 H       -3.9360    -3.1300    -1.7790 H     1 <1>   0.0800 
 44 H        3.0090    -1.3490     0.8080 H     1 <1>   0.4500 
 45 H        3.2740    -4.1020    -0.1170 H     1 <1>   0.0800 
 46 H        4.0200    -3.5130     1.3520 H     1 <1>   0.0800 
 47 H        4.6230    -0.3900    -0.4640 H     1 <1>   0.1500 
 48 H        6.7860    -0.5960    -1.9080 H     1 <1>   0.1500 
 49 H        4.6920    -5.1090    -2.7600 H     1 <1>   0.1500 
 50 H        6.8210    -4.8870     0.9370 H     1 <1>   0.1500 
 51 H        4.6360    -7.5580    -2.5730 H     1 <1>   0.1500 
 52 H        6.7580    -7.3360     1.1130 H     1 <1>   0.1500 
 53 H        5.6590    -8.6700    -0.6340 H     1 <1>   0.1500 
@<TRIPOS>BOND
  1   1   2  1   
  2   1   3  1   
  3   2   4  1   
  4   2   5  1   
  5   2   6  1   
  6   3   7  1   
  7   3  26  1   
  8   3  27  1   
  9   4   8  1   
 10   4  28  1   
 11   4  29  1   
 12   5   9  1   
 13   5  30  1   
 14   5  31  1   
 15   6  10  1   
 16   6  32  1   
 17   6  33  1   
 18   7   8  1   
 19   7  34  1   
 20   7  35  1   
 21   8  11  1   
 22   8  12  1   
 23   9  13  1   
 24   9  36  1   
 25   9  37  1   
 26  10  13  1   
 27  10  38  1   
 28  10  39  1   
 29  11  40  1   
 30  12  41  1   
 31  12  42  1   
 32  12  43  1   
 33  13  14  1   
 34  13  44  1   
 35  14  15  1   
 36  14  45  1   
 37  14  46  1   
 38  15  16  1   
 39  15  17  2   
 40  16  18  1   
 41  16  19  1   
 42  17  20  1   
 43  17  47  1   
 44  18  20  2   
 45  19  21  ar  
 46  19  22  ar  
 47  20  48  1   
 48  21  23  ar  
 49  21  49  1   
 50  22  24  ar  
 51  22  50  1   
 52  23  25  ar  
 53  23  51  1   
 54  24  25  ar  
 55  24  52  1   
 56  25  53  1   
@<TRIPOS>SUBSTRUCTURE
  1 ****  10 GROUP 4 **** **** 0

# MOE 2024.06 (io_trps.svl 2023.06)
