@<TRIPOS>MOLECULE
NONAME
39 40 1 0 0 
SMALL
USER_CHARGES


@<TRIPOS>ATOM
  1 O        1.4130     0.6440     1.2410 O.2   1 <1>  -0.5700 
  2 C        1.6520     1.5660     0.5070 C.2   1 <1>   0.5690 
  3 N        0.8570     2.6220     0.3060 N.am  1 <1>  -0.7300 
  4 C        2.9180     1.7110    -0.2890 C.3   1 <1>  -0.0990 
  5 C        1.4410     3.6700    -0.5560 C.3   1 <1>   0.2810 
  6 C        2.9090     3.2010    -0.6860 C.3   1 <1>  -0.1600 
  7 C        1.2590     5.1080    -0.0230 C.2   1 <1>   0.5690 
  8 O        0.3410     5.3310     0.7340 O.2   1 <1>  -0.5700 
  9 N        2.1280     6.0770    -0.4410 N.am  1 <1>  -0.4930 
 10 C        2.1900     7.4470    -0.0830 C.2   1 <1>   0.0630 
 11 C        1.1650     8.3900     0.0520 C.2   1 <1>   0.1080 
 12 C        3.3250     8.1340     0.1760 C.2   1 <1>  -0.3320 
 13 N        1.6190     9.5620     0.3680 N.2   1 <1>  -0.7070 
 14 C       -0.3150     8.1510    -0.1460 C.3   1 <1>  -0.0590 
 15 N        2.9510     9.4100     0.4500 N.pl3 1 <1>   0.3140 
 16 C        4.7680     7.6470     0.1930 C.3   1 <1>  -0.0600 
 17 C        3.8190    10.5520     0.8080 C.3   1 <1>   0.0960 
 18 C        4.3120    11.2830    -0.4490 C.3   1 <1>  -0.1600 
 19 C        5.2260    12.4600    -0.0890 C.3   1 <1>  -0.2400 
 20 H        0.0490     2.8350     0.8990 H     1 <1>   0.3700 
 21 H        2.8600     1.0730    -1.1510 H     1 <1>   0.0800 
 22 H        3.7750     1.4540     0.3060 H     1 <1>   0.0800 
 23 H        0.9570     3.6090    -1.5150 H     1 <1>   0.0800 
 24 H        3.2910     3.3550    -1.6800 H     1 <1>   0.0800 
 25 H        3.5220     3.7430     0.0130 H     1 <1>   0.0800 
 26 H        2.9070     5.7830    -1.0240 H     1 <1>   0.3700 
 27 H       -0.4760     7.4150    -0.9100 H     1 <1>   0.0800 
 28 H       -0.7960     9.0670    -0.4370 H     1 <1>   0.0800 
 29 H       -0.7470     7.8080     0.7750 H     1 <1>   0.0800 
 30 H        4.8200     6.5970    -0.0250 H     1 <1>   0.0800 
 31 H        5.1990     7.8090     1.1650 H     1 <1>   0.0800 
 32 H        5.3490     8.1780    -0.5400 H     1 <1>   0.0800 
 33 H        4.6480    10.1890     1.3840 H     1 <1>   0.0800 
 34 H        3.2460    11.2230     1.4210 H     1 <1>   0.0800 
 35 H        3.4600    11.6510    -0.9960 H     1 <1>   0.0800 
 36 H        4.8500    10.5970    -1.0800 H     1 <1>   0.0800 
 37 H        4.7000    13.1710     0.5240 H     1 <1>   0.0800 
 38 H        5.5520    12.9590    -0.9850 H     1 <1>   0.0800 
 39 H        6.0950    12.1160     0.4450 H     1 <1>   0.0800 
@<TRIPOS>BOND
  1   1   2  2   
  2   2   3  am  
  3   2   4  1   
  4   3   5  1   
  5   3  20  1   
  6   4   6  1   
  7   4  21  1   
  8   4  22  1   
  9   5   6  1   
 10   5   7  1   
 11   5  23  1   
 12   6  24  1   
 13   6  25  1   
 14   7   8  2   
 15   7   9  am  
 16   9  10  1   
 17   9  26  1   
 18  10  11  1   
 19  10  12  2   
 20  11  13  2   
 21  11  14  1   
 22  12  15  1   
 23  12  16  1   
 24  13  15  1   
 25  14  27  1   
 26  14  28  1   
 27  14  29  1   
 28  15  17  1   
 29  16  30  1   
 30  16  31  1   
 31  16  32  1   
 32  17  18  1   
 33  17  33  1   
 34  17  34  1   
 35  18  19  1   
 36  18  35  1   
 37  18  36  1   
 38  19  37  1   
 39  19  38  1   
 40  19  39  1   
@<TRIPOS>SUBSTRUCTURE
  1 ****   9 GROUP 4 **** **** 0

# MOE 2024.06 (io_trps.svl 2023.06)
