@<TRIPOS>MOLECULE
NONAME
48 50 1 0 0 
SMALL
USER_CHARGES


@<TRIPOS>ATOM
  1 CL      -1.0320    -1.4950     1.2690 Cl    1 <1>  -0.1770 
  2 C       -1.7860    -0.1130     0.5150 C.ar  1 <1>   0.1770 
  3 C       -1.7920     1.0980     1.1830 C.ar  1 <1>  -0.1500 
  4 C       -2.3600    -0.2510    -0.7330 C.ar  1 <1>  -0.1500 
  5 C       -2.3820     2.2140     0.6020 C.ar  1 <1>  -0.1440 
  6 C       -2.9490     0.8530    -1.3210 C.ar  1 <1>  -0.1500 
  7 C       -2.9650     2.0740    -0.6620 C.ar  1 <1>   0.0830 
  8 C       -2.3630     3.5140     1.4050 C.3   1 <1>   0.4870 
  9 O       -3.5180     3.1100    -1.3250 O.3   1 <1>  -0.3630 
 10 N       -1.8480     4.6860     0.6440 N.4   1 <1>  -0.9590 
 11 C       -4.8530     3.5010    -0.9890 C.3   1 <1>   0.0140 
 12 C       -0.6570     4.4020    -0.1930 C.3   1 <1>   0.3430 
 13 C       -1.7850     5.8820     1.5210 C.3   1 <1>   0.3430 
 14 C       -4.8420     4.6440     0.0050 C.2   1 <1>   0.9060 
 15 C       -0.2540     5.6430    -0.9800 C.3   1 <1>  -0.1600 
 16 C       -1.3390     7.1100     0.7330 C.3   1 <1>  -0.1600 
 17 O       -4.2070     5.6670    -0.2800 O.co2 1 <1>  -0.9000 
 18 O       -5.2500     4.4580     1.1530 O.co2 1 <1>  -0.9000 
 19 C       -0.0500     6.8230    -0.0370 C.3   1 <1>   0.2000 
 20 O        0.2900     7.9470    -0.8140 O.3   1 <1>  -0.3630 
 21 C        1.0000     8.9290    -0.2100 C.ar  1 <1>   0.0830 
 22 C        0.4150    10.1470     0.1180 C.ar  1 <1>   0.1900 
 23 C        2.3440     8.7390     0.0780 C.ar  1 <1>  -0.1500 
 24 F       -0.8510    10.3540    -0.1480 F     1 <1>  -0.1900 
 25 C        1.1260    11.1590     0.7330 C.ar  1 <1>  -0.1500 
 26 C        3.0700     9.7460     0.6960 C.ar  1 <1>  -0.1500 
 27 C        2.4650    10.9520     1.0250 C.ar  1 <1>  -0.1500 
 28 H       -1.3370     1.1460     2.1560 H     1 <1>   0.1500 
 29 H       -2.3430    -1.2040    -1.2320 H     1 <1>   0.1500 
 30 H       -3.3990     0.7760    -2.2950 H     1 <1>   0.1500 
 31 H       -1.7370     3.3650     2.2670 H     1 <1>   0.0800 
 32 H       -3.3520     3.7200     1.7740 H     1 <1>   0.0800 
 33 H       -2.6410     4.9370    -0.0040 H     1 <1>   0.4500 
 34 H       -5.3800     2.6610    -0.5780 H     1 <1>   0.0800 
 35 H       -5.3370     3.8310    -1.8870 H     1 <1>   0.0800 
 36 H       -0.8810     3.6040    -0.8840 H     1 <1>   0.0800 
 37 H        0.1600     4.0890     0.4350 H     1 <1>   0.0800 
 38 H       -1.0990     5.7040     2.3320 H     1 <1>   0.0800 
 39 H       -2.7670     6.0690     1.9320 H     1 <1>   0.0800 
 40 H       -1.0260     5.8710    -1.6950 H     1 <1>   0.0800 
 41 H        0.6570     5.4420    -1.5140 H     1 <1>   0.0800 
 42 H       -1.1890     7.9250     1.4180 H     1 <1>   0.0800 
 43 H       -2.1240     7.3860     0.0500 H     1 <1>   0.0800 
 44 H        0.7590     6.6170     0.6430 H     1 <1>   0.0800 
 45 H        2.8220     7.8130    -0.1870 H     1 <1>   0.1500 
 46 H        0.6410    12.0880     0.9750 H     1 <1>   0.1500 
 47 H        4.1130     9.5960     0.9190 H     1 <1>   0.1500 
 48 H        3.0380    11.7280     1.5040 H     1 <1>   0.1500 
@<TRIPOS>BOND
  1   1   2  1   
  2   2   3  ar  
  3   2   4  ar  
  4   3   5  ar  
  5   3  28  1   
  6   4   6  ar  
  7   4  29  1   
  8   5   7  ar  
  9   5   8  1   
 10   6   7  ar  
 11   6  30  1   
 12   7   9  1   
 13   8  10  1   
 14   8  31  1   
 15   8  32  1   
 16   9  11  1   
 17  10  12  1   
 18  10  13  1   
 19  10  33  1   
 20  11  14  1   
 21  11  34  1   
 22  11  35  1   
 23  12  15  1   
 24  12  36  1   
 25  12  37  1   
 26  13  16  1   
 27  13  38  1   
 28  13  39  1   
 29  14  17  ar  
 30  14  18  ar  
 31  15  19  1   
 32  15  40  1   
 33  15  41  1   
 34  16  19  1   
 35  16  42  1   
 36  16  43  1   
 37  19  20  1   
 38  19  44  1   
 39  20  21  1   
 40  21  22  ar  
 41  21  23  ar  
 42  22  24  1   
 43  22  25  ar  
 44  23  26  ar  
 45  23  45  1   
 46  25  27  ar  
 47  25  46  1   
 48  26  27  ar  
 49  26  47  1   
 50  27  48  1   
@<TRIPOS>SUBSTRUCTURE
  1 ****  10 GROUP 4 **** **** 0

# MOE 2024.06 (io_trps.svl 2023.06)
