@<TRIPOS>MOLECULE
NONAME
54 56 1 0 0 
SMALL
USER_CHARGES


@<TRIPOS>ATOM
  1 O        0.3540    -0.0520    -0.7220 O.2   1 <1>  -0.5700 
  2 C        1.2790    -0.4920    -0.0660 C.2   1 <1>   0.5440 
  3 N        2.1320     0.3810     0.5810 N.am  1 <1>  -0.6600 
  4 C        1.4730    -1.9270     0.0020 C.ar  1 <1>   0.0860 
  5 C        3.3070    -0.0840     1.3780 C.3   1 <1>   0.1400 
  6 C        1.9720     1.8580     0.4540 C.3   1 <1>   0.1400 
  7 C        1.0910    -2.6590     1.1240 C.ar  1 <1>  -0.1500 
  8 C        2.0580    -2.6190    -1.0550 C.ar  1 <1>  -0.1500 
  9 C        4.5470    -0.2670     0.4880 C.3   1 <1>   0.1100 
 10 C        3.2990     2.5960     0.2340 C.3   1 <1>  -0.1600 
 11 C        1.3070    -4.0230     1.1980 C.ar  1 <1>  -0.1500 
 12 C        2.2760    -3.9830    -0.9860 C.ar  1 <1>  -0.1500 
 13 N        5.1790     1.0030     0.0690 N.3   1 <1>  -0.8100 
 14 C        4.2740     1.8770    -0.7030 C.3   1 <1>   0.1100 
 15 C        1.9060    -4.6940     0.1440 C.ar  1 <1>  -0.1430 
 16 C        6.4470     0.7310    -0.6600 C.3   1 <1>   0.2900 
 17 C        2.1440    -6.1940     0.2220 C.3   1 <1>  -0.0170 
 18 C        7.4600     1.8750    -0.6140 C.2   1 <1>   0.2980 
 19 C        0.9390    -6.9610    -0.3340 C.3   1 <1>  -0.1600 
 20 O        7.2560     2.9380    -1.3540 O.3   1 <1>  -0.0190 
 21 N        8.5370     1.8870     0.0690 N.2   1 <1>  -0.5650 
 22 C        1.1540    -8.4770    -0.2670 C.3   1 <1>  -0.2400 
 23 N        8.2830     3.6940    -1.1130 N.2   1 <1>  -0.4100 
 24 C        9.0180     3.0720    -0.2810 C.2   1 <1>   0.3350 
 25 C       10.3250     3.5940     0.2860 C.3   1 <1>   0.0210 
 26 C       11.5390     2.8450    -0.2810 C.3   1 <1>  -0.2400 
 27 H        3.0760    -1.0240     1.8450 H     1 <1>   0.0800 
 28 H        3.5260     0.6150     2.1650 H     1 <1>   0.0800 
 29 H        1.4910     2.2360     1.3390 H     1 <1>   0.0800 
 30 H        1.3270     2.0760    -0.3810 H     1 <1>   0.0800 
 31 H        0.6190    -2.1460     1.9440 H     1 <1>   0.1500 
 32 H        2.3390    -2.0730    -1.9380 H     1 <1>   0.1500 
 33 H        4.2850    -0.8540    -0.3750 H     1 <1>   0.0800 
 34 H        5.2660    -0.8280     1.0600 H     1 <1>   0.0800 
 35 H        3.7800     2.7920     1.1760 H     1 <1>   0.0800 
 36 H        3.0620     3.5520    -0.1940 H     1 <1>   0.0800 
 37 H        1.0030    -4.5640     2.0770 H     1 <1>   0.1500 
 38 H        2.7300    -4.4930    -1.8180 H     1 <1>   0.1500 
 39 H        4.8470     2.6340    -1.2060 H     1 <1>   0.0800 
 40 H        3.7430     1.3140    -1.4540 H     1 <1>   0.0800 
 41 H        6.2350     0.4850    -1.6850 H     1 <1>   0.0800 
 42 H        6.9320    -0.1200    -0.2150 H     1 <1>   0.0800 
 43 H        2.3150    -6.4800     1.2450 H     1 <1>   0.0800 
 44 H        3.0270    -6.4490    -0.3390 H     1 <1>   0.0800 
 45 H        0.7720    -6.6680    -1.3560 H     1 <1>   0.0800 
 46 H        0.0600    -6.7000     0.2310 H     1 <1>   0.0800 
 47 H        2.0150    -8.7620    -0.8460 H     1 <1>   0.0800 
 48 H        0.2940    -8.9870    -0.6630 H     1 <1>   0.0800 
 49 H        1.2990    -8.7930     0.7510 H     1 <1>   0.0800 
 50 H       10.3010     3.4890     1.3560 H     1 <1>   0.0800 
 51 H       10.4110     4.6400     0.0560 H     1 <1>   0.0800 
 52 H       11.4730     1.7990    -0.0370 H     1 <1>   0.0800 
 53 H       12.4480     3.2420     0.1340 H     1 <1>   0.0800 
 54 H       11.5690     2.9490    -1.3510 H     1 <1>   0.0800 
@<TRIPOS>BOND
  1   1   2  2   
  2   2   3  am  
  3   2   4  1   
  4   3   5  1   
  5   3   6  1   
  6   4   7  ar  
  7   4   8  ar  
  8   5   9  1   
  9   5  27  1   
 10   5  28  1   
 11   6  10  1   
 12   6  29  1   
 13   6  30  1   
 14   7  11  ar  
 15   7  31  1   
 16   8  12  ar  
 17   8  32  1   
 18   9  13  1   
 19   9  33  1   
 20   9  34  1   
 21  10  14  1   
 22  10  35  1   
 23  10  36  1   
 24  11  15  ar  
 25  11  37  1   
 26  12  15  ar  
 27  12  38  1   
 28  13  14  1   
 29  13  16  1   
 30  14  39  1   
 31  14  40  1   
 32  15  17  1   
 33  16  18  1   
 34  16  41  1   
 35  16  42  1   
 36  17  19  1   
 37  17  43  1   
 38  17  44  1   
 39  18  20  1   
 40  18  21  2   
 41  19  22  1   
 42  19  45  1   
 43  19  46  1   
 44  20  23  1   
 45  21  24  1   
 46  22  47  1   
 47  22  48  1   
 48  22  49  1   
 49  23  24  2   
 50  24  25  1   
 51  25  26  1   
 52  25  50  1   
 53  25  51  1   
 54  26  52  1   
 55  26  53  1   
 56  26  54  1   
@<TRIPOS>SUBSTRUCTURE
  1 ****   9 GROUP 4 **** **** 0

# MOE 2024.06 (io_trps.svl 2023.06)
