@<TRIPOS>MOLECULE
NONAME
44 45 1 0 0 
SMALL
USER_CHARGES


@<TRIPOS>ATOM
  1 S        0.4980     0.1160    -0.0060 S.o2  1 <1>   1.3330 
  2 O       -0.4280    -0.0480     1.0920 O.2   1 <1>  -0.6500 
  3 O        1.9210     0.0940     0.2450 O.2   1 <1>  -0.6500 
  4 N        0.1570    -1.0680    -1.1750 N.am  1 <1>  -0.8490 
  5 C        0.0770     1.6400    -0.8480 C.3   1 <1>  -0.0550 
  6 C        1.2540    -1.2800    -2.1260 C.3   1 <1>   0.1160 
  7 C       -0.2340    -2.3460    -0.5720 C.3   1 <1>   0.1160 
  8 C        0.2030     2.8840     0.0480 C.3   1 <1>  -0.0800 
  9 C       -0.2780     4.1510    -0.6510 C.3   1 <1>   0.2000 
 10 C        1.6360     3.2190     0.4710 C.3   1 <1>   0.1400 
 11 O       -1.6560     4.2540    -0.5500 O.3   1 <1>  -0.6800 
 12 C        0.4330     5.3030     0.0550 C.3   1 <1>   0.1400 
 13 N        1.6520     4.6930     0.6440 N.am  1 <1>  -0.6600 
 14 C        2.6990     5.3370     1.2520 C.2   1 <1>   0.5690 
 15 O        3.6440     4.7150     1.6750 O.2   1 <1>  -0.5700 
 16 C        2.7080     6.8500     1.4440 C.3   1 <1>   0.0440 
 17 C        3.8570     7.5190     0.6860 C.ar  1 <1>  -0.1440 
 18 C        3.7970     7.7450    -0.6820 C.ar  1 <1>   0.1900 
 19 C        5.0240     7.9300     1.3150 C.ar  1 <1>   0.1900 
 20 F        2.7250     7.3940    -1.3420 F     1 <1>  -0.1900 
 21 C        4.8260     8.3370    -1.3960 C.ar  1 <1>  -0.1500 
 22 F        5.1540     7.7670     2.6050 F     1 <1>  -0.1900 
 23 C        6.0760     8.5250     0.6380 C.ar  1 <1>  -0.1500 
 24 C        5.9760     8.7290    -0.7290 C.ar  1 <1>  -0.1500 
 25 H        0.7020     1.7570    -1.7120 H     1 <1>   0.0800 
 26 H       -0.9390     1.5690    -1.1870 H     1 <1>   0.0800 
 27 H        0.9490    -1.9720    -2.8930 H     1 <1>   0.0800 
 28 H        2.1200    -1.6760    -1.6210 H     1 <1>   0.0800 
 29 H        1.5230    -0.3510    -2.5960 H     1 <1>   0.0800 
 30 H       -0.4580    -3.0680    -1.3390 H     1 <1>   0.0800 
 31 H       -1.1160    -2.2150     0.0320 H     1 <1>   0.0800 
 32 H        0.5590    -2.7240     0.0520 H     1 <1>   0.0800 
 33 H       -0.3680     2.7350     0.9490 H     1 <1>   0.0800 
 34 H       -0.0130     4.1500    -1.6950 H     1 <1>   0.0800 
 35 H        2.3430     2.9520    -0.2970 H     1 <1>   0.0800 
 36 H        1.9080     2.7210     1.3880 H     1 <1>   0.0800 
 37 H       -1.9410     4.1690     0.3810 H     1 <1>   0.4000 
 38 H       -0.1790     5.7050     0.8440 H     1 <1>   0.0800 
 39 H        0.6920     6.0730    -0.6500 H     1 <1>   0.0800 
 40 H        1.7790     7.2820     1.1310 H     1 <1>   0.0800 
 41 H        2.7960     7.0400     2.4970 H     1 <1>   0.0800 
 42 H        4.7250     8.4850    -2.4560 H     1 <1>   0.1500 
 43 H        6.9580     8.8210     1.1780 H     1 <1>   0.1500 
 44 H        6.7860     9.1890    -1.2690 H     1 <1>   0.1500 
@<TRIPOS>BOND
  1   1   2  2   
  2   1   3  2   
  3   1   4  am  
  4   1   5  1   
  5   4   6  1   
  6   4   7  1   
  7   5   8  1   
  8   5  25  1   
  9   5  26  1   
 10   6  27  1   
 11   6  28  1   
 12   6  29  1   
 13   7  30  1   
 14   7  31  1   
 15   7  32  1   
 16   8   9  1   
 17   8  10  1   
 18   8  33  1   
 19   9  11  1   
 20   9  12  1   
 21   9  34  1   
 22  10  13  1   
 23  10  35  1   
 24  10  36  1   
 25  11  37  1   
 26  12  13  1   
 27  12  38  1   
 28  12  39  1   
 29  13  14  am  
 30  14  15  2   
 31  14  16  1   
 32  16  17  1   
 33  16  40  1   
 34  16  41  1   
 35  17  18  ar  
 36  17  19  ar  
 37  18  20  1   
 38  18  21  ar  
 39  19  22  1   
 40  19  23  ar  
 41  21  24  ar  
 42  21  42  1   
 43  23  24  ar  
 44  23  43  1   
 45  24  44  1   
@<TRIPOS>SUBSTRUCTURE
  1 ****  13 GROUP 4 **** **** 0

# MOE 2024.06 (io_trps.svl 2023.06)
