@<TRIPOS>MOLECULE
NONAME
40 42 1 0 0 
SMALL
USER_CHARGES


@<TRIPOS>ATOM
  1 S        0.7080    -0.2170     1.3550 S.o2  1 <1>   1.5010 
  2 O        0.6970     0.7670     2.4090 O.2   1 <1>  -0.6500 
  3 O        1.6250    -1.3330     1.4150 O.2   1 <1>  -0.6500 
  4 N       -0.8390    -0.8630     1.3680 N.am  1 <1>  -0.9140 
  5 C        0.7850     0.5720    -0.2560 C.2   1 <1>  -0.0630 
  6 C       -0.9550    -2.1850     0.7700 C.3   1 <1>   0.2760 
  7 C       -0.2810     1.2340    -0.8500 C.2   1 <1>   0.1390 
  8 C        1.7880     0.7070    -1.1600 C.2   1 <1>  -0.3020 
  9 C       -2.4200    -2.4290     0.4460 C.3   1 <1>  -0.0800 
 10 C       -0.6970    -3.2760     1.8120 C.3   1 <1>   0.1200 
 11 N        0.0150     1.7210    -2.0160 N.2   1 <1>  -0.7070 
 12 N        1.3020     1.4000    -2.2060 N.pl3 1 <1>   0.3140 
 13 C       -2.9730    -2.9270     1.7870 C.3   1 <1>   0.1200 
 14 C       -2.5880    -3.4680    -0.6790 C.3   1 <1>  -0.0160 
 15 O       -1.8870    -3.4060     2.5280 O.3   1 <1>  -0.5600 
 16 C        2.0220     1.7990    -3.4210 C.3   1 <1>   0.0160 
 17 C       -4.0550    -3.6870    -1.0170 C.ar  1 <1>  -0.1430 
 18 C       -4.7800    -2.7600    -1.7380 C.ar  1 <1>  -0.1500 
 19 C       -4.7370    -4.8210    -0.6230 C.ar  1 <1>  -0.1500 
 20 C       -6.1150    -3.0010    -2.0170 C.ar  1 <1>   0.1600 
 21 C       -6.0740    -4.9660    -0.9540 C.ar  1 <1>   0.1600 
 22 N       -6.7790    -4.0810    -1.6400 N.ar  1 <1>  -0.6200 
 23 H       -1.0590    -0.9770     2.3590 H     1 <1>   0.4200 
 24 H       -0.3210    -2.2740    -0.0970 H     1 <1>   0.0800 
 25 H       -1.2540     1.3330    -0.3960 H     1 <1>   0.1500 
 26 H        2.8010     0.3510    -1.1050 H     1 <1>   0.1500 
 27 H       -2.9090    -1.5180     0.1470 H     1 <1>   0.0800 
 28 H        0.1060    -3.0440     2.4890 H     1 <1>   0.0800 
 29 H       -0.4980    -4.2190     1.3340 H     1 <1>   0.0800 
 30 H       -3.6980    -3.7150     1.6810 H     1 <1>   0.0800 
 31 H       -3.4100    -2.1150     2.3420 H     1 <1>   0.0800 
 32 H       -2.1420    -4.4050    -0.3960 H     1 <1>   0.0800 
 33 H       -2.0830    -3.1230    -1.5650 H     1 <1>   0.0800 
 34 H        2.9790     1.3140    -3.4510 H     1 <1>   0.0800 
 35 H        2.1520     2.8650    -3.4130 H     1 <1>   0.0800 
 36 H        1.4420     1.5150    -4.2780 H     1 <1>   0.0800 
 37 H       -4.3220    -1.8520    -2.0860 H     1 <1>   0.1500 
 38 H       -4.2440    -5.5940    -0.0620 H     1 <1>   0.1500 
 39 H       -6.6660    -2.2670    -2.5810 H     1 <1>   0.1500 
 40 H       -6.5900    -5.8560    -0.6380 H     1 <1>   0.1500 
@<TRIPOS>BOND
  1   1   2  2   
  2   1   3  2   
  3   1   4  am  
  4   1   5  1   
  5   4   6  1   
  6   4  23  1   
  7   5   7  1   
  8   5   8  2   
  9   6   9  1   
 10   6  10  1   
 11   6  24  1   
 12   7  11  2   
 13   7  25  1   
 14   8  12  1   
 15   8  26  1   
 16   9  13  1   
 17   9  14  1   
 18   9  27  1   
 19  10  15  1   
 20  10  28  1   
 21  10  29  1   
 22  11  12  1   
 23  12  16  1   
 24  13  15  1   
 25  13  30  1   
 26  13  31  1   
 27  14  17  1   
 28  14  32  1   
 29  14  33  1   
 30  16  34  1   
 31  16  35  1   
 32  16  36  1   
 33  17  18  ar  
 34  17  19  ar  
 35  18  20  ar  
 36  18  37  1   
 37  19  21  ar  
 38  19  38  1   
 39  20  22  ar  
 40  20  39  1   
 41  21  22  ar  
 42  21  40  1   
@<TRIPOS>SUBSTRUCTURE
  1 ****   9 GROUP 4 **** **** 0

# MOE 2024.06 (io_trps.svl 2023.06)
