@<TRIPOS>MOLECULE
NONAME
41 43 1 0 0 
SMALL
USER_CHARGES


@<TRIPOS>ATOM
  1 S        1.1560    -0.9950    -0.0490 S.3   1 <1>  -0.0800 
  2 C       -0.5630    -0.8180    -0.0570 C.2   1 <1>   0.1980 
  3 C        1.2420     0.6680    -0.5160 C.2   1 <1>   0.1980 
  4 N       -0.9400     0.3540    -0.3790 N.2   1 <1>  -0.3380 
  5 C       -1.4110    -2.0300     0.3040 C.3   1 <1>   0.5230 
  6 N        0.0960     1.2050    -0.6380 N.2   1 <1>  -0.3380 
  7 C        2.6070     1.2860    -0.7230 C.3   1 <1>  -0.0600 
  8 N       -2.8570    -1.6700     0.4690 N.4   1 <1>  -0.9590 
  9 C       -3.1200    -0.7390     1.6090 C.3   1 <1>   0.3430 
 10 C       -3.7930    -2.8240     0.4290 C.3   1 <1>   0.3430 
 11 C       -4.6090    -0.3860     1.7040 C.3   1 <1>  -0.1600 
 12 C       -5.2410    -2.3380     0.2850 C.3   1 <1>  -0.1600 
 13 C       -5.4080    -0.8250     0.4710 C.3   1 <1>   0.4180 
 14 O       -4.8470    -0.2340    -0.6780 O.3   1 <1>  -0.5600 
 15 C       -6.8840    -0.4690     0.5940 C.2   1 <1>  -0.2880 
 16 C       -5.2210     1.0870    -0.9720 C.3   1 <1>   0.1200 
 17 C       -7.5020     0.4200    -0.1860 C.2   1 <1>  -0.2760 
 18 C       -6.7270     1.1710    -1.2530 C.3   1 <1>  -0.0220 
 19 C       -8.9800     0.7570    -0.1010 C.3   1 <1>  -0.1020 
 20 H       -1.0370    -2.4640     1.2170 H     1 <1>   0.0800 
 21 H       -1.3070    -2.7580    -0.4830 H     1 <1>   0.0800 
 22 H        3.1750     1.2340     0.1880 H     1 <1>   0.0800 
 23 H        2.5010     2.3170    -1.0080 H     1 <1>   0.0800 
 24 H        3.1330     0.7620    -1.5000 H     1 <1>   0.0800 
 25 H       -3.1140    -1.0910    -0.3610 H     1 <1>   0.4500 
 26 H       -2.5620     0.1720     1.4590 H     1 <1>   0.0800 
 27 H       -2.7940    -1.1810     2.5370 H     1 <1>   0.0800 
 28 H       -3.6950    -3.3980     1.3360 H     1 <1>   0.0800 
 29 H       -3.5550    -3.4650    -0.4050 H     1 <1>   0.0800 
 30 H       -4.7240     0.6700     1.8660 H     1 <1>   0.0800 
 31 H       -5.0200    -0.8700     2.5710 H     1 <1>   0.0800 
 32 H       -5.8370    -2.8560     1.0130 H     1 <1>   0.0800 
 33 H       -5.6260    -2.6140    -0.6810 H     1 <1>   0.0800 
 34 H       -7.3920    -1.0110     1.3720 H     1 <1>   0.1500 
 35 H       -4.6620     1.4080    -1.8340 H     1 <1>   0.0800 
 36 H       -4.9590     1.7150    -0.1390 H     1 <1>   0.0800 
 37 H       -6.9420     0.7560    -2.2220 H     1 <1>   0.0800 
 38 H       -7.0140     2.2080    -1.2640 H     1 <1>   0.0800 
 39 H       -9.4620     0.5450    -1.0390 H     1 <1>   0.0800 
 40 H       -9.1130     1.7990     0.1300 H     1 <1>   0.0800 
 41 H       -9.4590     0.1750     0.6660 H     1 <1>   0.0800 
@<TRIPOS>BOND
  1   1   2  1   
  2   1   3  1   
  3   2   4  2   
  4   2   5  1   
  5   3   6  2   
  6   3   7  1   
  7   4   6  1   
  8   5   8  1   
  9   5  20  1   
 10   5  21  1   
 11   7  22  1   
 12   7  23  1   
 13   7  24  1   
 14   8   9  1   
 15   8  10  1   
 16   8  25  1   
 17   9  11  1   
 18   9  26  1   
 19   9  27  1   
 20  10  12  1   
 21  10  28  1   
 22  10  29  1   
 23  11  13  1   
 24  11  30  1   
 25  11  31  1   
 26  12  13  1   
 27  12  32  1   
 28  12  33  1   
 29  13  14  1   
 30  13  15  1   
 31  14  16  1   
 32  15  17  2   
 33  15  34  1   
 34  16  18  1   
 35  16  35  1   
 36  16  36  1   
 37  17  18  1   
 38  17  19  1   
 39  18  37  1   
 40  18  38  1   
 41  19  39  1   
 42  19  40  1   
 43  19  41  1   
@<TRIPOS>SUBSTRUCTURE
  1 ****   8 GROUP 4 **** **** 0

# MOE 2024.06 (io_trps.svl 2023.06)
