@<TRIPOS>MOLECULE
NONAME
43 45 1 0 0 
SMALL
USER_CHARGES


@<TRIPOS>ATOM
  1 O       -0.0690     0.8350     0.2190 O.2   1 <1>  -0.5700 
  2 C        0.0410     2.0430     0.2920 C.2   1 <1>   0.7150 
  3 N       -0.9920     2.7840     0.8190 N.am  1 <1>  -0.6600 
  4 C        1.2510     2.6750    -0.1600 C.2   1 <1>  -0.2370 
  5 C       -1.9900     2.1680     1.7330 C.3   1 <1>   0.1400 
  6 C       -1.4310     4.0780     0.2370 C.3   1 <1>   0.1400 
  7 N        1.7720     3.7970     0.4200 N.pl3 1 <1>   0.0330 
  8 C        2.1050     2.3040    -1.1650 C.2   1 <1>  -0.1500 
  9 C       -3.3110     1.9630     0.9900 C.3   1 <1>  -0.1600 
 10 C       -2.7520     3.8790    -0.5150 C.3   1 <1>  -0.1600 
 11 C        2.9180     4.1200    -0.2210 C.2   1 <1>  -0.3020 
 12 C        3.1650     3.2160    -1.2170 C.2   1 <1>   0.0190 
 13 C       -3.8530     3.2660     0.3800 C.3   1 <1>   0.2800 
 14 C        4.2660     3.1720    -2.1370 C.1   1 <1>   0.5380 
 15 O       -4.1090     4.1190     1.4640 O.3   1 <1>  -0.5600 
 16 C       -5.1700     2.9580    -0.3690 C.3   1 <1>  -0.1600 
 17 N        5.1410     3.1430    -2.8690 N.1   1 <1>  -0.5570 
 18 C       -4.7980     5.3140     1.2370 C.3   1 <1>   0.1200 
 19 C       -6.0830     4.1640    -0.6090 C.3   1 <1>   0.2800 
 20 C       -6.1800     5.0140     0.6560 C.3   1 <1>  -0.1600 
 21 O       -5.5450     4.9380    -1.6070 O.3   1 <1>  -0.6800 
 22 C       -7.4620     3.7370    -1.1070 C.3   1 <1>  -0.2400 
 23 H       -2.1430     2.8170     2.5790 H     1 <1>   0.0800 
 24 H       -1.6270     1.2220     2.1010 H     1 <1>   0.0800 
 25 H       -0.6920     4.4570    -0.4470 H     1 <1>   0.0800 
 26 H       -1.5650     4.7940     1.0290 H     1 <1>   0.0800 
 27 H        1.3520     4.2810     1.2240 H     1 <1>   0.2700 
 28 H        1.9920     1.4480    -1.8100 H     1 <1>   0.1500 
 29 H       -4.0330     1.5550     1.6730 H     1 <1>   0.0800 
 30 H       -3.1530     1.2350     0.2140 H     1 <1>   0.0800 
 31 H       -2.5700     3.2190    -1.3440 H     1 <1>   0.0800 
 32 H       -3.0560     4.8180    -0.9290 H     1 <1>   0.0800 
 33 H        3.5170     4.9710     0.0560 H     1 <1>   0.1500 
 34 H       -5.7240     2.2570     0.2280 H     1 <1>   0.0800 
 35 H       -4.9620     2.4640    -1.3020 H     1 <1>   0.0800 
 36 H       -4.2190     5.9420     0.5850 H     1 <1>   0.0800 
 37 H       -4.8980     5.8120     2.1860 H     1 <1>   0.0800 
 38 H       -6.7010     5.9300     0.4460 H     1 <1>   0.0800 
 39 H       -6.7460     4.4830     1.4000 H     1 <1>   0.0800 
 40 H       -4.6610     5.2380    -1.3370 H     1 <1>   0.4000 
 41 H       -7.9550     3.1310    -0.3680 H     1 <1>   0.0800 
 42 H       -7.3700     3.1630    -2.0110 H     1 <1>   0.0800 
 43 H       -8.0730     4.6010    -1.2990 H     1 <1>   0.0800 
@<TRIPOS>BOND
  1   1   2  2   
  2   2   3  am  
  3   2   4  1   
  4   3   5  1   
  5   3   6  1   
  6   4   7  1   
  7   4   8  2   
  8   5   9  1   
  9   5  23  1   
 10   5  24  1   
 11   6  10  1   
 12   6  25  1   
 13   6  26  1   
 14   7  11  1   
 15   7  27  1   
 16   8  12  1   
 17   8  28  1   
 18   9  13  1   
 19   9  29  1   
 20   9  30  1   
 21  10  13  1   
 22  10  31  1   
 23  10  32  1   
 24  11  12  2   
 25  11  33  1   
 26  12  14  1   
 27  13  15  1   
 28  13  16  1   
 29  14  17  3   
 30  15  18  1   
 31  16  19  1   
 32  16  34  1   
 33  16  35  1   
 34  18  20  1   
 35  18  36  1   
 36  18  37  1   
 37  19  20  1   
 38  19  21  1   
 39  19  22  1   
 40  20  38  1   
 41  20  39  1   
 42  21  40  1   
 43  22  41  1   
 44  22  42  1   
 45  22  43  1   
@<TRIPOS>SUBSTRUCTURE
  1 ****   6 GROUP 4 **** **** 0

# MOE 2024.06 (io_trps.svl 2023.06)
