@<TRIPOS>MOLECULE
NONAME
48 50 1 0 0 
SMALL
USER_CHARGES


@<TRIPOS>ATOM
  1 O       -1.8470     1.5940    -1.8860 O.2   1 <1>  -0.5700 
  2 C       -2.0470     1.6370    -0.6940 C.2   1 <1>   0.5690 
  3 N       -2.0520     0.4800     0.0540 N.am  1 <1>  -0.6600 
  4 C       -2.2960     3.0050    -0.0500 C.3   1 <1>  -0.0190 
  5 C       -1.9030    -0.8480    -0.6360 C.3   1 <1>   0.1400 
  6 C       -2.1910     0.4070     1.5360 C.3   1 <1>   0.1400 
  7 C       -3.7600     3.2070     0.4040 C.3   1 <1>  -0.0220 
  8 C       -1.9490     4.2390    -0.9180 C.3   1 <1>  -0.0220 
  9 C       -2.6830    -2.0150     0.0320 C.3   1 <1>   0.0000 
 10 C       -3.4360    -0.4020     1.9150 C.3   1 <1>  -0.1600 
 11 C       -3.9730     4.6860     0.2030 C.2   1 <1>  -0.2880 
 12 C       -2.9980     5.2410    -0.5050 C.2   1 <1>  -0.2880 
 13 C       -3.8660    -1.3860     0.8200 C.3   1 <1>   0.2000 
 14 C       -3.2560    -2.8860    -1.1190 C.3   1 <1>   0.1200 
 15 C       -1.7350    -2.8300     0.9730 C.3   1 <1>  -0.0170 
 16 O       -4.6390    -2.3650     1.4140 O.3   1 <1>  -0.6800 
 17 O       -3.8870    -4.0280    -0.6400 O.3   1 <1>  -0.6800 
 18 C       -0.9610    -3.9680     0.3080 C.ar  1 <1>  -0.1440 
 19 C       -1.3410    -5.2820     0.5460 C.ar  1 <1>  -0.1500 
 20 C        0.1230    -3.7230    -0.5240 C.ar  1 <1>  -0.1500 
 21 C       -0.6700    -6.3310    -0.0580 C.ar  1 <1>  -0.1500 
 22 C        0.7950    -4.7710    -1.1290 C.ar  1 <1>  -0.1500 
 23 C        0.3970    -6.0750    -0.9000 C.ar  1 <1>  -0.1500 
 24 H       -1.6710     3.0840     0.8190 H     1 <1>   0.0800 
 25 H       -2.2560    -0.7370    -1.6480 H     1 <1>   0.0800 
 26 H       -0.8570    -1.0770    -0.7020 H     1 <1>   0.0800 
 27 H       -1.3130    -0.0690     1.9350 H     1 <1>   0.0800 
 28 H       -2.2480     1.3790     1.9870 H     1 <1>   0.0800 
 29 H       -4.4420     2.6540    -0.2190 H     1 <1>   0.0800 
 30 H       -3.8960     2.9290     1.4330 H     1 <1>   0.0800 
 31 H       -0.9550     4.5920    -0.7080 H     1 <1>   0.0800 
 32 H       -2.0480     4.0460    -1.9720 H     1 <1>   0.0800 
 33 H       -4.2510     0.2730     2.1020 H     1 <1>   0.0800 
 34 H       -3.2310    -0.9280     2.8310 H     1 <1>   0.0800 
 35 H       -4.8560     5.1470     0.6130 H     1 <1>   0.1500 
 36 H       -2.8870     6.2670    -0.8150 H     1 <1>   0.1500 
 37 H       -4.5010    -0.8650     0.1210 H     1 <1>   0.0800 
 38 H       -2.4760    -3.2010    -1.7920 H     1 <1>   0.0800 
 39 H       -3.9840    -2.3280    -1.6840 H     1 <1>   0.0800 
 40 H       -1.0250    -2.1780     1.4440 H     1 <1>   0.0800 
 41 H       -2.3120    -3.2580     1.7730 H     1 <1>   0.0800 
 42 H       -4.7280    -3.1080     0.7670 H     1 <1>   0.4000 
 43 H       -3.2000    -4.6910    -0.4100 H     1 <1>   0.4000 
 44 H       -2.1610    -5.5020     1.2090 H     1 <1>   0.1500 
 45 H        0.4630    -2.7220    -0.7070 H     1 <1>   0.1500 
 46 H       -0.9750    -7.3460     0.1290 H     1 <1>   0.1500 
 47 H        1.6310    -4.5710    -1.7760 H     1 <1>   0.1500 
 48 H        0.9190    -6.8890    -1.3720 H     1 <1>   0.1500 
@<TRIPOS>BOND
  1   1   2  2   
  2   2   3  am  
  3   2   4  1   
  4   3   5  1   
  5   3   6  1   
  6   4   7  1   
  7   4   8  1   
  8   4  24  1   
  9   5   9  1   
 10   5  25  1   
 11   5  26  1   
 12   6  10  1   
 13   6  27  1   
 14   6  28  1   
 15   7  11  1   
 16   7  29  1   
 17   7  30  1   
 18   8  12  1   
 19   8  31  1   
 20   8  32  1   
 21   9  13  1   
 22   9  14  1   
 23   9  15  1   
 24  10  13  1   
 25  10  33  1   
 26  10  34  1   
 27  11  12  2   
 28  11  35  1   
 29  12  36  1   
 30  13  16  1   
 31  13  37  1   
 32  14  17  1   
 33  14  38  1   
 34  14  39  1   
 35  15  18  1   
 36  15  40  1   
 37  15  41  1   
 38  16  42  1   
 39  17  43  1   
 40  18  19  ar  
 41  18  20  ar  
 42  19  21  ar  
 43  19  44  1   
 44  20  22  ar  
 45  20  45  1   
 46  21  23  ar  
 47  21  46  1   
 48  22  23  ar  
 49  22  47  1   
 50  23  48  1   
@<TRIPOS>SUBSTRUCTURE
  1 ****   5 GROUP 4 **** **** 0

# MOE 2024.06 (io_trps.svl 2023.06)
