@<TRIPOS>MOLECULE
NONAME
47 49 1 0 0 
SMALL
USER_CHARGES


@<TRIPOS>ATOM
  1 CL      -0.1460     0.7540     1.8700 Cl    1 <1>  -0.1770 
  2 C       -0.3180     2.2890     1.0480 C.ar  1 <1>   0.1770 
  3 C        0.8000     3.0230     0.6890 C.ar  1 <1>   0.1770 
  4 C       -1.5860     2.7600     0.7680 C.ar  1 <1>  -0.1500 
  5 CL       2.4130     2.4400     1.0400 Cl    1 <1>  -0.1770 
  6 C        0.6560     4.2380     0.0440 C.ar  1 <1>  -0.1500 
  7 C       -1.7500     3.9800     0.1160 C.ar  1 <1>   0.1170 
  8 C       -0.6160     4.7100    -0.2370 C.ar  1 <1>  -0.1500 
  9 N       -3.0130     4.5080    -0.1800 N.am  1 <1>  -0.5470 
 10 C       -4.2060     3.8860    -0.4150 C.2   1 <1>   0.6900 
 11 O       -4.2700     2.6760    -0.5240 O.2   1 <1>  -0.5700 
 12 N       -5.3340     4.6520    -0.5560 N.am  1 <1>  -0.6600 
 13 C       -6.5620     4.0350    -1.1400 C.3   1 <1>   0.1400 
 14 C       -5.4740     6.0280     0.0050 C.3   1 <1>   0.1400 
 15 C       -7.5460     5.1210    -1.5810 C.3   1 <1>  -0.1600 
 16 C       -6.8590     6.1760     0.6350 C.3   1 <1>  -0.1600 
 17 C       -7.9940     6.0280    -0.4120 C.3   1 <1>   0.2800 
 18 O       -8.1730     7.2800    -1.0100 O.3   1 <1>  -0.5600 
 19 C       -9.3160     5.4890     0.2170 C.3   1 <1>  -0.1600 
 20 C       -8.8530     8.3350    -0.3650 C.3   1 <1>   0.1200 
 21 C      -10.4740     6.4970     0.2930 C.3   1 <1>   0.2800 
 22 C       -9.9200     7.8920     0.6510 C.3   1 <1>   0.2000 
 23 O      -11.0790     6.5630    -0.9490 O.3   1 <1>  -0.6800 
 24 C      -11.5690     6.0240     1.2540 C.3   1 <1>  -0.2400 
 25 O       -9.3480     7.8780     1.9270 O.3   1 <1>  -0.6800 
 26 H       -2.4390     2.1750     1.0580 H     1 <1>   0.1500 
 27 H        1.5290     4.8020    -0.2320 H     1 <1>   0.1500 
 28 H       -0.7280     5.6530    -0.7420 H     1 <1>   0.1500 
 29 H       -3.0460     5.4970    -0.4010 H     1 <1>   0.3700 
 30 H       -6.2860     3.4290    -1.9870 H     1 <1>   0.0800 
 31 H       -7.0180     3.3950    -0.4050 H     1 <1>   0.0800 
 32 H       -4.7250     6.2020     0.7590 H     1 <1>   0.0800 
 33 H       -5.3510     6.7530    -0.7820 H     1 <1>   0.0800 
 34 H       -8.3920     4.6670    -2.0620 H     1 <1>   0.0800 
 35 H       -7.0500     5.7120    -2.3320 H     1 <1>   0.0800 
 36 H       -6.9150     7.1250     1.1310 H     1 <1>   0.0800 
 37 H       -6.9380     5.4130     1.3890 H     1 <1>   0.0800 
 38 H       -9.6560     4.6040    -0.2870 H     1 <1>   0.0800 
 39 H       -9.1040     5.1630     1.2170 H     1 <1>   0.0800 
 40 H       -8.1290     8.9820     0.0970 H     1 <1>   0.0800 
 41 H       -9.3410     8.8880    -1.1480 H     1 <1>   0.0800 
 42 H      -10.7200     8.6110     0.6810 H     1 <1>   0.0800 
 43 H      -11.3980     5.6810    -1.2100 H     1 <1>   0.4000 
 44 H      -11.1820     5.9540     2.2550 H     1 <1>   0.0800 
 45 H      -11.9400     5.0560     0.9690 H     1 <1>   0.0800 
 46 H      -12.3820     6.7290     1.2640 H     1 <1>   0.0800 
 47 H       -8.5990     7.2540     1.9380 H     1 <1>   0.4000 
@<TRIPOS>BOND
  1   1   2  1   
  2   2   3  ar  
  3   2   4  ar  
  4   3   5  1   
  5   3   6  ar  
  6   4   7  ar  
  7   4  26  1   
  8   6   8  ar  
  9   6  27  1   
 10   7   8  ar  
 11   7   9  1   
 12   8  28  1   
 13   9  10  am  
 14   9  29  1   
 15  10  11  2   
 16  10  12  am  
 17  12  13  1   
 18  12  14  1   
 19  13  15  1   
 20  13  30  1   
 21  13  31  1   
 22  14  16  1   
 23  14  32  1   
 24  14  33  1   
 25  15  17  1   
 26  15  34  1   
 27  15  35  1   
 28  16  17  1   
 29  16  36  1   
 30  16  37  1   
 31  17  18  1   
 32  17  19  1   
 33  18  20  1   
 34  19  21  1   
 35  19  38  1   
 36  19  39  1   
 37  20  22  1   
 38  20  40  1   
 39  20  41  1   
 40  21  22  1   
 41  21  23  1   
 42  21  24  1   
 43  22  25  1   
 44  22  42  1   
 45  23  43  1   
 46  24  44  1   
 47  24  45  1   
 48  24  46  1   
 49  25  47  1   
@<TRIPOS>SUBSTRUCTURE
  1 ****  12 GROUP 4 **** **** 0

# MOE 2024.06 (io_trps.svl 2023.06)
