@<TRIPOS>MOLECULE
NONAME
46 48 1 0 0 
SMALL
USER_CHARGES


@<TRIPOS>ATOM
  1 S       -0.8340     0.6830     0.1150 S.o2  1 <1>   1.4470 
  2 O       -0.3140     0.4160     1.4420 O.2   1 <1>  -0.6500 
  3 O       -1.7420     1.8030    -0.0260 O.2   1 <1>  -0.6500 
  4 N       -1.6730    -0.7160    -0.3520 N.am  1 <1>  -0.8490 
  5 C        0.5330     0.8940    -1.0780 C.ar  1 <1>  -0.0090 
  6 C       -0.9340    -1.9490    -0.0130 C.3   1 <1>   0.1960 
  7 C       -3.0470    -0.7320     0.1450 C.3   1 <1>   0.1960 
  8 C        1.5890     1.7830    -0.8480 C.ar  1 <1>  -0.1440 
  9 C        0.5430     0.1810    -2.2730 C.ar  1 <1>  -0.1500 
 10 C       -1.6100    -3.2430    -0.5140 C.3   1 <1>  -0.1060 
 11 C       -3.8000    -1.9350    -0.4190 C.3   1 <1>  -0.1600 
 12 C        2.6130     1.9170    -1.7750 C.ar  1 <1>  -0.1500 
 13 C        1.6480     2.6280     0.4190 C.3   1 <1>  -0.0970 
 14 C        1.5650     0.3110    -3.1940 C.ar  1 <1>  -0.1500 
 15 C       -1.5340    -3.2720    -2.0450 C.2   1 <1>   0.9060 
 16 C       -3.0990    -3.2530    -0.0810 C.3   1 <1>   0.2000 
 17 C       -0.8290    -4.5060    -0.0390 C.3   1 <1>  -0.0650 
 18 C        2.6060     1.1820    -2.9450 C.ar  1 <1>  -0.1500 
 19 O       -0.4680    -2.9680    -2.5970 O.co2 1 <1>  -0.9000 
 20 O       -2.4960    -3.6830    -2.7070 O.co2 1 <1>  -0.9000 
 21 O       -3.2200    -3.4220     1.2920 O.3   1 <1>  -0.6800 
 22 C       -0.3880    -4.5690     1.4370 C.3   1 <1>  -0.1950 
 23 C        0.8680    -3.9080     1.9120 C.3   1 <1>  -0.2000 
 24 C        0.7940    -5.4040     1.8140 C.3   1 <1>  -0.2000 
 25 H        0.0610    -1.8970    -0.4260 H     1 <1>   0.0800 
 26 H       -0.8330    -1.9970     1.0560 H     1 <1>   0.0800 
 27 H       -3.0480    -0.7560     1.2220 H     1 <1>   0.0800 
 28 H       -3.5570     0.1630    -0.1720 H     1 <1>   0.0800 
 29 H       -0.2590    -0.5030    -2.5020 H     1 <1>   0.1500 
 30 H       -3.8660    -1.8290    -1.4870 H     1 <1>   0.0800 
 31 H       -4.8050    -1.9560    -0.0400 H     1 <1>   0.0800 
 32 H        3.4270     2.5960    -1.5920 H     1 <1>   0.1500 
 33 H        2.4390     3.3540     0.3640 H     1 <1>   0.0800 
 34 H        1.8270     2.0000     1.2740 H     1 <1>   0.0800 
 35 H        0.7220     3.1570     0.5620 H     1 <1>   0.0800 
 36 H        1.5380    -0.2750    -4.0970 H     1 <1>   0.1500 
 37 H       -3.6200    -4.0720    -0.5490 H     1 <1>   0.0800 
 38 H       -1.4250    -5.3750    -0.2600 H     1 <1>   0.0800 
 39 H        0.0600    -4.5910    -0.6410 H     1 <1>   0.0800 
 40 H        3.4040     1.2860    -3.6590 H     1 <1>   0.1500 
 41 H       -2.5150    -2.9130     1.7310 H     1 <1>   0.4000 
 42 H       -1.2160    -4.6430     2.1190 H     1 <1>   0.1000 
 43 H        1.4830    -3.3800     1.2030 H     1 <1>   0.1000 
 44 H        0.8690    -3.4450     2.8830 H     1 <1>   0.1000 
 45 H        0.7500    -5.9810     2.7200 H     1 <1>   0.1000 
 46 H        1.3560    -5.8950     1.0380 H     1 <1>   0.1000 
@<TRIPOS>BOND
  1   1   2  2   
  2   1   3  2   
  3   1   4  am  
  4   1   5  1   
  5   4   6  1   
  6   4   7  1   
  7   5   8  ar  
  8   5   9  ar  
  9   6  10  1   
 10   6  25  1   
 11   6  26  1   
 12   7  11  1   
 13   7  27  1   
 14   7  28  1   
 15   8  12  ar  
 16   8  13  1   
 17   9  14  ar  
 18   9  29  1   
 19  10  15  1   
 20  10  16  1   
 21  10  17  1   
 22  11  16  1   
 23  11  30  1   
 24  11  31  1   
 25  12  18  ar  
 26  12  32  1   
 27  13  33  1   
 28  13  34  1   
 29  13  35  1   
 30  14  18  ar  
 31  14  36  1   
 32  15  19  ar  
 33  15  20  ar  
 34  16  21  1   
 35  16  37  1   
 36  17  22  1   
 37  17  38  1   
 38  17  39  1   
 39  18  40  1   
 40  21  41  1   
 41  22  23  1   
 42  22  24  1   
 43  22  42  1   
 44  23  24  1   
 45  23  43  1   
 46  23  44  1   
 47  24  45  1   
 48  24  46  1   
@<TRIPOS>SUBSTRUCTURE
  1 ****   6 GROUP 4 **** **** 0

# MOE 2024.06 (io_trps.svl 2023.06)
