@<TRIPOS>MOLECULE
NONAME
45 47 1 0 0 
SMALL
USER_CHARGES


@<TRIPOS>ATOM
  1 F       -0.7250    -0.8840    -0.6950 F     1 <1>  -0.3400 
  2 C       -0.2410    -1.5390     0.3510 C.3   1 <1>   1.0200 
  3 F        0.9590    -1.0360     0.5960 F     1 <1>  -0.3400 
  4 F       -1.0090    -1.2130     1.3820 F     1 <1>  -0.3400 
  5 C       -0.2020    -3.0480     0.1180 C.3   1 <1>  -0.1600 
  6 C       -1.5930    -3.6690    -0.1540 C.3   1 <1>  -0.0990 
  7 C       -1.5650    -5.1740    -0.3860 C.2   1 <1>   0.5690 
  8 O       -0.5020    -5.7430    -0.3060 O.2   1 <1>  -0.5700 
  9 N       -2.7230    -5.8470    -0.6740 N.am  1 <1>  -0.6600 
 10 C       -4.0950    -5.2520    -0.7450 C.3   1 <1>   0.1400 
 11 C       -2.7310    -7.3280    -0.8950 C.3   1 <1>   0.1400 
 12 C       -5.0580    -5.9830     0.2100 C.3   1 <1>   0.1900 
 13 C       -3.7390    -8.0200     0.0390 C.3   1 <1>   0.1100 
 14 N       -5.0930    -7.4360    -0.0910 N.3   1 <1>  -0.8100 
 15 C       -6.4720    -5.3770     0.1180 C.3   1 <1>   0.1200 
 16 C       -6.0740    -8.1120     0.7920 C.3   1 <1>   0.3330 
 17 O       -7.3420    -6.0390     0.9890 O.3   1 <1>  -0.5600 
 18 C       -6.2360    -9.5830     0.4110 C.ar  1 <1>  -0.1440 
 19 C       -7.4490    -7.4130     0.7220 C.3   1 <1>   0.1200 
 20 C       -6.2120   -10.5630     1.3930 C.ar  1 <1>  -0.1500 
 21 C       -6.4140    -9.9610    -0.9130 C.ar  1 <1>  -0.1500 
 22 C       -6.3640   -11.8980     1.0570 C.ar  1 <1>  -0.1500 
 23 C       -6.5670   -11.2940    -1.2510 C.ar  1 <1>  -0.1500 
 24 C       -6.5420   -12.2640    -0.2650 C.ar  1 <1>  -0.1500 
 25 H        0.4470    -3.2420    -0.7170 H     1 <1>   0.0800 
 26 H        0.2330    -3.5100     0.9860 H     1 <1>   0.0800 
 27 H       -2.0210    -3.2060    -1.0240 H     1 <1>   0.0800 
 28 H       -2.2330    -3.4760     0.6870 H     1 <1>   0.0800 
 29 H       -4.0790    -4.2090    -0.4940 H     1 <1>   0.0800 
 30 H       -4.4630    -5.3450    -1.7520 H     1 <1>   0.0800 
 31 H       -3.0020    -7.5310    -1.9160 H     1 <1>   0.0800 
 32 H       -1.7540    -7.7440    -0.7260 H     1 <1>   0.0800 
 33 H       -4.7020    -5.8350     1.2160 H     1 <1>   0.0800 
 34 H       -3.3940    -7.9310     1.0550 H     1 <1>   0.0800 
 35 H       -3.7670    -9.0660    -0.2120 H     1 <1>   0.0800 
 36 H       -6.8580    -5.4600    -0.8830 H     1 <1>   0.0800 
 37 H       -6.4560    -4.3410     0.4030 H     1 <1>   0.0800 
 38 H       -5.7270    -8.0520     1.8100 H     1 <1>   0.0800 
 39 H       -8.1140    -7.8400     1.4510 H     1 <1>   0.0800 
 40 H       -7.8820    -7.5400    -0.2540 H     1 <1>   0.0800 
 41 H       -6.0750   -10.2940     2.4260 H     1 <1>   0.1500 
 42 H       -6.4270    -9.2090    -1.6840 H     1 <1>   0.1500 
 43 H       -6.3450   -12.6520     1.8250 H     1 <1>   0.1500 
 44 H       -6.7030   -11.5750    -2.2800 H     1 <1>   0.1500 
 45 H       -6.6610   -13.3010    -0.5260 H     1 <1>   0.1500 
@<TRIPOS>BOND
  1   1   2  1   
  2   2   3  1   
  3   2   4  1   
  4   2   5  1   
  5   5   6  1   
  6   5  25  1   
  7   5  26  1   
  8   6   7  1   
  9   6  27  1   
 10   6  28  1   
 11   7   8  2   
 12   7   9  am  
 13   9  10  1   
 14   9  11  1   
 15  10  12  1   
 16  10  29  1   
 17  10  30  1   
 18  11  13  1   
 19  11  31  1   
 20  11  32  1   
 21  12  14  1   
 22  12  15  1   
 23  12  33  1   
 24  13  14  1   
 25  13  34  1   
 26  13  35  1   
 27  14  16  1   
 28  15  17  1   
 29  15  36  1   
 30  15  37  1   
 31  16  18  1   
 32  16  19  1   
 33  16  38  1   
 34  17  19  1   
 35  18  20  ar  
 36  18  21  ar  
 37  19  39  1   
 38  19  40  1   
 39  20  22  ar  
 40  20  41  1   
 41  21  23  ar  
 42  21  42  1   
 43  22  24  ar  
 44  22  43  1   
 45  23  24  ar  
 46  23  44  1   
 47  24  45  1   
@<TRIPOS>SUBSTRUCTURE
  1 ****  12 GROUP 4 **** **** 0

# MOE 2024.06 (io_trps.svl 2023.06)
