@<TRIPOS>MOLECULE
NONAME
23 22 1 0 0 
SMALL
USER_CHARGES


@<TRIPOS>ATOM
  1 S       -0.2460     0.2600    -0.1210 S.o2  1 <1>   1.3450 
  2 O       -0.9870     0.5730     1.1250 O.co2 1 <1>  -0.8170 
  3 O        1.1570     0.7320    -0.1430 O.co2 1 <1>  -0.8170 
  4 O       -1.0090     0.5050    -1.3670 O.co2 1 <1>  -0.8170 
  5 C       -0.0880    -1.5440    -0.0710 C.3   1 <1>  -0.0550 
  6 C       -1.4440    -2.2700    -0.0390 C.3   1 <1>  -0.1600 
  7 C       -1.2880    -3.7940     0.0040 C.3   1 <1>  -0.1600 
  8 C       -2.6670    -4.4650     0.0350 C.3   1 <1>  -0.1600 
  9 C       -2.5370    -5.9840     0.0790 C.3   1 <1>   0.3430 
 10 N       -3.8930    -6.5780     0.1080 N.4   1 <1>  -0.8530 
 11 H        0.4780    -1.8080     0.8000 H     1 <1>   0.0800 
 12 H        0.4640    -1.8580    -0.9340 H     1 <1>   0.0800 
 13 H       -2.0020    -1.9770    -0.9130 H     1 <1>   0.0800 
 14 H       -1.9890    -1.9260     0.8250 H     1 <1>   0.0800 
 15 H       -0.7220    -4.0630     0.8820 H     1 <1>   0.0800 
 16 H       -0.7370    -4.1140    -0.8650 H     1 <1>   0.0800 
 17 H       -3.2110    -4.1680    -0.8450 H     1 <1>   0.0800 
 18 H       -3.1970    -4.1170     0.9060 H     1 <1>   0.0800 
 19 H       -1.9840    -6.2750     0.9590 H     1 <1>   0.0800 
 20 H       -1.9990    -6.3270    -0.7910 H     1 <1>   0.0800 
 21 H       -4.4090    -6.2520     0.9330 H     1 <1>   0.4500 
 22 H       -3.8520    -7.6040     0.1380 H     1 <1>   0.4500 
 23 H       -4.4240    -6.3010    -0.7250 H     1 <1>   0.4500 
@<TRIPOS>BOND
  1   1   2  ar  
  2   1   3  ar  
  3   1   4  ar  
  4   1   5  1   
  5   5   6  1   
  6   5  11  1   
  7   5  12  1   
  8   6   7  1   
  9   6  13  1   
 10   6  14  1   
 11   7   8  1   
 12   7  15  1   
 13   7  16  1   
 14   8   9  1   
 15   8  17  1   
 16   8  18  1   
 17   9  10  1   
 18   9  19  1   
 19   9  20  1   
 20  10  21  1   
 21  10  22  1   
 22  10  23  1   
@<TRIPOS>SUBSTRUCTURE
  1 ****   6 GROUP 4 **** **** 0

# MOE 2024.06 (io_trps.svl 2023.06)
