@<TRIPOS>MOLECULE
NONAME
60 64 1 0 0 
SMALL
USER_CHARGES


@<TRIPOS>ATOM
  1 O       -1.8230     1.3660     1.6950 O.2   1 <1>  -0.5700 
  2 C       -2.5470     1.5360     0.7390 C.2   1 <1>   0.5690 
  3 N       -3.7150     0.8000     0.6290 N.am  1 <1>  -0.6600 
  4 C       -2.0340     2.5340    -0.3360 C.3   1 <1>   0.0610 
  5 C       -4.0050    -0.2450     1.6650 C.3   1 <1>   0.2840 
  6 C       -4.6140     0.7400    -0.5820 C.3   1 <1>   0.1400 
  7 C       -1.1160     3.6280     0.2960 C.3   1 <1>   0.2200 
  8 C       -3.1180     3.4460    -0.9920 C.3   1 <1>  -0.1600 
  9 C       -1.2590     1.6600    -1.3760 C.3   1 <1>  -0.1600 
 10 C       -4.0090    -1.6120     0.9980 C.ar  1 <1>  -0.1440 
 11 C       -5.4580    -0.5440    -0.7070 C.3   1 <1>  -0.0170 
 12 N       -1.2050     4.7030    -0.6940 N.am  1 <1>  -0.6600 
 13 C       -1.7940     4.3700     1.4690 C.3   1 <1>  -0.1600 
 14 C       -2.6460     4.8810    -0.7100 C.3   1 <1>   0.2200 
 15 C       -0.5510     2.3400    -2.5600 C.3   1 <1>  -0.2400 
 16 C       -4.7240    -1.7610    -0.1770 C.ar  1 <1>  -0.1430 
 17 C       -3.3170    -2.6900     1.5270 C.ar  1 <1>  -0.1500 
 18 C       -0.1580     5.3940    -1.2410 C.2   1 <1>   0.5690 
 19 C       -2.8950     5.1890     0.7710 C.3   1 <1>  -0.1600 
 20 C       -4.7560    -2.9870    -0.8210 C.ar  1 <1>  -0.1500 
 21 C       -3.3480    -3.9150     0.8840 C.ar  1 <1>  -0.1500 
 22 O        0.9830     5.1030    -0.9750 O.2   1 <1>  -0.5700 
 23 C       -0.4050     6.5120    -2.2410 C.3   1 <1>   0.1570 
 24 C       -4.0680    -4.0640    -0.2890 C.ar  1 <1>  -0.1500 
 25 N        0.3170     7.7560    -1.8950 N.pl3 1 <1>   0.0480 
 26 C        0.1890     8.5590    -0.8080 C.2   1 <1>   0.0060 
 27 C        1.2090     8.3900    -2.6800 C.2   1 <1>  -0.3020 
 28 N        0.9180     9.6250    -0.8590 N.2   1 <1>  -0.5650 
 29 C       -0.7180     8.2570     0.3660 C.3   1 <1>  -0.0600 
 30 C        1.5650     9.5190    -2.0330 C.2   1 <1>   0.0770 
 31 H       -3.2850    -0.2350     2.4640 H     1 <1>   0.0800 
 32 H       -4.9710    -0.0550     2.0970 H     1 <1>   0.0800 
 33 H       -5.2940     1.5720    -0.5580 H     1 <1>   0.0800 
 34 H       -4.0150     0.8230    -1.4690 H     1 <1>   0.0800 
 35 H       -0.1100     3.3020     0.5050 H     1 <1>   0.0800 
 36 H       -4.0890     3.3200    -0.5560 H     1 <1>   0.0800 
 37 H       -3.1970     3.2800    -2.0500 H     1 <1>   0.0800 
 38 H       -0.5100     1.1020    -0.8390 H     1 <1>   0.0800 
 39 H       -1.9300     0.9290    -1.7850 H     1 <1>   0.0800 
 40 H       -6.3660    -0.4220    -0.1450 H     1 <1>   0.0800 
 41 H       -5.7330    -0.6880    -1.7360 H     1 <1>   0.0800 
 42 H       -2.1890     3.7250     2.2300 H     1 <1>   0.0800 
 43 H       -1.0740     5.0230     1.9290 H     1 <1>   0.0800 
 44 H       -3.0190     5.6230    -1.3940 H     1 <1>   0.0800 
 45 H        0.3060     2.8890    -2.2170 H     1 <1>   0.0800 
 46 H       -1.2070     3.0000    -3.0950 H     1 <1>   0.0800 
 47 H       -0.1970     1.5900    -3.2450 H     1 <1>   0.0800 
 48 H       -2.7520    -2.5780     2.4360 H     1 <1>   0.1500 
 49 H       -2.7720     6.2370     0.9690 H     1 <1>   0.0800 
 50 H       -3.8800     4.8920     1.0860 H     1 <1>   0.0800 
 51 H       -5.3130    -3.1100    -1.7330 H     1 <1>   0.1500 
 52 H       -2.8110    -4.7520     1.2960 H     1 <1>   0.1500 
 53 H       -1.4480     6.7400    -2.3070 H     1 <1>   0.0800 
 54 H       -0.0680     6.1780    -3.2030 H     1 <1>   0.0800 
 55 H       -4.0910    -5.0170    -0.7880 H     1 <1>   0.1500 
 56 H        1.5400     8.0150    -3.6300 H     1 <1>   0.1500 
 57 H       -0.6500     9.0510     1.0880 H     1 <1>   0.0800 
 58 H       -0.4160     7.3410     0.8380 H     1 <1>   0.0800 
 59 H       -1.7360     8.1820     0.0340 H     1 <1>   0.0800 
 60 H        2.2630    10.2730    -2.3540 H     1 <1>   0.1500 
@<TRIPOS>BOND
  1   1   2  2   
  2   2   3  am  
  3   2   4  1   
  4   3   5  1   
  5   3   6  1   
  6   4   7  1   
  7   4   8  1   
  8   4   9  1   
  9   5  10  1   
 10   5  31  1   
 11   5  32  1   
 12   6  11  1   
 13   6  33  1   
 14   6  34  1   
 15   7  12  1   
 16   7  13  1   
 17   7  35  1   
 18   8  14  1   
 19   8  36  1   
 20   8  37  1   
 21   9  15  1   
 22   9  38  1   
 23   9  39  1   
 24  10  16  ar  
 25  10  17  ar  
 26  11  16  1   
 27  11  40  1   
 28  11  41  1   
 29  12  14  1   
 30  12  18  am  
 31  13  19  1   
 32  13  42  1   
 33  13  43  1   
 34  14  19  1   
 35  14  44  1   
 36  15  45  1   
 37  15  46  1   
 38  15  47  1   
 39  16  20  ar  
 40  17  21  ar  
 41  17  48  1   
 42  18  22  2   
 43  18  23  1   
 44  19  49  1   
 45  19  50  1   
 46  20  24  ar  
 47  20  51  1   
 48  21  24  ar  
 49  21  52  1   
 50  23  25  1   
 51  23  53  1   
 52  23  54  1   
 53  24  55  1   
 54  25  26  1   
 55  25  27  1   
 56  26  28  2   
 57  26  29  1   
 58  27  30  2   
 59  27  56  1   
 60  28  30  1   
 61  29  57  1   
 62  29  58  1   
 63  29  59  1   
 64  30  60  1   
@<TRIPOS>SUBSTRUCTURE
  1 ****   4 GROUP 4 **** **** 0

# MOE 2024.06 (io_trps.svl 2023.06)
