@<TRIPOS>MOLECULE
NONAME
51 54 1 0 0 
SMALL
USER_CHARGES


@<TRIPOS>ATOM
  1 O        0.4550     0.7110    -0.3390 O.2   1 <1>  -0.5700 
  2 C       -0.2800     1.6300    -0.6650 C.2   1 <1>   0.5440 
  3 N       -1.6340     1.5100    -0.3790 N.am  1 <1>  -0.6600 
  4 C        0.2960     2.8230    -1.2960 C.ar  1 <1>   0.3960 
  5 C       -2.6500     2.5720    -0.6760 C.3   1 <1>   0.1400 
  6 C       -2.2170     0.2770     0.2220 C.3   1 <1>   0.1400 
  7 N       -0.1290     3.1650    -2.5270 N.ar  1 <1>  -0.6200 
  8 C        1.2610     3.5870    -0.6160 C.ar  1 <1>  -0.1430 
  9 C       -3.4180     2.9740     0.5970 C.3   1 <1>   0.1430 
 10 C       -2.9820     0.6320     1.5040 C.3   1 <1>  -0.1600 
 11 C        0.3970     4.2420    -3.0740 C.ar  1 <1>   0.1600 
 12 C        1.7940     4.7130    -1.2110 C.ar  1 <1>  -0.1500 
 13 C        1.7540     3.2060     0.7770 C.3   1 <1>  -0.0960 
 14 C       -4.4590     4.0110     0.2190 C.ar  1 <1>   0.1670 
 15 C       -4.0390     1.7220     1.2540 C.3   1 <1>  -0.1600 
 16 C       -2.5100     3.7600     1.5810 C.3   1 <1>  -0.1600 
 17 C        1.3470     5.0420    -2.4690 C.ar  1 <1>  -0.1500 
 18 N       -5.5760     3.7690    -0.4200 N.ar  1 <1>  -0.6200 
 19 C       -4.0850     5.2600     0.6120 C.ar  1 <1>  -0.1430 
 20 C       -2.7470     5.2560     1.3080 C.3   1 <1>  -0.0170 
 21 C       -6.3410     4.8370    -0.6600 C.ar  1 <1>   0.7200 
 22 C       -4.9340     6.2980     0.3260 C.ar  1 <1>   0.1600 
 23 N       -6.0650     6.0980    -0.3080 N.ar  1 <1>  -0.6200 
 24 N       -7.5310     4.6190    -1.3310 N.pl3 1 <1>  -0.8380 
 25 C       -8.0110     3.2440    -1.6490 C.3   1 <1>   0.1290 
 26 C       -8.5300     5.7110    -1.5070 C.3   1 <1>   0.1290 
 27 H       -3.3450     2.1890    -1.4040 H     1 <1>   0.0800 
 28 H       -2.1920     3.4470    -1.0970 H     1 <1>   0.0800 
 29 H       -1.4500    -0.4430     0.4490 H     1 <1>   0.0800 
 30 H       -2.8880    -0.1710    -0.4910 H     1 <1>   0.0800 
 31 H       -2.2770     0.9600     2.2470 H     1 <1>   0.0800 
 32 H       -3.4620    -0.2540     1.8820 H     1 <1>   0.0800 
 33 H        0.0540     4.5050    -4.0600 H     1 <1>   0.1500 
 34 H        2.5370     5.3170    -0.7190 H     1 <1>   0.1500 
 35 H        0.9260     2.9930     1.4290 H     1 <1>   0.0800 
 36 H        2.3330     3.9980     1.2160 H     1 <1>   0.0800 
 37 H        2.3730     2.3280     0.7150 H     1 <1>   0.0800 
 38 H       -4.7930     1.3250     0.5960 H     1 <1>   0.0800 
 39 H       -4.5260     1.9890     2.1750 H     1 <1>   0.0800 
 40 H       -1.4730     3.4980     1.4850 H     1 <1>   0.0800 
 41 H       -2.8170     3.5540     2.5910 H     1 <1>   0.0800 
 42 H        1.7320     5.9060    -2.9800 H     1 <1>   0.1500 
 43 H       -1.9930     5.6450     0.6460 H     1 <1>   0.0800 
 44 H       -2.7680     5.8270     2.2200 H     1 <1>   0.0800 
 45 H       -4.6830     7.3030     0.6170 H     1 <1>   0.1500 
 46 H       -7.1910     2.6270    -1.9730 H     1 <1>   0.0800 
 47 H       -8.7390     3.2750    -2.4400 H     1 <1>   0.0800 
 48 H       -8.4550     2.8060    -0.7730 H     1 <1>   0.0800 
 49 H       -8.0400     6.6070    -1.8470 H     1 <1>   0.0800 
 50 H       -9.0120     5.9120    -0.5660 H     1 <1>   0.0800 
 51 H       -9.2710     5.4330    -2.2340 H     1 <1>   0.0800 
@<TRIPOS>BOND
  1   1   2  2   
  2   2   3  am  
  3   2   4  1   
  4   3   5  1   
  5   3   6  1   
  6   4   7  ar  
  7   4   8  ar  
  8   5   9  1   
  9   5  27  1   
 10   5  28  1   
 11   6  10  1   
 12   6  29  1   
 13   6  30  1   
 14   7  11  ar  
 15   8  12  ar  
 16   8  13  1   
 17   9  14  1   
 18   9  15  1   
 19   9  16  1   
 20  10  15  1   
 21  10  31  1   
 22  10  32  1   
 23  11  17  ar  
 24  11  33  1   
 25  12  17  ar  
 26  12  34  1   
 27  13  35  1   
 28  13  36  1   
 29  13  37  1   
 30  14  18  ar  
 31  14  19  ar  
 32  15  38  1   
 33  15  39  1   
 34  16  20  1   
 35  16  40  1   
 36  16  41  1   
 37  17  42  1   
 38  18  21  ar  
 39  19  20  1   
 40  19  22  ar  
 41  20  43  1   
 42  20  44  1   
 43  21  23  ar  
 44  21  24  1   
 45  22  23  ar  
 46  22  45  1   
 47  24  25  1   
 48  24  26  1   
 49  25  46  1   
 50  25  47  1   
 51  25  48  1   
 52  26  49  1   
 53  26  50  1   
 54  26  51  1   
@<TRIPOS>SUBSTRUCTURE
  1 ****   5 GROUP 4 **** **** 0

# MOE 2024.06 (io_trps.svl 2023.06)
