@<TRIPOS>MOLECULE
NONAME
43 46 1 0 0 
SMALL
USER_CHARGES


@<TRIPOS>ATOM
  1 O        0.1310    -0.9450     1.5200 O.3   1 <1>  -0.5600 
  2 C        0.3000    -1.6760     0.3410 C.3   1 <1>   0.2000 
  3 C       -1.1860    -0.8280     1.9550 C.3   1 <1>   0.0400 
  4 C        1.6980    -1.4680    -0.2660 C.3   1 <1>   0.0000 
  5 C        0.1750    -3.1820     0.5930 C.3   1 <1>  -0.1600 
  6 C        2.7920    -1.4460     0.8330 C.3   1 <1>   0.2090 
  7 C        1.7710    -0.1640    -1.0900 C.3   1 <1>  -0.1600 
  8 C        1.8370    -2.7210    -1.1480 C.3   1 <1>  -0.1600 
  9 C        1.1710    -3.8540    -0.3610 C.3   1 <1>  -0.1600 
 10 N        4.1500    -1.1720     0.2600 N.pl3 1 <1>  -0.8380 
 11 C        3.1830     0.0630    -1.6550 C.3   1 <1>  -0.1600 
 12 C        5.1990    -2.0610     0.4120 C.ar  1 <1>   0.4100 
 13 C        4.2540     0.0600    -0.5600 C.3   1 <1>   0.2090 
 14 N        4.9190    -3.3450     0.3870 N.ar  1 <1>  -0.6200 
 15 C        6.5280    -1.6310     0.5840 C.ar  1 <1>   0.0000 
 16 C        5.9520    -4.1900     0.4880 C.ar  1 <1>   0.4700 
 17 C        7.4920    -2.6120     0.6710 C.ar  1 <1>   0.1050 
 18 C        7.2170    -0.4010     0.7250 C.2   1 <1>  -0.1500 
 19 N        7.2260    -3.9180     0.6210 N.ar  1 <1>  -0.5670 
 20 N        8.7140    -2.0340     0.8290 N.pl3 1 <1>   0.0330 
 21 C        8.5370    -0.6780     0.8650 C.2   1 <1>  -0.3020 
 22 H       -0.4420    -1.3630    -0.3750 H     1 <1>   0.0800 
 23 H       -1.1890    -0.2340     2.8520 H     1 <1>   0.0800 
 24 H       -1.5830    -1.8050     2.1700 H     1 <1>   0.0800 
 25 H       -1.7700    -0.3390     1.1950 H     1 <1>   0.0800 
 26 H        0.4430    -3.4120     1.6100 H     1 <1>   0.0800 
 27 H       -0.8280    -3.5160     0.3980 H     1 <1>   0.0800 
 28 H        2.7960    -2.3750     1.3740 H     1 <1>   0.0800 
 29 H        2.5710    -0.6670     1.5410 H     1 <1>   0.0800 
 30 H        1.0600    -0.1920    -1.8960 H     1 <1>   0.0800 
 31 H        1.5130     0.6630    -0.4510 H     1 <1>   0.0800 
 32 H        1.3030    -2.5780    -2.0700 H     1 <1>   0.0800 
 33 H        2.8630    -2.9490    -1.3820 H     1 <1>   0.0800 
 34 H        1.9180    -4.3810     0.2090 H     1 <1>   0.0800 
 35 H        0.6850    -4.5500    -1.0230 H     1 <1>   0.0800 
 36 H        3.2150     1.0040    -2.1730 H     1 <1>   0.0800 
 37 H        3.4210    -0.7070    -2.3670 H     1 <1>   0.0800 
 38 H        4.1260     0.9160     0.0810 H     1 <1>   0.0800 
 39 H        5.2240     0.1180    -1.0230 H     1 <1>   0.0800 
 40 H        5.6870    -5.2330     0.4530 H     1 <1>   0.1500 
 41 H        6.7390     0.5620     0.7250 H     1 <1>   0.1500 
 42 H        9.5870    -2.5610     0.9180 H     1 <1>   0.2700 
 43 H        9.3610     0.0040     0.9940 H     1 <1>   0.1500 
@<TRIPOS>BOND
  1   1   2  1   
  2   1   3  1   
  3   2   4  1   
  4   2   5  1   
  5   2  22  1   
  6   3  23  1   
  7   3  24  1   
  8   3  25  1   
  9   4   6  1   
 10   4   7  1   
 11   4   8  1   
 12   5   9  1   
 13   5  26  1   
 14   5  27  1   
 15   6  10  1   
 16   6  28  1   
 17   6  29  1   
 18   7  11  1   
 19   7  30  1   
 20   7  31  1   
 21   8   9  1   
 22   8  32  1   
 23   8  33  1   
 24   9  34  1   
 25   9  35  1   
 26  10  12  1   
 27  10  13  1   
 28  11  13  1   
 29  11  36  1   
 30  11  37  1   
 31  12  14  ar  
 32  12  15  ar  
 33  13  38  1   
 34  13  39  1   
 35  14  16  ar  
 36  15  17  ar  
 37  15  18  1   
 38  16  19  ar  
 39  16  40  1   
 40  17  19  ar  
 41  17  20  1   
 42  18  21  2   
 43  18  41  1   
 44  20  21  1   
 45  20  42  1   
 46  21  43  1   
@<TRIPOS>SUBSTRUCTURE
  1 ****  10 GROUP 4 **** **** 0

# MOE 2024.06 (io_trps.svl 2023.06)
