@<TRIPOS>MOLECULE
NONAME
38 40 1 0 0 
SMALL
USER_CHARGES


@<TRIPOS>ATOM
  1 CL      -1.3220     0.2690    -2.1830 Cl    1 <1>  -0.1770 
  2 C       -2.0480    -0.7500    -0.9660 C.ar  1 <1>   0.1770 
  3 C       -2.6280    -0.1830     0.1560 C.ar  1 <1>   0.1600 
  4 C       -2.0410    -2.1160    -1.1300 C.ar  1 <1>  -0.1500 
  5 N       -3.1970    -0.8840     1.1280 N.ar  1 <1>  -0.6200 
  6 C       -2.6380    -2.8790    -0.1350 C.ar  1 <1>   0.0860 
  7 C       -3.1750    -2.2000     0.9600 C.ar  1 <1>   0.1600 
  8 C       -2.6970    -4.3220    -0.2160 C.2   1 <1>   0.5440 
  9 O       -1.7050    -4.9440    -0.5400 O.2   1 <1>  -0.5700 
 10 N       -3.8540    -5.0150     0.0520 N.am  1 <1>  -0.6600 
 11 C       -5.2270    -4.4570    -0.0700 C.3   1 <1>   0.1400 
 12 C       -3.8960    -6.4990     0.0390 C.3   1 <1>   0.1400 
 13 C       -6.1040    -5.6570    -0.4240 C.3   1 <1>   0.2000 
 14 C       -5.3770    -6.8670     0.1540 C.3   1 <1>  -0.0800 
 15 O       -7.3700    -5.5480     0.1260 O.3   1 <1>  -0.6800 
 16 C       -5.7390    -8.1840    -0.5480 C.3   1 <1>   0.0200 
 17 C       -4.9280    -9.3350     0.0140 C.2   1 <1>  -0.0400 
 18 O       -5.0450    -9.6620     1.2730 O.3   1 <1>  -0.0190 
 19 C       -4.0300   -10.1580    -0.5450 C.2   1 <1>  -0.1500 
 20 N       -4.2690   -10.6570     1.5880 N.2   1 <1>  -0.4100 
 21 C       -3.6450   -10.9790     0.5120 C.2   1 <1>   0.1080 
 22 C       -2.6310   -12.0960     0.4180 C.3   1 <1>  -0.0590 
 23 H       -2.6200     0.8890     0.2530 H     1 <1>   0.1500 
 24 H       -1.5910    -2.5760    -1.9910 H     1 <1>   0.1500 
 25 H       -3.6120    -2.7900     1.7470 H     1 <1>   0.1500 
 26 H       -5.5250    -4.0370     0.8750 H     1 <1>   0.0800 
 27 H       -5.2730    -3.7090    -0.8430 H     1 <1>   0.0800 
 28 H       -3.4820    -6.8540    -0.8900 H     1 <1>   0.0800 
 29 H       -3.3240    -6.9040     0.8570 H     1 <1>   0.0800 
 30 H       -6.2030    -5.7300    -1.4940 H     1 <1>   0.0800 
 31 H       -5.6000    -6.9510     1.2040 H     1 <1>   0.0800 
 32 H       -7.3280    -5.5840     1.1020 H     1 <1>   0.4000 
 33 H       -5.5540    -8.1020    -1.6040 H     1 <1>   0.0800 
 34 H       -6.7860    -8.3910    -0.4080 H     1 <1>   0.0800 
 35 H       -3.6660   -10.2040    -1.5550 H     1 <1>   0.1500 
 36 H       -2.9560   -12.8240    -0.3030 H     1 <1>   0.0800 
 37 H       -2.5240   -12.5760     1.3740 H     1 <1>   0.0800 
 38 H       -1.6780   -11.7000     0.1190 H     1 <1>   0.0800 
@<TRIPOS>BOND
  1   1   2  1   
  2   2   3  ar  
  3   2   4  ar  
  4   3   5  ar  
  5   3  23  1   
  6   4   6  ar  
  7   4  24  1   
  8   5   7  ar  
  9   6   7  ar  
 10   6   8  1   
 11   7  25  1   
 12   8   9  2   
 13   8  10  am  
 14  10  11  1   
 15  10  12  1   
 16  11  13  1   
 17  11  26  1   
 18  11  27  1   
 19  12  14  1   
 20  12  28  1   
 21  12  29  1   
 22  13  14  1   
 23  13  15  1   
 24  13  30  1   
 25  14  16  1   
 26  14  31  1   
 27  15  32  1   
 28  16  17  1   
 29  16  33  1   
 30  16  34  1   
 31  17  18  1   
 32  17  19  2   
 33  18  20  1   
 34  19  21  1   
 35  19  35  1   
 36  20  21  2   
 37  21  22  1   
 38  22  36  1   
 39  22  37  1   
 40  22  38  1   
@<TRIPOS>SUBSTRUCTURE
  1 ****  10 GROUP 4 **** **** 0

# MOE 2024.06 (io_trps.svl 2023.06)
