@<TRIPOS>MOLECULE
NONAME
37 39 1 0 0 
SMALL
USER_CHARGES


@<TRIPOS>ATOM
  1 N        0.3750     1.2280     1.0830 N.2   1 <1>  -0.6210 
  2 C       -0.8940     1.3330     1.3150 C.2   1 <1>   0.9190 
  3 C        0.8710     1.8920     0.0320 C.2   1 <1>   0.2710 
  4 N       -1.7500     2.0070     0.5170 N.pl3 1 <1>  -0.6690 
  5 N       -1.3770     0.7320     2.3990 N.pl3 1 <1>  -0.8500 
  6 N        2.2230     1.9100    -0.0980 N.pl3 1 <1>  -0.8380 
  7 C        0.0750     2.5870    -0.8400 C.2   1 <1>  -0.1410 
  8 C       -1.2640     2.6410    -0.5460 C.cat 1 <1>   0.7910 
  9 C       -3.0940     2.2710     0.5250 C.2   1 <1>   0.5030 
 10 C        3.0150     3.1190     0.3080 C.3   1 <1>   0.2090 
 11 C        2.9730     0.6270    -0.1320 C.3   1 <1>   0.2090 
 12 N       -2.3070     3.2450    -1.1370 N.pl3 1 <1>  -0.3930 
 13 N       -3.4600     3.0100    -0.4560 N.2   1 <1>  -0.2600 
 14 C        2.3650     3.9570     1.4260 C.3   1 <1>   0.0960 
 15 C        3.8210     0.5790    -1.3990 C.3   1 <1>  -0.2400 
 16 N        1.3090     4.8660     0.9270 N.pl3 1 <1>   0.3140 
 17 N        0.0150     4.7870     1.3160 N.2   1 <1>  -0.7070 
 18 C        1.4990     5.9270     0.1150 C.2   1 <1>  -0.3020 
 19 C       -0.5650     5.8120     0.7670 C.2   1 <1>   0.1390 
 20 C        0.3130     6.5570    -0.0090 C.2   1 <1>  -0.1500 
 21 H       -0.6960     0.2590     2.9950 H     1 <1>   0.4000 
 22 H       -2.2450     0.9900     2.8560 H     1 <1>   0.4000 
 23 H        0.4920     3.0930    -1.6860 H     1 <1>   0.1500 
 24 H       -3.7550     1.8860     1.2850 H     1 <1>   0.1500 
 25 H        3.2010     3.7320    -0.5570 H     1 <1>   0.0800 
 26 H        3.9720     2.7890     0.6740 H     1 <1>   0.0800 
 27 H        2.2820    -0.2000    -0.1360 H     1 <1>   0.0800 
 28 H        3.5930     0.5370     0.7440 H     1 <1>   0.0800 
 29 H       -2.2520     3.8290    -1.9780 H     1 <1>   0.4500 
 30 H        3.1180     4.5670     1.8870 H     1 <1>   0.0800 
 31 H        1.9530     3.3120     2.1790 H     1 <1>   0.0800 
 32 H        3.1920     0.6750    -2.2660 H     1 <1>   0.0800 
 33 H        4.3350    -0.3630    -1.4520 H     1 <1>   0.0800 
 34 H        4.5520     1.3660    -1.3980 H     1 <1>   0.0800 
 35 H        2.4530     6.1840    -0.3100 H     1 <1>   0.1500 
 36 H       -1.6060     6.0540     0.9040 H     1 <1>   0.1500 
 37 H        0.0750     7.4480    -0.5640 H     1 <1>   0.1500 
@<TRIPOS>BOND
  1   1   2  2   
  2   1   3  1   
  3   2   4  1   
  4   2   5  1   
  5   3   6  1   
  6   3   7  2   
  7   4   8  ar  
  8   4   9  1   
  9   5  21  1   
 10   5  22  1   
 11   6  10  1   
 12   6  11  1   
 13   7   8  1   
 14   7  23  1   
 15   8  12  ar  
 16   9  13  2   
 17   9  24  1   
 18  10  14  1   
 19  10  25  1   
 20  10  26  1   
 21  11  15  1   
 22  11  27  1   
 23  11  28  1   
 24  12  13  1   
 25  12  29  1   
 26  14  16  1   
 27  14  30  1   
 28  14  31  1   
 29  15  32  1   
 30  15  33  1   
 31  15  34  1   
 32  16  17  1   
 33  16  18  1   
 34  17  19  2   
 35  18  20  2   
 36  18  35  1   
 37  19  20  1   
 38  19  36  1   
 39  20  37  1   
@<TRIPOS>SUBSTRUCTURE
  1 ****   7 GROUP 4 **** **** 0

# MOE 2024.06 (io_trps.svl 2023.06)
