@<TRIPOS>MOLECULE
NONAME
51 53 1 0 0 
SMALL
USER_CHARGES


@<TRIPOS>ATOM
  1 F       -0.2260     1.6110     0.5860 F     1 <1>  -0.1900 
  2 C       -1.1520     2.2650    -0.0660 C.ar  1 <1>   0.1900 
  3 C       -1.2580     3.6400     0.0820 C.ar  1 <1>  -0.1440 
  4 C       -2.0010     1.5370    -0.8790 C.ar  1 <1>  -0.1500 
  5 C       -2.2690     4.2900    -0.6130 C.ar  1 <1>  -0.1500 
  6 C       -0.3090     4.4180     0.9840 C.3   1 <1>   0.2540 
  7 C       -3.0000     2.2030    -1.5680 C.ar  1 <1>  -0.1500 
  8 C       -3.1320     3.5760    -1.4320 C.ar  1 <1>  -0.1500 
  9 N        0.9680     4.7100     0.3020 N.3   1 <1>  -0.8100 
 10 C        1.9720     5.2370     1.2680 C.3   1 <1>   0.1710 
 11 C        0.8030     5.5710    -0.8780 C.3   1 <1>   0.0300 
 12 C        1.6090     6.5590     1.9590 C.2   1 <1>   0.5690 
 13 O        1.1070     6.5370     3.0590 O.2   1 <1>  -0.5700 
 14 N        1.8460     7.7280     1.3110 N.am  1 <1>  -0.7300 
 15 C        1.4520     9.0680     1.7880 C.3   1 <1>   0.2200 
 16 C        0.4310     9.6570     0.8300 C.3   1 <1>   0.1200 
 17 C        2.6130    10.0200     1.5930 C.3   1 <1>  -0.1600 
 18 O        1.1790    10.0940    -0.2610 O.3   1 <1>  -0.5600 
 19 C        2.4290    10.5580     0.1590 C.3   1 <1>   0.2800 
 20 C        2.3770    12.1040     0.0800 C.3   1 <1>  -0.1600 
 21 C        3.4740     9.9560    -0.8080 C.3   1 <1>  -0.1600 
 22 C        3.7210    12.7090    -0.3510 C.3   1 <1>  -0.1600 
 23 C        3.6280    10.8000    -2.0800 C.3   1 <1>  -0.1600 
 24 C        4.1350    12.2180    -1.7520 C.3   1 <1>  -0.1600 
 25 H       -1.8790     0.4730    -0.9660 H     1 <1>   0.1500 
 26 H       -2.3860     5.3550    -0.5210 H     1 <1>   0.1500 
 27 H       -0.1150     3.8340     1.8680 H     1 <1>   0.0800 
 28 H       -0.7760     5.3360     1.2980 H     1 <1>   0.0800 
 29 H       -3.6720     1.6560    -2.2060 H     1 <1>   0.1500 
 30 H       -3.9100     4.0930    -1.9670 H     1 <1>   0.1500 
 31 H        2.9100     5.3640     0.7590 H     1 <1>   0.0800 
 32 H        2.1310     4.4980     2.0340 H     1 <1>   0.0800 
 33 H        0.2200     5.0600    -1.6240 H     1 <1>   0.0800 
 34 H        1.7640     5.7950    -1.3080 H     1 <1>   0.0800 
 35 H        0.3060     6.4890    -0.6160 H     1 <1>   0.0800 
 36 H        2.1560     7.7170     0.3380 H     1 <1>   0.3700 
 37 H        1.0970     9.0310     2.8050 H     1 <1>   0.0800 
 38 H       -0.0560    10.5120     1.2650 H     1 <1>   0.0800 
 39 H       -0.3010     8.9380     0.5080 H     1 <1>   0.0800 
 40 H        3.5620     9.5420     1.7550 H     1 <1>   0.0800 
 41 H        2.5300    10.8190     2.3070 H     1 <1>   0.0800 
 42 H        2.0740    12.5310     1.0180 H     1 <1>   0.0800 
 43 H        1.6420    12.3920    -0.6530 H     1 <1>   0.0800 
 44 H        3.2000     8.9490    -1.0620 H     1 <1>   0.0800 
 45 H        4.4340     9.9200    -0.3250 H     1 <1>   0.0800 
 46 H        4.4750    12.4250     0.3640 H     1 <1>   0.0800 
 47 H        3.6600    13.7840    -0.3510 H     1 <1>   0.0800 
 48 H        2.6670    10.8680    -2.5630 H     1 <1>   0.0800 
 49 H        4.3050    10.3220    -2.7660 H     1 <1>   0.0800 
 50 H        5.2090    12.2400    -1.8190 H     1 <1>   0.0800 
 51 H        3.7530    12.8950    -2.4960 H     1 <1>   0.0800 
@<TRIPOS>BOND
  1   1   2  1   
  2   2   3  ar  
  3   2   4  ar  
  4   3   5  ar  
  5   3   6  1   
  6   4   7  ar  
  7   4  25  1   
  8   5   8  ar  
  9   5  26  1   
 10   6   9  1   
 11   6  27  1   
 12   6  28  1   
 13   7   8  ar  
 14   7  29  1   
 15   8  30  1   
 16   9  10  1   
 17   9  11  1   
 18  10  12  1   
 19  10  31  1   
 20  10  32  1   
 21  11  33  1   
 22  11  34  1   
 23  11  35  1   
 24  12  13  2   
 25  12  14  am  
 26  14  15  1   
 27  14  36  1   
 28  15  16  1   
 29  15  17  1   
 30  15  37  1   
 31  16  18  1   
 32  16  38  1   
 33  16  39  1   
 34  17  19  1   
 35  17  40  1   
 36  17  41  1   
 37  18  19  1   
 38  19  20  1   
 39  19  21  1   
 40  20  22  1   
 41  20  42  1   
 42  20  43  1   
 43  21  23  1   
 44  21  44  1   
 45  21  45  1   
 46  22  24  1   
 47  22  46  1   
 48  22  47  1   
 49  23  24  1   
 50  23  48  1   
 51  23  49  1   
 52  24  50  1   
 53  24  51  1   
@<TRIPOS>SUBSTRUCTURE
  1 ****  14 GROUP 4 **** **** 0

# MOE 2024.06 (io_trps.svl 2023.06)
