@<TRIPOS>MOLECULE
NONAME
46 47 1 0 0 
SMALL
USER_CHARGES


@<TRIPOS>ATOM
  1 F        1.1580     1.1580     2.6210 F     1 <1>  -0.1900 
  2 C        2.0040     1.8430     1.9000 C.ar  1 <1>   0.1900 
  3 C        3.2020     1.2570     1.5410 C.ar  1 <1>  -0.1500 
  4 C        1.6690     3.1290     1.5230 C.ar  1 <1>  -0.1500 
  5 C        4.0930     1.9910     0.7750 C.ar  1 <1>  -0.1500 
  6 C        2.5690     3.8520     0.7570 C.ar  1 <1>  -0.1500 
  7 C        3.7820     3.2870     0.3810 C.ar  1 <1>  -0.1430 
  8 C        4.7700     4.0820    -0.4640 C.3   1 <1>   0.2540 
  9 N        6.0930     4.1650     0.1880 N.3   1 <1>  -0.8100 
 10 C        7.1010     4.7590    -0.7350 C.3   1 <1>   0.1710 
 11 C        6.0280     4.8670     1.4780 C.3   1 <1>   0.0300 
 12 C        6.8090     6.1870    -1.2180 C.2   1 <1>   0.5690 
 13 O        6.2300     6.3500    -2.2660 O.2   1 <1>  -0.5700 
 14 N        7.2010     7.2390    -0.4570 N.am  1 <1>  -0.7300 
 15 C        7.0340     8.6460    -0.8260 C.3   1 <1>   0.4010 
 16 C        8.1090     9.4230    -0.0900 C.2   1 <1>  -0.1810 
 17 C        5.6140     9.1020    -0.4570 C.3   1 <1>  -0.1600 
 18 C        8.1650     9.6750     1.2770 C.2   1 <1>   0.1390 
 19 C        9.2180    10.0160    -0.5850 C.2   1 <1>  -0.3020 
 20 C        5.3510    10.5780    -0.7950 C.3   1 <1>  -0.2400 
 21 N        9.2160    10.3570     1.6100 N.2   1 <1>  -0.7070 
 22 N        9.8680    10.5720     0.4550 N.pl3 1 <1>   0.3140 
 23 C       11.1220    11.3310     0.4120 C.3   1 <1>   0.0160 
 24 H        3.4300     0.2550     1.8530 H     1 <1>   0.1500 
 25 H        0.7260     3.5500     1.8220 H     1 <1>   0.1500 
 26 H        5.0370     1.5610     0.4870 H     1 <1>   0.1500 
 27 H        2.3230     4.8550     0.4560 H     1 <1>   0.1500 
 28 H        4.3870     5.0730    -0.6430 H     1 <1>   0.0800 
 29 H        4.8730     3.5920    -1.4170 H     1 <1>   0.0800 
 30 H        7.1810     4.1300    -1.6040 H     1 <1>   0.0800 
 31 H        8.0610     4.7490    -0.2530 H     1 <1>   0.0800 
 32 H        5.4050     4.3190     2.1650 H     1 <1>   0.0800 
 33 H        5.6180     5.8550     1.3550 H     1 <1>   0.0800 
 34 H        7.0120     4.9400     1.9080 H     1 <1>   0.0800 
 35 H        7.7440     7.0950     0.3930 H     1 <1>   0.3700 
 36 H        7.1780     8.7520    -1.8880 H     1 <1>   0.0800 
 37 H        5.4440     8.9460     0.5930 H     1 <1>   0.0800 
 38 H        4.9100     8.4980    -1.0030 H     1 <1>   0.0800 
 39 H        7.4290     9.3480     1.9920 H     1 <1>   0.1500 
 40 H        9.5730    10.0700    -1.5970 H     1 <1>   0.1500 
 41 H        6.0050    11.2220    -0.2330 H     1 <1>   0.0800 
 42 H        4.3340    10.8340    -0.5550 H     1 <1>   0.0800 
 43 H        5.5090    10.7560    -1.8440 H     1 <1>   0.0800 
 44 H       11.6110    11.1680    -0.5300 H     1 <1>   0.0800 
 45 H       11.7560    11.0000     1.2130 H     1 <1>   0.0800 
 46 H       10.9020    12.3740     0.5360 H     1 <1>   0.0800 
@<TRIPOS>BOND
  1   1   2  1   
  2   2   3  ar  
  3   2   4  ar  
  4   3   5  ar  
  5   3  24  1   
  6   4   6  ar  
  7   4  25  1   
  8   5   7  ar  
  9   5  26  1   
 10   6   7  ar  
 11   6  27  1   
 12   7   8  1   
 13   8   9  1   
 14   8  28  1   
 15   8  29  1   
 16   9  10  1   
 17   9  11  1   
 18  10  12  1   
 19  10  30  1   
 20  10  31  1   
 21  11  32  1   
 22  11  33  1   
 23  11  34  1   
 24  12  13  2   
 25  12  14  am  
 26  14  15  1   
 27  14  35  1   
 28  15  16  1   
 29  15  17  1   
 30  15  36  1   
 31  16  18  1   
 32  16  19  2   
 33  17  20  1   
 34  17  37  1   
 35  17  38  1   
 36  18  21  2   
 37  18  39  1   
 38  19  22  1   
 39  19  40  1   
 40  20  41  1   
 41  20  42  1   
 42  20  43  1   
 43  21  22  1   
 44  22  23  1   
 45  23  44  1   
 46  23  45  1   
 47  23  46  1   
@<TRIPOS>SUBSTRUCTURE
  1 ****  12 GROUP 4 **** **** 0

# MOE 2024.06 (io_trps.svl 2023.06)
