@<TRIPOS>MOLECULE
NONAME
39 39 1 0 0 
SMALL
USER_CHARGES


@<TRIPOS>ATOM
  1 O        4.6590    -0.2130     1.5320 O.co2 1 <1>  -0.9000 
  2 C        3.4460    -0.0400     1.3920 C.2   1 <1>   0.9060 
  3 O        2.6280    -0.2230     2.2960 O.co2 1 <1>  -0.9000 
  4 C        2.9460     0.4770     0.0640 C.3   1 <1>  -0.2660 
  5 C        3.1710     1.9900    -0.0420 C.3   1 <1>  -0.1600 
  6 C        2.6620     2.5700    -1.3750 C.3   1 <1>  -0.0990 
  7 C        2.9300     4.0570    -1.5540 C.2   1 <1>   0.5690 
  8 O        2.7250     4.5390    -2.6430 O.2   1 <1>  -0.5700 
  9 N        3.3940     4.7640    -0.4860 N.am  1 <1>  -0.4930 
 10 C        3.8350     6.1040    -0.3630 C.2   1 <1>   0.0630 
 11 C        3.3560     7.2820    -0.9470 C.2   1 <1>   0.1080 
 12 C        4.8570     6.5020     0.4260 C.2   1 <1>  -0.3320 
 13 N        4.0230     8.3250    -0.5590 N.2   1 <1>  -0.7070 
 14 C        2.1940     7.4050    -1.9060 C.3   1 <1>  -0.0590 
 15 N        4.9560     7.8480     0.2830 N.pl3 1 <1>   0.3140 
 16 C        5.7650     5.6630     1.3160 C.3   1 <1>  -0.0600 
 17 C        5.9280     8.7550     0.9270 C.3   1 <1>   0.0960 
 18 C        7.2060     8.8770     0.0850 C.3   1 <1>  -0.1600 
 19 C        8.2300     9.8030     0.7510 C.3   1 <1>  -0.2400 
 20 H        1.9010     0.2430    -0.0140 H     1 <1>   0.0800 
 21 H        3.4780    -0.0400    -0.7120 H     1 <1>   0.0800 
 22 H        4.2290     2.1760     0.0590 H     1 <1>   0.0800 
 23 H        2.6620     2.4580     0.7850 H     1 <1>   0.0800 
 24 H        1.6030     2.4080    -1.4530 H     1 <1>   0.0800 
 25 H        3.1350     2.0500    -2.1880 H     1 <1>   0.0800 
 26 H        3.5730     4.2010     0.3440 H     1 <1>   0.3700 
 27 H        1.4250     6.7010    -1.6470 H     1 <1>   0.0800 
 28 H        2.5340     7.2070    -2.9050 H     1 <1>   0.0800 
 29 H        1.7880     8.3980    -1.8640 H     1 <1>   0.0800 
 30 H        5.5260     4.6180     1.2330 H     1 <1>   0.0800 
 31 H        5.6500     5.9540     2.3450 H     1 <1>   0.0800 
 32 H        6.7920     5.7930     1.0280 H     1 <1>   0.0800 
 33 H        6.1550     8.3790     1.9060 H     1 <1>   0.0800 
 34 H        5.4640     9.7190     1.0300 H     1 <1>   0.0800 
 35 H        6.9490     9.2710    -0.8850 H     1 <1>   0.0800 
 36 H        7.6440     7.9030    -0.0510 H     1 <1>   0.0800 
 37 H        7.8190    10.7900     0.8750 H     1 <1>   0.0800 
 38 H        9.1110     9.8760     0.1380 H     1 <1>   0.0800 
 39 H        8.5160     9.4210     1.7160 H     1 <1>   0.0800 
@<TRIPOS>BOND
  1   1   2  ar  
  2   2   3  ar  
  3   2   4  1   
  4   4   5  1   
  5   4  20  1   
  6   4  21  1   
  7   5   6  1   
  8   5  22  1   
  9   5  23  1   
 10   6   7  1   
 11   6  24  1   
 12   6  25  1   
 13   7   8  2   
 14   7   9  am  
 15   9  10  1   
 16   9  26  1   
 17  10  11  1   
 18  10  12  2   
 19  11  13  2   
 20  11  14  1   
 21  12  15  1   
 22  12  16  1   
 23  13  15  1   
 24  14  27  1   
 25  14  28  1   
 26  14  29  1   
 27  15  17  1   
 28  16  30  1   
 29  16  31  1   
 30  16  32  1   
 31  17  18  1   
 32  17  33  1   
 33  17  34  1   
 34  18  19  1   
 35  18  35  1   
 36  18  36  1   
 37  19  37  1   
 38  19  38  1   
 39  19  39  1   
@<TRIPOS>SUBSTRUCTURE
  1 ****   9 GROUP 4 **** **** 0

# MOE 2024.06 (io_trps.svl 2023.06)
