@<TRIPOS>MOLECULE
NONAME
48 50 1 0 0 
SMALL
USER_CHARGES


@<TRIPOS>ATOM
  1 O       -0.6240    -0.1580     0.5640 O.2   1 <1>  -0.5700 
  2 C       -1.4650     0.6630     0.2350 C.2   1 <1>   0.5440 
  3 N       -2.5420     0.1980    -0.5090 N.am  1 <1>  -0.6600 
  4 C       -1.3180     2.0620     0.6490 C.ar  1 <1>   0.3960 
  5 C       -2.7310    -1.2580    -0.7370 C.3   1 <1>   0.1400 
  6 C       -3.7850     0.9880    -0.7230 C.3   1 <1>   0.1400 
  7 N       -2.2060     2.5550     1.5320 N.ar  1 <1>  -0.6200 
  8 C       -0.2770     2.8470     0.1290 C.ar  1 <1>  -0.1430 
  9 C       -3.7440    -1.7770     0.3070 C.3   1 <1>   0.4230 
 10 C       -4.8320     0.5050     0.2910 C.3   1 <1>  -0.1600 
 11 C       -2.0510     3.8120     1.9000 C.ar  1 <1>   0.1600 
 12 C       -0.1410     4.1610     0.5290 C.ar  1 <1>  -0.1500 
 13 C        0.7220     2.2810    -0.8760 C.3   1 <1>  -0.0960 
 14 N       -3.8670    -3.2940     0.3510 N.4   1 <1>  -0.9590 
 15 C       -5.1100    -1.0270     0.2210 C.3   1 <1>   0.0000 
 16 C       -1.0530     4.6470     1.4370 C.ar  1 <1>  -0.1500 
 17 C       -5.1030    -3.7870     1.0400 C.3   1 <1>   0.3430 
 18 C       -3.6950    -3.9940    -0.9640 C.3   1 <1>   0.2630 
 19 C       -5.9900    -1.4320     1.4420 C.3   1 <1>  -0.1600 
 20 C       -5.8330    -1.3830    -1.1100 C.3   1 <1>   0.1200 
 21 C       -5.5920    -2.7780     2.0780 C.3   1 <1>  -0.1600 
 22 O       -6.9550    -0.5980    -1.3130 O.3   1 <1>  -0.6800 
 23 H       -3.0810    -1.4080    -1.7410 H     1 <1>   0.0800 
 24 H       -1.7960    -1.7790    -0.6280 H     1 <1>   0.0800 
 25 H       -3.6030     2.0410    -0.5940 H     1 <1>   0.0800 
 26 H       -4.1390     0.8440    -1.7300 H     1 <1>   0.0800 
 27 H       -3.3260    -1.4850     1.2570 H     1 <1>   0.0800 
 28 H       -4.4650     0.7670     1.2700 H     1 <1>   0.0800 
 29 H       -5.7380     1.0670     0.1470 H     1 <1>   0.0800 
 30 H       -2.7580     4.2040     2.6130 H     1 <1>   0.1500 
 31 H        0.6480     4.7910     0.1530 H     1 <1>   0.1500 
 32 H        1.3840     3.0460    -1.2390 H     1 <1>   0.0800 
 33 H        0.2060     1.8550    -1.7180 H     1 <1>   0.0800 
 34 H        1.3160     1.5140    -0.4100 H     1 <1>   0.0800 
 35 H       -3.0760    -3.5860     0.9450 H     1 <1>   0.4500 
 36 H       -0.9920     5.6620     1.7850 H     1 <1>   0.1500 
 37 H       -5.8880    -3.9390     0.3170 H     1 <1>   0.0800 
 38 H       -4.9040    -4.7340     1.5170 H     1 <1>   0.0800 
 39 H       -4.4660    -3.6960    -1.6550 H     1 <1>   0.0800 
 40 H       -3.7510    -5.0620    -0.8280 H     1 <1>   0.0800 
 41 H       -2.7350    -3.7600    -1.3950 H     1 <1>   0.0800 
 42 H       -5.9300    -0.6840     2.2150 H     1 <1>   0.0800 
 43 H       -7.0260    -1.4760     1.1530 H     1 <1>   0.0800 
 44 H       -6.1540    -2.4080    -1.1210 H     1 <1>   0.0800 
 45 H       -5.1950    -1.2190    -1.9600 H     1 <1>   0.0800 
 46 H       -6.4420    -3.1870     2.5980 H     1 <1>   0.0800 
 47 H       -4.8190    -2.6260     2.8130 H     1 <1>   0.0800 
 48 H       -7.6020    -0.6810    -0.5850 H     1 <1>   0.4000 
@<TRIPOS>BOND
  1   1   2  2   
  2   2   3  am  
  3   2   4  1   
  4   3   5  1   
  5   3   6  1   
  6   4   7  ar  
  7   4   8  ar  
  8   5   9  1   
  9   5  23  1   
 10   5  24  1   
 11   6  10  1   
 12   6  25  1   
 13   6  26  1   
 14   7  11  ar  
 15   8  12  ar  
 16   8  13  1   
 17   9  14  1   
 18   9  15  1   
 19   9  27  1   
 20  10  15  1   
 21  10  28  1   
 22  10  29  1   
 23  11  16  ar  
 24  11  30  1   
 25  12  16  ar  
 26  12  31  1   
 27  13  32  1   
 28  13  33  1   
 29  13  34  1   
 30  14  17  1   
 31  14  18  1   
 32  14  35  1   
 33  15  19  1   
 34  15  20  1   
 35  16  36  1   
 36  17  21  1   
 37  17  37  1   
 38  17  38  1   
 39  18  39  1   
 40  18  40  1   
 41  18  41  1   
 42  19  21  1   
 43  19  42  1   
 44  19  43  1   
 45  20  22  1   
 46  20  44  1   
 47  20  45  1   
 48  21  46  1   
 49  21  47  1   
 50  22  48  1   
@<TRIPOS>SUBSTRUCTURE
  1 ****   3 GROUP 4 **** **** 0

# MOE 2024.06 (io_trps.svl 2023.06)
