@<TRIPOS>MOLECULE
NONAME
41 43 1 0 0 
SMALL
USER_CHARGES


@<TRIPOS>ATOM
  1 CL      -1.7620    -0.8120    -2.6850 Cl    1 <1>  -0.1770 
  2 C       -2.3060     0.4420    -1.5950 C.ar  1 <1>   0.1770 
  3 C       -2.9760     0.1000    -0.4360 C.ar  1 <1>  -0.1440 
  4 C       -2.0650     1.7710    -1.9130 C.ar  1 <1>   0.1600 
  5 C       -3.3580     1.1720     0.3500 C.ar  1 <1>   0.1770 
  6 C       -3.2590    -1.3360    -0.0400 C.3   1 <1>   0.4860 
  7 N       -2.4440     2.7940    -1.1580 N.ar  1 <1>  -0.6200 
  8 CL      -4.2150     0.8930     1.8450 Cl    1 <1>  -0.1770 
  9 C       -3.0790     2.4740    -0.0380 C.ar  1 <1>   0.1600 
 10 N       -4.1130    -2.0460    -1.0520 N.4   1 <1>  -0.9590 
 11 C       -5.5890    -1.7870    -1.0530 C.3   1 <1>   0.4230 
 12 C       -3.8680    -3.5180    -0.9540 C.3   1 <1>   0.2630 
 13 C       -6.2630    -1.8440     0.3170 C.3   1 <1>  -0.1600 
 14 C       -5.9910    -0.4360    -1.6320 C.3   1 <1>  -0.1600 
 15 C       -7.6090    -1.1360     0.1090 C.3   1 <1>  -0.0800 
 16 C       -7.4130    -0.1940    -1.1060 C.3   1 <1>  -0.0800 
 17 C       -8.1480    -0.4720     1.3950 C.3   1 <1>   0.1400 
 18 C       -7.6980     1.2930    -0.8080 C.3   1 <1>  -0.0990 
 19 N       -9.1280     0.5720     1.0400 N.am  1 <1>  -0.7300 
 20 C       -8.9570     1.4350     0.0180 C.2   1 <1>   0.5690 
 21 O       -9.7640     2.2920    -0.2300 O.2   1 <1>  -0.5700 
 22 H       -1.5400     1.9990    -2.8260 H     1 <1>   0.1500 
 23 H       -3.7150    -1.3780     0.9340 H     1 <1>   0.0800 
 24 H       -2.3090    -1.8420     0.0330 H     1 <1>   0.0800 
 25 H       -3.3940     3.2830     0.6000 H     1 <1>   0.1500 
 26 H       -3.7620    -1.7470    -1.9750 H     1 <1>   0.4500 
 27 H       -6.0660    -2.5330    -1.6700 H     1 <1>   0.0800 
 28 H       -4.2020    -3.8930     0.0000 H     1 <1>   0.0800 
 29 H       -2.8170    -3.7330    -1.0620 H     1 <1>   0.0800 
 30 H       -4.4010    -4.0390    -1.7330 H     1 <1>   0.0800 
 31 H       -6.4090    -2.8570     0.6490 H     1 <1>   0.0800 
 32 H       -5.7010    -1.3020     1.0510 H     1 <1>   0.0800 
 33 H       -5.3570     0.3500    -1.2830 H     1 <1>   0.0800 
 34 H       -5.9790    -0.4490    -2.7080 H     1 <1>   0.0800 
 35 H       -8.3310    -1.8820    -0.1830 H     1 <1>   0.0800 
 36 H       -8.1160    -0.5050    -1.8630 H     1 <1>   0.0800 
 37 H       -7.3490    -0.0060     1.9470 H     1 <1>   0.0800 
 38 H       -8.6150    -1.2090     2.0270 H     1 <1>   0.0800 
 39 H       -7.8100     1.8430    -1.7250 H     1 <1>   0.0800 
 40 H       -6.8960     1.7340    -0.2460 H     1 <1>   0.0800 
 41 H       -9.9570     0.6980     1.6260 H     1 <1>   0.3700 
@<TRIPOS>BOND
  1   1   2  1   
  2   2   3  ar  
  3   2   4  ar  
  4   3   5  ar  
  5   3   6  1   
  6   4   7  ar  
  7   4  22  1   
  8   5   8  1   
  9   5   9  ar  
 10   6  10  1   
 11   6  23  1   
 12   6  24  1   
 13   7   9  ar  
 14   9  25  1   
 15  10  11  1   
 16  10  12  1   
 17  10  26  1   
 18  11  13  1   
 19  11  14  1   
 20  11  27  1   
 21  12  28  1   
 22  12  29  1   
 23  12  30  1   
 24  13  15  1   
 25  13  31  1   
 26  13  32  1   
 27  14  16  1   
 28  14  33  1   
 29  14  34  1   
 30  15  16  1   
 31  15  17  1   
 32  15  35  1   
 33  16  18  1   
 34  16  36  1   
 35  17  19  1   
 36  17  37  1   
 37  17  38  1   
 38  18  20  1   
 39  18  39  1   
 40  18  40  1   
 41  19  20  am  
 42  19  41  1   
 43  20  21  2   
@<TRIPOS>SUBSTRUCTURE
  1 ****  14 GROUP 4 **** **** 0

# MOE 2024.06 (io_trps.svl 2023.06)
