@<TRIPOS>MOLECULE
NONAME
57 59 1 0 0 
SMALL
USER_CHARGES


@<TRIPOS>ATOM
  1 O        0.2100     1.0600     1.1270 O.2   1 <1>  -0.5700 
  2 C        0.0990     2.2010     0.7400 C.2   1 <1>   0.5690 
  3 N       -1.0130     2.9770     0.9720 N.am  1 <1>  -0.5090 
  4 C        1.2800     2.7830    -0.0370 C.3   1 <1>   0.1810 
  5 C       -1.0080     4.4340     0.6120 C.3   1 <1>   0.3640 
  6 C       -2.0340     2.5760     1.9810 C.3   1 <1>   0.0490 
  7 O        1.3700     4.1840     0.0710 O.3   1 <1>  -0.5600 
  8 C       -2.2950     4.8420    -0.1060 C.ar  1 <1>  -0.1440 
  9 C        0.1800     4.8460    -0.2910 C.3   1 <1>   0.2610 
 10 C       -2.6720     1.2230     1.9010 C.3   1 <1>  -0.2000 
 11 C       -3.4790     2.4430     1.6040 C.3   1 <1>  -0.2000 
 12 C       -3.0500     5.9030     0.3740 C.ar  1 <1>  -0.1500 
 13 C       -2.7160     4.1820    -1.2540 C.ar  1 <1>  -0.1500 
 14 C        0.3930     6.3700    -0.2830 C.2   1 <1>   0.5690 
 15 C       -4.2010     6.3050    -0.2800 C.ar  1 <1>  -0.1500 
 16 C       -3.8640     4.5830    -1.9110 C.ar  1 <1>  -0.1500 
 17 O        0.1310     7.0010     0.7200 O.2   1 <1>  -0.5700 
 18 N        0.9130     7.0290    -1.3760 N.am  1 <1>  -0.6600 
 19 C       -4.6130     5.6450    -1.4340 C.ar  1 <1>   0.0820 
 20 C        0.8330     8.5220    -1.5050 C.3   1 <1>   0.1400 
 21 C        1.4740     6.3240    -2.5680 C.3   1 <1>   0.0600 
 22 O       -5.7240     5.9750    -2.1390 O.3   1 <1>  -0.3630 
 23 C        2.0460     9.2220    -0.8600 C.3   1 <1>   0.3430 
 24 C       -6.5870     7.0040    -1.7100 C.3   1 <1>   0.0400 
 25 N        2.1110     8.9540     0.6090 N.4   1 <1>  -0.9590 
 26 C        1.3560     9.9630     1.4080 C.3   1 <1>   0.2630 
 27 C        3.5090     8.7840     1.1000 C.3   1 <1>   0.2630 
 28 H        1.1930     2.5200    -1.0760 H     1 <1>   0.0800 
 29 H        2.1930     2.3670     0.3480 H     1 <1>   0.0800 
 30 H       -0.9400     4.9800     1.5370 H     1 <1>   0.0800 
 31 H       -1.7980     2.9500     2.9640 H     1 <1>   0.1000 
 32 H       -0.0500     4.5530    -1.2980 H     1 <1>   0.0800 
 33 H       -2.4050     0.5690     1.0900 H     1 <1>   0.1000 
 34 H       -2.8600     0.6900     2.8160 H     1 <1>   0.1000 
 35 H       -4.2280     2.7430     2.3150 H     1 <1>   0.1000 
 36 H       -3.8010     2.5780     0.5880 H     1 <1>   0.1000 
 37 H       -2.7440     6.4280     1.2640 H     1 <1>   0.1500 
 38 H       -2.1600     3.3440    -1.6380 H     1 <1>   0.1500 
 39 H       -4.7620     7.1280     0.1190 H     1 <1>   0.1500 
 40 H       -4.1920     4.0720    -2.7990 H     1 <1>   0.1500 
 41 H        0.7840     8.7860    -2.5470 H     1 <1>   0.0800 
 42 H       -0.0740     8.8760    -1.0440 H     1 <1>   0.0800 
 43 H        2.2740     6.9010    -3.0000 H     1 <1>   0.0800 
 44 H        0.7040     6.1890    -3.3080 H     1 <1>   0.0800 
 45 H        1.8730     5.3630    -2.2930 H     1 <1>   0.0800 
 46 H        1.9920    10.2830    -1.0370 H     1 <1>   0.0800 
 47 H        2.9380     8.8520    -1.3390 H     1 <1>   0.0800 
 48 H       -7.3990     7.0720    -2.4110 H     1 <1>   0.0800 
 49 H       -6.0430     7.9320    -1.6920 H     1 <1>   0.0800 
 50 H       -6.9660     6.7580    -0.7340 H     1 <1>   0.0800 
 51 H        1.6040     8.0490     0.7400 H     1 <1>   0.4500 
 52 H        1.7960    10.9400     1.2980 H     1 <1>   0.0800 
 53 H        1.3670     9.6920     2.4520 H     1 <1>   0.0800 
 54 H        0.3290    10.0010     1.0820 H     1 <1>   0.0800 
 55 H        4.0660     9.6970     0.9740 H     1 <1>   0.0800 
 56 H        4.0010     7.9960     0.5530 H     1 <1>   0.0800 
 57 H        3.5050     8.5210     2.1460 H     1 <1>   0.0800 
@<TRIPOS>BOND
  1   1   2  2   
  2   2   3  am  
  3   2   4  1   
  4   3   5  1   
  5   3   6  1   
  6   4   7  1   
  7   4  28  1   
  8   4  29  1   
  9   5   8  1   
 10   5   9  1   
 11   5  30  1   
 12   6  10  1   
 13   6  11  1   
 14   6  31  1   
 15   7   9  1   
 16   8  12  ar  
 17   8  13  ar  
 18   9  14  1   
 19   9  32  1   
 20  10  11  1   
 21  10  33  1   
 22  10  34  1   
 23  11  35  1   
 24  11  36  1   
 25  12  15  ar  
 26  12  37  1   
 27  13  16  ar  
 28  13  38  1   
 29  14  17  2   
 30  14  18  am  
 31  15  19  ar  
 32  15  39  1   
 33  16  19  ar  
 34  16  40  1   
 35  18  20  1   
 36  18  21  1   
 37  19  22  1   
 38  20  23  1   
 39  20  41  1   
 40  20  42  1   
 41  21  43  1   
 42  21  44  1   
 43  21  45  1   
 44  22  24  1   
 45  23  25  1   
 46  23  46  1   
 47  23  47  1   
 48  24  48  1   
 49  24  49  1   
 50  24  50  1   
 51  25  26  1   
 52  25  27  1   
 53  25  51  1   
 54  26  52  1   
 55  26  53  1   
 56  26  54  1   
 57  27  55  1   
 58  27  56  1   
 59  27  57  1   
@<TRIPOS>SUBSTRUCTURE
  1 ****   5 GROUP 4 **** **** 0

# MOE 2024.06 (io_trps.svl 2023.06)
