@<TRIPOS>MOLECULE
NONAME
54 56 1 0 0 
SMALL
USER_CHARGES


@<TRIPOS>ATOM
  1 O        3.1940    -2.2870     2.0000 O.2   1 <1>  -0.5700 
  2 C        4.0240    -2.4860     1.1440 C.2   1 <1>   0.5690 
  3 N        4.7140    -1.4420     0.5910 N.am  1 <1>  -0.6600 
  4 C        4.3000    -3.9230     0.7130 C.3   1 <1>  -0.0990 
  5 C        5.0710    -1.3240    -0.8430 C.3   1 <1>   0.1400 
  6 C        4.6640    -0.0700     1.1450 C.3   1 <1>   0.1400 
  7 C        3.0570    -4.8310     0.6190 C.3   1 <1>  -0.1600 
  8 C        4.4030    -0.0170    -1.2880 C.3   1 <1>   0.2000 
  9 C        4.1790     0.8240    -0.0070 C.3   1 <1>   0.4230 
 10 C        2.1520    -4.5820    -0.6060 C.3   1 <1>  -0.0990 
 11 O        5.2100     0.6940    -2.1710 O.3   1 <1>  -0.6800 
 12 N        2.7570     1.3070     0.1720 N.4   1 <1>  -0.9590 
 13 C        1.5770    -3.1790    -0.7590 C.2   1 <1>   0.4230 
 14 C        1.7720     0.1960     0.3740 C.3   1 <1>   0.3430 
 15 C        2.3500     2.1950    -0.9550 C.3   1 <1>   0.3430 
 16 O        2.2030    -2.3770    -1.4080 O.2   1 <1>  -0.5700 
 17 C        0.2830    -2.8650    -0.2000 C.ar  1 <1>   0.0860 
 18 C        0.4130     0.7950     0.7330 C.3   1 <1>  -0.1600 
 19 C        0.9880     2.8230    -0.6490 C.3   1 <1>  -0.1600 
 20 C       -0.7050    -2.3060    -1.0110 C.ar  1 <1>  -0.1500 
 21 C       -0.0330    -3.0810     1.1420 C.ar  1 <1>  -0.1500 
 22 C       -0.0780     1.7600    -0.3520 C.3   1 <1>  -0.1600 
 23 C       -1.9560    -1.9910    -0.5140 C.ar  1 <1>  -0.1500 
 24 C       -1.2820    -2.7680     1.6460 C.ar  1 <1>  -0.1500 
 25 C       -2.2480    -2.2240     0.8180 C.ar  1 <1>  -0.1500 
 26 H        4.8330    -3.9530    -0.2160 H     1 <1>   0.0800 
 27 H        4.9550    -4.3370     1.4580 H     1 <1>   0.0800 
 28 H        6.1420    -1.2620    -0.9350 H     1 <1>   0.0800 
 29 H        4.6980    -2.1530    -1.4180 H     1 <1>   0.0800 
 30 H        4.0330    -0.0020     2.0140 H     1 <1>   0.0800 
 31 H        5.6640     0.2160     1.4210 H     1 <1>   0.0800 
 32 H        3.3990    -5.8510     0.5640 H     1 <1>   0.0800 
 33 H        2.4880    -4.7540     1.5280 H     1 <1>   0.0800 
 34 H        3.4750    -0.2350    -1.7850 H     1 <1>   0.0800 
 35 H        4.8280     1.6830    -0.0510 H     1 <1>   0.0800 
 36 H        1.3330    -5.2780    -0.5720 H     1 <1>   0.0800 
 37 H        2.7120    -4.8070    -1.4970 H     1 <1>   0.0800 
 38 H        5.3650     0.1850    -2.9950 H     1 <1>   0.4000 
 39 H        2.7240     1.8730     1.0270 H     1 <1>   0.4500 
 40 H        1.6800    -0.3800    -0.5300 H     1 <1>   0.0800 
 41 H        2.0940    -0.4610     1.1650 H     1 <1>   0.0800 
 42 H        3.0840     2.9730    -1.0980 H     1 <1>   0.0800 
 43 H        2.2840     1.6220    -1.8660 H     1 <1>   0.0800 
 44 H       -0.2990    -0.0020     0.8510 H     1 <1>   0.0800 
 45 H        0.4820     1.3010     1.6800 H     1 <1>   0.0800 
 46 H        1.0840     3.4910     0.1900 H     1 <1>   0.0800 
 47 H        0.6770     3.4130    -1.4940 H     1 <1>   0.0800 
 48 H       -0.4870    -2.1240    -2.0500 H     1 <1>   0.1500 
 49 H        0.7060    -3.4870     1.8090 H     1 <1>   0.1500 
 50 H       -0.9920     2.2340    -0.0340 H     1 <1>   0.0800 
 51 H       -0.2930     1.2050    -1.2510 H     1 <1>   0.0800 
 52 H       -2.7070    -1.5690    -1.1610 H     1 <1>   0.1500 
 53 H       -1.5050    -2.9470     2.6840 H     1 <1>   0.1500 
 54 H       -3.2230    -1.9850     1.2090 H     1 <1>   0.1500 
@<TRIPOS>BOND
  1   1   2  2   
  2   2   3  am  
  3   2   4  1   
  4   3   5  1   
  5   3   6  1   
  6   4   7  1   
  7   4  26  1   
  8   4  27  1   
  9   5   8  1   
 10   5  28  1   
 11   5  29  1   
 12   6   9  1   
 13   6  30  1   
 14   6  31  1   
 15   7  10  1   
 16   7  32  1   
 17   7  33  1   
 18   8   9  1   
 19   8  11  1   
 20   8  34  1   
 21   9  12  1   
 22   9  35  1   
 23  10  13  1   
 24  10  36  1   
 25  10  37  1   
 26  11  38  1   
 27  12  14  1   
 28  12  15  1   
 29  12  39  1   
 30  13  16  2   
 31  13  17  1   
 32  14  18  1   
 33  14  40  1   
 34  14  41  1   
 35  15  19  1   
 36  15  42  1   
 37  15  43  1   
 38  17  20  ar  
 39  17  21  ar  
 40  18  22  1   
 41  18  44  1   
 42  18  45  1   
 43  19  22  1   
 44  19  46  1   
 45  19  47  1   
 46  20  23  ar  
 47  20  48  1   
 48  21  24  ar  
 49  21  49  1   
 50  22  50  1   
 51  22  51  1   
 52  23  25  ar  
 53  23  52  1   
 54  24  25  ar  
 55  24  53  1   
 56  25  54  1   
@<TRIPOS>SUBSTRUCTURE
  1 ****  14 GROUP 4 **** **** 0

# MOE 2024.06 (io_trps.svl 2023.06)
