@<TRIPOS>MOLECULE
NONAME
45 47 1 0 0 
SMALL
USER_CHARGES


@<TRIPOS>ATOM
  1 CL       0.2060     1.9500    -2.3450 Cl    1 <1>  -0.1770 
  2 C       -0.8340     2.2410    -0.9680 C.ar  1 <1>   0.1770 
  3 C       -1.2520     3.5270    -0.6430 C.ar  1 <1>  -0.1440 
  4 C       -1.2180     1.1450    -0.2170 C.ar  1 <1>  -0.1500 
  5 C       -2.0770     3.6890     0.4610 C.ar  1 <1>  -0.1500 
  6 C       -0.8440     4.7630    -1.4470 C.3   1 <1>   0.0450 
  7 C       -2.0370     1.3240     0.8840 C.ar  1 <1>  -0.1500 
  8 C       -2.4650     2.5970     1.2200 C.ar  1 <1>  -0.1500 
  9 C       -0.0770     5.7870    -0.6180 C.2   1 <1>   0.5690 
 10 O       -0.3320     6.9580    -0.7750 O.2   1 <1>  -0.5700 
 11 N        0.9260     5.4320     0.2430 N.am  1 <1>  -0.6600 
 12 C        1.2780     6.3350     1.4020 C.3   1 <1>   0.1400 
 13 C        1.9240     4.3690    -0.0840 C.3   1 <1>   0.1400 
 14 C        2.4890     7.2560     1.1010 C.3   1 <1>   0.4230 
 15 C        3.3290     4.9170    -0.4490 C.3   1 <1>  -0.0800 
 16 N        2.6040     7.3910    -0.3980 N.4   1 <1>  -0.9590 
 17 C        3.7600     6.7660     1.8430 C.3   1 <1>   0.1200 
 18 C        4.3370     4.7870     0.7030 C.3   1 <1>   0.1200 
 19 C        3.4080     6.3260    -1.0760 C.3   1 <1>   0.3430 
 20 C        3.1220     8.7690    -0.7840 C.3   1 <1>   0.2370 
 21 O        3.8540     5.3690     1.8640 O.3   1 <1>  -0.5600 
 22 C        4.5100     9.1060    -0.2360 C.2   1 <1>   0.9060 
 23 O        5.4920     8.6510    -0.8270 O.co2 1 <1>  -0.9000 
 24 O        4.5690     9.6650     0.8620 O.co2 1 <1>  -0.9000 
 25 H       -0.8790     0.1630    -0.4920 H     1 <1>   0.1500 
 26 H       -2.4240     4.6700     0.7410 H     1 <1>   0.1500 
 27 H       -1.7390     5.2320    -1.8150 H     1 <1>   0.0800 
 28 H       -0.2530     4.5110    -2.3040 H     1 <1>   0.0800 
 29 H       -2.3420     0.4780     1.4760 H     1 <1>   0.1500 
 30 H       -3.1050     2.7380     2.0750 H     1 <1>   0.1500 
 31 H        0.4330     6.9620     1.6250 H     1 <1>   0.0800 
 32 H        1.4570     5.7430     2.2820 H     1 <1>   0.0800 
 33 H        1.9970     3.6900     0.7500 H     1 <1>   0.0800 
 34 H        1.5680     3.7980    -0.9200 H     1 <1>   0.0800 
 35 H        2.2670     8.2310     1.5030 H     1 <1>   0.0800 
 36 H        3.7150     4.2550    -1.2030 H     1 <1>   0.0800 
 37 H        1.6230     7.2950    -0.7190 H     1 <1>   0.4500 
 38 H        3.6920     7.0790     2.8700 H     1 <1>   0.0800 
 39 H        4.6670     7.1840     1.4430 H     1 <1>   0.0800 
 40 H        5.2860     5.2360     0.4560 H     1 <1>   0.0800 
 41 H        4.5060     3.7470     0.9250 H     1 <1>   0.0800 
 42 H        3.0870     6.2650    -2.1020 H     1 <1>   0.0800 
 43 H        4.4450     6.6240    -1.0880 H     1 <1>   0.0800 
 44 H        3.1730     8.8530    -1.8540 H     1 <1>   0.0800 
 45 H        2.4500     9.5230    -0.4180 H     1 <1>   0.0800 
@<TRIPOS>BOND
  1   1   2  1   
  2   2   3  ar  
  3   2   4  ar  
  4   3   5  ar  
  5   3   6  1   
  6   4   7  ar  
  7   4  25  1   
  8   5   8  ar  
  9   5  26  1   
 10   6   9  1   
 11   6  27  1   
 12   6  28  1   
 13   7   8  ar  
 14   7  29  1   
 15   8  30  1   
 16   9  10  2   
 17   9  11  am  
 18  11  12  1   
 19  11  13  1   
 20  12  14  1   
 21  12  31  1   
 22  12  32  1   
 23  13  15  1   
 24  13  33  1   
 25  13  34  1   
 26  14  16  1   
 27  14  17  1   
 28  14  35  1   
 29  15  18  1   
 30  15  19  1   
 31  15  36  1   
 32  16  19  1   
 33  16  20  1   
 34  16  37  1   
 35  17  21  1   
 36  17  38  1   
 37  17  39  1   
 38  18  21  1   
 39  18  40  1   
 40  18  41  1   
 41  19  42  1   
 42  19  43  1   
 43  20  22  1   
 44  20  44  1   
 45  20  45  1   
 46  22  23  ar  
 47  22  24  ar  
@<TRIPOS>SUBSTRUCTURE
  1 ****  11 GROUP 4 **** **** 0

# MOE 2024.06 (io_trps.svl 2023.06)
