@<TRIPOS>MOLECULE
NONAME
46 48 1 0 0 
SMALL
USER_CHARGES


@<TRIPOS>ATOM
  1 O        1.2640    -0.6410    -2.4980 O.2   1 <1>  -0.5700 
  2 C        1.6210    -1.1270    -1.4520 C.2   1 <1>   0.5690 
  3 N        1.8050    -0.4190    -0.3020 N.am  1 <1>  -0.4930 
  4 C        1.8730    -2.6220    -1.4090 C.3   1 <1>  -0.0990 
  5 C        1.6220     0.9670    -0.0670 C.2   1 <1>   0.0630 
  6 C        0.7870    -3.3670    -0.6140 C.3   1 <1>  -0.1600 
  7 C        1.7160     1.6310     1.1590 C.2   1 <1>   0.1080 
  8 C        1.3220     1.9410    -0.9490 C.2   1 <1>  -0.3020 
  9 C        1.0080    -4.8870    -0.6260 C.3   1 <1>   0.0200 
 10 N        1.4960     2.9040     1.0490 N.2   1 <1>  -0.7070 
 11 C        2.0340     0.9850     2.4890 C.3   1 <1>  -0.0590 
 12 N        1.2510     3.0960    -0.2580 N.pl3 1 <1>   0.3140 
 13 C       -0.0450    -5.6000     0.2010 C.2   1 <1>   0.2980 
 14 C        0.9490     4.4210    -0.8080 C.3   1 <1>   0.0160 
 15 O       -0.0380    -5.4430     1.4980 O.3   1 <1>  -0.0190 
 16 N       -0.9570    -6.3520    -0.2530 N.2   1 <1>  -0.5650 
 17 N       -1.0410    -6.1520     1.9070 N.2   1 <1>  -0.4100 
 18 C       -1.5860    -6.6960     0.8760 C.2   1 <1>   0.4620 
 19 C       -2.7600    -7.5510     0.9080 C.ar  1 <1>   0.0540 
 20 C       -2.8610    -8.7700     0.2210 C.ar  1 <1>  -0.1440 
 21 C       -3.8590    -7.1450     1.6680 C.ar  1 <1>  -0.1500 
 22 C       -4.0230    -9.5210     0.2950 C.ar  1 <1>  -0.1500 
 23 C       -1.7060    -9.3130    -0.6120 C.3   1 <1>  -0.0970 
 24 C       -5.0140    -7.8990     1.7410 C.ar  1 <1>  -0.1500 
 25 C       -5.0990    -9.0910     1.0490 C.ar  1 <1>  -0.1500 
 26 H        2.0960    -0.9490     0.5140 H     1 <1>   0.3700 
 27 H        2.8420    -2.7990    -0.9780 H     1 <1>   0.0800 
 28 H        1.8920    -2.9890    -2.4210 H     1 <1>   0.0800 
 29 H       -0.1770    -3.1510    -1.0450 H     1 <1>   0.0800 
 30 H        0.7770    -3.0160     0.4040 H     1 <1>   0.0800 
 31 H        1.1590     1.8690    -2.0080 H     1 <1>   0.1500 
 32 H        1.9770    -5.1280    -0.2290 H     1 <1>   0.0800 
 33 H        0.9590    -5.2520    -1.6370 H     1 <1>   0.0800 
 34 H        1.3180     0.2130     2.7010 H     1 <1>   0.0800 
 35 H        1.9890     1.7220     3.2700 H     1 <1>   0.0800 
 36 H        3.0230     0.5670     2.4640 H     1 <1>   0.0800 
 37 H        0.0740     4.3570    -1.4260 H     1 <1>   0.0800 
 38 H        1.7860     4.7570    -1.3900 H     1 <1>   0.0800 
 39 H        0.7730     5.1050     0.0010 H     1 <1>   0.0800 
 40 H       -3.8020    -6.2180     2.2110 H     1 <1>   0.1500 
 41 H       -4.1010   -10.4530    -0.2370 H     1 <1>   0.1500 
 42 H       -0.7850    -9.2490    -0.0610 H     1 <1>   0.0800 
 43 H       -1.6100    -8.7420    -1.5190 H     1 <1>   0.0800 
 44 H       -1.8670   -10.3430    -0.8740 H     1 <1>   0.0800 
 45 H       -5.8460    -7.5590     2.3340 H     1 <1>   0.1500 
 46 H       -5.9960    -9.6830     1.0990 H     1 <1>   0.1500 
@<TRIPOS>BOND
  1   1   2  2   
  2   2   3  am  
  3   2   4  1   
  4   3   5  1   
  5   3  26  1   
  6   4   6  1   
  7   4  27  1   
  8   4  28  1   
  9   5   7  1   
 10   5   8  2   
 11   6   9  1   
 12   6  29  1   
 13   6  30  1   
 14   7  10  2   
 15   7  11  1   
 16   8  12  1   
 17   8  31  1   
 18   9  13  1   
 19   9  32  1   
 20   9  33  1   
 21  10  12  1   
 22  11  34  1   
 23  11  35  1   
 24  11  36  1   
 25  12  14  1   
 26  13  15  1   
 27  13  16  2   
 28  14  37  1   
 29  14  38  1   
 30  14  39  1   
 31  15  17  1   
 32  16  18  1   
 33  17  18  2   
 34  18  19  1   
 35  19  20  ar  
 36  19  21  ar  
 37  20  22  ar  
 38  20  23  1   
 39  21  24  ar  
 40  21  40  1   
 41  22  25  ar  
 42  22  41  1   
 43  23  42  1   
 44  23  43  1   
 45  23  44  1   
 46  24  25  ar  
 47  24  45  1   
 48  25  46  1   
@<TRIPOS>SUBSTRUCTURE
  1 ****   6 GROUP 4 **** **** 0

# MOE 2024.06 (io_trps.svl 2023.06)
