@<TRIPOS>MOLECULE
NONAME
33 34 1 0 0 
SMALL
USER_CHARGES


@<TRIPOS>ATOM
  1 S        0.3300    -0.2240     0.2810 S.o2  1 <1>   1.3330 
  2 O        0.5510    -0.3510    -1.1400 O.2   1 <1>  -0.6500 
  3 O        1.3030    -0.7020     1.2290 O.2   1 <1>  -0.6500 
  4 N       -1.0760    -1.0470     0.6600 N.am  1 <1>  -0.9140 
  5 C       -0.0940     1.4620     0.6580 C.3   1 <1>  -0.1350 
  6 C       -1.2850    -2.2530    -0.1330 C.3   1 <1>   0.2760 
  7 C       -2.6690    -2.7970     0.1820 C.3   1 <1>  -0.0800 
  8 C       -0.3980    -3.3960     0.3630 C.3   1 <1>   0.1200 
  9 C       -2.4180    -3.6350     1.4420 C.3   1 <1>   0.1200 
 10 C       -3.2230    -3.6440    -0.9810 C.3   1 <1>  -0.0160 
 11 O       -1.0490    -3.9170     1.4830 O.3   1 <1>  -0.5600 
 12 C       -4.6120    -4.1810    -0.6700 C.ar  1 <1>  -0.1440 
 13 C       -4.8310    -5.5050    -0.3480 C.ar  1 <1>  -0.1500 
 14 C       -5.7280    -3.3680    -0.6970 C.ar  1 <1>  -0.1500 
 15 C       -6.1170    -5.9390    -0.0700 C.ar  1 <1>   0.1600 
 16 C       -6.9710    -3.9020    -0.4030 C.ar  1 <1>   0.1600 
 17 N       -7.1920    -5.1680    -0.0880 N.ar  1 <1>  -0.6200 
 18 H       -0.9060    -1.3940     1.6070 H     1 <1>   0.4200 
 19 H       -0.9140     1.7810     0.0460 H     1 <1>   0.0800 
 20 H        0.7460     2.1020     0.4710 H     1 <1>   0.0800 
 21 H       -0.3730     1.5530     1.6890 H     1 <1>   0.0800 
 22 H       -1.1600    -2.0530    -1.1850 H     1 <1>   0.0800 
 23 H       -3.3630    -2.0000     0.3850 H     1 <1>   0.0800 
 24 H        0.5970    -3.0890     0.6330 H     1 <1>   0.0800 
 25 H       -0.3400    -4.1780    -0.3740 H     1 <1>   0.0800 
 26 H       -2.9640    -4.5610     1.4510 H     1 <1>   0.0800 
 27 H       -2.6590    -3.0730     2.3280 H     1 <1>   0.0800 
 28 H       -2.5610    -4.4660    -1.1940 H     1 <1>   0.0800 
 29 H       -3.2820    -3.0380    -1.8690 H     1 <1>   0.0800 
 30 H       -4.0170    -6.2060    -0.3080 H     1 <1>   0.1500 
 31 H       -5.6430    -2.3260    -0.9430 H     1 <1>   0.1500 
 32 H       -6.2690    -6.9750     0.1800 H     1 <1>   0.1500 
 33 H       -7.8310    -3.2540    -0.4290 H     1 <1>   0.1500 
@<TRIPOS>BOND
  1   1   2  2   
  2   1   3  2   
  3   1   4  am  
  4   1   5  1   
  5   4   6  1   
  6   4  18  1   
  7   5  19  1   
  8   5  20  1   
  9   5  21  1   
 10   6   7  1   
 11   6   8  1   
 12   6  22  1   
 13   7   9  1   
 14   7  10  1   
 15   7  23  1   
 16   8  11  1   
 17   8  24  1   
 18   8  25  1   
 19   9  11  1   
 20   9  26  1   
 21   9  27  1   
 22  10  12  1   
 23  10  28  1   
 24  10  29  1   
 25  12  13  ar  
 26  12  14  ar  
 27  13  15  ar  
 28  13  30  1   
 29  14  16  ar  
 30  14  31  1   
 31  15  17  ar  
 32  15  32  1   
 33  16  17  ar  
 34  16  33  1   
@<TRIPOS>SUBSTRUCTURE
  1 ****   7 GROUP 4 **** **** 0

# MOE 2024.06 (io_trps.svl 2023.06)
