@<TRIPOS>MOLECULE
NONAME
41 43 1 0 0 
SMALL
USER_CHARGES


@<TRIPOS>ATOM
  1 O       -0.2580    -0.1560     0.3450 O.3   1 <1>  -0.0190 
  2 N       -1.2110    -0.9860     0.6780 N.2   1 <1>  -0.4100 
  3 C       -0.8990     0.8760    -0.1450 C.2   1 <1>   0.2980 
  4 C       -2.3160    -0.4200     0.3760 C.2   1 <1>   0.5990 
  5 N       -2.1640     0.7810    -0.1650 N.2   1 <1>  -0.5650 
  6 C       -0.0960     2.0660    -0.6380 C.3   1 <1>   0.0200 
  7 N       -3.5860    -0.9590     0.5800 N.pl3 1 <1>  -0.8210 
  8 C        0.6050     2.7940     0.5180 C.3   1 <1>  -0.1600 
  9 C       -4.6940    -0.4360    -0.2670 C.3   1 <1>   0.2090 
 10 C       -3.7050    -2.4430     0.6590 C.3   1 <1>   0.2090 
 11 C        1.4040     4.0040     0.0220 C.3   1 <1>  -0.2400 
 12 C       -5.7590    -1.5280    -0.2190 C.3   1 <1>   0.2000 
 13 C       -4.9320    -2.8140    -0.1830 C.3   1 <1>  -0.0800 
 14 O       -6.4570    -1.3950     0.9730 O.3   1 <1>  -0.6800 
 15 C       -5.6870    -4.0560     0.3280 C.3   1 <1>   0.0200 
 16 C       -4.8760    -5.3360     0.2110 C.2   1 <1>  -0.0400 
 17 O       -5.3530    -6.4300     0.7420 O.3   1 <1>  -0.0190 
 18 C       -3.6950    -5.6400    -0.3540 C.2   1 <1>  -0.1500 
 19 N       -4.5580    -7.4460     0.5670 N.2   1 <1>  -0.4100 
 20 C       -3.5500    -6.9990    -0.0900 C.2   1 <1>   0.1080 
 21 C       -2.3700    -7.8440    -0.5150 C.3   1 <1>  -0.0590 
 22 H        0.6320     1.7200    -1.3500 H     1 <1>   0.0800 
 23 H       -0.7600     2.7450    -1.1420 H     1 <1>   0.0800 
 24 H       -0.1350     3.1220     1.2290 H     1 <1>   0.0800 
 25 H        1.2680     2.1130     1.0230 H     1 <1>   0.0800 
 26 H       -5.0640     0.5030     0.1060 H     1 <1>   0.0800 
 27 H       -4.3470    -0.3060    -1.2790 H     1 <1>   0.0800 
 28 H       -2.8220    -2.9350     0.2880 H     1 <1>   0.0800 
 29 H       -3.8500    -2.7200     1.6900 H     1 <1>   0.0800 
 30 H        0.7550     4.7130    -0.4630 H     1 <1>   0.0800 
 31 H        2.1650     3.6960    -0.6730 H     1 <1>   0.0800 
 32 H        1.8810     4.4940     0.8540 H     1 <1>   0.0800 
 33 H       -6.4570    -1.4830    -1.0380 H     1 <1>   0.0800 
 34 H       -4.5950    -3.0080    -1.1850 H     1 <1>   0.0800 
 35 H       -5.8080    -1.1710     1.6740 H     1 <1>   0.4000 
 36 H       -6.5960    -4.1770    -0.2340 H     1 <1>   0.0800 
 37 H       -5.9610    -3.9210     1.3600 H     1 <1>   0.0800 
 38 H       -2.9970    -5.0260    -0.8910 H     1 <1>   0.1500 
 39 H       -2.2560    -7.8030    -1.5820 H     1 <1>   0.0800 
 40 H       -2.5260    -8.8660    -0.2210 H     1 <1>   0.0800 
 41 H       -1.4740    -7.4800    -0.0470 H     1 <1>   0.0800 
@<TRIPOS>BOND
  1   1   2  1   
  2   1   3  1   
  3   2   4  2   
  4   3   5  2   
  5   3   6  1   
  6   4   5  1   
  7   4   7  1   
  8   6   8  1   
  9   6  22  1   
 10   6  23  1   
 11   7   9  1   
 12   7  10  1   
 13   8  11  1   
 14   8  24  1   
 15   8  25  1   
 16   9  12  1   
 17   9  26  1   
 18   9  27  1   
 19  10  13  1   
 20  10  28  1   
 21  10  29  1   
 22  11  30  1   
 23  11  31  1   
 24  11  32  1   
 25  12  13  1   
 26  12  14  1   
 27  12  33  1   
 28  13  15  1   
 29  13  34  1   
 30  14  35  1   
 31  15  16  1   
 32  15  36  1   
 33  15  37  1   
 34  16  17  1   
 35  16  18  2   
 36  17  19  1   
 37  18  20  1   
 38  18  38  1   
 39  19  20  2   
 40  20  21  1   
 41  21  39  1   
 42  21  40  1   
 43  21  41  1   
@<TRIPOS>SUBSTRUCTURE
  1 ****  10 GROUP 4 **** **** 0

# MOE 2024.06 (io_trps.svl 2023.06)
