@<TRIPOS>MOLECULE
NONAME
50 52 1 0 0 
SMALL
USER_CHARGES


@<TRIPOS>ATOM
  1 O       -0.7120     0.9680    -1.1450 O.2   1 <1>  -0.5700 
  2 C       -0.8970     2.1580    -1.0380 C.2   1 <1>   0.5690 
  3 N       -1.7150     2.7220    -0.0920 N.am  1 <1>  -0.6600 
  4 C       -0.1800     3.0750    -2.0230 C.3   1 <1>   0.1810 
  5 C       -1.9000     4.2120    -0.0370 C.3   1 <1>   0.3640 
  6 C       -2.4150     1.9680     0.9860 C.3   1 <1>   0.2200 
  7 O        0.1700     4.2960    -1.4260 O.3   1 <1>  -0.5600 
  8 C       -3.3500     4.5560    -0.3870 C.ar  1 <1>  -0.1440 
  9 C       -0.9380     5.0400    -0.9380 C.3   1 <1>   0.2610 
 10 C       -1.3930     1.3350     1.9300 C.3   1 <1>  -0.2400 
 11 C       -3.3800     0.9320     0.4090 C.3   1 <1>  -0.2400 
 12 C       -3.9920     3.9690    -1.4700 C.ar  1 <1>  -0.1500 
 13 C       -4.0430     5.4810     0.3820 C.ar  1 <1>  -0.1500 
 14 C       -0.4480     6.2690    -0.1620 C.2   1 <1>   0.5690 
 15 C       -5.3010     4.2960    -1.7760 C.ar  1 <1>  -0.1500 
 16 C       -5.3530     5.8100     0.0780 C.ar  1 <1>  -0.1500 
 17 O       -1.2520     7.0380     0.3090 O.2   1 <1>  -0.5700 
 18 N        0.8890     6.4670    -0.0110 N.am  1 <1>  -0.7300 
 19 C       -5.9830     5.2170    -1.0010 C.ar  1 <1>  -0.1500 
 20 C        1.5250     7.5730     0.7420 C.3   1 <1>   0.1400 
 21 C        1.9630     8.6800    -0.2190 C.3   1 <1>   0.0200 
 22 C        2.6840     9.8130     0.5000 C.2   1 <1>  -0.3320 
 23 N        3.1570    10.8980    -0.1420 N.pl3 1 <1>   0.0330 
 24 C        2.9880     9.9930     1.8070 C.2   1 <1>   0.0770 
 25 C        3.7200    11.6630     0.8160 C.2   1 <1>   0.0360 
 26 N        3.6410    11.1540     2.0010 N.2   1 <1>  -0.5650 
 27 H       -0.8090     3.2680    -2.8720 H     1 <1>   0.0800 
 28 H        0.7250     2.6010    -2.3560 H     1 <1>   0.0800 
 29 H       -1.7230     4.5110     0.9830 H     1 <1>   0.0800 
 30 H       -3.0040     2.6620     1.5630 H     1 <1>   0.0800 
 31 H       -1.4800     5.3970    -1.7960 H     1 <1>   0.0800 
 32 H       -0.8210     0.5800     1.4220 H     1 <1>   0.0800 
 33 H       -1.9000     0.8730     2.7570 H     1 <1>   0.0800 
 34 H       -0.7280     2.0860     2.3150 H     1 <1>   0.0800 
 35 H       -2.8530     0.1540    -0.1110 H     1 <1>   0.0800 
 36 H       -4.0740     1.4030    -0.2620 H     1 <1>   0.0800 
 37 H       -3.9400     0.4780     1.2060 H     1 <1>   0.0800 
 38 H       -3.4800     3.2460    -2.0810 H     1 <1>   0.1500 
 39 H       -3.5670     5.9610     1.2200 H     1 <1>   0.1500 
 40 H       -5.7900     3.8340    -2.6150 H     1 <1>   0.1500 
 41 H       -5.8790     6.5300     0.6800 H     1 <1>   0.1500 
 42 H        1.5090     5.7760    -0.4490 H     1 <1>   0.3700 
 43 H       -7.0010     5.4730    -1.2370 H     1 <1>   0.1500 
 44 H        0.8250     7.9750     1.4560 H     1 <1>   0.0800 
 45 H        2.3770     7.1910     1.2790 H     1 <1>   0.0800 
 46 H        1.0910     9.0740    -0.7110 H     1 <1>   0.0800 
 47 H        2.6210     8.2630    -0.9600 H     1 <1>   0.0800 
 48 H        3.1050    11.1100    -1.1430 H     1 <1>   0.2700 
 49 H        2.7710     9.3440     2.6390 H     1 <1>   0.1500 
 50 H        4.1870    12.6070     0.5940 H     1 <1>   0.1500 
@<TRIPOS>BOND
  1   1   2  2   
  2   2   3  am  
  3   2   4  1   
  4   3   5  1   
  5   3   6  1   
  6   4   7  1   
  7   4  27  1   
  8   4  28  1   
  9   5   8  1   
 10   5   9  1   
 11   5  29  1   
 12   6  10  1   
 13   6  11  1   
 14   6  30  1   
 15   7   9  1   
 16   8  12  ar  
 17   8  13  ar  
 18   9  14  1   
 19   9  31  1   
 20  10  32  1   
 21  10  33  1   
 22  10  34  1   
 23  11  35  1   
 24  11  36  1   
 25  11  37  1   
 26  12  15  ar  
 27  12  38  1   
 28  13  16  ar  
 29  13  39  1   
 30  14  17  2   
 31  14  18  am  
 32  15  19  ar  
 33  15  40  1   
 34  16  19  ar  
 35  16  41  1   
 36  18  20  1   
 37  18  42  1   
 38  19  43  1   
 39  20  21  1   
 40  20  44  1   
 41  20  45  1   
 42  21  22  1   
 43  21  46  1   
 44  21  47  1   
 45  22  23  1   
 46  22  24  2   
 47  23  25  1   
 48  23  48  1   
 49  24  26  1   
 50  24  49  1   
 51  25  26  2   
 52  25  50  1   
@<TRIPOS>SUBSTRUCTURE
  1 ****  14 GROUP 4 **** **** 0

# MOE 2024.06 (io_trps.svl 2023.06)
