@<TRIPOS>MOLECULE
NONAME
41 43 1 0 0 
SMALL
USER_CHARGES


@<TRIPOS>ATOM
  1 O       -1.8620     0.1920    -2.7400 O.2   1 <1>  -0.5700 
  2 C       -2.1480     0.6150    -1.6380 C.2   1 <1>   0.5440 
  3 N       -2.6160    -0.2700    -0.6880 N.am  1 <1>  -0.6600 
  4 C       -2.0210     2.0320    -1.3680 C.ar  1 <1>   0.0860 
  5 C       -2.4410    -1.7420    -0.9220 C.3   1 <1>   0.3200 
  6 C       -3.1910     0.1970     0.6230 C.3   1 <1>   0.1400 
  7 C       -1.0760     2.5140    -0.4560 C.ar  1 <1>  -0.1500 
  8 C       -2.8520     2.9570    -2.0130 C.ar  1 <1>  -0.1500 
  9 C       -3.3950    -2.6150    -0.1220 C.2   1 <1>  -0.3320 
 10 C       -4.5530     0.8970     0.4390 C.3   1 <1>   0.1200 
 11 C       -0.9980     3.8670    -0.1950 C.ar  1 <1>  -0.1430 
 12 C       -2.7710     4.3130    -1.7460 C.ar  1 <1>  -0.1500 
 13 N       -4.7330    -2.4650    -0.1030 N.pl3 1 <1>   0.0330 
 14 C       -3.1260    -3.6670     0.6820 C.2   1 <1>   0.0770 
 15 O       -5.2670     0.3120    -0.6020 O.3   1 <1>  -0.6800 
 16 C       -1.8350     4.7470    -0.8270 C.ar  1 <1>   0.0830 
 17 C       -0.0960     4.6420     0.7200 C.3   1 <1>  -0.0170 
 18 C       -5.1900    -3.4310     0.7210 C.2   1 <1>   0.0060 
 19 N       -4.2540    -4.1760     1.2100 N.2   1 <1>  -0.5650 
 20 O       -1.6330     6.0170    -0.4600 O.3   1 <1>  -0.3620 
 21 C       -0.5700     6.0880     0.4810 C.3   1 <1>   0.1200 
 22 C       -6.6590    -3.6020     1.0380 C.3   1 <1>  -0.0600 
 23 H       -1.4280    -2.0090    -0.6760 H     1 <1>   0.0800 
 24 H       -2.5860    -1.9610    -1.9660 H     1 <1>   0.0800 
 25 H       -2.5100     0.8790     1.0990 H     1 <1>   0.0800 
 26 H       -3.3080    -0.6250     1.3070 H     1 <1>   0.0800 
 27 H       -0.4110     1.8250     0.0340 H     1 <1>   0.1500 
 28 H       -3.5680     2.5980    -2.7320 H     1 <1>   0.1500 
 29 H       -4.4070     1.9350     0.1960 H     1 <1>   0.0800 
 30 H       -5.1420     0.8340     1.3380 H     1 <1>   0.0800 
 31 H       -3.4090     5.0260    -2.2370 H     1 <1>   0.1500 
 32 H       -5.2800    -1.7170    -0.5500 H     1 <1>   0.2700 
 33 H       -2.1650    -4.0940     0.9160 H     1 <1>   0.1500 
 34 H       -4.6570     0.2180    -1.3670 H     1 <1>   0.4000 
 35 H        0.9360     4.5260     0.4450 H     1 <1>   0.0800 
 36 H       -0.2380     4.3560     1.7470 H     1 <1>   0.0800 
 37 H        0.2100     6.6950     0.0580 H     1 <1>   0.0800 
 38 H       -0.9490     6.5380     1.3820 H     1 <1>   0.0800 
 39 H       -7.0480    -2.7020     1.4760 H     1 <1>   0.0800 
 40 H       -6.7890    -4.4110     1.7340 H     1 <1>   0.0800 
 41 H       -7.2050    -3.8270     0.1400 H     1 <1>   0.0800 
@<TRIPOS>BOND
  1   1   2  2   
  2   2   3  am  
  3   2   4  1   
  4   3   5  1   
  5   3   6  1   
  6   4   7  ar  
  7   4   8  ar  
  8   5   9  1   
  9   5  23  1   
 10   5  24  1   
 11   6  10  1   
 12   6  25  1   
 13   6  26  1   
 14   7  11  ar  
 15   7  27  1   
 16   8  12  ar  
 17   8  28  1   
 18   9  13  1   
 19   9  14  2   
 20  10  15  1   
 21  10  29  1   
 22  10  30  1   
 23  11  16  ar  
 24  11  17  1   
 25  12  16  ar  
 26  12  31  1   
 27  13  18  1   
 28  13  32  1   
 29  14  19  1   
 30  14  33  1   
 31  15  34  1   
 32  16  20  1   
 33  17  21  1   
 34  17  35  1   
 35  17  36  1   
 36  18  19  2   
 37  18  22  1   
 38  20  21  1   
 39  21  37  1   
 40  21  38  1   
 41  22  39  1   
 42  22  40  1   
 43  22  41  1   
@<TRIPOS>SUBSTRUCTURE
  1 ****   3 GROUP 4 **** **** 0

# MOE 2024.06 (io_trps.svl 2023.06)
