@<TRIPOS>MOLECULE
NONAME
52 54 1 0 0 
SMALL
USER_CHARGES


@<TRIPOS>ATOM
  1 O        3.9450     0.1460     1.3770 O.2   1 <1>  -0.5700 
  2 C        3.2180    -0.5630     0.7080 C.2   1 <1>   0.5440 
  3 N        2.6280     0.0260    -0.3840 N.am  1 <1>  -0.6600 
  4 C        3.0860    -1.9830     0.9630 C.ar  1 <1>   0.0860 
  5 C        3.1190    -0.3150    -1.7560 C.3   1 <1>   0.1400 
  6 C        1.8990     1.3240    -0.2700 C.3   1 <1>   0.1400 
  7 C        1.8460    -2.6030     1.0870 C.ar  1 <1>   0.1660 
  8 C        4.1890    -2.8230     1.0790 C.ar  1 <1>   0.1660 
  9 C        4.5250     0.2780    -2.0170 C.3   1 <1>   0.3430 
 10 C        2.8380     2.5430    -0.2240 C.3   1 <1>  -0.1600 
 11 N        1.7180    -3.8990     1.2570 N.ar  1 <1>  -0.6200 
 12 C        0.5370    -1.8320     1.0450 C.3   1 <1>  -0.0960 
 13 N        4.0760    -4.1200     1.2540 N.ar  1 <1>  -0.6200 
 14 C        5.6200    -2.3120     1.0100 C.3   1 <1>  -0.0970 
 15 N        4.8360     1.4060    -1.0810 N.4   1 <1>  -0.9590 
 16 C        3.9400     2.5730    -1.2850 C.3   1 <1>   0.3430 
 17 C        2.8430    -4.5860     1.3320 C.ar  1 <1>   0.4700 
 18 C        6.2860     1.7570    -1.0780 C.3   1 <1>   0.3430 
 19 C        6.7060     2.4110     0.2420 C.3   1 <1>   0.0200 
 20 C        8.1890     2.7210     0.1940 C.2   1 <1>   0.0060 
 21 N        8.8930     2.5990    -0.8850 N.2   1 <1>  -0.5650 
 22 N        8.9020     3.1500     1.2660 N.pl3 1 <1>   0.0480 
 23 C       10.1310     2.9660    -0.5060 C.2   1 <1>   0.0770 
 24 C       10.1540     3.3040     0.8000 C.2   1 <1>  -0.3020 
 25 C        8.4520     3.4040     2.6470 C.3   1 <1>   0.0160 
 26 H        2.4290     0.0640    -2.4900 H     1 <1>   0.0800 
 27 H        3.1550    -1.3850    -1.8760 H     1 <1>   0.0800 
 28 H        1.3050     1.3120     0.6290 H     1 <1>   0.0800 
 29 H        1.2190     1.4190    -1.1000 H     1 <1>   0.0800 
 30 H        4.6020     0.6020    -3.0420 H     1 <1>   0.0800 
 31 H        5.2490    -0.5070    -1.8710 H     1 <1>   0.0800 
 32 H        3.2820     2.6130     0.7530 H     1 <1>   0.0800 
 33 H        2.2350     3.4260    -0.3430 H     1 <1>   0.0800 
 34 H        0.6230    -0.9030     1.5790 H     1 <1>   0.0800 
 35 H       -0.2470    -2.4060     1.5080 H     1 <1>   0.0800 
 36 H        0.2580    -1.6380     0.0260 H     1 <1>   0.0800 
 37 H        5.7430    -1.6100     0.2090 H     1 <1>   0.0800 
 38 H        6.3030    -3.1280     0.8510 H     1 <1>   0.0800 
 39 H        5.8750    -1.8370     1.9400 H     1 <1>   0.0800 
 40 H        4.5870     1.0390    -0.1350 H     1 <1>   0.4500 
 41 H        4.5000     3.4890    -1.1820 H     1 <1>   0.0800 
 42 H        3.5110     2.5510    -2.2740 H     1 <1>   0.0800 
 43 H        2.7430    -5.6500     1.4770 H     1 <1>   0.1500 
 44 H        6.5140     2.4200    -1.8970 H     1 <1>   0.0800 
 45 H        6.8790     0.8660    -1.2060 H     1 <1>   0.0800 
 46 H        6.5120     1.7360     1.0560 H     1 <1>   0.0800 
 47 H        6.1670     3.3270     0.3960 H     1 <1>   0.0800 
 48 H       10.9540     2.9690    -1.2020 H     1 <1>   0.1500 
 49 H       10.9780     3.6370     1.4050 H     1 <1>   0.1500 
 50 H        7.6490     4.1170     2.6370 H     1 <1>   0.0800 
 51 H        9.2690     3.7990     3.2240 H     1 <1>   0.0800 
 52 H        8.1180     2.4830     3.0900 H     1 <1>   0.0800 
@<TRIPOS>BOND
  1   1   2  2   
  2   2   3  am  
  3   2   4  1   
  4   3   5  1   
  5   3   6  1   
  6   4   7  ar  
  7   4   8  ar  
  8   5   9  1   
  9   5  26  1   
 10   5  27  1   
 11   6  10  1   
 12   6  28  1   
 13   6  29  1   
 14   7  11  ar  
 15   7  12  1   
 16   8  13  ar  
 17   8  14  1   
 18   9  15  1   
 19   9  30  1   
 20   9  31  1   
 21  10  16  1   
 22  10  32  1   
 23  10  33  1   
 24  11  17  ar  
 25  12  34  1   
 26  12  35  1   
 27  12  36  1   
 28  13  17  ar  
 29  14  37  1   
 30  14  38  1   
 31  14  39  1   
 32  15  16  1   
 33  15  18  1   
 34  15  40  1   
 35  16  41  1   
 36  16  42  1   
 37  17  43  1   
 38  18  19  1   
 39  18  44  1   
 40  18  45  1   
 41  19  20  1   
 42  19  46  1   
 43  19  47  1   
 44  20  21  2   
 45  20  22  1   
 46  21  23  1   
 47  22  24  1   
 48  22  25  1   
 49  23  24  2   
 50  23  48  1   
 51  24  49  1   
 52  25  50  1   
 53  25  51  1   
 54  25  52  1   
@<TRIPOS>SUBSTRUCTURE
  1 ****   1 GROUP 4 **** **** 0

# MOE 2024.06 (io_trps.svl 2023.06)
