@<TRIPOS>MOLECULE
NONAME
27 29 1 0 0 
SMALL
USER_CHARGES


@<TRIPOS>ATOM
  1 O       -7.8030     2.5950    -0.9090 O.2   1 <1>  -0.5700 
  2 C       -7.6310     1.5420    -0.3330 C.2   1 <1>   0.5440 
  3 N       -8.6260     0.9050     0.3460 N.am  1 <1>  -0.6600 
  4 C       -6.4480     0.7320    -0.3290 C.ar  1 <1>   0.0860 
  5 C       -8.1900    -0.4570     0.7530 C.3   1 <1>   0.3640 
  6 C      -10.0690     1.2460     0.2620 C.3   1 <1>   0.1400 
  7 C       -6.7360    -0.4650     0.3040 C.ar  1 <1>  -0.1440 
  8 C       -5.1750     0.9560    -0.8370 C.ar  1 <1>  -0.1500 
  9 C       -9.0310    -1.5240     0.0080 C.3   1 <1>   0.3430 
 10 C      -10.8260     0.1560    -0.5200 C.3   1 <1>   0.3430 
 11 C       -5.7720    -1.4460     0.4550 C.ar  1 <1>  -0.1500 
 12 C       -4.2060    -0.0230    -0.6960 C.ar  1 <1>  -0.1500 
 13 N      -10.5170    -1.2280    -0.0050 N.4   1 <1>  -0.9060 
 14 C       -4.5020    -1.2170    -0.0530 C.ar  1 <1>  -0.1500 
 15 H       -8.2600    -0.5680     1.8220 H     1 <1>   0.0800 
 16 H      -10.1910     2.1950    -0.2350 H     1 <1>   0.0800 
 17 H      -10.4720     1.3440     1.2550 H     1 <1>   0.0800 
 18 H       -4.9580     1.8880    -1.3320 H     1 <1>   0.1500 
 19 H       -8.8460    -2.4880     0.4530 H     1 <1>   0.0800 
 20 H       -8.6730    -1.5650    -1.0080 H     1 <1>   0.0800 
 21 H      -10.5400     0.2280    -1.5580 H     1 <1>   0.0800 
 22 H      -11.8860     0.3480    -0.4600 H     1 <1>   0.0800 
 23 H       -5.9820    -2.3750     0.9570 H     1 <1>   0.1500 
 24 H       -3.2150     0.1440    -1.0860 H     1 <1>   0.1500 
 25 H      -10.8940    -1.3190     0.9470 H     1 <1>   0.4500 
 26 H      -11.0040    -1.9240    -0.5870 H     1 <1>   0.4500 
 27 H       -3.7360    -1.9670     0.0530 H     1 <1>   0.1500 
@<TRIPOS>BOND
  1   1   2  2   
  2   2   3  am  
  3   2   4  1   
  4   3   5  1   
  5   3   6  1   
  6   4   7  ar  
  7   4   8  ar  
  8   5   7  1   
  9   5   9  1   
 10   5  15  1   
 11   6  10  1   
 12   6  16  1   
 13   6  17  1   
 14   7  11  ar  
 15   8  12  ar  
 16   8  18  1   
 17   9  13  1   
 18   9  19  1   
 19   9  20  1   
 20  10  13  1   
 21  10  21  1   
 22  10  22  1   
 23  11  14  ar  
 24  11  23  1   
 25  12  14  ar  
 26  12  24  1   
 27  13  25  1   
 28  13  26  1   
 29  14  27  1   
@<TRIPOS>SUBSTRUCTURE
  1 ****   7 GROUP 4 **** **** 0

# MOE 2024.06 (io_trps.svl 2023.06)
