@<TRIPOS>MOLECULE
NONAME
52 55 1 0 0 
SMALL
USER_CHARGES


@<TRIPOS>ATOM
  1 O       -2.0660    -0.0560     2.1490 O.2   1 <1>  -0.5700 
  2 C       -2.0770     0.8140     1.3110 C.2   1 <1>   0.5690 
  3 N       -2.0540     0.5280    -0.0290 N.am  1 <1>  -0.6600 
  4 C       -2.0960     2.2540     1.8060 C.3   1 <1>   0.0440 
  5 C       -1.8450    -0.8870    -0.4910 C.3   1 <1>   0.3640 
  6 C       -2.1960     1.5650    -1.1020 C.3   1 <1>   0.1400 
  7 C       -0.8020     2.9940     1.4750 C.ar  1 <1>  -0.1440 
  8 C       -0.3540    -1.2000    -0.7120 C.ar  1 <1>  -0.1440 
  9 C       -2.6790    -1.2310    -1.7670 C.3   1 <1>   0.2000 
 10 C       -2.1830     0.9600    -2.5120 C.3   1 <1>   0.1200 
 11 C       -0.8320     4.2440     0.8760 C.ar  1 <1>  -0.1500 
 12 C        0.4210     2.4130     1.7690 C.ar  1 <1>  -0.1500 
 13 C        0.6390    -0.2310    -0.8220 C.ar  1 <1>  -0.1500 
 14 C        0.0170    -2.5360    -0.7970 C.ar  1 <1>  -0.1500 
 15 O       -3.0570    -0.1200    -2.5500 O.3   1 <1>  -0.5600 
 16 C       -3.9720    -1.9710    -1.4060 C.3   1 <1>   0.1200 
 17 C        0.3470     4.8930     0.5570 C.ar  1 <1>  -0.1500 
 18 C        1.6000     3.0620     1.4530 C.ar  1 <1>  -0.1500 
 19 C        1.9600    -0.5900    -1.0320 C.ar  1 <1>  -0.1500 
 20 C        1.3360    -2.8980    -1.0050 C.ar  1 <1>  -0.1500 
 21 O       -3.6820    -3.2650    -0.9820 O.3   1 <1>  -0.6800 
 22 C        1.5780     4.3060     0.8310 C.ar  1 <1>  -0.0230 
 23 C        2.3100    -1.9240    -1.1260 C.ar  1 <1>  -0.1500 
 24 N        2.7870     4.9680     0.4760 N.pl3 1 <1>   0.5930 
 25 N        3.1080     6.1920     0.8610 N.2   1 <1>  -0.4180 
 26 C        3.7780     4.5520    -0.3120 C.2   1 <1>   0.0060 
 27 N        4.2430     6.4680     0.3290 N.2   1 <1>   0.0000 
 28 N        4.6750     5.4530    -0.4090 N.2   1 <1>  -0.3380 
 29 C        3.8380     3.2060    -1.0150 C.3   1 <1>  -0.0600 
 30 H       -2.9450     2.7560     1.3840 H     1 <1>   0.0800 
 31 H       -2.2240     2.2490     2.8740 H     1 <1>   0.0800 
 32 H       -2.1700    -1.5530     0.2900 H     1 <1>   0.0800 
 33 H       -3.1280     2.0860    -0.9640 H     1 <1>   0.0800 
 34 H       -1.3980     2.2810    -1.0270 H     1 <1>   0.0800 
 35 H       -2.0980    -1.8670    -2.4110 H     1 <1>   0.0800 
 36 H       -1.1980     0.6250    -2.7910 H     1 <1>   0.0800 
 37 H       -2.5180     1.6850    -3.2320 H     1 <1>   0.0800 
 38 H       -1.7720     4.7210     0.6560 H     1 <1>   0.1500 
 39 H        0.4600     1.4460     2.2470 H     1 <1>   0.1500 
 40 H        0.4040     0.8120    -0.7390 H     1 <1>   0.1500 
 41 H       -0.7260    -3.3090    -0.6950 H     1 <1>   0.1500 
 42 H       -4.6230    -2.0390    -2.2600 H     1 <1>   0.0800 
 43 H       -4.4790    -1.4630    -0.6040 H     1 <1>   0.0800 
 44 H        0.3120     5.8660     0.0950 H     1 <1>   0.1500 
 45 H        2.5370     2.5930     1.7000 H     1 <1>   0.1500 
 46 H        2.7170     0.1670    -1.1190 H     1 <1>   0.1500 
 47 H        1.6050    -3.9380    -1.0690 H     1 <1>   0.1500 
 48 H       -3.5110    -3.8500    -1.7470 H     1 <1>   0.4000 
 49 H        3.3360    -2.2050    -1.2890 H     1 <1>   0.1500 
 50 H        4.6310     3.2090    -1.7420 H     1 <1>   0.0800 
 51 H        2.9110     3.0060    -1.5210 H     1 <1>   0.0800 
 52 H        4.0310     2.4250    -0.3030 H     1 <1>   0.0800 
@<TRIPOS>BOND
  1   1   2  2   
  2   2   3  am  
  3   2   4  1   
  4   3   5  1   
  5   3   6  1   
  6   4   7  1   
  7   4  30  1   
  8   4  31  1   
  9   5   8  1   
 10   5   9  1   
 11   5  32  1   
 12   6  10  1   
 13   6  33  1   
 14   6  34  1   
 15   7  11  ar  
 16   7  12  ar  
 17   8  13  ar  
 18   8  14  ar  
 19   9  15  1   
 20   9  16  1   
 21   9  35  1   
 22  10  15  1   
 23  10  36  1   
 24  10  37  1   
 25  11  17  ar  
 26  11  38  1   
 27  12  18  ar  
 28  12  39  1   
 29  13  19  ar  
 30  13  40  1   
 31  14  20  ar  
 32  14  41  1   
 33  16  21  1   
 34  16  42  1   
 35  16  43  1   
 36  17  22  ar  
 37  17  44  1   
 38  18  22  ar  
 39  18  45  1   
 40  19  23  ar  
 41  19  46  1   
 42  20  23  ar  
 43  20  47  1   
 44  21  48  1   
 45  22  24  1   
 46  23  49  1   
 47  24  25  1   
 48  24  26  1   
 49  25  27  2   
 50  26  28  2   
 51  26  29  1   
 52  27  28  1   
 53  29  50  1   
 54  29  51  1   
 55  29  52  1   
@<TRIPOS>SUBSTRUCTURE
  1 ****  13 GROUP 4 **** **** 0

# MOE 2024.06 (io_trps.svl 2023.06)
