@<TRIPOS>MOLECULE
NONAME
46 47 1 0 0 
SMALL
USER_CHARGES


@<TRIPOS>ATOM
  1 CL      -3.4800    -1.4750     3.3740 Cl    1 <1>  -0.1770 
  2 C       -3.6370    -1.6610     1.6400 C.ar  1 <1>   0.1770 
  3 C       -3.4970    -0.5680     0.7930 C.ar  1 <1>   0.0820 
  4 C       -3.9040    -2.9270     1.1530 C.ar  1 <1>  -0.1500 
  5 O       -3.2100     0.6490     1.3230 O.3   1 <1>  -0.3630 
  6 C       -3.6580    -0.7630    -0.5860 C.ar  1 <1>   0.0830 
  7 C       -4.0430    -3.1230    -0.2130 C.ar  1 <1>  -0.1440 
  8 C       -1.8440     0.9100     1.5550 C.3   1 <1>   0.0400 
  9 O       -3.5900     0.2060    -1.5390 O.3   1 <1>  -0.3630 
 10 C       -3.9110    -2.0390    -1.0680 C.ar  1 <1>  -0.1500 
 11 C       -4.3470    -4.5060    -0.7580 C.3   1 <1>   0.4860 
 12 C       -3.9700     1.5380    -1.2600 C.3   1 <1>   0.0400 
 13 N       -5.7720    -4.8170    -0.4820 N.4   1 <1>  -0.9590 
 14 C       -6.0370    -6.2790    -0.6340 C.3   1 <1>   0.5240 
 15 C       -6.7220    -3.9080    -1.2100 C.3   1 <1>   0.3430 
 16 C       -5.2270    -7.0140     0.4300 C.2   1 <1>   0.0460 
 17 C       -8.1830    -3.9780    -0.7220 C.3   1 <1>   0.1200 
 18 N       -5.0530    -6.4500     1.6470 N.2   1 <1>  -0.5650 
 19 C       -4.5970    -8.2110     0.3600 C.2   1 <1>  -0.3320 
 20 O       -8.7420    -5.2170    -1.0140 O.3   1 <1>  -0.6800 
 21 C       -4.3390    -7.3160     2.2910 C.2   1 <1>   0.0360 
 22 N       -4.0280    -8.4090     1.5650 N.pl3 1 <1>   0.0330 
 23 C       -4.4880    -9.2260    -0.7680 C.3   1 <1>  -0.0600 
 24 H       -3.9970    -3.7440     1.8510 H     1 <1>   0.1500 
 25 H       -1.7540     1.9070     1.9470 H     1 <1>   0.0800 
 26 H       -1.3100     0.8300     0.6240 H     1 <1>   0.0800 
 27 H       -1.4640     0.2010     2.2690 H     1 <1>   0.0800 
 28 H       -4.0040    -2.1600    -2.1340 H     1 <1>   0.1500 
 29 H       -3.7060    -5.2200    -0.2660 H     1 <1>   0.0800 
 30 H       -4.1520    -4.5420    -1.8170 H     1 <1>   0.0800 
 31 H       -4.1780     2.0300    -2.1930 H     1 <1>   0.0800 
 32 H       -3.1580     2.0370    -0.7630 H     1 <1>   0.0800 
 33 H       -4.8500     1.5340    -0.6410 H     1 <1>   0.0800 
 34 H       -5.8740    -4.6900     0.5370 H     1 <1>   0.4500 
 35 H       -5.7750    -6.6230    -1.6200 H     1 <1>   0.0800 
 36 H       -7.0730    -6.4970    -0.4540 H     1 <1>   0.0800 
 37 H       -6.6990    -4.1220    -2.2660 H     1 <1>   0.0800 
 38 H       -6.3910    -2.8900    -1.0820 H     1 <1>   0.0800 
 39 H       -8.7680    -3.2270    -1.2250 H     1 <1>   0.0800 
 40 H       -8.2400    -3.8120     0.3410 H     1 <1>   0.0800 
 41 H       -9.6940    -5.2390    -0.7690 H     1 <1>   0.4000 
 42 H       -4.0140    -7.2000     3.3120 H     1 <1>   0.1500 
 43 H       -3.4820    -9.2200     1.8780 H     1 <1>   0.2700 
 44 H       -5.0200    -8.8930    -1.6410 H     1 <1>   0.0800 
 45 H       -4.9060   -10.1680    -0.4580 H     1 <1>   0.0800 
 46 H       -3.4570    -9.3790    -1.0340 H     1 <1>   0.0800 
@<TRIPOS>BOND
  1   1   2  1   
  2   2   3  ar  
  3   2   4  ar  
  4   3   5  1   
  5   3   6  ar  
  6   4   7  ar  
  7   4  24  1   
  8   5   8  1   
  9   6   9  1   
 10   6  10  ar  
 11   7  10  ar  
 12   7  11  1   
 13   8  25  1   
 14   8  26  1   
 15   8  27  1   
 16   9  12  1   
 17  10  28  1   
 18  11  13  1   
 19  11  29  1   
 20  11  30  1   
 21  12  31  1   
 22  12  32  1   
 23  12  33  1   
 24  13  14  1   
 25  13  15  1   
 26  13  34  1   
 27  14  16  1   
 28  14  35  1   
 29  14  36  1   
 30  15  17  1   
 31  15  37  1   
 32  15  38  1   
 33  16  18  1   
 34  16  19  2   
 35  17  20  1   
 36  17  39  1   
 37  17  40  1   
 38  18  21  2   
 39  19  22  1   
 40  19  23  1   
 41  20  41  1   
 42  21  22  1   
 43  21  42  1   
 44  22  43  1   
 45  23  44  1   
 46  23  45  1   
 47  23  46  1   
@<TRIPOS>SUBSTRUCTURE
  1 ****   7 GROUP 4 **** **** 0

# MOE 2024.06 (io_trps.svl 2023.06)
