@<TRIPOS>MOLECULE
NONAME
45 48 1 0 0 
SMALL
USER_CHARGES


@<TRIPOS>ATOM
  1 S        0.1870    -0.2250     1.9640 S.3   1 <1>  -0.0800 
  2 C        1.3710    -1.0340     0.9290 C.2   1 <1>  -0.0450 
  3 C        0.9210     1.3390     1.7120 C.2   1 <1>  -0.1100 
  4 C        2.2550    -0.1040     0.4750 C.2   1 <1>  -0.1810 
  5 C        1.2960    -2.4670     0.7470 C.2   1 <1>   0.7150 
  6 C        1.9890     1.2360     0.9010 C.2   1 <1>  -0.1810 
  7 C        3.4710    -0.4340    -0.3810 C.3   1 <1>   0.0210 
  8 O        2.3230    -3.1220     0.7070 O.2   1 <1>  -0.5700 
  9 N        0.1000    -3.1340     0.5820 N.am  1 <1>  -0.6600 
 10 C        2.8390     2.4100     0.4410 C.3   1 <1>   0.0210 
 11 C        4.0620     0.8040    -1.0690 C.3   1 <1>  -0.1600 
 12 C       -1.1630    -2.5040     0.1230 C.3   1 <1>   0.1400 
 13 C        0.0390    -4.6070     0.4010 C.3   1 <1>   0.1400 
 14 C        4.2130     1.9600    -0.0700 C.3   1 <1>  -0.1600 
 15 C       -1.9570    -3.6370    -0.5260 C.3   1 <1>   0.2000 
 16 C       -1.4320    -4.9180     0.1170 C.3   1 <1>  -0.0800 
 17 O       -3.3170    -3.5120    -0.2920 O.3   1 <1>  -0.6800 
 18 C       -1.6580    -6.1580    -0.7640 C.3   1 <1>  -0.0170 
 19 C       -1.1870    -7.4310    -0.0800 C.ar  1 <1>   0.1670 
 20 N        0.1060    -7.7020    -0.1600 N.ar  1 <1>  -0.6200 
 21 C       -2.1020    -8.2430     0.5880 C.ar  1 <1>   0.1600 
 22 C        0.4190    -8.8230     0.4670 C.ar  1 <1>   0.1600 
 23 N       -1.7910    -9.3640     1.2170 N.ar  1 <1>  -0.6200 
 24 C       -0.4980    -9.6270     1.1330 C.ar  1 <1>   0.1600 
 25 H        0.4670     2.1850     2.1950 H     1 <1>   0.1500 
 26 H        4.2190    -0.8670     0.2600 H     1 <1>   0.0800 
 27 H        3.2120    -1.1720    -1.1210 H     1 <1>   0.0800 
 28 H        2.3180     2.9090    -0.3570 H     1 <1>   0.0800 
 29 H        2.9600     3.1120     1.2470 H     1 <1>   0.0800 
 30 H        5.0210     0.5540    -1.4880 H     1 <1>   0.0800 
 31 H        3.4140     1.1060    -1.8730 H     1 <1>   0.0800 
 32 H       -1.6920    -2.1130     0.9750 H     1 <1>   0.0800 
 33 H       -0.9630    -1.7180    -0.5850 H     1 <1>   0.0800 
 34 H        0.6600    -4.8860    -0.4350 H     1 <1>   0.0800 
 35 H        0.3900    -5.1150     1.2830 H     1 <1>   0.0800 
 36 H        4.7090     2.7900    -0.5420 H     1 <1>   0.0800 
 37 H        4.8150     1.6390     0.7620 H     1 <1>   0.0800 
 38 H       -1.7910    -3.6360    -1.5900 H     1 <1>   0.0800 
 39 H       -1.9140    -5.0620     1.0690 H     1 <1>   0.0800 
 40 H       -3.4960    -3.4710     0.6680 H     1 <1>   0.4000 
 41 H       -1.1340    -6.0470    -1.6980 H     1 <1>   0.0800 
 42 H       -2.7060    -6.2420    -0.9930 H     1 <1>   0.0800 
 43 H       -3.1380    -7.9520     0.6040 H     1 <1>   0.1500 
 44 H        1.4530    -9.1210     0.4530 H     1 <1>   0.1500 
 45 H       -0.1470   -10.5220     1.6140 H     1 <1>   0.1500 
@<TRIPOS>BOND
  1   1   2  1   
  2   1   3  1   
  3   2   4  2   
  4   2   5  1   
  5   3   6  2   
  6   3  25  1   
  7   4   6  1   
  8   4   7  1   
  9   5   8  2   
 10   5   9  am  
 11   6  10  1   
 12   7  11  1   
 13   7  26  1   
 14   7  27  1   
 15   9  12  1   
 16   9  13  1   
 17  10  14  1   
 18  10  28  1   
 19  10  29  1   
 20  11  14  1   
 21  11  30  1   
 22  11  31  1   
 23  12  15  1   
 24  12  32  1   
 25  12  33  1   
 26  13  16  1   
 27  13  34  1   
 28  13  35  1   
 29  14  36  1   
 30  14  37  1   
 31  15  16  1   
 32  15  17  1   
 33  15  38  1   
 34  16  18  1   
 35  16  39  1   
 36  17  40  1   
 37  18  19  1   
 38  18  41  1   
 39  18  42  1   
 40  19  20  ar  
 41  19  21  ar  
 42  20  22  ar  
 43  21  23  ar  
 44  21  43  1   
 45  22  24  ar  
 46  22  44  1   
 47  23  24  ar  
 48  24  45  1   
@<TRIPOS>SUBSTRUCTURE
  1 ****   9 GROUP 4 **** **** 0

# MOE 2024.06 (io_trps.svl 2023.06)
