@<TRIPOS>MOLECULE
NONAME
48 51 1 0 0 
SMALL
USER_CHARGES


@<TRIPOS>ATOM
  1 N       -1.4370    -0.2310     1.1460 N.2   1 <1>  -0.7070 
  2 N       -1.0740     0.9990     0.6800 N.pl3 1 <1>   0.5930 
  3 C       -0.3240    -0.8270     1.4500 C.2   1 <1>   0.1390 
  4 C       -2.0050     1.9950     0.2570 C.ar  1 <1>  -0.0230 
  5 C        0.2750     1.1120     0.6960 C.2   1 <1>  -0.3020 
  6 C        0.7850    -0.0350     1.1850 C.2   1 <1>  -0.1500 
  7 C       -3.0370     1.7400    -0.6560 C.ar  1 <1>  -0.1430 
  8 C       -1.8790     3.2830     0.7710 C.ar  1 <1>  -0.1500 
  9 C       -3.8900     2.7650    -1.0390 C.ar  1 <1>  -0.1500 
 10 C       -3.2700     0.3610    -1.2570 C.3   1 <1>   0.4870 
 11 C       -2.7400     4.2930     0.3890 C.ar  1 <1>  -0.1500 
 12 C       -3.7500     4.0400    -0.5200 C.ar  1 <1>  -0.1430 
 13 N       -3.8750    -0.5280    -0.2350 N.4   1 <1>  -0.9590 
 14 C       -4.6870     5.1570    -0.9440 C.3   1 <1>  -0.0970 
 15 C       -3.9960    -1.9310    -0.7360 C.3   1 <1>   0.3430 
 16 C       -5.1480    -0.0040     0.3330 C.3   1 <1>   0.3430 
 17 C       -4.4690    -2.8930     0.3660 C.3   1 <1>   0.1000 
 18 C       -5.6110    -0.9150     1.4720 C.3   1 <1>  -0.1600 
 19 C       -4.6850    -4.2690    -0.2420 C.2   1 <1>   0.0060 
 20 C       -5.7640    -2.3770     1.0180 C.3   1 <1>  -0.1600 
 21 N       -4.7120    -4.4860    -1.5180 N.2   1 <1>  -0.5650 
 22 N       -4.8650    -5.3880     0.4970 N.pl3 1 <1>   0.0330 
 23 C       -4.9220    -5.8130    -1.6190 C.2   1 <1>   0.0770 
 24 C       -5.0170    -6.3790    -0.3980 C.2   1 <1>  -0.3020 
 25 H       -0.2640    -1.8230     1.8610 H     1 <1>   0.1500 
 26 H        0.7820     1.9990     0.3630 H     1 <1>   0.1500 
 27 H        1.8150    -0.3070     1.3480 H     1 <1>   0.1500 
 28 H       -1.1000     3.5060     1.4820 H     1 <1>   0.1500 
 29 H       -4.6780     2.5830    -1.7510 H     1 <1>   0.1500 
 30 H       -2.3280    -0.0490    -1.5850 H     1 <1>   0.0800 
 31 H       -3.9230     0.4380    -2.1110 H     1 <1>   0.0800 
 32 H       -2.6180     5.2810     0.8000 H     1 <1>   0.1500 
 33 H       -3.1730    -0.5370     0.5340 H     1 <1>   0.4500 
 34 H       -5.6330     4.7630    -1.2670 H     1 <1>   0.0800 
 35 H       -4.2480     5.7120    -1.7550 H     1 <1>   0.0800 
 36 H       -4.8640     5.8300    -0.1240 H     1 <1>   0.0800 
 37 H       -3.0470    -2.2770    -1.1110 H     1 <1>   0.0800 
 38 H       -4.7050    -1.9670    -1.5480 H     1 <1>   0.0800 
 39 H       -5.9040     0.0290    -0.4350 H     1 <1>   0.0800 
 40 H       -5.0020     0.9950     0.7120 H     1 <1>   0.0800 
 41 H       -3.6920    -2.9650     1.1060 H     1 <1>   0.0800 
 42 H       -6.5570    -0.5570     1.8410 H     1 <1>   0.0800 
 43 H       -4.9060    -0.8510     2.2830 H     1 <1>   0.0800 
 44 H       -6.0210    -2.9930     1.8630 H     1 <1>   0.0800 
 45 H       -6.5690    -2.4470     0.3050 H     1 <1>   0.0800 
 46 H       -4.8850    -5.4730     1.5180 H     1 <1>   0.2700 
 47 H       -4.9950    -6.2990    -2.5790 H     1 <1>   0.1500 
 48 H       -5.1820    -7.4070    -0.1280 H     1 <1>   0.1500 
@<TRIPOS>BOND
  1   1   2  1   
  2   1   3  2   
  3   2   4  1   
  4   2   5  1   
  5   3   6  1   
  6   3  25  1   
  7   4   7  ar  
  8   4   8  ar  
  9   5   6  2   
 10   5  26  1   
 11   6  27  1   
 12   7   9  ar  
 13   7  10  1   
 14   8  11  ar  
 15   8  28  1   
 16   9  12  ar  
 17   9  29  1   
 18  10  13  1   
 19  10  30  1   
 20  10  31  1   
 21  11  12  ar  
 22  11  32  1   
 23  12  14  1   
 24  13  15  1   
 25  13  16  1   
 26  13  33  1   
 27  14  34  1   
 28  14  35  1   
 29  14  36  1   
 30  15  17  1   
 31  15  37  1   
 32  15  38  1   
 33  16  18  1   
 34  16  39  1   
 35  16  40  1   
 36  17  19  1   
 37  17  20  1   
 38  17  41  1   
 39  18  20  1   
 40  18  42  1   
 41  18  43  1   
 42  19  21  2   
 43  19  22  1   
 44  20  44  1   
 45  20  45  1   
 46  21  23  1   
 47  22  24  1   
 48  22  46  1   
 49  23  24  2   
 50  23  47  1   
 51  24  48  1   
@<TRIPOS>SUBSTRUCTURE
  1 ****  13 GROUP 4 **** **** 0

# MOE 2024.06 (io_trps.svl 2023.06)
