@<TRIPOS>MOLECULE
NONAME
52 54 1 0 0 
SMALL
USER_CHARGES


@<TRIPOS>ATOM
  1 O        3.3380    -4.6030     2.1760 O.2   1 <1>  -0.5700 
  2 C        2.2460    -4.7430     1.6390 C.2   1 <1>   0.6160 
  3 N        2.0470    -4.3330     0.3300 N.am  1 <1>  -0.4690 
  4 C        1.1460    -5.3280     2.3220 C.2   1 <1>  -0.1360 
  5 C        0.8410    -4.5590    -0.2910 C.2   1 <1>  -0.0410 
  6 C        3.1490    -3.6580    -0.4010 C.3   1 <1>   0.0600 
  7 C       -0.0490    -5.5260     1.7040 C.2   1 <1>  -0.1500 
  8 C       -0.2210    -5.1660     0.3320 C.2   1 <1>   0.0140 
  9 C       -1.4510    -5.4480    -0.3780 C.2   1 <1>   0.6160 
 10 O       -1.7550    -4.7700    -1.3460 O.2   1 <1>  -0.5700 
 11 N       -2.3190    -6.4600    -0.0230 N.am  1 <1>  -0.6600 
 12 C       -1.9470    -7.9250    -0.0050 C.3   1 <1>   0.3640 
 13 C       -3.7810    -6.2270    -0.1800 C.3   1 <1>   0.1400 
 14 C       -0.4300    -8.1220    -0.1220 C.ar  1 <1>  -0.1430 
 15 C       -2.7130    -8.7450    -1.0930 C.3   1 <1>   0.2000 
 16 C       -4.3050    -7.0150    -1.3810 C.3   1 <1>   0.1200 
 17 C        0.2750    -8.5940     0.9770 C.ar  1 <1>  -0.1500 
 18 C        0.2650    -7.8320    -1.2920 C.ar  1 <1>  -0.1500 
 19 O       -4.0680    -8.3740    -1.1770 O.3   1 <1>  -0.5600 
 20 C       -2.7350   -10.2660    -0.8440 C.3   1 <1>   0.1200 
 21 C        1.6480    -8.7470     0.9310 C.ar  1 <1>   0.0830 
 22 C        1.6420    -7.9710    -1.3440 C.ar  1 <1>  -0.1500 
 23 O       -1.4800   -10.8010    -0.5740 O.3   1 <1>  -0.6800 
 24 O        2.2550    -9.2340     2.0400 O.3   1 <1>  -0.3630 
 25 C        2.3440    -8.4010    -0.2320 C.ar  1 <1>   0.0830 
 26 C        2.8730   -10.4950     1.9110 C.3   1 <1>   0.0400 
 27 O        3.6960    -8.4520    -0.3230 O.3   1 <1>  -0.3630 
 28 C        4.4060    -7.5480     0.4990 C.3   1 <1>   0.0400 
 29 H        1.3170    -5.6050     3.3440 H     1 <1>   0.1500 
 30 H        0.7470    -4.2480    -1.3190 H     1 <1>   0.1500 
 31 H        2.8100    -3.3130    -1.3620 H     1 <1>   0.0800 
 32 H        3.9630    -4.3470    -0.5400 H     1 <1>   0.0800 
 33 H        3.4980    -2.8170     0.1720 H     1 <1>   0.0800 
 34 H       -0.8810    -5.9660     2.2240 H     1 <1>   0.1500 
 35 H       -2.2560    -8.3160     0.9480 H     1 <1>   0.0800 
 36 H       -4.2960    -6.5400     0.7110 H     1 <1>   0.0800 
 37 H       -3.9780    -5.1780    -0.3260 H     1 <1>   0.0800 
 38 H       -2.2790    -8.5570    -2.0580 H     1 <1>   0.0800 
 39 H       -3.8210    -6.6990    -2.2890 H     1 <1>   0.0800 
 40 H       -5.3670    -6.8770    -1.4830 H     1 <1>   0.0800 
 41 H       -0.2340    -8.8510     1.8880 H     1 <1>   0.1500 
 42 H       -0.2550    -7.4710    -2.1630 H     1 <1>   0.1500 
 43 H       -3.1280   -10.7710    -1.7100 H     1 <1>   0.0800 
 44 H       -3.3600   -10.4880     0.0030 H     1 <1>   0.0800 
 45 H        2.1810    -7.7300    -2.2420 H     1 <1>   0.1500 
 46 H       -0.8210   -10.5420    -1.2510 H     1 <1>   0.4000 
 47 H        3.2130   -10.8030     2.8830 H     1 <1>   0.0800 
 48 H        3.7070   -10.4170     1.2380 H     1 <1>   0.0800 
 49 H        2.1510   -11.1970     1.5320 H     1 <1>   0.0800 
 50 H        5.4530    -7.6440     0.2790 H     1 <1>   0.0800 
 51 H        4.2260    -7.7810     1.5330 H     1 <1>   0.0800 
 52 H        4.0740    -6.5490     0.2840 H     1 <1>   0.0800 
@<TRIPOS>BOND
  1   1   2  2   
  2   2   3  am  
  3   2   4  1   
  4   3   5  1   
  5   3   6  1   
  6   4   7  2   
  7   4  29  1   
  8   5   8  2   
  9   5  30  1   
 10   6  31  1   
 11   6  32  1   
 12   6  33  1   
 13   7   8  1   
 14   7  34  1   
 15   8   9  1   
 16   9  10  2   
 17   9  11  am  
 18  11  12  1   
 19  11  13  1   
 20  12  14  1   
 21  12  15  1   
 22  12  35  1   
 23  13  16  1   
 24  13  36  1   
 25  13  37  1   
 26  14  17  ar  
 27  14  18  ar  
 28  15  19  1   
 29  15  20  1   
 30  15  38  1   
 31  16  19  1   
 32  16  39  1   
 33  16  40  1   
 34  17  21  ar  
 35  17  41  1   
 36  18  22  ar  
 37  18  42  1   
 38  20  23  1   
 39  20  43  1   
 40  20  44  1   
 41  21  24  1   
 42  21  25  ar  
 43  22  25  ar  
 44  22  45  1   
 45  23  46  1   
 46  24  26  1   
 47  25  27  1   
 48  26  47  1   
 49  26  48  1   
 50  26  49  1   
 51  27  28  1   
 52  28  50  1   
 53  28  51  1   
 54  28  52  1   
@<TRIPOS>SUBSTRUCTURE
  1 ****  14 GROUP 4 **** **** 0

# MOE 2024.06 (io_trps.svl 2023.06)
