@<TRIPOS>MOLECULE
NONAME
52 56 1 0 0 
SMALL
USER_CHARGES


@<TRIPOS>ATOM
  1 O       -0.7330     1.3460    -1.0870 O.2   1 <1>  -0.5740 
  2 C       -1.7310     2.0260    -1.0610 C.2   1 <1>   0.6860 
  3 N       -2.9600     1.5250    -0.6580 N.am  1 <1>  -0.4410 
  4 N       -1.6390     3.3310    -1.4460 N.am  1 <1>  -0.4950 
  5 C       -4.0460     2.3890    -0.6820 C.2   1 <1>   0.4210 
  6 C       -3.1040     0.1050    -0.2230 C.3   1 <1>   0.0520 
  7 C       -2.6970     4.1940    -1.4710 C.2   1 <1>   0.6990 
  8 N       -5.3320     2.1080    -0.3550 N.pl3 1 <1>  -0.7040 
  9 C       -3.9750     3.6840    -1.0600 C.2   1 <1>   0.2710 
 10 O       -2.5080     5.3370    -1.8360 O.2   1 <1>  -0.5740 
 11 C       -6.0800     3.2030    -0.5300 C.cat 1 <1>   1.0690 
 12 N       -5.2800     4.2100    -0.9420 N.pl3 1 <1>  -0.7670 
 13 N       -7.4210     3.1940    -0.3190 N.pl3 1 <1>  -0.5960 
 14 C       -5.5360     5.6600    -1.1930 C.3   1 <1>   0.2680 
 15 C       -8.3950     4.2160    -0.8340 C.3   1 <1>   0.1610 
 16 C       -8.1410     2.0490     0.3290 C.3   1 <1>   0.1610 
 17 C       -9.2760     4.7890     0.2950 C.3   1 <1>   0.1360 
 18 C       -9.0340     2.5490     1.4710 C.3   1 <1>  -0.1670 
 19 C      -10.2270     5.7880    -0.3310 C.ar  1 <1>   0.1590 
 20 C      -10.0170     3.6290     0.9910 C.3   1 <1>  -0.1670 
 21 C       -8.4880     5.6560     1.3190 C.3   1 <1>  -0.1670 
 22 N      -11.1850     5.4850    -1.1760 N.ar  1 <1>  -0.6240 
 23 C       -9.9540     7.0640     0.0570 C.ar  1 <1>  -0.1510 
 24 C       -8.7810     7.1350     1.0000 C.3   1 <1>  -0.0240 
 25 C      -11.8890     6.5260    -1.6010 C.ar  1 <1>   0.4710 
 26 C      -10.7420     8.0680    -0.4500 C.ar  1 <1>   0.1530 
 27 N      -11.7220     7.8050    -1.2890 N.ar  1 <1>  -0.6240 
 28 C      -13.0130     6.2250    -2.5640 C.3   1 <1>  -0.1040 
 29 H       -0.7240     3.6700    -1.7380 H     1 <1>   0.3640 
 30 H       -2.1390    -0.3590    -0.1030 H     1 <1>   0.0720 
 31 H       -3.6580    -0.4490    -0.9610 H     1 <1>   0.0720 
 32 H       -3.6160     0.0580     0.7220 H     1 <1>   0.0720 
 33 H       -5.6930     1.2050    -0.0700 H     1 <1>   0.4450 
 34 H       -4.6460     6.2390    -1.0140 H     1 <1>   0.0720 
 35 H       -6.2940     6.0350    -0.5320 H     1 <1>   0.0720 
 36 H       -5.8420     5.8100    -2.2140 H     1 <1>   0.0720 
 37 H       -9.0430     3.7320    -1.5450 H     1 <1>   0.0720 
 38 H       -7.9170     5.0120    -1.3650 H     1 <1>   0.0720 
 39 H       -7.4570     1.3220     0.7290 H     1 <1>   0.0720 
 40 H       -8.7550     1.5570    -0.4090 H     1 <1>   0.0720 
 41 H       -8.4190     2.9340     2.2670 H     1 <1>   0.0720 
 42 H       -9.5930     1.7210     1.8710 H     1 <1>   0.0720 
 43 H      -10.7090     3.1860     0.2950 H     1 <1>   0.0720 
 44 H      -10.5980     4.0010     1.8190 H     1 <1>   0.0720 
 45 H       -7.4350     5.4490     1.3220 H     1 <1>   0.0720 
 46 H       -8.8590     5.4640     2.3110 H     1 <1>   0.0720 
 47 H       -7.9460     7.6010     0.5080 H     1 <1>   0.0720 
 48 H       -9.0310     7.6860     1.8900 H     1 <1>   0.0720 
 49 H      -10.5710     9.0930    -0.1700 H     1 <1>   0.1430 
 50 H      -13.2920     5.1900    -2.5030 H     1 <1>   0.0720 
 51 H      -12.6920     6.4470    -3.5640 H     1 <1>   0.0720 
 52 H      -13.8680     6.8300    -2.3260 H     1 <1>   0.0720 
@<TRIPOS>BOND
  1   1   2  2   
  2   2   3  am  
  3   2   4  am  
  4   3   5  1   
  5   3   6  1   
  6   4   7  am  
  7   4  29  1   
  8   5   8  1   
  9   5   9  2   
 10   6  30  1   
 11   6  31  1   
 12   6  32  1   
 13   7   9  1   
 14   7  10  2   
 15   8  11  ar  
 16   8  33  1   
 17   9  12  1   
 18  11  12  ar  
 19  11  13  ar  
 20  12  14  1   
 21  13  15  1   
 22  13  16  1   
 23  14  34  1   
 24  14  35  1   
 25  14  36  1   
 26  15  17  1   
 27  15  37  1   
 28  15  38  1   
 29  16  18  1   
 30  16  39  1   
 31  16  40  1   
 32  17  19  1   
 33  17  20  1   
 34  17  21  1   
 35  18  20  1   
 36  18  41  1   
 37  18  42  1   
 38  19  22  ar  
 39  19  23  ar  
 40  20  43  1   
 41  20  44  1   
 42  21  24  1   
 43  21  45  1   
 44  21  46  1   
 45  22  25  ar  
 46  23  24  1   
 47  23  26  ar  
 48  24  47  1   
 49  24  48  1   
 50  25  27  ar  
 51  25  28  1   
 52  26  27  ar  
 53  26  49  1   
 54  28  50  1   
 55  28  51  1   
 56  28  52  1   
@<TRIPOS>SUBSTRUCTURE
  1 ****  13 GROUP 4 **** **** 0

# MOE 2024.06 (io_trps.svl 2023.06)
