@<TRIPOS>MOLECULE
NONAME
42 44 1 0 0 
SMALL
USER_CHARGES


@<TRIPOS>ATOM
  1 O       -1.3420     0.5080    -1.2280 O.3   1 <1>  -0.0190 
  2 N       -0.2240     1.1510    -1.3770 N.2   1 <1>  -0.4100 
  3 C       -1.7140     0.7990    -0.0060 C.2   1 <1>   0.2980 
  4 C        0.0060     1.7670    -0.2850 C.2   1 <1>   0.3350 
  5 N       -0.9280     1.5740     0.6350 N.2   1 <1>  -0.5650 
  6 C       -3.0180     0.2030     0.5180 C.3   1 <1>   0.3890 
  7 C        1.2050     2.6540     0.0180 C.3   1 <1>   0.0210 
  8 N       -2.9730    -1.2870     0.6840 N.pl3 1 <1>  -0.8380 
  9 C        2.2030     2.7780    -1.1430 C.3   1 <1>  -0.2400 
 10 C       -4.0720    -2.0640     0.3950 C.ar  1 <1>   0.7200 
 11 C       -1.7030    -1.8680     1.2110 C.3   1 <1>   0.1290 
 12 N       -5.2410    -1.4410     0.2990 N.ar  1 <1>  -0.6200 
 13 N       -3.8650    -3.3660     0.2400 N.ar  1 <1>  -0.6200 
 14 C       -6.2810    -2.1880     0.0210 C.ar  1 <1>   0.1670 
 15 C       -4.9130    -4.1000    -0.0370 C.ar  1 <1>   0.1670 
 16 C       -6.1750    -3.5530    -0.1700 C.ar  1 <1>  -0.1430 
 17 C       -7.6090    -1.4530    -0.0960 C.3   1 <1>  -0.0170 
 18 C       -4.6450    -5.5850    -0.2030 C.3   1 <1>  -0.0970 
 19 C       -7.3970    -4.4120    -0.5000 C.3   1 <1>  -0.0170 
 20 C       -8.8250    -2.3870    -0.0670 C.3   1 <1>  -0.1600 
 21 C       -8.5930    -3.5870    -0.9880 C.3   1 <1>  -0.1600 
 22 H       -3.7970     0.4810    -0.1680 H     1 <1>   0.0800 
 23 H       -3.2430     0.6460     1.4710 H     1 <1>   0.0800 
 24 H        1.7100     2.2530     0.8780 H     1 <1>   0.0800 
 25 H        0.8400     3.6320     0.2770 H     1 <1>   0.0800 
 26 H        2.5900     1.8090    -1.4040 H     1 <1>   0.0800 
 27 H        3.0230     3.4150    -0.8630 H     1 <1>   0.0800 
 28 H        1.7170     3.1970    -2.0070 H     1 <1>   0.0800 
 29 H       -1.2610    -1.2040     1.9330 H     1 <1>   0.0800 
 30 H       -1.0130    -2.0200     0.3990 H     1 <1>   0.0800 
 31 H       -1.8880    -2.8140     1.6910 H     1 <1>   0.0800 
 32 H       -7.6010    -0.9050    -1.0210 H     1 <1>   0.0800 
 33 H       -7.6900    -0.7400     0.7060 H     1 <1>   0.0800 
 34 H       -3.7060    -5.8450     0.2530 H     1 <1>   0.0800 
 35 H       -4.5960    -5.8270    -1.2480 H     1 <1>   0.0800 
 36 H       -5.4150    -6.1680     0.2670 H     1 <1>   0.0800 
 37 H       -7.6820    -4.9490     0.3880 H     1 <1>   0.0800 
 38 H       -7.1490    -5.1330    -1.2590 H     1 <1>   0.0800 
 39 H       -9.7030    -1.8460    -0.3760 H     1 <1>   0.0800 
 40 H       -8.9840    -2.7340     0.9400 H     1 <1>   0.0800 
 41 H       -9.4730    -4.2070    -1.0120 H     1 <1>   0.0800 
 42 H       -8.4040    -3.2380    -1.9890 H     1 <1>   0.0800 
@<TRIPOS>BOND
  1   1   2  1   
  2   1   3  1   
  3   2   4  2   
  4   3   5  2   
  5   3   6  1   
  6   4   5  1   
  7   4   7  1   
  8   6   8  1   
  9   6  22  1   
 10   6  23  1   
 11   7   9  1   
 12   7  24  1   
 13   7  25  1   
 14   8  10  1   
 15   8  11  1   
 16   9  26  1   
 17   9  27  1   
 18   9  28  1   
 19  10  12  ar  
 20  10  13  ar  
 21  11  29  1   
 22  11  30  1   
 23  11  31  1   
 24  12  14  ar  
 25  13  15  ar  
 26  14  16  ar  
 27  14  17  1   
 28  15  16  ar  
 29  15  18  1   
 30  16  19  1   
 31  17  20  1   
 32  17  32  1   
 33  17  33  1   
 34  18  34  1   
 35  18  35  1   
 36  18  36  1   
 37  19  21  1   
 38  19  37  1   
 39  19  38  1   
 40  20  21  1   
 41  20  39  1   
 42  20  40  1   
 43  21  41  1   
 44  21  42  1   
@<TRIPOS>SUBSTRUCTURE
  1 ****   8 GROUP 4 **** **** 0

# MOE 2024.06 (io_trps.svl 2023.06)
