@<TRIPOS>MOLECULE
NONAME
56 58 1 0 0 
SMALL
USER_CHARGES


@<TRIPOS>ATOM
  1 O       -2.0550     1.4450     1.1900 O.co2 1 <1>  -0.9000 
  2 C       -1.4440     1.9990     0.2610 C.2   1 <1>   0.9060 
  3 O       -1.9080     1.9990    -0.8860 O.co2 1 <1>  -0.9000 
  4 C       -0.1080     2.6940     0.5740 C.3   1 <1>  -0.1060 
  5 C       -0.2890     3.5830     1.8280 C.3   1 <1>   0.2000 
  6 C        0.3420     3.6180    -0.5970 C.3   1 <1>   0.1100 
  7 C        0.9760     1.6140     0.8420 C.3   1 <1>  -0.0650 
  8 O       -0.6760     2.8280     2.9160 O.3   1 <1>  -0.6800 
  9 C       -1.3410     4.6810     1.6060 C.3   1 <1>  -0.1600 
 10 N        0.0110     5.0510    -0.3940 N.3   1 <1>  -0.8100 
 11 C        1.3360     0.7670    -0.3890 C.3   1 <1>  -0.1950 
 12 C       -1.3460     5.1830     0.1570 C.3   1 <1>   0.1100 
 13 C        0.1750     5.8280    -1.6610 C.3   1 <1>   0.1710 
 14 C        2.5620    -0.0890    -0.3750 C.3   1 <1>  -0.2000 
 15 C        2.4920     1.1110    -1.2750 C.3   1 <1>  -0.2000 
 16 C        0.4990     7.3030    -1.4060 C.2   1 <1>   0.5690 
 17 O        0.6210     8.0610    -2.3420 O.2   1 <1>  -0.5700 
 18 N        0.6600     7.6400    -0.0990 N.am  1 <1>  -0.4930 
 19 C        1.1010     8.8040     0.5730 C.2   1 <1>   0.0630 
 20 C        1.8500     8.7900     1.7500 C.2   1 <1>   0.1080 
 21 C        0.9190    10.1150     0.2970 C.2   1 <1>  -0.3320 
 22 N        2.1310     9.9800     2.1730 N.2   1 <1>  -0.7070 
 23 C        2.2990     7.5410     2.4760 C.3   1 <1>  -0.0590 
 24 N        1.5680    10.8050     1.2700 N.pl3 1 <1>   0.3140 
 25 C        0.1480    10.7630    -0.8450 C.3   1 <1>  -0.0600 
 26 C        1.6960    12.2720     1.4090 C.3   1 <1>   0.0960 
 27 C        2.8240    12.8190     0.5250 C.3   1 <1>  -0.2400 
 28 H        0.6520     4.0430     2.0750 H     1 <1>   0.0800 
 29 H       -0.0710     3.2700    -1.5290 H     1 <1>   0.0800 
 30 H        1.4110     3.5590    -0.6930 H     1 <1>   0.0800 
 31 H        1.8640     2.0830     1.2270 H     1 <1>   0.0800 
 32 H        0.6130     0.9460     1.6050 H     1 <1>   0.0800 
 33 H       -1.3450     2.1740     2.5510 H     1 <1>   0.4000 
 34 H       -2.3240     4.3060     1.8310 H     1 <1>   0.0800 
 35 H       -1.1340     5.5000     2.2690 H     1 <1>   0.0800 
 36 H        0.4620     0.3390    -0.8560 H     1 <1>   0.1000 
 37 H       -1.6780     6.2070     0.1340 H     1 <1>   0.0800 
 38 H       -2.0330     4.5970    -0.4340 H     1 <1>   0.0800 
 39 H        0.9940     5.4210    -2.2260 H     1 <1>   0.0800 
 40 H       -0.7130     5.7510    -2.2620 H     1 <1>   0.0800 
 41 H        3.2050    -0.0570     0.4870 H     1 <1>   0.1000 
 42 H        2.4980    -1.0720    -0.8070 H     1 <1>   0.1000 
 43 H        2.3750     0.9660    -2.3350 H     1 <1>   0.1000 
 44 H        3.1080     1.9600    -1.0380 H     1 <1>   0.1000 
 45 H        0.5570     6.8050     0.4900 H     1 <1>   0.3700 
 46 H        2.7730     6.8660     1.7870 H     1 <1>   0.0800 
 47 H        1.4520     7.0570     2.9240 H     1 <1>   0.0800 
 48 H        3.0010     7.8010     3.2470 H     1 <1>   0.0800 
 49 H       -0.5250    10.0540    -1.2910 H     1 <1>   0.0800 
 50 H        0.8300    11.1070    -1.6010 H     1 <1>   0.0800 
 51 H       -0.4380    11.5900    -0.4900 H     1 <1>   0.0800 
 52 H        0.7590    12.7280     1.1510 H     1 <1>   0.0800 
 53 H        1.9050    12.4890     2.4410 H     1 <1>   0.0800 
 54 H        2.6220    12.6160    -0.5110 H     1 <1>   0.0800 
 55 H        3.7580    12.3590     0.8000 H     1 <1>   0.0800 
 56 H        2.9120    13.8820     0.6590 H     1 <1>   0.0800 
@<TRIPOS>BOND
  1   1   2  ar  
  2   2   3  ar  
  3   2   4  1   
  4   4   5  1   
  5   4   6  1   
  6   4   7  1   
  7   5   8  1   
  8   5   9  1   
  9   5  28  1   
 10   6  10  1   
 11   6  29  1   
 12   6  30  1   
 13   7  11  1   
 14   7  31  1   
 15   7  32  1   
 16   8  33  1   
 17   9  12  1   
 18   9  34  1   
 19   9  35  1   
 20  10  12  1   
 21  10  13  1   
 22  11  14  1   
 23  11  15  1   
 24  11  36  1   
 25  12  37  1   
 26  12  38  1   
 27  13  16  1   
 28  13  39  1   
 29  13  40  1   
 30  14  15  1   
 31  14  41  1   
 32  14  42  1   
 33  15  43  1   
 34  15  44  1   
 35  16  17  2   
 36  16  18  am  
 37  18  19  1   
 38  18  45  1   
 39  19  20  1   
 40  19  21  2   
 41  20  22  2   
 42  20  23  1   
 43  21  24  1   
 44  21  25  1   
 45  22  24  1   
 46  23  46  1   
 47  23  47  1   
 48  23  48  1   
 49  24  26  1   
 50  25  49  1   
 51  25  50  1   
 52  25  51  1   
 53  26  27  1   
 54  26  52  1   
 55  26  53  1   
 56  27  54  1   
 57  27  55  1   
 58  27  56  1   
@<TRIPOS>SUBSTRUCTURE
  1 ****  10 GROUP 4 **** **** 0

# MOE 2024.06 (io_trps.svl 2023.06)
