@<TRIPOS>MOLECULE
NONAME
51 54 1 0 0 
SMALL
USER_CHARGES


@<TRIPOS>ATOM
  1 O       -0.7760     0.6180    -1.6120 O.2   1 <1>  -0.5700 
  2 C       -1.7330     1.1250    -1.0460 C.2   1 <1>   0.5440 
  3 N       -2.9740     0.5330    -1.1880 N.am  1 <1>  -0.6600 
  4 C       -1.5380     2.3180    -0.2490 C.ar  1 <1>   0.0860 
  5 C       -3.2300    -0.5330    -2.1960 C.3   1 <1>   0.1400 
  6 C       -4.1030     0.7450    -0.2380 C.3   1 <1>   0.1400 
  7 C       -0.5430     2.3810     0.7440 C.ar  1 <1>   0.1000 
  8 C       -2.3320     3.4470    -0.4550 C.ar  1 <1>  -0.1500 
  9 C       -3.5110    -1.8550    -1.4790 C.3   1 <1>  -0.1600 
 10 C       -4.4070    -0.5650     0.4950 C.3   1 <1>  -0.1600 
 11 N        0.3050     1.3120     0.9820 N.pl3 1 <1>  -0.9000 
 12 C       -0.3910     3.5360     1.5040 C.ar  1 <1>  -0.1500 
 13 C       -2.1660     4.5850     0.3050 C.ar  1 <1>   0.0830 
 14 C       -4.6750    -1.7290    -0.4760 C.3   1 <1>   0.4240 
 15 C       -1.1950     4.6380     1.2920 C.ar  1 <1>  -0.1500 
 16 O       -2.9580     5.6480     0.0790 O.3   1 <1>  -0.5320 
 17 O       -5.8040    -1.2990    -1.2070 O.3   1 <1>  -0.5600 
 18 C       -4.9600    -3.0580     0.2830 C.ar  1 <1>  -0.1430 
 19 C       -6.5570    -2.2640    -1.8630 C.3   1 <1>   0.1200 
 20 C       -4.0170    -3.6490     1.1350 C.ar  1 <1>   0.0830 
 21 C       -6.1880    -3.7000     0.1210 C.ar  1 <1>  -0.1430 
 22 C       -7.2350    -3.1260    -0.8110 C.3   1 <1>  -0.0170 
 23 O       -2.8040    -3.0550     1.2850 O.3   1 <1>  -0.3620 
 24 C       -4.3200    -4.8310     1.8080 C.ar  1 <1>  -0.1500 
 25 C       -6.4800    -4.8730     0.7970 C.ar  1 <1>  -0.1500 
 26 C       -1.8170    -3.5310     2.1720 C.3   1 <1>   0.0400 
 27 C       -5.5480    -5.4390     1.6420 C.ar  1 <1>  -0.1500 
 28 H       -2.3840    -0.6480    -2.8520 H     1 <1>   0.0800 
 29 H       -4.0770    -0.2500    -2.7960 H     1 <1>   0.0800 
 30 H       -4.9700     1.0700    -0.7890 H     1 <1>   0.0800 
 31 H       -3.8640     1.5010     0.4870 H     1 <1>   0.0800 
 32 H       -3.0870     3.4300    -1.2210 H     1 <1>   0.1500 
 33 H       -2.6110    -2.1410    -0.9710 H     1 <1>   0.0800 
 34 H       -3.7210    -2.6260    -2.1950 H     1 <1>   0.0800 
 35 H       -5.2630    -0.4370     1.1310 H     1 <1>   0.0800 
 36 H       -3.5700    -0.7790     1.1280 H     1 <1>   0.0800 
 37 H        1.2570     1.5290     1.2840 H     1 <1>   0.4000 
 38 H        0.3080     0.6160     0.2160 H     1 <1>   0.4000 
 39 H        0.3650     3.5620     2.2670 H     1 <1>   0.1500 
 40 H       -1.0660     5.5220     1.8880 H     1 <1>   0.1500 
 41 H       -2.7460     6.4030     0.6560 H     1 <1>   0.4500 
 42 H       -5.9160    -2.8510    -2.4970 H     1 <1>   0.0800 
 43 H       -7.2890    -1.7580    -2.4680 H     1 <1>   0.0800 
 44 H       -7.7760    -3.9170    -1.2980 H     1 <1>   0.0800 
 45 H       -7.9340    -2.5300    -0.2520 H     1 <1>   0.0800 
 46 H       -3.6150    -5.2990     2.4660 H     1 <1>   0.1500 
 47 H       -7.4350    -5.3520     0.6680 H     1 <1>   0.1500 
 48 H       -0.9770    -2.8620     2.1230 H     1 <1>   0.0800 
 49 H       -1.5160    -4.5170     1.8630 H     1 <1>   0.0800 
 50 H       -2.2180    -3.5410     3.1690 H     1 <1>   0.0800 
 51 H       -5.7780    -6.3500     2.1660 H     1 <1>   0.1500 
@<TRIPOS>BOND
  1   1   2  2   
  2   2   3  am  
  3   2   4  1   
  4   3   5  1   
  5   3   6  1   
  6   4   7  ar  
  7   4   8  ar  
  8   5   9  1   
  9   5  28  1   
 10   5  29  1   
 11   6  10  1   
 12   6  30  1   
 13   6  31  1   
 14   7  11  1   
 15   7  12  ar  
 16   8  13  ar  
 17   8  32  1   
 18   9  14  1   
 19   9  33  1   
 20   9  34  1   
 21  10  14  1   
 22  10  35  1   
 23  10  36  1   
 24  11  37  1   
 25  11  38  1   
 26  12  15  ar  
 27  12  39  1   
 28  13  15  ar  
 29  13  16  1   
 30  14  17  1   
 31  14  18  1   
 32  15  40  1   
 33  16  41  1   
 34  17  19  1   
 35  18  20  ar  
 36  18  21  ar  
 37  19  22  1   
 38  19  42  1   
 39  19  43  1   
 40  20  23  1   
 41  20  24  ar  
 42  21  22  1   
 43  21  25  ar  
 44  22  44  1   
 45  22  45  1   
 46  23  26  1   
 47  24  27  ar  
 48  24  46  1   
 49  25  27  ar  
 50  25  47  1   
 51  26  48  1   
 52  26  49  1   
 53  26  50  1   
 54  27  51  1   
@<TRIPOS>SUBSTRUCTURE
  1 ****  10 GROUP 4 **** **** 0

# MOE 2024.06 (io_trps.svl 2023.06)
