@<TRIPOS>MOLECULE
NONAME
47 49 1 0 0 
SMALL
USER_CHARGES


@<TRIPOS>ATOM
  1 O        0.9780     0.3450    -0.3780 O.3   1 <1>  -0.6800 
  2 C        1.4670    -0.7620    -1.0330 C.3   1 <1>   0.2800 
  3 C        2.3370    -1.5280    -0.0180 C.3   1 <1>  -0.1600 
  4 C        2.3490    -0.2240    -2.1690 C.3   1 <1>  -0.1600 
  5 C        0.2790    -1.5930    -1.5640 C.3   1 <1>  -0.0160 
  6 C        3.7530    -0.9550     0.1510 C.3   1 <1>   0.2090 
  7 C        3.4290     0.7490    -1.6640 C.3   1 <1>   0.2090 
  8 C       -0.5070    -2.3450    -0.4920 C.ar  1 <1>  -0.1440 
  9 N        3.7880     0.4790    -0.2430 N.pl3 1 <1>  -0.8380 
 10 C       -1.3460    -1.6580     0.3720 C.ar  1 <1>  -0.1500 
 11 C       -0.3990    -3.7230    -0.3730 C.ar  1 <1>  -0.1500 
 12 C        4.7790     1.3120     0.2960 C.ar  1 <1>   0.4100 
 13 C       -2.0660    -2.3350     1.3410 C.ar  1 <1>  -0.1500 
 14 C       -1.1180    -4.4030     0.5950 C.ar  1 <1>  -0.1500 
 15 N        5.9420     0.7210     0.5180 N.ar  1 <1>  -0.6200 
 16 C        4.5470     2.7110     0.5580 C.ar  1 <1>   0.4100 
 17 C       -1.9520    -3.7090     1.4530 C.ar  1 <1>  -0.1500 
 18 C        6.8590     1.5560     0.9850 C.ar  1 <1>   0.1600 
 19 N        5.4910     3.5190     1.0170 N.ar  1 <1>  -0.6200 
 20 N        3.2910     3.3150     0.3640 N.pl3 1 <1>  -0.8380 
 21 C        6.6440     2.8990     1.2210 C.ar  1 <1>   0.1600 
 22 C        2.2100     2.8970     1.2940 C.3   1 <1>   0.1290 
 23 C        3.2340     4.7530    -0.0130 C.3   1 <1>   0.1290 
 24 H        1.7850     0.8220    -0.0660 H     1 <1>   0.4000 
 25 H        2.4410    -2.5490    -0.3370 H     1 <1>   0.0800 
 26 H        1.8390    -1.5530     0.9350 H     1 <1>   0.0800 
 27 H        1.7440     0.2690    -2.9080 H     1 <1>   0.0800 
 28 H        2.8330    -1.0500    -2.6570 H     1 <1>   0.0800 
 29 H        0.6580    -2.3090    -2.2700 H     1 <1>   0.0800 
 30 H       -0.3880    -0.9460    -2.1050 H     1 <1>   0.0800 
 31 H        4.4440    -1.4960    -0.4730 H     1 <1>   0.0800 
 32 H        4.0720    -1.0640     1.1740 H     1 <1>   0.0800 
 33 H        3.0520     1.7560    -1.7360 H     1 <1>   0.0800 
 34 H        4.3100     0.6810    -2.2800 H     1 <1>   0.0800 
 35 H       -1.4340    -0.5880     0.2910 H     1 <1>   0.1500 
 36 H        0.2440    -4.2760    -1.0340 H     1 <1>   0.1500 
 37 H       -2.7130    -1.7910     2.0060 H     1 <1>   0.1500 
 38 H       -1.0290    -5.4720     0.6800 H     1 <1>   0.1500 
 39 H       -2.5120    -4.2370     2.2060 H     1 <1>   0.1500 
 40 H        7.8310     1.1430     1.1870 H     1 <1>   0.1500 
 41 H        7.4530     3.4980     1.5980 H     1 <1>   0.1500 
 42 H        2.3990     1.9050     1.6690 H     1 <1>   0.0800 
 43 H        1.2660     2.8970     0.7790 H     1 <1>   0.0800 
 44 H        2.1610     3.5750     2.1280 H     1 <1>   0.0800 
 45 H        4.0170     4.9770    -0.7170 H     1 <1>   0.0800 
 46 H        3.3670     5.3670     0.8620 H     1 <1>   0.0800 
 47 H        2.2850     4.9760    -0.4670 H     1 <1>   0.0800 
@<TRIPOS>BOND
  1   1   2  1   
  2   1  24  1   
  3   2   3  1   
  4   2   4  1   
  5   2   5  1   
  6   3   6  1   
  7   3  25  1   
  8   3  26  1   
  9   4   7  1   
 10   4  27  1   
 11   4  28  1   
 12   5   8  1   
 13   5  29  1   
 14   5  30  1   
 15   6   9  1   
 16   6  31  1   
 17   6  32  1   
 18   7   9  1   
 19   7  33  1   
 20   7  34  1   
 21   8  10  ar  
 22   8  11  ar  
 23   9  12  1   
 24  10  13  ar  
 25  10  35  1   
 26  11  14  ar  
 27  11  36  1   
 28  12  15  ar  
 29  12  16  ar  
 30  13  17  ar  
 31  13  37  1   
 32  14  17  ar  
 33  14  38  1   
 34  15  18  ar  
 35  16  19  ar  
 36  16  20  1   
 37  17  39  1   
 38  18  21  ar  
 39  18  40  1   
 40  19  21  ar  
 41  20  22  1   
 42  20  23  1   
 43  21  41  1   
 44  22  42  1   
 45  22  43  1   
 46  22  44  1   
 47  23  45  1   
 48  23  46  1   
 49  23  47  1   
@<TRIPOS>SUBSTRUCTURE
  1 ****   1 GROUP 4 **** **** 0

# MOE 2024.06 (io_trps.svl 2023.06)
