@<TRIPOS>MOLECULE
NONAME
55 57 1 0 0 
SMALL
USER_CHARGES


@<TRIPOS>ATOM
  1 O        1.0670    -0.3490    -2.2000 O.2   1 <1>  -0.5700 
  2 C        2.1710    -0.8480    -2.1310 C.2   1 <1>   0.7150 
  3 N        3.0990    -0.4100    -3.0100 N.am  1 <1>  -0.8000 
  4 C        2.4780    -1.8640    -1.1510 C.2   1 <1>   0.0550 
  5 O        3.6610    -2.4640    -1.1160 O.3   1 <1>  -0.2800 
  6 C        1.7160    -2.3790    -0.1510 C.2   1 <1>  -0.1500 
  7 C        3.6910    -3.3460    -0.1370 C.2   1 <1>  -0.0400 
  8 C        2.4950    -3.3350     0.5080 C.2   1 <1>  -0.1810 
  9 C        5.0070    -4.1250     0.0500 C.3   1 <1>   0.1800 
 10 C        2.0010    -4.1130     1.7080 C.3   1 <1>   0.5240 
 11 C        6.0350    -3.1970     0.7100 C.3   1 <1>  -0.2400 
 12 C        5.5480    -4.5660    -1.3190 C.3   1 <1>  -0.2400 
 13 C        4.8430    -5.3800     0.9210 C.3   1 <1>  -0.2400 
 14 N        1.2220    -5.2720     1.2250 N.4   1 <1>  -0.9590 
 15 C       -0.1240    -4.9640     0.6610 C.3   1 <1>   0.3430 
 16 C        1.0610    -6.3990     2.1670 C.3   1 <1>   0.3430 
 17 C       -0.9660    -6.2310     0.8660 C.3   1 <1>   0.2000 
 18 C       -0.0590    -7.2500     1.5680 C.3   1 <1>  -0.0800 
 19 O       -2.0440    -5.9420     1.6950 O.3   1 <1>  -0.6800 
 20 C        0.4690    -8.3460     0.6120 C.3   1 <1>   0.0210 
 21 C        1.5460    -7.9250    -0.3810 C.2   1 <1>   0.1080 
 22 N        1.4980    -6.8510    -1.1110 N.2   1 <1>  -0.7070 
 23 C        2.6930    -8.6700    -0.6310 C.2   1 <1>  -0.1500 
 24 N        2.6050    -6.9080    -1.8850 N.pl3 1 <1>   0.3000 
 25 C        3.3510    -7.9930    -1.5950 C.2   1 <1>  -0.3320 
 26 C        4.6590    -8.3420    -2.2820 C.3   1 <1>  -0.0600 
 27 H        2.8620     0.3300    -3.6690 H     1 <1>   0.3700 
 28 H        4.0610    -0.7460    -2.9900 H     1 <1>   0.3700 
 29 H        0.7070    -2.0850     0.0830 H     1 <1>   0.1500 
 30 H        1.3910    -3.4820     2.3320 H     1 <1>   0.0800 
 31 H        2.8400    -4.4490     2.2900 H     1 <1>   0.0800 
 32 H        6.9760    -3.7020     0.8420 H     1 <1>   0.0800 
 33 H        5.6830    -2.8680     1.6710 H     1 <1>   0.0800 
 34 H        6.1990    -2.3280     0.0980 H     1 <1>   0.0800 
 35 H        6.4520    -5.1390    -1.2080 H     1 <1>   0.0800 
 36 H        5.7730    -3.7110    -1.9310 H     1 <1>   0.0800 
 37 H        4.8210    -5.1630    -1.8330 H     1 <1>   0.0800 
 38 H        5.7510    -5.9560     0.9130 H     1 <1>   0.0800 
 39 H        4.0530    -6.0020     0.5430 H     1 <1>   0.0800 
 40 H        4.6450    -5.1180     1.9420 H     1 <1>   0.0800 
 41 H        1.7250    -5.6680     0.4010 H     1 <1>   0.4500 
 42 H       -0.5810    -4.1330     1.1710 H     1 <1>   0.0800 
 43 H       -0.0360    -4.7410    -0.3900 H     1 <1>   0.0800 
 44 H        1.9750    -6.9630     2.2690 H     1 <1>   0.0800 
 45 H        0.7560    -6.0280     3.1320 H     1 <1>   0.0800 
 46 H       -1.3590    -6.5930    -0.0700 H     1 <1>   0.0800 
 47 H       -0.5970    -7.7520     2.3540 H     1 <1>   0.0800 
 48 H       -1.7810    -5.7340     2.6120 H     1 <1>   0.4000 
 49 H       -0.3550    -8.7600     0.0570 H     1 <1>   0.0800 
 50 H        0.8690    -9.1490     1.2070 H     1 <1>   0.0800 
 51 H        2.9720    -9.5970    -0.1590 H     1 <1>   0.1500 
 52 H        2.8190    -6.2070    -2.6080 H     1 <1>   0.2700 
 53 H        5.0330    -9.2800    -1.9120 H     1 <1>   0.0800 
 54 H        5.3990    -7.5840    -2.0960 H     1 <1>   0.0800 
 55 H        4.5100    -8.4320    -3.3440 H     1 <1>   0.0800 
@<TRIPOS>BOND
  1   1   2  2   
  2   2   3  am  
  3   2   4  1   
  4   3  27  1   
  5   3  28  1   
  6   4   5  1   
  7   4   6  2   
  8   5   7  1   
  9   6   8  1   
 10   6  29  1   
 11   7   8  2   
 12   7   9  1   
 13   8  10  1   
 14   9  11  1   
 15   9  12  1   
 16   9  13  1   
 17  10  14  1   
 18  10  30  1   
 19  10  31  1   
 20  11  32  1   
 21  11  33  1   
 22  11  34  1   
 23  12  35  1   
 24  12  36  1   
 25  12  37  1   
 26  13  38  1   
 27  13  39  1   
 28  13  40  1   
 29  14  15  1   
 30  14  16  1   
 31  14  41  1   
 32  15  17  1   
 33  15  42  1   
 34  15  43  1   
 35  16  18  1   
 36  16  44  1   
 37  16  45  1   
 38  17  18  1   
 39  17  19  1   
 40  17  46  1   
 41  18  20  1   
 42  18  47  1   
 43  19  48  1   
 44  20  21  1   
 45  20  49  1   
 46  20  50  1   
 47  21  22  2   
 48  21  23  1   
 49  22  24  1   
 50  23  25  2   
 51  23  51  1   
 52  24  25  1   
 53  24  52  1   
 54  25  26  1   
 55  26  53  1   
 56  26  54  1   
 57  26  55  1   
@<TRIPOS>SUBSTRUCTURE
  1 ****   8 GROUP 4 **** **** 0

# MOE 2024.06 (io_trps.svl 2023.06)
