@<TRIPOS>MOLECULE
NONAME
55 58 1 0 0 
SMALL
USER_CHARGES


@<TRIPOS>ATOM
  1 O        0.3390    -2.0190    -1.6840 O.3   1 <1>  -0.5600 
  2 C        0.9300    -2.3620    -0.4680 C.3   1 <1>   0.2000 
  3 C        0.5010    -0.6860    -2.0610 C.3   1 <1>   0.1200 
  4 C        2.4510    -2.1810    -0.5800 C.3   1 <1>  -0.1600 
  5 C        0.5500    -3.8090    -0.1480 C.3   1 <1>  -0.1600 
  6 C        1.9910    -0.3900    -2.2690 C.3   1 <1>  -0.1600 
  7 C        2.8010    -0.7540    -1.0200 C.3   1 <1>  -0.1600 
  8 C       -0.9650    -3.9840    -0.0720 C.3   1 <1>   0.2090 
  9 N       -1.2690    -5.3860     0.3290 N.pl3 1 <1>  -0.8220 
 10 C       -2.2190    -5.5420     1.3440 C.2   1 <1>   0.2710 
 11 C       -1.4680    -6.2860    -0.8410 C.3   1 <1>   0.1290 
 12 N       -3.3290    -4.8980     1.4380 N.2   1 <1>  -0.3380 
 13 N       -2.1190    -6.3830     2.3680 N.pl3 1 <1>   0.3140 
 14 N       -3.9190    -5.3530     2.5430 N.2   1 <1>   0.0000 
 15 N       -3.2010    -6.2450     3.1190 N.2   1 <1>  -0.4180 
 16 C       -0.9920    -7.2680     2.6990 C.3   1 <1>   0.2390 
 17 C       -1.0140    -8.5330     1.8500 C.ar  1 <1>  -0.1440 
 18 C        0.0290    -8.8140     0.9810 C.ar  1 <1>  -0.1500 
 19 C       -2.0810    -9.4150     1.9300 C.ar  1 <1>  -0.1500 
 20 C        0.0010    -9.9570     0.2040 C.ar  1 <1>  -0.1500 
 21 C       -2.1030   -10.5570     1.1510 C.ar  1 <1>  -0.1500 
 22 C       -1.0640   -10.8490     0.2730 C.ar  1 <1>   0.0000 
 23 C       -1.0920   -12.0410    -0.5430 C.ar  1 <1>   0.0000 
 24 C       -0.0740   -12.9870    -0.4670 C.ar  1 <1>  -0.1500 
 25 C       -2.1390   -12.2780    -1.4300 C.ar  1 <1>  -0.1500 
 26 C       -0.0980   -14.1280    -1.2480 C.ar  1 <1>  -0.1500 
 27 C       -2.1690   -13.4170    -2.2140 C.ar  1 <1>  -0.1500 
 28 C       -1.1460   -14.3450    -2.1240 C.ar  1 <1>  -0.1500 
 29 H        0.5330    -1.7080     0.2920 H     1 <1>   0.0800 
 30 H        0.0810    -0.0570    -1.2950 H     1 <1>   0.0800 
 31 H       -0.0440    -0.5350    -2.9770 H     1 <1>   0.0800 
 32 H        2.8370    -2.8840    -1.2970 H     1 <1>   0.0800 
 33 H        2.9120    -2.3900     0.3690 H     1 <1>   0.0800 
 34 H        0.9790    -4.0800     0.7990 H     1 <1>   0.0800 
 35 H        0.9520    -4.4560    -0.9060 H     1 <1>   0.0800 
 36 H        2.1230     0.6520    -2.5010 H     1 <1>   0.0800 
 37 H        2.3410    -0.9620    -3.1110 H     1 <1>   0.0800 
 38 H        3.8550    -0.6760    -1.2240 H     1 <1>   0.0800 
 39 H        2.5600    -0.0670    -0.2270 H     1 <1>   0.0800 
 40 H       -1.4180    -3.7590    -1.0230 H     1 <1>   0.0800 
 41 H       -1.3670    -3.2980     0.6550 H     1 <1>   0.0800 
 42 H       -0.5360    -6.4240    -1.3610 H     1 <1>   0.0800 
 43 H       -2.1910    -5.8610    -1.5160 H     1 <1>   0.0800 
 44 H       -1.8300    -7.2470    -0.5180 H     1 <1>   0.0800 
 45 H       -1.0540    -7.5280     3.7400 H     1 <1>   0.0800 
 46 H       -0.0800    -6.7230     2.5360 H     1 <1>   0.0800 
 47 H        0.8650    -8.1410     0.8980 H     1 <1>   0.1500 
 48 H       -2.9040    -9.2140     2.5970 H     1 <1>   0.1500 
 49 H        0.8120   -10.1640    -0.4720 H     1 <1>   0.1500 
 50 H       -2.9340   -11.2350     1.2230 H     1 <1>   0.1500 
 51 H        0.7410   -12.8260     0.2160 H     1 <1>   0.1500 
 52 H       -2.9350   -11.5580    -1.5060 H     1 <1>   0.1500 
 53 H        0.6990   -14.8490    -1.1740 H     1 <1>   0.1500 
 54 H       -2.9860   -13.5830    -2.8940 H     1 <1>   0.1500 
 55 H       -1.1670   -15.2330    -2.7320 H     1 <1>   0.1500 
@<TRIPOS>BOND
  1   1   2  1   
  2   1   3  1   
  3   2   4  1   
  4   2   5  1   
  5   2  29  1   
  6   3   6  1   
  7   3  30  1   
  8   3  31  1   
  9   4   7  1   
 10   4  32  1   
 11   4  33  1   
 12   5   8  1   
 13   5  34  1   
 14   5  35  1   
 15   6   7  1   
 16   6  36  1   
 17   6  37  1   
 18   7  38  1   
 19   7  39  1   
 20   8   9  1   
 21   8  40  1   
 22   8  41  1   
 23   9  10  1   
 24   9  11  1   
 25  10  12  2   
 26  10  13  1   
 27  11  42  1   
 28  11  43  1   
 29  11  44  1   
 30  12  14  1   
 31  13  15  1   
 32  13  16  1   
 33  14  15  2   
 34  16  17  1   
 35  16  45  1   
 36  16  46  1   
 37  17  18  ar  
 38  17  19  ar  
 39  18  20  ar  
 40  18  47  1   
 41  19  21  ar  
 42  19  48  1   
 43  20  22  ar  
 44  20  49  1   
 45  21  22  ar  
 46  21  50  1   
 47  22  23  1   
 48  23  24  ar  
 49  23  25  ar  
 50  24  26  ar  
 51  24  51  1   
 52  25  27  ar  
 53  25  52  1   
 54  26  28  ar  
 55  26  53  1   
 56  27  28  ar  
 57  27  54  1   
 58  28  55  1   
@<TRIPOS>SUBSTRUCTURE
  1 ****  11 GROUP 4 **** **** 0

# MOE 2024.06 (io_trps.svl 2023.06)
