@<TRIPOS>MOLECULE
NONAME
44 46 1 0 0 
SMALL
USER_CHARGES


@<TRIPOS>ATOM
  1 CL      -0.5910     2.4080    -2.7210 Cl    1 <1>  -0.1770 
  2 C       -1.6480     2.2190    -1.3380 C.ar  1 <1>   0.1770 
  3 C       -1.2350     2.5270    -0.0430 C.ar  1 <1>  -0.1440 
  4 C       -2.9210     1.7430    -1.5950 C.ar  1 <1>  -0.1500 
  5 C       -2.1460     2.3410     0.9900 C.ar  1 <1>  -0.1500 
  6 C        0.1570     3.0520     0.3040 C.3   1 <1>   0.4330 
  7 C       -3.8130     1.5640    -0.5530 C.ar  1 <1>  -0.1500 
  8 C       -3.4220     1.8640     0.7390 C.ar  1 <1>  -0.1500 
  9 N        0.4730     4.2380    -0.4990 N.pl3 1 <1>  -0.8690 
 10 C        1.2410     1.9970     0.1020 C.3   1 <1>  -0.2400 
 11 C        1.4220     5.1350    -0.1340 C.ar  1 <1>   0.4100 
 12 N        2.3320     5.3680    -1.0650 N.ar  1 <1>  -0.6200 
 13 C        1.4280     5.7540     1.1130 C.ar  1 <1>  -0.1500 
 14 C        3.2790     6.2300    -0.7410 C.ar  1 <1>   0.1600 
 15 C        2.4180     6.6530     1.4270 C.ar  1 <1>  -0.1500 
 16 C        3.3860     6.9210     0.4650 C.ar  1 <1>   0.0860 
 17 C        4.4560     7.8610     0.6990 C.2   1 <1>   0.5440 
 18 O        5.0480     7.8340     1.7620 O.2   1 <1>  -0.5700 
 19 N        4.8260     8.7990    -0.2440 N.am  1 <1>  -0.6600 
 20 C        3.9010     9.3440    -1.2860 C.3   1 <1>   0.1400 
 21 C        6.0960     9.5800    -0.1250 C.3   1 <1>   0.1400 
 22 C        3.7420    10.8670    -1.1300 C.3   1 <1>   0.1200 
 23 C        5.7990    11.0840    -0.0250 C.3   1 <1>   0.1200 
 24 O        4.9910    11.4970    -1.0920 O.3   1 <1>  -0.5600 
 25 H       -3.2080     1.5160    -2.6060 H     1 <1>   0.1500 
 26 H       -1.8710     2.5680     2.0060 H     1 <1>   0.1500 
 27 H        0.1640     3.3340     1.3430 H     1 <1>   0.0800 
 28 H       -4.8050     1.1940    -0.7470 H     1 <1>   0.1500 
 29 H       -4.1140     1.7270     1.5530 H     1 <1>   0.1500 
 30 H        0.5430     3.9960    -1.4910 H     1 <1>   0.4000 
 31 H        1.3210     1.7140    -0.9300 H     1 <1>   0.0800 
 32 H        1.0050     1.1220     0.6790 H     1 <1>   0.0800 
 33 H        2.1890     2.3790     0.4330 H     1 <1>   0.0800 
 34 H        0.6490     5.5280     1.8160 H     1 <1>   0.1500 
 35 H        4.0360     6.4110    -1.4850 H     1 <1>   0.1500 
 36 H        2.4570     7.1460     2.3830 H     1 <1>   0.1500 
 37 H        2.9300     8.8880    -1.2130 H     1 <1>   0.0800 
 38 H        4.3000     9.1290    -2.2620 H     1 <1>   0.0800 
 39 H        6.7040     9.3980    -0.9930 H     1 <1>   0.0800 
 40 H        6.6580     9.2700     0.7390 H     1 <1>   0.0800 
 41 H        3.2120    11.1010    -0.2230 H     1 <1>   0.0800 
 42 H        3.1960    11.2710    -1.9640 H     1 <1>   0.0800 
 43 H        6.7140    11.6470    -0.0680 H     1 <1>   0.0800 
 44 H        5.2970    11.3080     0.9000 H     1 <1>   0.0800 
@<TRIPOS>BOND
  1   1   2  1   
  2   2   3  ar  
  3   2   4  ar  
  4   3   5  ar  
  5   3   6  1   
  6   4   7  ar  
  7   4  25  1   
  8   5   8  ar  
  9   5  26  1   
 10   6   9  1   
 11   6  10  1   
 12   6  27  1   
 13   7   8  ar  
 14   7  28  1   
 15   8  29  1   
 16   9  11  1   
 17   9  30  1   
 18  10  31  1   
 19  10  32  1   
 20  10  33  1   
 21  11  12  ar  
 22  11  13  ar  
 23  12  14  ar  
 24  13  15  ar  
 25  13  34  1   
 26  14  16  ar  
 27  14  35  1   
 28  15  16  ar  
 29  15  36  1   
 30  16  17  1   
 31  17  18  2   
 32  17  19  am  
 33  19  20  1   
 34  19  21  1   
 35  20  22  1   
 36  20  37  1   
 37  20  38  1   
 38  21  23  1   
 39  21  39  1   
 40  21  40  1   
 41  22  24  1   
 42  22  41  1   
 43  22  42  1   
 44  23  24  1   
 45  23  43  1   
 46  23  44  1   
@<TRIPOS>SUBSTRUCTURE
  1 ****  11 GROUP 4 **** **** 0

# MOE 2024.06 (io_trps.svl 2023.06)
