@<TRIPOS>MOLECULE
NONAME
51 54 1 0 0 
SMALL
USER_CHARGES


@<TRIPOS>ATOM
  1 O       -0.7710    -0.0340    -2.0310 O.2   1 <1>  -0.5700 
  2 C       -1.5520     0.5800    -1.3450 C.2   1 <1>   0.5690 
  3 N       -2.6820    -0.0170    -0.8550 N.am  1 <1>  -0.6600 
  4 C       -1.2360     2.0390    -1.0540 C.3   1 <1>  -0.0990 
  5 C       -3.7710     0.6170    -0.0720 C.3   1 <1>   0.1400 
  6 C       -2.9660    -1.4530    -1.0820 C.3   1 <1>   0.1400 
  7 C       -0.1400     2.1930     0.0140 C.3   1 <1>  -0.0800 
  8 C       -4.8290    -0.4750     0.0950 C.3   1 <1>   0.2000 
  9 C       -4.0950    -1.7990    -0.1120 C.3   1 <1>  -0.0800 
 10 C       -0.5390     1.6930     1.4000 C.3   1 <1>  -0.1600 
 11 C        0.2580     3.6470     0.2630 C.3   1 <1>  -0.1600 
 12 O       -5.3980    -0.4430     1.3580 O.3   1 <1>  -0.6800 
 13 C       -5.0160    -2.9210    -0.6180 C.3   1 <1>  -0.0170 
 14 C        0.4620     2.3560     2.3430 C.3   1 <1>  -0.1600 
 15 C        0.8850     3.6620     1.6600 C.3   1 <1>  -0.1600 
 16 C       -4.2530    -4.2320    -0.7690 C.ar  1 <1>  -0.1440 
 17 C       -3.9370    -5.0550     0.3390 C.ar  1 <1>   0.0000 
 18 C       -3.8410    -4.6480    -2.0010 C.ar  1 <1>  -0.1500 
 19 C       -3.2040    -6.2410     0.0880 C.ar  1 <1>   0.3100 
 20 C       -4.3040    -4.7740     1.6750 C.ar  1 <1>  -0.1500 
 21 C       -3.1260    -5.8440    -2.1400 C.ar  1 <1>   0.1600 
 22 N       -2.8090    -6.6210    -1.1530 N.ar  1 <1>  -0.6200 
 23 C       -2.8660    -7.0720     1.1680 C.ar  1 <1>  -0.1500 
 24 C       -3.9600    -5.6070     2.7060 C.ar  1 <1>  -0.1500 
 25 C       -3.2300    -6.7700     2.4520 C.ar  1 <1>  -0.1500 
 26 H       -0.8880     2.4820    -1.9700 H     1 <1>   0.0800 
 27 H       -2.1180     2.5720    -0.7590 H     1 <1>   0.0800 
 28 H       -3.3900     0.9280     0.8840 H     1 <1>   0.0800 
 29 H       -4.1790     1.4570    -0.6060 H     1 <1>   0.0800 
 30 H       -3.2760    -1.5860    -2.1040 H     1 <1>   0.0800 
 31 H       -2.0890    -2.0520    -0.8970 H     1 <1>   0.0800 
 32 H        0.7370     1.6510    -0.3040 H     1 <1>   0.0800 
 33 H       -5.6100    -0.3400    -0.6340 H     1 <1>   0.0800 
 34 H       -3.6310    -2.0960     0.8120 H     1 <1>   0.0800 
 35 H       -1.5280     2.0390     1.6430 H     1 <1>   0.0800 
 36 H       -0.5070     0.6190     1.4670 H     1 <1>   0.0800 
 37 H        0.9420     4.0050    -0.4870 H     1 <1>   0.0800 
 38 H       -0.6190     4.2710     0.2650 H     1 <1>   0.0800 
 39 H       -4.7160    -0.5870     2.0420 H     1 <1>   0.4000 
 40 H       -5.4350    -2.6360    -1.5680 H     1 <1>   0.0800 
 41 H       -5.8430    -3.0540     0.0570 H     1 <1>   0.0800 
 42 H        0.0300     2.5340     3.3130 H     1 <1>   0.0800 
 43 H        1.3220     1.7190     2.4570 H     1 <1>   0.0800 
 44 H        1.9590     3.7010     1.5860 H     1 <1>   0.0800 
 45 H        0.5440     4.5180     2.2160 H     1 <1>   0.0800 
 46 H       -4.0470    -4.0780    -2.8890 H     1 <1>   0.1500 
 47 H       -4.8690    -3.8880     1.8940 H     1 <1>   0.1500 
 48 H       -2.8190    -6.1340    -3.1300 H     1 <1>   0.1500 
 49 H       -2.3060    -7.9620     0.9480 H     1 <1>   0.1500 
 50 H       -4.2450    -5.3800     3.7190 H     1 <1>   0.1500 
 51 H       -2.9640    -7.4170     3.2700 H     1 <1>   0.1500 
@<TRIPOS>BOND
  1   1   2  2   
  2   2   3  am  
  3   2   4  1   
  4   3   5  1   
  5   3   6  1   
  6   4   7  1   
  7   4  26  1   
  8   4  27  1   
  9   5   8  1   
 10   5  28  1   
 11   5  29  1   
 12   6   9  1   
 13   6  30  1   
 14   6  31  1   
 15   7  10  1   
 16   7  11  1   
 17   7  32  1   
 18   8   9  1   
 19   8  12  1   
 20   8  33  1   
 21   9  13  1   
 22   9  34  1   
 23  10  14  1   
 24  10  35  1   
 25  10  36  1   
 26  11  15  1   
 27  11  37  1   
 28  11  38  1   
 29  12  39  1   
 30  13  16  1   
 31  13  40  1   
 32  13  41  1   
 33  14  15  1   
 34  14  42  1   
 35  14  43  1   
 36  15  44  1   
 37  15  45  1   
 38  16  17  ar  
 39  16  18  ar  
 40  17  19  ar  
 41  17  20  ar  
 42  18  21  ar  
 43  18  46  1   
 44  19  22  ar  
 45  19  23  ar  
 46  20  24  ar  
 47  20  47  1   
 48  21  22  ar  
 49  21  48  1   
 50  23  25  ar  
 51  23  49  1   
 52  24  25  ar  
 53  24  50  1   
 54  25  51  1   
@<TRIPOS>SUBSTRUCTURE
  1 ****   6 GROUP 4 **** **** 0

# MOE 2024.06 (io_trps.svl 2023.06)
