@<TRIPOS>MOLECULE
NONAME
45 47 1 0 0 
SMALL
USER_CHARGES


@<TRIPOS>ATOM
  1 S       -0.8060     0.7070     1.6980 S.o2  1 <1>   1.4470 
  2 O       -1.2970     1.9860     2.1640 O.2   1 <1>  -0.6500 
  3 O       -0.6410    -0.3490     2.6710 O.2   1 <1>  -0.6500 
  4 N       -1.9020     0.1900     0.5110 N.am  1 <1>  -0.8490 
  5 C        0.7460     0.9800     0.8000 C.ar  1 <1>  -0.0090 
  6 C       -1.4840    -0.8520    -0.4530 C.3   1 <1>   0.1960 
  7 C       -3.2970     0.0790     0.9640 C.3   1 <1>   0.1960 
  8 C        0.8600     1.9970    -0.1290 C.ar  1 <1>  -0.1500 
  9 C        1.8580     0.1460     1.0210 C.ar  1 <1>  -0.1500 
 10 C       -1.6700    -2.3280     0.0070 C.3   1 <1>  -0.1060 
 11 C       -3.8550    -1.3490     0.8780 C.3   1 <1>  -0.1600 
 12 C        2.0510     2.1860    -0.8230 C.ar  1 <1>   0.2270 
 13 C        3.0430     0.3150     0.3410 C.ar  1 <1>  -0.1500 
 14 C       -2.1170    -3.1000    -1.2540 C.2   1 <1>   0.9060 
 15 C       -2.7400    -2.3550     1.1370 C.3   1 <1>   0.2000 
 16 C       -0.3620    -2.9600     0.5770 C.3   1 <1>  -0.1600 
 17 N        2.3670     3.1170    -1.7650 N.2   1 <1>  -0.5650 
 18 C        3.1270     1.3520    -0.5880 C.ar  1 <1>  -0.1520 
 19 O       -2.9400    -4.0240    -1.1730 O.co2 1 <1>  -0.9000 
 20 O       -1.6450    -2.7800    -2.3530 O.co2 1 <1>  -0.9000 
 21 O       -3.3030    -3.6040     1.2940 O.3   1 <1>  -0.6800 
 22 C        0.8280    -3.0600    -0.3960 C.3   1 <1>  -0.1600 
 23 C        3.5850     2.8470    -2.0820 C.2   1 <1>   0.0360 
 24 N        4.1110     1.7920    -1.4110 N.pl3 1 <1>   0.0330 
 25 C        2.0440    -3.6880     0.2920 C.3   1 <1>  -0.2400 
 26 H       -2.1000    -0.6930    -1.3230 H     1 <1>   0.0800 
 27 H       -0.4800    -0.6790    -0.7890 H     1 <1>   0.0800 
 28 H       -3.3700     0.4160     1.9850 H     1 <1>   0.0800 
 29 H       -3.9100     0.7330     0.3670 H     1 <1>   0.0800 
 30 H        0.0360     2.6570    -0.3350 H     1 <1>   0.1500 
 31 H        1.7670    -0.6490     1.7430 H     1 <1>   0.1500 
 32 H       -4.2740    -1.5160    -0.0980 H     1 <1>   0.0800 
 33 H       -4.6350    -1.4660     1.6070 H     1 <1>   0.0800 
 34 H        3.8840    -0.3330     0.5160 H     1 <1>   0.1500 
 35 H       -2.2840    -2.1150     2.0810 H     1 <1>   0.0800 
 36 H       -0.0500    -2.4190     1.4490 H     1 <1>   0.0800 
 37 H       -0.6010    -3.9590     0.9030 H     1 <1>   0.0800 
 38 H       -3.3350    -4.0030     0.3660 H     1 <1>   0.4000 
 39 H        0.5550    -3.6710    -1.2410 H     1 <1>   0.0800 
 40 H        1.1030    -2.0920    -0.7700 H     1 <1>   0.0800 
 41 H        4.1560     3.3950    -2.8120 H     1 <1>   0.1500 
 42 H        5.0540     1.4060    -1.5020 H     1 <1>   0.2700 
 43 H        1.8040    -4.6790     0.6360 H     1 <1>   0.0800 
 44 H        2.3510    -3.0930     1.1330 H     1 <1>   0.0800 
 45 H        2.8620    -3.7560    -0.4030 H     1 <1>   0.0800 
@<TRIPOS>BOND
  1   1   2  2   
  2   1   3  2   
  3   1   4  am  
  4   1   5  1   
  5   4   6  1   
  6   4   7  1   
  7   5   8  ar  
  8   5   9  ar  
  9   6  10  1   
 10   6  26  1   
 11   6  27  1   
 12   7  11  1   
 13   7  28  1   
 14   7  29  1   
 15   8  12  ar  
 16   8  30  1   
 17   9  13  ar  
 18   9  31  1   
 19  10  14  1   
 20  10  15  1   
 21  10  16  1   
 22  11  15  1   
 23  11  32  1   
 24  11  33  1   
 25  12  17  1   
 26  12  18  ar  
 27  13  18  ar  
 28  13  34  1   
 29  14  19  ar  
 30  14  20  ar  
 31  15  21  1   
 32  15  35  1   
 33  16  22  1   
 34  16  36  1   
 35  16  37  1   
 36  17  23  2   
 37  18  24  1   
 38  21  38  1   
 39  22  25  1   
 40  22  39  1   
 41  22  40  1   
 42  23  24  1   
 43  23  41  1   
 44  24  42  1   
 45  25  43  1   
 46  25  44  1   
 47  25  45  1   
@<TRIPOS>SUBSTRUCTURE
  1 ****   6 GROUP 4 **** **** 0

# MOE 2024.06 (io_trps.svl 2023.06)
