@<TRIPOS>MOLECULE
NONAME
29 29 1 0 0 
SMALL
USER_CHARGES


@<TRIPOS>ATOM
  1 O       -0.9820     0.4020     1.1470 O.3   1 <1>  -0.6800 
  2 C       -1.8260     1.1950     0.4350 C.3   1 <1>   0.4800 
  3 O       -2.3160     0.3240    -0.4850 O.3   1 <1>  -0.6800 
  4 C       -1.0640     2.3580    -0.2360 C.3   1 <1>  -0.0800 
  5 C       -0.3270     3.2140     0.8240 C.3   1 <1>  -0.1600 
  6 C       -1.9850     3.2230    -1.1360 C.3   1 <1>  -0.1600 
  7 C       -0.0520     4.6360     0.3160 C.3   1 <1>  -0.1600 
  8 C       -2.5060     4.4670    -0.4010 C.3   1 <1>  -0.1600 
  9 C       -1.3600     5.4160     0.0310 C.3   1 <1>   0.0000 
 10 C       -1.0900     6.4460    -1.0770 C.3   1 <1>  -0.2400 
 11 C       -1.7990     6.1780     1.2910 C.3   1 <1>  -0.2400 
 12 H       -1.5080    -0.3530     1.4670 H     1 <1>   0.4000 
 13 H       -2.6260     1.5420     1.0690 H     1 <1>   0.0800 
 14 H       -1.5530    -0.0060    -0.9910 H     1 <1>   0.4000 
 15 H       -0.3170     1.9210    -0.8760 H     1 <1>   0.0800 
 16 H        0.6000     2.7340     1.0860 H     1 <1>   0.0800 
 17 H       -0.9190     3.2780     1.7210 H     1 <1>   0.0800 
 18 H       -2.8160     2.6460    -1.5020 H     1 <1>   0.0800 
 19 H       -1.4260     3.5460    -1.9980 H     1 <1>   0.0800 
 20 H        0.5300     4.5540    -0.5860 H     1 <1>   0.0800 
 21 H        0.5520     5.1690     1.0310 H     1 <1>   0.0800 
 22 H       -3.0500     4.1310     0.4650 H     1 <1>   0.0800 
 23 H       -3.2080     4.9910    -1.0260 H     1 <1>   0.0800 
 24 H       -0.8190     5.9540    -1.9950 H     1 <1>   0.0800 
 25 H       -0.2850     7.1010    -0.7940 H     1 <1>   0.0800 
 26 H       -1.9640     7.0440    -1.2620 H     1 <1>   0.0800 
 27 H       -1.9590     5.4980     2.1100 H     1 <1>   0.0800 
 28 H       -2.7150     6.7110     1.1090 H     1 <1>   0.0800 
 29 H       -1.0470     6.8890     1.5860 H     1 <1>   0.0800 
@<TRIPOS>BOND
  1   1   2  1   
  2   1  12  1   
  3   2   3  1   
  4   2   4  1   
  5   2  13  1   
  6   3  14  1   
  7   4   5  1   
  8   4   6  1   
  9   4  15  1   
 10   5   7  1   
 11   5  16  1   
 12   5  17  1   
 13   6   8  1   
 14   6  18  1   
 15   6  19  1   
 16   7   9  1   
 17   7  20  1   
 18   7  21  1   
 19   8   9  1   
 20   8  22  1   
 21   8  23  1   
 22   9  10  1   
 23   9  11  1   
 24  10  24  1   
 25  10  25  1   
 26  10  26  1   
 27  11  27  1   
 28  11  28  1   
 29  11  29  1   
@<TRIPOS>SUBSTRUCTURE
  1 ****   4 GROUP 4 **** **** 0

# MOE 2024.06 (io_trps.svl 2023.06)
