@<TRIPOS>MOLECULE
NONAME
35 36 1 0 0 
SMALL
USER_CHARGES


@<TRIPOS>ATOM
  1 CL       0.3910     0.4390     0.8830 Cl    1 <1>  -0.1770 
  2 C        1.4240    -0.8480     0.2780 C.ar  1 <1>   0.1770 
  3 C        1.0110    -2.1790     0.1810 C.ar  1 <1>   0.4100 
  4 C        2.7030    -0.5370    -0.0960 C.ar  1 <1>   0.1600 
  5 N        1.8660    -3.0960    -0.2430 N.ar  1 <1>  -0.6200 
  6 N       -0.2600    -2.6390     0.5040 N.pl3 1 <1>  -0.8380 
  7 N        3.5510    -1.4500    -0.5350 N.ar  1 <1>  -0.6200 
  8 C        3.0730    -2.6820    -0.5780 C.ar  1 <1>   0.4770 
  9 C       -0.4190    -3.9380     1.2360 C.3   1 <1>   0.2090 
 10 C       -1.4840    -1.8970     0.0910 C.3   1 <1>   0.2090 
 11 C        4.0240    -3.7480    -1.0660 C.3   1 <1>  -0.0960 
 12 C       -0.5790    -5.1350     0.2850 C.3   1 <1>   0.1400 
 13 C       -2.6130    -2.7870    -0.4470 C.3   1 <1>  -0.1600 
 14 N       -1.9030    -5.1430    -0.4130 N.am  1 <1>  -0.6600 
 15 C       -2.1380    -3.9700    -1.2960 C.3   1 <1>   0.1400 
 16 C       -2.8110    -6.1450    -0.1870 C.2   1 <1>   0.5690 
 17 O       -2.5950    -7.0520     0.5810 O.2   1 <1>  -0.5700 
 18 C       -4.1480    -6.1460    -0.8920 C.3   1 <1>  -0.1790 
 19 H        3.0450     0.4810    -0.0310 H     1 <1>   0.1500 
 20 H       -1.2610    -3.8890     1.9030 H     1 <1>   0.0800 
 21 H        0.4600    -4.1010     1.8350 H     1 <1>   0.0800 
 22 H       -1.2120    -1.2020    -0.6850 H     1 <1>   0.0800 
 23 H       -1.8500    -1.3280     0.9280 H     1 <1>   0.0800 
 24 H        3.4850    -4.5030    -1.6070 H     1 <1>   0.0800 
 25 H        4.5130    -4.1990    -0.2230 H     1 <1>   0.0800 
 26 H        4.7650    -3.3170    -1.7140 H     1 <1>   0.0800 
 27 H       -0.4640    -6.0360     0.8600 H     1 <1>   0.0800 
 28 H        0.2090    -5.1230    -0.4460 H     1 <1>   0.0800 
 29 H       -3.2460    -2.1650    -1.0520 H     1 <1>   0.0800 
 30 H       -3.2160    -3.1400     0.3700 H     1 <1>   0.0800 
 31 H       -1.2310    -3.7180    -1.8210 H     1 <1>   0.0800 
 32 H       -2.8830    -4.2070    -2.0340 H     1 <1>   0.0800 
 33 H       -4.6690    -5.2290    -0.6940 H     1 <1>   0.0800 
 34 H       -4.7450    -6.9640    -0.5340 H     1 <1>   0.0800 
 35 H       -4.0000    -6.2650    -1.9480 H     1 <1>   0.0800 
@<TRIPOS>BOND
  1   1   2  1   
  2   2   3  ar  
  3   2   4  ar  
  4   3   5  ar  
  5   3   6  1   
  6   4   7  ar  
  7   4  19  1   
  8   5   8  ar  
  9   6   9  1   
 10   6  10  1   
 11   7   8  ar  
 12   8  11  1   
 13   9  12  1   
 14   9  20  1   
 15   9  21  1   
 16  10  13  1   
 17  10  22  1   
 18  10  23  1   
 19  11  24  1   
 20  11  25  1   
 21  11  26  1   
 22  12  14  1   
 23  12  27  1   
 24  12  28  1   
 25  13  15  1   
 26  13  29  1   
 27  13  30  1   
 28  14  15  1   
 29  14  16  am  
 30  15  31  1   
 31  15  32  1   
 32  16  17  2   
 33  16  18  1   
 34  18  33  1   
 35  18  34  1   
 36  18  35  1   
@<TRIPOS>SUBSTRUCTURE
  1 ****   6 GROUP 4 **** **** 0

# MOE 2024.06 (io_trps.svl 2023.06)
