@<TRIPOS>MOLECULE
NONAME
33 33 1 0 0 
SMALL
USER_CHARGES


@<TRIPOS>ATOM
  1 O        1.5520     0.3310    -2.0610 O.2   1 <1>  -0.5700 
  2 C        1.7640     0.2470    -0.8760 C.2   1 <1>   0.6590 
  3 O        1.2130     1.0960    -0.0130 O.3   1 <1>  -0.4300 
  4 C        2.6850    -0.8310    -0.2670 C.3   1 <1>   0.0610 
  5 C        0.3590     2.1380    -0.4390 C.3   1 <1>   0.0400 
  6 C        3.0020    -1.9830    -1.2400 C.3   1 <1>  -0.1600 
  7 C        2.0030    -1.5730     0.8900 C.3   1 <1>  -0.1600 
  8 C        3.9980    -0.1750     0.2170 C.3   1 <1>  -0.2400 
  9 C        3.2870    -3.2500    -0.3900 C.3   1 <1>   0.0610 
 10 C        2.7360    -2.9090     1.0160 C.3   1 <1>  -0.1600 
 11 C        4.7900    -3.6110    -0.3030 C.2   1 <1>   0.6590 
 12 C        2.5040    -4.4410    -0.9850 C.3   1 <1>  -0.2400 
 13 O        5.6500    -3.0120    -0.8990 O.2   1 <1>  -0.5700 
 14 O        5.0940    -4.6380     0.4870 O.3   1 <1>  -0.4300 
 15 C        6.4260    -5.0760     0.6610 C.3   1 <1>   0.0400 
 16 H        0.0380     2.6910     0.4260 H     1 <1>   0.0800 
 17 H       -0.4890     1.7080    -0.9420 H     1 <1>   0.0800 
 18 H        0.9030     2.7790    -1.1100 H     1 <1>   0.0800 
 19 H        3.8050    -1.7270    -1.9100 H     1 <1>   0.0800 
 20 H        2.1330    -2.1550    -1.8510 H     1 <1>   0.0800 
 21 H        0.9750    -1.7630     0.6310 H     1 <1>   0.0800 
 22 H        2.0260    -1.0100     1.8070 H     1 <1>   0.0800 
 23 H        4.5020     0.2910    -0.6120 H     1 <1>   0.0800 
 24 H        4.6690    -0.8920     0.6530 H     1 <1>   0.0800 
 25 H        3.7880     0.5820     0.9520 H     1 <1>   0.0800 
 26 H        2.0840    -3.6740     1.4010 H     1 <1>   0.0800 
 27 H        3.5490    -2.7890     1.7120 H     1 <1>   0.0800 
 28 H        1.4490    -4.2290    -1.0170 H     1 <1>   0.0800 
 29 H        2.6510    -5.3250    -0.3900 H     1 <1>   0.0800 
 30 H        2.8450    -4.6450    -1.9850 H     1 <1>   0.0800 
 31 H        6.4250    -5.9120     1.3360 H     1 <1>   0.0800 
 32 H        7.0060    -4.2670     1.0700 H     1 <1>   0.0800 
 33 H        6.8220    -5.3690    -0.2960 H     1 <1>   0.0800 
@<TRIPOS>BOND
  1   1   2  2   
  2   2   3  1   
  3   2   4  1   
  4   3   5  1   
  5   4   6  1   
  6   4   7  1   
  7   4   8  1   
  8   5  16  1   
  9   5  17  1   
 10   5  18  1   
 11   6   9  1   
 12   6  19  1   
 13   6  20  1   
 14   7  10  1   
 15   7  21  1   
 16   7  22  1   
 17   8  23  1   
 18   8  24  1   
 19   8  25  1   
 20   9  10  1   
 21   9  11  1   
 22   9  12  1   
 23  10  26  1   
 24  10  27  1   
 25  11  13  2   
 26  11  14  1   
 27  12  28  1   
 28  12  29  1   
 29  12  30  1   
 30  14  15  1   
 31  15  31  1   
 32  15  32  1   
 33  15  33  1   
@<TRIPOS>SUBSTRUCTURE
  1 ****   6 GROUP 4 **** **** 0

# MOE 2024.06 (io_trps.svl 2023.06)
