@<TRIPOS>MOLECULE
NONAME
49 51 1 0 0 
SMALL
USER_CHARGES


@<TRIPOS>ATOM
  1 S        1.1440     1.1850     0.3600 S.o2  1 <1>   1.3330 
  2 O        2.1380     2.1660     0.7420 O.2   1 <1>  -0.6500 
  3 O        0.5740     0.3240     1.3670 O.2   1 <1>  -0.6500 
  4 N        1.7230     0.2680    -0.9390 N.am  1 <1>  -0.8490 
  5 C       -0.1900     2.1430    -0.3560 C.3   1 <1>  -0.0550 
  6 C        3.1550    -0.0310    -0.8230 C.3   1 <1>   0.1160 
  7 C        0.9800    -0.9820    -1.1460 C.3   1 <1>   0.1160 
  8 C       -1.0730     2.8750     0.6880 C.3   1 <1>  -0.0800 
  9 C       -1.7670     4.0810     0.0630 C.3   1 <1>   0.2000 
 10 C       -0.2930     3.5230     1.8450 C.3   1 <1>   0.3430 
 11 O       -2.8190     4.4470     0.8900 O.3   1 <1>  -0.6800 
 12 C       -0.6950     5.1760     0.1420 C.3   1 <1>   0.3430 
 13 N        0.0930     4.8920     1.3880 N.4   1 <1>  -0.9590 
 14 C        1.5660     5.0480     1.2080 C.3   1 <1>   0.5230 
 15 C        1.9020     6.4870     0.8850 C.2   1 <1>  -0.1400 
 16 S        3.4410     6.7780     0.1380 S.3   1 <1>  -0.0800 
 17 C        1.2850     7.6700     1.0330 C.2   1 <1>   0.0770 
 18 C        3.1040     8.5070     0.0780 C.2   1 <1>   0.3250 
 19 N        1.9500     8.7860     0.5790 N.2   1 <1>  -0.5650 
 20 C        4.0810     9.4130    -0.4930 C.ar  1 <1>   0.0530 
 21 C        5.3190     8.9950    -0.9920 C.ar  1 <1>  -0.1500 
 22 C        3.8020    10.7800    -0.5650 C.ar  1 <1>  -0.1500 
 23 C        6.2230     9.8920    -1.5320 C.ar  1 <1>  -0.1500 
 24 C        4.7010    11.6820    -1.1030 C.ar  1 <1>  -0.1500 
 25 C        5.9160    11.2380    -1.5890 C.ar  1 <1>  -0.1500 
 26 H        0.2440     2.8470    -1.0400 H     1 <1>   0.0800 
 27 H       -0.8190     1.4920    -0.9320 H     1 <1>   0.0800 
 28 H        3.4910    -0.5900    -1.6800 H     1 <1>   0.0800 
 29 H        3.3490    -0.6050     0.0690 H     1 <1>   0.0800 
 30 H        3.7240     0.8830    -0.7770 H     1 <1>   0.0800 
 31 H        1.3380    -1.4840    -2.0290 H     1 <1>   0.0800 
 32 H       -0.0690    -0.7790    -1.2750 H     1 <1>   0.0800 
 33 H        1.1030    -1.6390    -0.2990 H     1 <1>   0.0800 
 34 H       -1.7800     2.1660     1.0850 H     1 <1>   0.0800 
 35 H       -2.1420     3.9250    -0.9360 H     1 <1>   0.0800 
 36 H        0.5570     2.9430     2.1660 H     1 <1>   0.0800 
 37 H       -0.9630     3.6180     2.6850 H     1 <1>   0.0800 
 38 H       -3.6110     3.8860     0.7420 H     1 <1>   0.4000 
 39 H       -1.1470     6.1550     0.1660 H     1 <1>   0.0800 
 40 H       -0.0520     5.1070    -0.7190 H     1 <1>   0.0800 
 41 H       -0.2150     5.5510     2.1150 H     1 <1>   0.4500 
 42 H        2.0900     4.7460     2.1000 H     1 <1>   0.0800 
 43 H        1.9020     4.4210     0.3980 H     1 <1>   0.0800 
 44 H        0.3160     7.8340     1.4730 H     1 <1>   0.1500 
 45 H        5.5960     7.9580    -0.9650 H     1 <1>   0.1500 
 46 H        2.8600    11.1420    -0.1900 H     1 <1>   0.1500 
 47 H        7.1690     9.5430    -1.9090 H     1 <1>   0.1500 
 48 H        4.4550    12.7290    -1.1440 H     1 <1>   0.1500 
 49 H        6.6190    11.9370    -2.0090 H     1 <1>   0.1500 
@<TRIPOS>BOND
  1   1   2  2   
  2   1   3  2   
  3   1   4  am  
  4   1   5  1   
  5   4   6  1   
  6   4   7  1   
  7   5   8  1   
  8   5  26  1   
  9   5  27  1   
 10   6  28  1   
 11   6  29  1   
 12   6  30  1   
 13   7  31  1   
 14   7  32  1   
 15   7  33  1   
 16   8   9  1   
 17   8  10  1   
 18   8  34  1   
 19   9  11  1   
 20   9  12  1   
 21   9  35  1   
 22  10  13  1   
 23  10  36  1   
 24  10  37  1   
 25  11  38  1   
 26  12  13  1   
 27  12  39  1   
 28  12  40  1   
 29  13  14  1   
 30  13  41  1   
 31  14  15  1   
 32  14  42  1   
 33  14  43  1   
 34  15  16  1   
 35  15  17  2   
 36  16  18  1   
 37  17  19  1   
 38  17  44  1   
 39  18  19  2   
 40  18  20  1   
 41  20  21  ar  
 42  20  22  ar  
 43  21  23  ar  
 44  21  45  1   
 45  22  24  ar  
 46  22  46  1   
 47  23  25  ar  
 48  23  47  1   
 49  24  25  ar  
 50  24  48  1   
 51  25  49  1   
@<TRIPOS>SUBSTRUCTURE
  1 ****  14 GROUP 4 **** **** 0

# MOE 2024.06 (io_trps.svl 2023.06)
