@<TRIPOS>MOLECULE
NONAME
48 51 1 0 0 
SMALL
USER_CHARGES


@<TRIPOS>ATOM
  1 S        0.2530     0.0230     0.3110 S.3   1 <1>  -0.0800 
  2 C       -0.5880     1.5580     0.2680 C.ar  1 <1>   0.0400 
  3 C       -1.2900    -0.8100     0.1460 C.2   1 <1>   0.1980 
  4 C       -1.9390     1.3010     0.1340 C.ar  1 <1>   0.2270 
  5 C       -0.0580     2.8330     0.3470 C.ar  1 <1>  -0.1500 
  6 N       -2.3020    -0.0430     0.0690 N.2   1 <1>  -0.5650 
  7 C       -1.2330    -2.3260     0.1160 C.3   1 <1>   0.0200 
  8 C       -2.8100     2.3800     0.0770 C.ar  1 <1>  -0.1500 
  9 C       -0.9420     3.8980     0.2890 C.ar  1 <1>  -0.1500 
 10 C       -2.6280    -2.9530    -0.0420 C.3   1 <1>  -0.0990 
 11 C       -2.3100     3.6710     0.1540 C.ar  1 <1>  -0.1500 
 12 C       -2.6130    -4.4710    -0.0600 C.2   1 <1>   0.5690 
 13 O       -1.5530    -5.0520    -0.0460 O.2   1 <1>  -0.5700 
 14 N       -3.7970    -5.1500    -0.0960 N.am  1 <1>  -0.6600 
 15 C       -5.1560    -4.5550    -0.1560 C.3   1 <1>   0.1400 
 16 C       -3.8700    -6.6310    -0.0770 C.3   1 <1>   0.1400 
 17 C       -6.0920    -5.7440    -0.3750 C.3   1 <1>   0.2000 
 18 C       -5.3430    -6.9540     0.1780 C.3   1 <1>  -0.0800 
 19 O       -7.2940    -5.5760     0.2910 O.3   1 <1>  -0.6800 
 20 C       -5.7970    -8.2850    -0.4390 C.3   1 <1>   0.0210 
 21 C       -4.9400    -9.4340     0.0570 C.2   1 <1>   0.1080 
 22 N       -4.8200    -9.7300     1.3140 N.2   1 <1>  -0.7070 
 23 C       -4.1880   -10.2760    -0.7560 C.2   1 <1>  -0.1500 
 24 N       -3.9790   -10.7810     1.3370 N.pl3 1 <1>   0.3000 
 25 C       -3.5810   -11.1290     0.0950 C.2   1 <1>  -0.3320 
 26 C       -2.6310   -12.2730    -0.2060 C.3   1 <1>  -0.0600 
 27 H        1.0020     2.9820     0.4510 H     1 <1>   0.1500 
 28 H       -0.6070    -2.6340    -0.7020 H     1 <1>   0.0800 
 29 H       -0.7860    -2.6740     1.0300 H     1 <1>   0.0800 
 30 H       -3.8630     2.1930    -0.0270 H     1 <1>   0.1500 
 31 H       -0.5720     4.9070     0.3470 H     1 <1>   0.1500 
 32 H       -3.0650    -2.6050    -0.9600 H     1 <1>   0.0800 
 33 H       -3.2480    -2.6260     0.7720 H     1 <1>   0.0800 
 34 H       -2.9850     4.5090     0.1100 H     1 <1>   0.1500 
 35 H       -5.3710    -4.0670     0.7790 H     1 <1>   0.0800 
 36 H       -5.2300    -3.8570    -0.9710 H     1 <1>   0.0800 
 37 H       -3.5480    -7.0090    -1.0320 H     1 <1>   0.0800 
 38 H       -3.2400    -7.0390     0.6970 H     1 <1>   0.0800 
 39 H       -6.2980    -5.8530    -1.4260 H     1 <1>   0.0800 
 40 H       -5.4710    -7.0010     1.2450 H     1 <1>   0.0800 
 41 H       -7.1620    -5.6650     1.2560 H     1 <1>   0.4000 
 42 H       -5.7390    -8.2360    -1.5110 H     1 <1>   0.0800 
 43 H       -6.8190    -8.4770    -0.1670 H     1 <1>   0.0800 
 44 H       -4.1210   -10.2330    -1.8280 H     1 <1>   0.1500 
 45 H       -3.6960   -11.2340     2.2130 H     1 <1>   0.2700 
 46 H       -2.4690   -12.3500    -1.2670 H     1 <1>   0.0800 
 47 H       -3.0420   -13.2020     0.1460 H     1 <1>   0.0800 
 48 H       -1.6820   -12.1040     0.2730 H     1 <1>   0.0800 
@<TRIPOS>BOND
  1   1   2  1   
  2   1   3  1   
  3   2   4  ar  
  4   2   5  ar  
  5   3   6  2   
  6   3   7  1   
  7   4   6  1   
  8   4   8  ar  
  9   5   9  ar  
 10   5  27  1   
 11   7  10  1   
 12   7  28  1   
 13   7  29  1   
 14   8  11  ar  
 15   8  30  1   
 16   9  11  ar  
 17   9  31  1   
 18  10  12  1   
 19  10  32  1   
 20  10  33  1   
 21  11  34  1   
 22  12  13  2   
 23  12  14  am  
 24  14  15  1   
 25  14  16  1   
 26  15  17  1   
 27  15  35  1   
 28  15  36  1   
 29  16  18  1   
 30  16  37  1   
 31  16  38  1   
 32  17  18  1   
 33  17  19  1   
 34  17  39  1   
 35  18  20  1   
 36  18  40  1   
 37  19  41  1   
 38  20  21  1   
 39  20  42  1   
 40  20  43  1   
 41  21  22  2   
 42  21  23  1   
 43  22  24  1   
 44  23  25  2   
 45  23  44  1   
 46  24  25  1   
 47  24  45  1   
 48  25  26  1   
 49  26  46  1   
 50  26  47  1   
 51  26  48  1   
@<TRIPOS>SUBSTRUCTURE
  1 ****  12 GROUP 4 **** **** 0

# MOE 2024.06 (io_trps.svl 2023.06)
