@<TRIPOS>MOLECULE
NONAME
51 53 1 0 0 
SMALL
USER_CHARGES


@<TRIPOS>ATOM
  1 O       -0.9620     1.9980    -2.9920 O.2   1 <1>  -0.5700 
  2 C       -0.4700     0.8970    -2.9280 C.2   1 <1>   0.5690 
  3 N        0.8580     0.6920    -3.0800 N.am  1 <1>  -0.7300 
  4 C       -1.3450    -0.3250    -2.6310 C.3   1 <1>   0.1710 
  5 C        1.9060     1.7340    -2.9580 C.3   1 <1>   0.3210 
  6 N       -0.5980    -1.4510    -1.9960 N.3   1 <1>  -0.8100 
  7 C        2.9150     1.3850    -1.8630 C.2   1 <1>   0.3350 
  8 C       -0.2060    -1.1220    -0.5990 C.3   1 <1>   0.1100 
  9 C       -1.3910    -2.7010    -2.0040 C.3   1 <1>   0.1100 
 10 N        3.0510     0.2390    -1.3150 N.2   1 <1>  -0.4100 
 11 N        3.7550     2.2950    -1.3860 N.2   1 <1>  -0.5650 
 12 C        0.6020    -2.2570     0.0530 C.3   1 <1>   0.2090 
 13 C       -0.6270    -3.8800    -1.3670 C.3   1 <1>   0.2090 
 14 O        3.9970     0.3440    -0.4340 O.3   1 <1>  -0.0190 
 15 C        4.3720     1.5960    -0.5200 C.2   1 <1>   0.2980 
 16 N       -0.1790    -3.5320     0.0160 N.pl3 1 <1>  -0.8380 
 17 C        5.4830     2.0960     0.3860 C.3   1 <1>   0.0200 
 18 C       -0.7190    -4.1200     1.1400 C.ar  1 <1>   0.7200 
 19 C        4.9710     2.5780     1.7570 C.3   1 <1>  -0.0800 
 20 N       -1.2750    -5.3220     0.9880 N.ar  1 <1>  -0.6200 
 21 N       -0.6440    -3.4380     2.2840 N.ar  1 <1>  -0.6200 
 22 C        6.1210     3.1920     2.5660 C.3   1 <1>  -0.2400 
 23 C        4.3210     1.4480     2.5690 C.3   1 <1>  -0.2400 
 24 C       -1.7780    -5.8740     2.0630 C.ar  1 <1>   0.1600 
 25 C       -1.1580    -4.0140     3.3430 C.ar  1 <1>   0.1600 
 26 C       -1.7460    -5.2530     3.2870 C.ar  1 <1>  -0.1500 
 27 H        1.1750    -0.2620    -2.8630 H     1 <1>   0.3700 
 28 H       -1.7570    -0.6550    -3.5670 H     1 <1>   0.0800 
 29 H       -2.1600    -0.0230    -1.9960 H     1 <1>   0.0800 
 30 H        1.4530     2.6820    -2.7260 H     1 <1>   0.0800 
 31 H        2.4250     1.8280    -3.8950 H     1 <1>   0.0800 
 32 H       -1.0850    -0.9420    -0.0020 H     1 <1>   0.0800 
 33 H        0.3930    -0.2290    -0.5830 H     1 <1>   0.0800 
 34 H       -1.6370    -2.9610    -3.0190 H     1 <1>   0.0800 
 35 H       -2.3100    -2.5560    -1.4620 H     1 <1>   0.0800 
 36 H        0.8610    -1.9810     1.0590 H     1 <1>   0.0800 
 37 H        1.5210    -2.3900    -0.4900 H     1 <1>   0.0800 
 38 H        0.2360    -4.1080    -1.9670 H     1 <1>   0.0800 
 39 H       -1.2620    -4.7480    -1.3690 H     1 <1>   0.0800 
 40 H        5.9700     2.9140    -0.1140 H     1 <1>   0.0800 
 41 H        6.2100     1.3130     0.5140 H     1 <1>   0.0800 
 42 H        4.2310     3.3440     1.5900 H     1 <1>   0.0800 
 43 H        6.8840     2.4600     2.7630 H     1 <1>   0.0800 
 44 H        5.7570     3.5670     3.5070 H     1 <1>   0.0800 
 45 H        6.5620     4.0140     2.0290 H     1 <1>   0.0800 
 46 H        5.0090     0.6320     2.7100 H     1 <1>   0.0800 
 47 H        3.4420     1.0760     2.0720 H     1 <1>   0.0800 
 48 H        4.0200     1.8100     3.5370 H     1 <1>   0.0800 
 49 H       -2.2290    -6.8480     1.9660 H     1 <1>   0.1500 
 50 H       -1.1070    -3.4850     4.2790 H     1 <1>   0.1500 
 51 H       -2.1620    -5.7160     4.1610 H     1 <1>   0.1500 
@<TRIPOS>BOND
  1   1   2  2   
  2   2   3  am  
  3   2   4  1   
  4   3   5  1   
  5   3  27  1   
  6   4   6  1   
  7   4  28  1   
  8   4  29  1   
  9   5   7  1   
 10   5  30  1   
 11   5  31  1   
 12   6   8  1   
 13   6   9  1   
 14   7  10  2   
 15   7  11  1   
 16   8  12  1   
 17   8  32  1   
 18   8  33  1   
 19   9  13  1   
 20   9  34  1   
 21   9  35  1   
 22  10  14  1   
 23  11  15  2   
 24  12  16  1   
 25  12  36  1   
 26  12  37  1   
 27  13  16  1   
 28  13  38  1   
 29  13  39  1   
 30  14  15  1   
 31  15  17  1   
 32  16  18  1   
 33  17  19  1   
 34  17  40  1   
 35  17  41  1   
 36  18  20  ar  
 37  18  21  ar  
 38  19  22  1   
 39  19  23  1   
 40  19  42  1   
 41  20  24  ar  
 42  21  25  ar  
 43  22  43  1   
 44  22  44  1   
 45  22  45  1   
 46  23  46  1   
 47  23  47  1   
 48  23  48  1   
 49  24  26  ar  
 50  24  49  1   
 51  25  26  ar  
 52  25  50  1   
 53  26  51  1   
@<TRIPOS>SUBSTRUCTURE
  1 ****   8 GROUP 4 **** **** 0

# MOE 2024.06 (io_trps.svl 2023.06)
