@<TRIPOS>MOLECULE
NONAME
44 45 1 0 0 
SMALL
USER_CHARGES


@<TRIPOS>ATOM
  1 O       -0.3350     1.1820    -0.7220 O.3   1 <1>  -0.5600 
  2 C       -0.1320     2.3490    -0.0050 C.3   1 <1>   0.2000 
  3 C       -1.6660     1.0750    -1.1160 C.3   1 <1>   0.1200 
  4 C       -1.0720     3.3550    -0.6550 C.3   1 <1>  -0.1600 
  5 C        1.3540     2.7100    -0.0770 C.3   1 <1>  -0.1600 
  6 C       -2.2420     2.4890    -1.0880 C.3   1 <1>  -0.1600 
  7 C        1.6870     3.9870     0.7120 C.3   1 <1>  -0.1600 
  8 C        3.1810     4.3060     0.6420 C.3   1 <1>   0.2090 
  9 N        3.4450     5.6090     1.2980 N.pl3 1 <1>  -0.8380 
 10 C        4.2810     6.4760     0.6260 C.ar  1 <1>   0.4100 
 11 C        3.5670     5.5470     2.7800 C.3   1 <1>   0.1290 
 12 N        5.5580     6.4250     0.9490 N.ar  1 <1>  -0.6200 
 13 C        3.8120     7.3450    -0.3540 C.ar  1 <1>  -0.1430 
 14 C        6.3550     7.2320     0.2830 C.ar  1 <1>   0.4770 
 15 C        4.7530     8.1290    -0.9740 C.ar  1 <1>   0.1600 
 16 C        2.3210     7.3940    -0.6970 C.3   1 <1>  -0.0170 
 17 N        6.0350     8.0860    -0.6690 N.ar  1 <1>  -0.6200 
 18 C        7.8190     7.1780     0.6450 C.3   1 <1>  -0.0970 
 19 C        1.8750     8.6330    -1.4840 C.3   1 <1>  -0.2400 
 20 H       -0.4310     2.1580     1.0130 H     1 <1>   0.0800 
 21 H       -2.1730     0.4280    -0.4210 H     1 <1>   0.0800 
 22 H       -1.6910     0.6480    -2.1040 H     1 <1>   0.0800 
 23 H       -0.5980     3.7930    -1.5160 H     1 <1>   0.0800 
 24 H       -1.3620     4.1330     0.0280 H     1 <1>   0.0800 
 25 H        1.6340     2.8390    -1.1080 H     1 <1>   0.0800 
 26 H        1.9210     1.8890     0.3260 H     1 <1>   0.0800 
 27 H       -3.0420     2.5350    -0.3700 H     1 <1>   0.0800 
 28 H       -2.6190     2.7780    -2.0530 H     1 <1>   0.0800 
 29 H        1.3990     3.8560     1.7390 H     1 <1>   0.0800 
 30 H        1.1370     4.8160     0.3050 H     1 <1>   0.0800 
 31 H        3.4920     4.3560    -0.3880 H     1 <1>   0.0800 
 32 H        3.7540     3.5320     1.1240 H     1 <1>   0.0800 
 33 H        2.6230     5.2730     3.2180 H     1 <1>   0.0800 
 34 H        3.8590     6.5100     3.1620 H     1 <1>   0.0800 
 35 H        4.3160     4.8250     3.0570 H     1 <1>   0.0800 
 36 H        4.4710     8.8210    -1.7460 H     1 <1>   0.1500 
 37 H        1.7590     7.3640     0.2210 H     1 <1>   0.0800 
 38 H        2.0690     6.5120    -1.2590 H     1 <1>   0.0800 
 39 H        7.9920     6.4450     1.4120 H     1 <1>   0.0800 
 40 H        8.1330     8.1400     1.0020 H     1 <1>   0.0800 
 41 H        8.3920     6.9180    -0.2240 H     1 <1>   0.0800 
 42 H        2.1500     9.5300    -0.9570 H     1 <1>   0.0800 
 43 H        0.8060     8.6230    -1.6020 H     1 <1>   0.0800 
 44 H        2.3200     8.6440    -2.4630 H     1 <1>   0.0800 
@<TRIPOS>BOND
  1   1   2  1   
  2   1   3  1   
  3   2   4  1   
  4   2   5  1   
  5   2  20  1   
  6   3   6  1   
  7   3  21  1   
  8   3  22  1   
  9   4   6  1   
 10   4  23  1   
 11   4  24  1   
 12   5   7  1   
 13   5  25  1   
 14   5  26  1   
 15   6  27  1   
 16   6  28  1   
 17   7   8  1   
 18   7  29  1   
 19   7  30  1   
 20   8   9  1   
 21   8  31  1   
 22   8  32  1   
 23   9  10  1   
 24   9  11  1   
 25  10  12  ar  
 26  10  13  ar  
 27  11  33  1   
 28  11  34  1   
 29  11  35  1   
 30  12  14  ar  
 31  13  15  ar  
 32  13  16  1   
 33  14  17  ar  
 34  14  18  1   
 35  15  17  ar  
 36  15  36  1   
 37  16  19  1   
 38  16  37  1   
 39  16  38  1   
 40  18  39  1   
 41  18  40  1   
 42  18  41  1   
 43  19  42  1   
 44  19  43  1   
 45  19  44  1   
@<TRIPOS>SUBSTRUCTURE
  1 ****   8 GROUP 4 **** **** 0

# MOE 2024.06 (io_trps.svl 2023.06)
