@<TRIPOS>MOLECULE
NONAME
47 49 1 0 0 
SMALL
USER_CHARGES


@<TRIPOS>ATOM
  1 S        0.6090     0.2600    -1.5220 S.o2  1 <1>   1.3330 
  2 O        0.9970    -1.0020    -2.1110 O.2   1 <1>  -0.6500 
  3 O       -0.1880     1.1950    -2.2820 O.2   1 <1>  -0.6500 
  4 N       -0.2310    -0.0700    -0.0820 N.am  1 <1>  -0.8490 
  5 C        2.1020     1.0850    -0.9660 C.3   1 <1>  -0.0550 
  6 C       -1.0790    -1.2610    -0.1960 C.3   1 <1>   0.1160 
  7 C       -1.0320     1.0620     0.3970 C.3   1 <1>   0.1160 
  8 C        3.0530     0.1900    -0.1410 C.3   1 <1>  -0.0800 
  9 C        4.4230     0.7950     0.1270 C.3   1 <1>   0.2200 
 10 C        2.5540    -0.1650     1.2670 C.3   1 <1>   0.1200 
 11 N        4.3080     2.2330     0.4730 N.am  1 <1>  -0.7300 
 12 C        4.8310     0.0240     1.3750 C.3   1 <1>   0.1200 
 13 O        3.6580    -0.0840     2.1200 O.3   1 <1>  -0.5600 
 14 C        4.6130     3.2760    -0.3460 C.2   1 <1>   0.5440 
 15 O        4.9160     3.0410    -1.5010 O.2   1 <1>  -0.5700 
 16 C        4.5590     4.6300     0.1530 C.ar  1 <1>   0.0860 
 17 C        5.7070     5.4390     0.2860 C.ar  1 <1>   0.0530 
 18 C        3.3190     5.1450     0.5330 C.ar  1 <1>  -0.1500 
 19 C        7.0430     5.0140    -0.0750 C.2   1 <1>   0.1340 
 20 C        5.5450     6.7220     0.8100 C.ar  1 <1>  -0.1500 
 21 C        3.1890     6.4210     1.0430 C.ar  1 <1>  -0.1500 
 22 N        8.1380     5.3540     0.5460 N.2   1 <1>  -0.3380 
 23 N        7.3530     4.2340    -1.1180 N.pl3 1 <1>   0.0330 
 24 C        4.3110     7.2130     1.1830 C.ar  1 <1>  -0.1500 
 25 N        9.1650     4.7940    -0.0900 N.2   1 <1>  -0.3380 
 26 C        8.6740     4.1310    -1.0770 C.2   1 <1>   0.0360 
 27 H        2.6360     1.4230    -1.8330 H     1 <1>   0.0800 
 28 H        1.8360     1.9530    -0.3970 H     1 <1>   0.0800 
 29 H       -1.5880    -1.4490     0.7330 H     1 <1>   0.0800 
 30 H       -0.4750    -2.1240    -0.4280 H     1 <1>   0.0800 
 31 H       -1.8060    -1.1290    -0.9810 H     1 <1>   0.0800 
 32 H       -1.4650     0.8300     1.3550 H     1 <1>   0.0800 
 33 H       -1.8240     1.2850    -0.3010 H     1 <1>   0.0800 
 34 H       -0.4140     1.9360     0.5060 H     1 <1>   0.0800 
 35 H        3.2020    -0.7330    -0.6750 H     1 <1>   0.0800 
 36 H        5.1120     0.6490    -0.6880 H     1 <1>   0.0800 
 37 H        2.1520    -1.1640     1.3060 H     1 <1>   0.0800 
 38 H        1.8180     0.5350     1.6230 H     1 <1>   0.0800 
 39 H        4.0670     2.3980     1.4560 H     1 <1>   0.3700 
 40 H        5.5870     0.5270     1.9520 H     1 <1>   0.0800 
 41 H        5.1580    -0.9700     1.1230 H     1 <1>   0.0800 
 42 H        2.4410     4.5330     0.4240 H     1 <1>   0.1500 
 43 H        6.4140     7.3500     0.9260 H     1 <1>   0.1500 
 44 H        2.2220     6.8000     1.3290 H     1 <1>   0.1500 
 45 H        6.6810     3.7940    -1.7590 H     1 <1>   0.2700 
 46 H        4.2230     8.2100     1.5830 H     1 <1>   0.1500 
 47 H        9.2490     3.5590    -1.7830 H     1 <1>   0.1500 
@<TRIPOS>BOND
  1   1   2  2   
  2   1   3  2   
  3   1   4  am  
  4   1   5  1   
  5   4   6  1   
  6   4   7  1   
  7   5   8  1   
  8   5  27  1   
  9   5  28  1   
 10   6  29  1   
 11   6  30  1   
 12   6  31  1   
 13   7  32  1   
 14   7  33  1   
 15   7  34  1   
 16   8   9  1   
 17   8  10  1   
 18   8  35  1   
 19   9  11  1   
 20   9  12  1   
 21   9  36  1   
 22  10  13  1   
 23  10  37  1   
 24  10  38  1   
 25  11  14  am  
 26  11  39  1   
 27  12  13  1   
 28  12  40  1   
 29  12  41  1   
 30  14  15  2   
 31  14  16  1   
 32  16  17  ar  
 33  16  18  ar  
 34  17  19  1   
 35  17  20  ar  
 36  18  21  ar  
 37  18  42  1   
 38  19  22  2   
 39  19  23  1   
 40  20  24  ar  
 41  20  43  1   
 42  21  24  ar  
 43  21  44  1   
 44  22  25  1   
 45  23  26  1   
 46  23  45  1   
 47  24  46  1   
 48  25  26  2   
 49  26  47  1   
@<TRIPOS>SUBSTRUCTURE
  1 ****  11 GROUP 4 **** **** 0

# MOE 2024.06 (io_trps.svl 2023.06)
