@<TRIPOS>MOLECULE
NONAME
63 67 1 0 0 
SMALL
USER_CHARGES


@<TRIPOS>ATOM
  1 O        0.8640     0.6160     0.4980 O.3   1 <1>  -0.6800 
  2 C        1.3200     0.0020    -0.6640 C.3   1 <1>   0.2000 
  3 C        1.7780    -1.4120    -0.2970 C.3   1 <1>  -0.0800 
  4 C        2.6210     0.7020    -1.0500 C.3   1 <1>   0.3430 
  5 C        3.2620    -1.2540     0.0820 C.3   1 <1>   0.3430 
  6 C        1.5630    -2.4180    -1.4520 C.3   1 <1>  -0.0160 
  7 N        3.5810     0.2050    -0.0200 N.4   1 <1>  -0.9590 
  8 C        2.5000    -3.6180    -1.3430 C.ar  1 <1>  -0.1430 
  9 C        5.0170     0.5560    -0.1990 C.3   1 <1>   0.4230 
 10 C        2.4140    -4.5630    -0.2920 C.ar  1 <1>   0.0000 
 11 C        3.4910    -3.7920    -2.2670 C.ar  1 <1>  -0.1500 
 12 C        5.8450    -0.0280     0.9530 C.3   1 <1>  -0.1600 
 13 C        5.1800     2.0800    -0.2360 C.3   1 <1>  -0.1600 
 14 C        3.4240    -5.5530    -0.2160 C.ar  1 <1>   0.3100 
 15 C        1.3890    -4.5910     0.6820 C.ar  1 <1>  -0.1500 
 16 C        4.4150    -4.8330    -2.1230 C.ar  1 <1>   0.1600 
 17 C        7.3090     0.4010     0.8700 C.3   1 <1>   0.3430 
 18 C        6.6520     2.4860    -0.3060 C.3   1 <1>   0.3430 
 19 N        4.4170    -5.6650    -1.1320 N.ar  1 <1>  -0.6200 
 20 C        3.4040    -6.4660     0.8500 C.ar  1 <1>  -0.1500 
 21 C        1.3940    -5.4990     1.7060 C.ar  1 <1>  -0.1500 
 22 N        7.4100     1.8880     0.8330 N.4   1 <1>  -0.9590 
 23 C        2.4180    -6.4440     1.7980 C.ar  1 <1>  -0.1500 
 24 C        8.8520     2.3060     0.9000 C.3   1 <1>   0.4230 
 25 C        8.9790     3.8050     1.1630 C.3   1 <1>  -0.1600 
 26 C        9.6120     2.0860    -0.4110 C.3   1 <1>  -0.1600 
 27 C        9.1840     4.4970    -0.1910 C.3   1 <1>  -0.1600 
 28 C        9.5620     3.4030    -1.1950 C.3   1 <1>  -0.1600 
 29 H       -0.0640     0.3610     0.6980 H     1 <1>   0.4000 
 30 H        0.5550     0.0570    -1.4220 H     1 <1>   0.0800 
 31 H        1.2390    -1.7650     0.5640 H     1 <1>   0.0800 
 32 H        2.5030     1.7730    -1.0190 H     1 <1>   0.0800 
 33 H        2.9290     0.3920    -2.0350 H     1 <1>   0.0800 
 34 H        3.8810    -1.8110    -0.6030 H     1 <1>   0.0800 
 35 H        3.4370    -1.6200     1.0810 H     1 <1>   0.0800 
 36 H        1.7360    -1.9310    -2.3970 H     1 <1>   0.0800 
 37 H        0.5400    -2.7570    -1.4630 H     1 <1>   0.0800 
 38 H        3.2170     0.6210     0.8550 H     1 <1>   0.4500 
 39 H        5.3710     0.1410    -1.1300 H     1 <1>   0.0800 
 40 H        3.6000    -3.1470    -3.1190 H     1 <1>   0.1500 
 41 H        5.4440     0.2830     1.9020 H     1 <1>   0.0800 
 42 H        5.8230    -1.1030     0.9150 H     1 <1>   0.0800 
 43 H        4.6940     2.4820    -1.1060 H     1 <1>   0.0800 
 44 H        4.7360     2.5290     0.6350 H     1 <1>   0.0800 
 45 H        0.5730    -3.8980     0.6180 H     1 <1>   0.1500 
 46 H        5.1780    -4.9450    -2.8750 H     1 <1>   0.1500 
 47 H        7.7600    -0.0160    -0.0170 H     1 <1>   0.0800 
 48 H        7.8440     0.0180     1.7250 H     1 <1>   0.0800 
 49 H        6.7260     3.5610    -0.2710 H     1 <1>   0.0800 
 50 H        7.0780     2.1540    -1.2390 H     1 <1>   0.0800 
 51 H        4.1930    -7.1950     0.8930 H     1 <1>   0.1500 
 52 H        0.6120    -5.5080     2.4460 H     1 <1>   0.1500 
 53 H        6.9990     2.2540     1.7030 H     1 <1>   0.4500 
 54 H        2.4150    -7.1520     2.6100 H     1 <1>   0.1500 
 55 H        9.3370     1.7640     1.6980 H     1 <1>   0.0800 
 56 H        8.1500     4.2150     1.7130 H     1 <1>   0.0800 
 57 H        9.8700     3.9600     1.7480 H     1 <1>   0.0800 
 58 H       10.6420     1.8970    -0.1590 H     1 <1>   0.0800 
 59 H        9.2580     1.2520    -0.9880 H     1 <1>   0.0800 
 60 H        8.2860     5.0000    -0.5070 H     1 <1>   0.0800 
 61 H        9.9670     5.2350    -0.1200 H     1 <1>   0.0800 
 62 H       10.5200     3.6120    -1.6440 H     1 <1>   0.0800 
 63 H        8.8310     3.3540    -1.9830 H     1 <1>   0.0800 
@<TRIPOS>BOND
  1   1   2  1   
  2   1  29  1   
  3   2   3  1   
  4   2   4  1   
  5   2  30  1   
  6   3   5  1   
  7   3   6  1   
  8   3  31  1   
  9   4   7  1   
 10   4  32  1   
 11   4  33  1   
 12   5   7  1   
 13   5  34  1   
 14   5  35  1   
 15   6   8  1   
 16   6  36  1   
 17   6  37  1   
 18   7   9  1   
 19   7  38  1   
 20   8  10  ar  
 21   8  11  ar  
 22   9  12  1   
 23   9  13  1   
 24   9  39  1   
 25  10  14  ar  
 26  10  15  ar  
 27  11  16  ar  
 28  11  40  1   
 29  12  17  1   
 30  12  41  1   
 31  12  42  1   
 32  13  18  1   
 33  13  43  1   
 34  13  44  1   
 35  14  19  ar  
 36  14  20  ar  
 37  15  21  ar  
 38  15  45  1   
 39  16  19  ar  
 40  16  46  1   
 41  17  22  1   
 42  17  47  1   
 43  17  48  1   
 44  18  22  1   
 45  18  49  1   
 46  18  50  1   
 47  20  23  ar  
 48  20  51  1   
 49  21  23  ar  
 50  21  52  1   
 51  22  24  1   
 52  22  53  1   
 53  23  54  1   
 54  24  25  1   
 55  24  26  1   
 56  24  55  1   
 57  25  27  1   
 58  25  56  1   
 59  25  57  1   
 60  26  28  1   
 61  26  58  1   
 62  26  59  1   
 63  27  28  1   
 64  27  60  1   
 65  27  61  1   
 66  28  62  1   
 67  28  63  1   
@<TRIPOS>SUBSTRUCTURE
  1 ****   5 GROUP 4 **** **** 0

# MOE 2024.06 (io_trps.svl 2023.06)
