@<TRIPOS>MOLECULE
NONAME
49 51 1 0 0 
SMALL
USER_CHARGES


@<TRIPOS>ATOM
  1 O       -0.2870    -0.8080     0.9770 O.2   1 <1>  -0.5700 
  2 C        0.5590    -1.6470     0.8210 C.2   1 <1>   0.5690 
  3 N        0.2570    -2.9610     0.7840 N.am  1 <1>  -0.7300 
  4 C        2.0140    -1.2630     0.6710 C.3   1 <1>  -0.0990 
  5 C        1.2620    -4.0260     0.6080 C.3   1 <1>   0.1400 
  6 C        2.6830    -2.0900    -0.4470 C.3   1 <1>  -0.0800 
  7 C        2.2950    -3.5910    -0.4540 C.3   1 <1>  -0.0800 
  8 C        4.2160    -2.0370    -0.4030 C.3   1 <1>  -0.1600 
  9 C        3.6160    -4.3690    -0.3700 C.3   1 <1>  -0.1600 
 10 C        4.6560    -3.4000    -0.9270 C.3   1 <1>   0.4230 
 11 N        6.0630    -3.7560    -0.5890 N.4   1 <1>  -0.9590 
 12 C        6.4450    -3.7390     0.8620 C.3   1 <1>   0.4860 
 13 C        6.5160    -5.0040    -1.2710 C.3   1 <1>   0.2630 
 14 C        7.1170    -2.4050     1.1930 C.ar  1 <1>   0.1670 
 15 N        7.6690    -1.7360     0.1950 N.ar  1 <1>  -0.6200 
 16 C        7.1320    -1.9180     2.4790 C.ar  1 <1>  -0.1500 
 17 C        8.2390    -0.5770     0.5120 C.ar  1 <1>   0.4770 
 18 C        7.7450    -0.7080     2.6920 C.ar  1 <1>   0.1600 
 19 N        8.3000    -0.0310     1.7150 N.ar  1 <1>  -0.6200 
 20 C        8.8940     0.2210    -0.6250 C.3   1 <1>   0.0630 
 21 C        7.8700     0.6420    -1.6930 C.3   1 <1>  -0.2400 
 22 C       10.0520    -0.5520    -1.2760 C.3   1 <1>  -0.2400 
 23 H       -0.7240    -3.2200     0.9230 H     1 <1>   0.3700 
 24 H        2.0840    -0.2130     0.4490 H     1 <1>   0.0800 
 25 H        2.4900    -1.4390     1.6170 H     1 <1>   0.0800 
 26 H        1.7410    -4.1950     1.5580 H     1 <1>   0.0800 
 27 H        0.7760    -4.9380     0.3030 H     1 <1>   0.0800 
 28 H        2.3550    -1.6760    -1.3870 H     1 <1>   0.0800 
 29 H        1.8530    -3.7970    -1.4160 H     1 <1>   0.0800 
 30 H        4.5300    -1.8910     0.6130 H     1 <1>   0.0800 
 31 H        4.5960    -1.2360    -1.0120 H     1 <1>   0.0800 
 32 H        3.5640    -5.2750    -0.9480 H     1 <1>   0.0800 
 33 H        3.8270    -4.6050     0.6570 H     1 <1>   0.0800 
 34 H        4.5470    -3.3820    -2.0010 H     1 <1>   0.0800 
 35 H        6.6460    -2.9720    -0.9480 H     1 <1>   0.4500 
 36 H        5.5820    -3.8820     1.4890 H     1 <1>   0.0800 
 37 H        7.1500    -4.5270     1.0630 H     1 <1>   0.0800 
 38 H        5.9790    -5.8580    -0.8910 H     1 <1>   0.0800 
 39 H        7.5710    -5.1570    -1.1070 H     1 <1>   0.0800 
 40 H        6.3440    -4.9330    -2.3330 H     1 <1>   0.0800 
 41 H        6.6870    -2.4480     3.3020 H     1 <1>   0.1500 
 42 H        7.7830    -0.2840     3.6830 H     1 <1>   0.1500 
 43 H        9.3050     1.1210    -0.2000 H     1 <1>   0.0800 
 44 H        7.4520    -0.2200    -2.1810 H     1 <1>   0.0800 
 45 H        8.3400     1.2640    -2.4340 H     1 <1>   0.0800 
 46 H        7.0740     1.2010    -1.2350 H     1 <1>   0.0800 
 47 H        9.6950    -1.4490    -1.7490 H     1 <1>   0.0800 
 48 H       10.7760    -0.8230    -0.5270 H     1 <1>   0.0800 
 49 H       10.5400     0.0580    -2.0150 H     1 <1>   0.0800 
@<TRIPOS>BOND
  1   1   2  2   
  2   2   3  am  
  3   2   4  1   
  4   3   5  1   
  5   3  23  1   
  6   4   6  1   
  7   4  24  1   
  8   4  25  1   
  9   5   7  1   
 10   5  26  1   
 11   5  27  1   
 12   6   7  1   
 13   6   8  1   
 14   6  28  1   
 15   7   9  1   
 16   7  29  1   
 17   8  10  1   
 18   8  30  1   
 19   8  31  1   
 20   9  10  1   
 21   9  32  1   
 22   9  33  1   
 23  10  11  1   
 24  10  34  1   
 25  11  12  1   
 26  11  13  1   
 27  11  35  1   
 28  12  14  1   
 29  12  36  1   
 30  12  37  1   
 31  13  38  1   
 32  13  39  1   
 33  13  40  1   
 34  14  15  ar  
 35  14  16  ar  
 36  15  17  ar  
 37  16  18  ar  
 38  16  41  1   
 39  17  19  ar  
 40  17  20  1   
 41  18  19  ar  
 42  18  42  1   
 43  20  21  1   
 44  20  22  1   
 45  20  43  1   
 46  21  44  1   
 47  21  45  1   
 48  21  46  1   
 49  22  47  1   
 50  22  48  1   
 51  22  49  1   
@<TRIPOS>SUBSTRUCTURE
  1 ****   8 GROUP 4 **** **** 0

# MOE 2024.06 (io_trps.svl 2023.06)
