@<TRIPOS>MOLECULE
NONAME
56 57 1 0 0 
SMALL
USER_CHARGES


@<TRIPOS>ATOM
  1 O       -0.3450     0.7460    -0.3430 O.2   1 <1>  -0.5700 
  2 C        0.7790     0.9060     0.0960 C.2   1 <1>   0.7800 
  3 O        1.5630    -0.1510     0.2830 O.3   1 <1>  -0.4300 
  4 N        1.2870     2.1410     0.4020 N.am  1 <1>  -0.6600 
  5 C        1.1000    -1.4460    -0.0190 C.3   1 <1>   0.2640 
  6 C        0.4970     3.3800     0.2030 C.3   1 <1>   0.1400 
  7 C        2.6570     2.3450     0.9440 C.3   1 <1>   0.1400 
  8 C        2.2300    -2.4300     0.2330 C.ar  1 <1>  -0.1440 
  9 C        1.2560     4.2880    -0.7650 C.3   1 <1>  -0.1600 
 10 C        3.4280     3.2970     0.0230 C.3   1 <1>  -0.1600 
 11 C        2.1730    -3.3130     1.3010 C.ar  1 <1>  -0.1500 
 12 C        3.3320    -2.4510    -0.6080 C.ar  1 <1>  -0.1500 
 13 C        2.6700     4.6170    -0.2490 C.3   1 <1>   0.3610 
 14 C        3.2040    -4.2100     1.5220 C.ar  1 <1>  -0.1500 
 15 C        4.3640    -3.3470    -0.3890 C.ar  1 <1>  -0.1500 
 16 N        3.3720     5.2930    -1.3760 N.am  1 <1>  -0.7300 
 17 C        2.5680     5.5250     1.0180 C.2   1 <1>   0.6590 
 18 C        4.3000    -4.2280     0.6770 C.ar  1 <1>  -0.1500 
 19 C        4.4900     6.0420    -1.2990 C.2   1 <1>   0.7800 
 20 O        2.9400     5.1820     2.1150 O.2   1 <1>  -0.5700 
 21 O        2.0260     6.7280     0.8300 O.3   1 <1>  -0.4300 
 22 O        4.8520     6.6940    -2.2520 O.2   1 <1>  -0.5700 
 23 O        5.1560     6.0280    -0.1480 O.3   1 <1>  -0.4300 
 24 C        1.9180     7.6700     1.8760 C.3   1 <1>   0.0400 
 25 C        6.2990     6.7760     0.1930 C.3   1 <1>   0.2800 
 26 C        7.4770     6.3770    -0.7030 C.3   1 <1>  -0.2400 
 27 C        6.6050     6.3910     1.6400 C.3   1 <1>  -0.2400 
 28 C        5.9870     8.2750     0.1210 C.3   1 <1>  -0.2400 
 29 H        0.8010    -1.4710    -1.0530 H     1 <1>   0.0800 
 30 H        0.2490    -1.6570     0.6060 H     1 <1>   0.0800 
 31 H        0.3530     3.8660     1.1540 H     1 <1>   0.0800 
 32 H       -0.4740     3.1500    -0.2020 H     1 <1>   0.0800 
 33 H        3.1900     1.4120     1.0130 H     1 <1>   0.0800 
 34 H        2.5840     2.7490     1.9390 H     1 <1>   0.0800 
 35 H        0.6950     5.1950    -0.9040 H     1 <1>   0.0800 
 36 H        1.3160     3.7840    -1.7130 H     1 <1>   0.0800 
 37 H        3.6100     2.7860    -0.9050 H     1 <1>   0.0800 
 38 H        4.3800     3.5130     0.4730 H     1 <1>   0.0800 
 39 H        1.3270    -3.3060     1.9660 H     1 <1>   0.1500 
 40 H        3.3900    -1.7650    -1.4360 H     1 <1>   0.1500 
 41 H        3.1540    -4.8920     2.3520 H     1 <1>   0.1500 
 42 H        5.2160    -3.3580    -1.0460 H     1 <1>   0.1500 
 43 H        2.8670     5.3570    -2.2570 H     1 <1>   0.3700 
 44 H        5.1020    -4.9240     0.8480 H     1 <1>   0.1500 
 45 H        1.4680     8.5650     1.4840 H     1 <1>   0.0800 
 46 H        2.9040     7.8850     2.2520 H     1 <1>   0.0800 
 47 H        1.3050     7.2560     2.6570 H     1 <1>   0.0800 
 48 H        7.6200     5.3120    -0.6810 H     1 <1>   0.0800 
 49 H        8.3780     6.8490    -0.3540 H     1 <1>   0.0800 
 50 H        7.3180     6.6930    -1.7170 H     1 <1>   0.0800 
 51 H        6.8060     5.3370     1.7110 H     1 <1>   0.0800 
 52 H        5.7680     6.6280     2.2740 H     1 <1>   0.0800 
 53 H        7.4660     6.9260     1.9980 H     1 <1>   0.0800 
 54 H        5.8280     8.5890    -0.8940 H     1 <1>   0.0800 
 55 H        6.8140     8.8400     0.5100 H     1 <1>   0.0800 
 56 H        5.1130     8.5030     0.7040 H     1 <1>   0.0800 
@<TRIPOS>BOND
  1   1   2  2   
  2   2   3  1   
  3   2   4  am  
  4   3   5  1   
  5   4   6  1   
  6   4   7  1   
  7   5   8  1   
  8   5  29  1   
  9   5  30  1   
 10   6   9  1   
 11   6  31  1   
 12   6  32  1   
 13   7  10  1   
 14   7  33  1   
 15   7  34  1   
 16   8  11  ar  
 17   8  12  ar  
 18   9  13  1   
 19   9  35  1   
 20   9  36  1   
 21  10  13  1   
 22  10  37  1   
 23  10  38  1   
 24  11  14  ar  
 25  11  39  1   
 26  12  15  ar  
 27  12  40  1   
 28  13  16  1   
 29  13  17  1   
 30  14  18  ar  
 31  14  41  1   
 32  15  18  ar  
 33  15  42  1   
 34  16  19  am  
 35  16  43  1   
 36  17  20  2   
 37  17  21  1   
 38  18  44  1   
 39  19  22  2   
 40  19  23  1   
 41  21  24  1   
 42  23  25  1   
 43  24  45  1   
 44  24  46  1   
 45  24  47  1   
 46  25  26  1   
 47  25  27  1   
 48  25  28  1   
 49  26  48  1   
 50  26  49  1   
 51  26  50  1   
 52  27  51  1   
 53  27  52  1   
 54  27  53  1   
 55  28  54  1   
 56  28  55  1   
 57  28  56  1   
@<TRIPOS>SUBSTRUCTURE
  1 ****  10 GROUP 4 **** **** 0

# MOE 2024.06 (io_trps.svl 2023.06)
