@<TRIPOS>MOLECULE
NONAME
47 49 1 0 0 
SMALL
USER_CHARGES


@<TRIPOS>ATOM
  1 CL      -0.8050    -0.7140    -0.1580 Cl    1 <1>  -0.1770 
  2 C       -2.0300     0.5330    -0.1110 C.ar  1 <1>   0.1770 
  3 C       -3.3110     0.2340     0.3370 C.ar  1 <1>  -0.1440 
  4 C       -1.6840     1.8000    -0.5370 C.ar  1 <1>  -0.1500 
  5 C       -4.2640     1.2500     0.3680 C.ar  1 <1>  -0.1440 
  6 C       -3.6290    -1.1830     0.7820 C.3   1 <1>   0.4870 
  7 C       -2.6360     2.8000    -0.5140 C.ar  1 <1>  -0.1500 
  8 C       -3.9150     2.5230    -0.0630 C.ar  1 <1>  -0.1500 
  9 C       -5.6840     1.0200     0.8710 C.3   1 <1>  -0.0960 
 10 N       -3.5670    -2.1020    -0.3890 N.4   1 <1>  -0.9590 
 11 C       -4.6330    -1.7830    -1.3890 C.3   1 <1>   0.3430 
 12 C       -3.7900    -3.5140     0.0460 C.3   1 <1>   0.3430 
 13 C       -5.7740    -2.7580    -1.0960 C.3   1 <1>   0.2000 
 14 C       -5.0180    -4.0290    -0.7120 C.3   1 <1>  -0.0800 
 15 O       -6.4680    -2.2820     0.0230 O.3   1 <1>  -0.5600 
 16 C       -5.8320    -5.0680     0.0840 C.3   1 <1>   0.0200 
 17 C       -7.8600    -2.2900    -0.0930 C.3   1 <1>   0.0400 
 18 C       -4.9860    -6.2810     0.4140 C.2   1 <1>  -0.0400 
 19 O       -3.9790    -6.1670     1.2390 O.3   1 <1>  -0.0190 
 20 C       -5.0430    -7.5590     0.0110 C.2   1 <1>  -0.1500 
 21 N       -3.3490    -7.2910     1.3950 N.2   1 <1>  -0.4100 
 22 C       -3.9710    -8.1530     0.6730 C.2   1 <1>   0.1080 
 23 C       -3.5840    -9.6110     0.5640 C.3   1 <1>  -0.0590 
 24 H       -0.6840     2.0010    -0.8790 H     1 <1>   0.1500 
 25 H       -4.6100    -1.2260     1.2260 H     1 <1>   0.0800 
 26 H       -2.9100    -1.4870     1.5250 H     1 <1>   0.0800 
 27 H       -2.3840     3.7950    -0.8430 H     1 <1>   0.1500 
 28 H       -4.6410     3.3200    -0.0480 H     1 <1>   0.1500 
 29 H       -6.2130     1.9530     0.9630 H     1 <1>   0.0800 
 30 H       -5.6740     0.5570     1.8420 H     1 <1>   0.0800 
 31 H       -6.2310     0.3980     0.1880 H     1 <1>   0.0800 
 32 H       -2.6320    -1.9890    -0.8070 H     1 <1>   0.4500 
 33 H       -4.9640    -0.7600    -1.3270 H     1 <1>   0.0800 
 34 H       -4.2580    -1.9710    -2.3820 H     1 <1>   0.0800 
 35 H       -2.9290    -4.1310    -0.1600 H     1 <1>   0.0800 
 36 H       -3.9890    -3.5460     1.1060 H     1 <1>   0.0800 
 37 H       -6.4370    -2.8810    -1.9370 H     1 <1>   0.0800 
 38 H       -4.6670    -4.5000    -1.6140 H     1 <1>   0.0800 
 39 H       -6.6820    -5.3810    -0.4960 H     1 <1>   0.0800 
 40 H       -6.1970    -4.6450     1.0050 H     1 <1>   0.0800 
 41 H       -8.2780    -1.9340     0.8330 H     1 <1>   0.0800 
 42 H       -8.2020    -3.2930    -0.2790 H     1 <1>   0.0800 
 43 H       -8.1570    -1.6350    -0.8950 H     1 <1>   0.0800 
 44 H       -5.7270    -8.0480    -0.6580 H     1 <1>   0.1500 
 45 H       -4.3970   -10.2300     0.8960 H     1 <1>   0.0800 
 46 H       -2.7230    -9.8100     1.1770 H     1 <1>   0.0800 
 47 H       -3.3470    -9.8530    -0.4560 H     1 <1>   0.0800 
@<TRIPOS>BOND
  1   1   2  1   
  2   2   3  ar  
  3   2   4  ar  
  4   3   5  ar  
  5   3   6  1   
  6   4   7  ar  
  7   4  24  1   
  8   5   8  ar  
  9   5   9  1   
 10   6  10  1   
 11   6  25  1   
 12   6  26  1   
 13   7   8  ar  
 14   7  27  1   
 15   8  28  1   
 16   9  29  1   
 17   9  30  1   
 18   9  31  1   
 19  10  11  1   
 20  10  12  1   
 21  10  32  1   
 22  11  13  1   
 23  11  33  1   
 24  11  34  1   
 25  12  14  1   
 26  12  35  1   
 27  12  36  1   
 28  13  14  1   
 29  13  15  1   
 30  13  37  1   
 31  14  16  1   
 32  14  38  1   
 33  15  17  1   
 34  16  18  1   
 35  16  39  1   
 36  16  40  1   
 37  17  41  1   
 38  17  42  1   
 39  17  43  1   
 40  18  19  1   
 41  18  20  2   
 42  19  21  1   
 43  20  22  1   
 44  20  44  1   
 45  21  22  2   
 46  22  23  1   
 47  23  45  1   
 48  23  46  1   
 49  23  47  1   
@<TRIPOS>SUBSTRUCTURE
  1 ****  10 GROUP 4 **** **** 0

# MOE 2024.06 (io_trps.svl 2023.06)
