@<TRIPOS>MOLECULE
NONAME
35 37 1 0 0 
SMALL
USER_CHARGES


@<TRIPOS>ATOM
  1 S        0.2980    -0.3800    -0.1620 S.3   1 <1>  -0.0800 
  2 C       -1.4200    -0.1270    -0.1420 C.2   1 <1>  -0.1400 
  3 C        0.5080     1.2820     0.3690 C.2   1 <1>   0.1980 
  4 C       -1.6740     1.1290     0.2340 C.2   1 <1>   0.0460 
  5 C       -2.4080    -1.2100    -0.5100 C.3   1 <1>   0.0200 
  6 N       -0.5850     1.9280     0.5300 N.2   1 <1>  -0.5650 
  7 C        1.9440     1.7500     0.5680 C.3   1 <1>   0.3890 
  8 C       -3.0850     1.6710     0.3410 C.3   1 <1>   0.0210 
  9 C       -3.8160    -0.7630    -0.0670 C.3   1 <1>  -0.1600 
 10 N        1.9790     3.1480     1.0550 N.pl3 1 <1>  -0.8690 
 11 C       -4.0850     0.7290    -0.3680 C.3   1 <1>  -0.1600 
 12 C        2.8550     4.0520     0.5790 C.ar  1 <1>   0.7200 
 13 N        2.3970     5.2920     0.5430 N.ar  1 <1>  -0.6200 
 14 N        4.0540     3.6120     0.2050 N.ar  1 <1>  -0.6200 
 15 C        3.2280     6.2070     0.0940 C.ar  1 <1>   0.3930 
 16 C        4.8790     4.5350    -0.2410 C.ar  1 <1>   0.1600 
 17 O        2.7110     7.4580     0.0820 O.3   1 <1>  -0.3630 
 18 C        4.5100     5.8530    -0.3160 C.ar  1 <1>   0.1900 
 19 C        3.4140     8.6160    -0.3100 C.3   1 <1>   0.0400 
 20 F        5.3900     6.7160    -0.7750 F     1 <1>  -0.1900 
 21 H       -2.1450    -2.1340    -0.0250 H     1 <1>   0.0800 
 22 H       -2.3820    -1.3580    -1.5750 H     1 <1>   0.0800 
 23 H        2.4680     1.6680    -0.3680 H     1 <1>   0.0800 
 24 H        2.4290     1.1180     1.2900 H     1 <1>   0.0800 
 25 H       -3.1270     2.6490    -0.1050 H     1 <1>   0.0800 
 26 H       -3.3340     1.7630     1.3830 H     1 <1>   0.0800 
 27 H       -3.9100    -0.9200     0.9940 H     1 <1>   0.0800 
 28 H       -4.5550    -1.3750    -0.5550 H     1 <1>   0.0800 
 29 H        1.0320     3.5300     1.1330 H     1 <1>   0.4000 
 30 H       -4.0070     0.8850    -1.4310 H     1 <1>   0.0800 
 31 H       -5.0860     0.9880    -0.0730 H     1 <1>   0.0800 
 32 H        5.8640     4.2360    -0.5530 H     1 <1>   0.1500 
 33 H        2.7570     9.4590    -0.1920 H     1 <1>   0.0800 
 34 H        3.7010     8.5210    -1.3420 H     1 <1>   0.0800 
 35 H        4.2760     8.7350     0.3230 H     1 <1>   0.0800 
@<TRIPOS>BOND
  1   1   2  1   
  2   1   3  1   
  3   2   4  2   
  4   2   5  1   
  5   3   6  2   
  6   3   7  1   
  7   4   6  1   
  8   4   8  1   
  9   5   9  1   
 10   5  21  1   
 11   5  22  1   
 12   7  10  1   
 13   7  23  1   
 14   7  24  1   
 15   8  11  1   
 16   8  25  1   
 17   8  26  1   
 18   9  11  1   
 19   9  27  1   
 20   9  28  1   
 21  10  12  1   
 22  10  29  1   
 23  11  30  1   
 24  11  31  1   
 25  12  13  ar  
 26  12  14  ar  
 27  13  15  ar  
 28  14  16  ar  
 29  15  17  1   
 30  15  18  ar  
 31  16  18  ar  
 32  16  32  1   
 33  17  19  1   
 34  18  20  1   
 35  19  33  1   
 36  19  34  1   
 37  19  35  1   
@<TRIPOS>SUBSTRUCTURE
  1 ****  10 GROUP 4 **** **** 0

# MOE 2024.06 (io_trps.svl 2023.06)
