@<TRIPOS>MOLECULE
NONAME
44 45 1 0 0 
SMALL
USER_CHARGES


@<TRIPOS>ATOM
  1 S       -0.3880    -1.3430    -2.3840 S.3   1 <1>  -0.0800 
  2 C        0.4870    -1.4850    -0.8570 C.2   1 <1>  -0.0450 
  3 C       -0.1760     0.3920    -2.4240 C.2   1 <1>  -0.1100 
  4 C        0.8930    -0.2480    -0.4630 C.2   1 <1>  -0.1810 
  5 C        0.6130    -2.7990    -0.2830 C.2   1 <1>   0.7150 
  6 C        0.5140     0.8060    -1.3460 C.2   1 <1>  -0.1500 
  7 C        1.7070     0.0620     0.7810 C.3   1 <1>  -0.0590 
  8 O        1.3500    -3.6230    -0.7900 O.2   1 <1>  -0.5700 
  9 N       -0.1210    -3.1440     0.8310 N.am  1 <1>  -0.6600 
 10 C       -0.0540    -4.5300     1.3930 C.3   1 <1>   0.3210 
 11 C       -1.1940    -2.2780     1.3950 C.3   1 <1>   0.1400 
 12 C       -1.2890    -5.3420     1.0020 C.2   1 <1>   0.0460 
 13 C       -2.4240    -2.2760     0.4670 C.3   1 <1>   0.3430 
 14 N       -2.4700    -5.2050     1.6510 N.2   1 <1>  -0.5650 
 15 C       -1.3850    -6.2730     0.0240 C.2   1 <1>  -0.3320 
 16 N       -3.6460    -1.6910     1.1150 N.4   1 <1>  -0.9590 
 17 C       -3.2370    -6.0760     1.0760 C.2   1 <1>   0.0360 
 18 N       -2.6390    -6.7540     0.0760 N.pl3 1 <1>   0.0330 
 19 C       -0.3590    -6.7710    -0.9830 C.3   1 <1>  -0.0600 
 20 C       -4.1900    -2.6280     2.1510 C.3   1 <1>   0.2630 
 21 C       -4.6830    -1.4150     0.0760 C.3   1 <1>   0.2630 
 22 H       -0.5870     0.9270    -3.2620 H     1 <1>   0.1500 
 23 H        0.7820     1.8290    -1.1430 H     1 <1>   0.1500 
 24 H        1.9290    -0.8360     1.3300 H     1 <1>   0.0800 
 25 H        1.1680     0.7360     1.4210 H     1 <1>   0.0800 
 26 H        2.6370     0.5230     0.5000 H     1 <1>   0.0800 
 27 H        0.0100    -4.4820     2.4650 H     1 <1>   0.0800 
 28 H        0.8290    -5.0350     1.0470 H     1 <1>   0.0800 
 29 H       -0.8230    -1.2750     1.5110 H     1 <1>   0.0800 
 30 H       -1.4620    -2.6540     2.3660 H     1 <1>   0.0800 
 31 H       -2.6340    -3.2890     0.1640 H     1 <1>   0.0800 
 32 H       -2.1800    -1.7080    -0.4150 H     1 <1>   0.0800 
 33 H       -3.3880    -0.8010     1.5650 H     1 <1>   0.4500 
 34 H       -4.2600    -6.2680     1.3530 H     1 <1>   0.1500 
 35 H       -3.0460    -7.4920    -0.5080 H     1 <1>   0.2700 
 36 H        0.5710    -6.2400    -0.8830 H     1 <1>   0.0800 
 37 H       -0.7190    -6.6230    -1.9850 H     1 <1>   0.0800 
 38 H       -0.1670    -7.8190    -0.8330 H     1 <1>   0.0800 
 39 H       -4.4540    -3.5700     1.6980 H     1 <1>   0.0800 
 40 H       -5.0670    -2.2090     2.6160 H     1 <1>   0.0800 
 41 H       -3.4540    -2.8210     2.9140 H     1 <1>   0.0800 
 42 H       -4.9690    -2.3290    -0.4180 H     1 <1>   0.0800 
 43 H       -4.2990    -0.7300    -0.6630 H     1 <1>   0.0800 
 44 H       -5.5590    -0.9780     0.5290 H     1 <1>   0.0800 
@<TRIPOS>BOND
  1   1   2  1   
  2   1   3  1   
  3   2   4  2   
  4   2   5  1   
  5   3   6  2   
  6   3  22  1   
  7   4   6  1   
  8   4   7  1   
  9   5   8  2   
 10   5   9  am  
 11   6  23  1   
 12   7  24  1   
 13   7  25  1   
 14   7  26  1   
 15   9  10  1   
 16   9  11  1   
 17  10  12  1   
 18  10  27  1   
 19  10  28  1   
 20  11  13  1   
 21  11  29  1   
 22  11  30  1   
 23  12  14  1   
 24  12  15  2   
 25  13  16  1   
 26  13  31  1   
 27  13  32  1   
 28  14  17  2   
 29  15  18  1   
 30  15  19  1   
 31  16  20  1   
 32  16  21  1   
 33  16  33  1   
 34  17  18  1   
 35  17  34  1   
 36  18  35  1   
 37  19  36  1   
 38  19  37  1   
 39  19  38  1   
 40  20  39  1   
 41  20  40  1   
 42  20  41  1   
 43  21  42  1   
 44  21  43  1   
 45  21  44  1   
@<TRIPOS>SUBSTRUCTURE
  1 ****   9 GROUP 4 **** **** 0

# MOE 2024.06 (io_trps.svl 2023.06)
