@<TRIPOS>MOLECULE
NONAME
41 43 1 0 0 
SMALL
USER_CHARGES


@<TRIPOS>ATOM
  1 O        0.9070     1.7140    -1.0390 O.2   1 <1>  -0.5700 
  2 C        0.5010     2.8350    -0.8670 C.2   1 <1>   0.5690 
  3 N       -0.4280     3.0990     0.0750 N.am  1 <1>  -0.7300 
  4 C        1.0040     3.9820    -1.7430 C.3   1 <1>   0.1810 
  5 C       -1.0600     4.4300     0.2660 C.3   1 <1>   0.3640 
  6 O        0.8320     5.2350    -1.1240 O.3   1 <1>  -0.5600 
  7 C       -2.5690     4.2570     0.0940 C.ar  1 <1>  -0.1440 
  8 C       -0.5000     5.5180    -0.6950 C.3   1 <1>   0.2610 
  9 C       -3.0980     3.5180    -0.9590 C.ar  1 <1>  -0.1500 
 10 C       -3.4400     4.8490     0.9980 C.ar  1 <1>  -0.1500 
 11 C       -0.5520     6.8890    -0.0090 C.2   1 <1>   0.5690 
 12 C       -4.4660     3.3700    -1.0990 C.ar  1 <1>  -0.1500 
 13 C       -4.8090     4.7030     0.8580 C.ar  1 <1>  -0.1500 
 14 O       -1.6020     7.3080     0.4190 O.2   1 <1>  -0.5700 
 15 N        0.5960     7.6040     0.1150 N.am  1 <1>  -0.7300 
 16 C       -5.3240     3.9620    -0.1900 C.ar  1 <1>  -0.1500 
 17 C        0.7480     8.9270     0.7390 C.3   1 <1>   0.2200 
 18 C        1.3940     9.8700    -0.2680 C.3   1 <1>  -0.1600 
 19 C        1.7890     8.8280     1.8460 C.3   1 <1>  -0.1600 
 20 C        2.8980     9.5740    -0.2110 C.3   1 <1>  -0.1600 
 21 C        3.1510     8.9010     1.1450 C.3   1 <1>  -0.1600 
 22 H       -0.8130     2.3230     0.6150 H     1 <1>   0.3700 
 23 H        0.4740     3.9840    -2.6780 H     1 <1>   0.0800 
 24 H        2.0530     3.8500    -1.9350 H     1 <1>   0.0800 
 25 H       -0.8610     4.7400     1.2780 H     1 <1>   0.0800 
 26 H       -1.1170     5.5670    -1.5740 H     1 <1>   0.0800 
 27 H       -2.4490     3.0470    -1.6770 H     1 <1>   0.1500 
 28 H       -3.0590     5.4390     1.8150 H     1 <1>   0.1500 
 29 H       -4.8650     2.7940    -1.9160 H     1 <1>   0.1500 
 30 H       -5.4730     5.1690     1.5650 H     1 <1>   0.1500 
 31 H        1.4520     7.1970    -0.2710 H     1 <1>   0.3700 
 32 H       -6.3880     3.8490    -0.2980 H     1 <1>   0.1500 
 33 H       -0.2010     9.2930     1.0960 H     1 <1>   0.0800 
 34 H        0.9830     9.7550    -1.2550 H     1 <1>   0.0800 
 35 H        1.2260    10.8810     0.0590 H     1 <1>   0.0800 
 36 H        1.6820     9.6840     2.4900 H     1 <1>   0.0800 
 37 H        1.6710     7.9370     2.4370 H     1 <1>   0.0800 
 38 H        3.1680     8.8990    -1.0060 H     1 <1>   0.0800 
 39 H        3.4710    10.4790    -0.3150 H     1 <1>   0.0800 
 40 H        3.8570     9.4580     1.7360 H     1 <1>   0.0800 
 41 H        3.5360     7.9080     0.9900 H     1 <1>   0.0800 
@<TRIPOS>BOND
  1   1   2  2   
  2   2   3  am  
  3   2   4  1   
  4   3   5  1   
  5   3  22  1   
  6   4   6  1   
  7   4  23  1   
  8   4  24  1   
  9   5   7  1   
 10   5   8  1   
 11   5  25  1   
 12   6   8  1   
 13   7   9  ar  
 14   7  10  ar  
 15   8  11  1   
 16   8  26  1   
 17   9  12  ar  
 18   9  27  1   
 19  10  13  ar  
 20  10  28  1   
 21  11  14  2   
 22  11  15  am  
 23  12  16  ar  
 24  12  29  1   
 25  13  16  ar  
 26  13  30  1   
 27  15  17  1   
 28  15  31  1   
 29  16  32  1   
 30  17  18  1   
 31  17  19  1   
 32  17  33  1   
 33  18  20  1   
 34  18  34  1   
 35  18  35  1   
 36  19  21  1   
 37  19  36  1   
 38  19  37  1   
 39  20  21  1   
 40  20  38  1   
 41  20  39  1   
 42  21  40  1   
 43  21  41  1   
@<TRIPOS>SUBSTRUCTURE
  1 ****   8 GROUP 4 **** **** 0

# MOE 2024.06 (io_trps.svl 2023.06)
