@<TRIPOS>MOLECULE
NONAME
46 47 1 0 0 
SMALL
USER_CHARGES


@<TRIPOS>ATOM
  1 O       -0.1830    -0.1190    -0.3590 O.2   1 <1>  -0.5700 
  2 C       -1.1630     0.5810    -0.2370 C.2   1 <1>   0.5690 
  3 N       -2.3940     0.0290     0.0290 N.am  1 <1>  -0.6600 
  4 C       -0.9640     2.0880    -0.4420 C.3   1 <1>   0.1810 
  5 C       -2.5580    -1.4300     0.3160 C.3   1 <1>   0.1400 
  6 C       -3.6750     0.7920     0.1420 C.3   1 <1>   0.1400 
  7 O       -1.5180     2.8680     0.5910 O.3   1 <1>  -0.5600 
  8 C       -3.7520    -2.0210    -0.4520 C.3   1 <1>   0.3440 
  9 C       -4.8200     0.0830    -0.6200 C.3   1 <1>   0.2000 
 10 C       -1.2320     4.2260     0.4910 C.3   1 <1>   0.0400 
 11 O       -4.9050    -1.2580    -0.2100 O.3   1 <1>  -0.5600 
 12 C       -4.0030    -3.4680    -0.0350 C.ar  1 <1>  -0.1430 
 13 C       -6.2190     0.7540    -0.4620 C.3   1 <1>   0.0000 
 14 C       -3.4070    -4.5010    -0.7460 C.ar  1 <1>  -0.1500 
 15 C       -4.8080    -3.7770     1.0530 C.ar  1 <1>  -0.1500 
 16 C       -7.2470     0.0090    -1.3340 C.3   1 <1>  -0.2400 
 17 C       -6.7160     0.7270     0.9960 C.3   1 <1>  -0.2400 
 18 C       -6.1830     2.2190    -0.9360 C.3   1 <1>  -0.2400 
 19 C       -3.6110    -5.8190    -0.3750 C.ar  1 <1>  -0.1500 
 20 C       -5.0140    -5.0950     1.4250 C.ar  1 <1>  -0.1500 
 21 C       -4.4150    -6.1170     0.7110 C.ar  1 <1>  -0.1500 
 22 H       -1.4170     2.3800    -1.3710 H     1 <1>   0.0800 
 23 H        0.0920     2.2890    -0.4850 H     1 <1>   0.0800 
 24 H       -1.6680    -1.9720     0.0480 H     1 <1>   0.0800 
 25 H       -2.7180    -1.5660     1.3710 H     1 <1>   0.0800 
 26 H       -3.9280     0.8850     1.1830 H     1 <1>   0.0800 
 27 H       -3.5540     1.7800    -0.2580 H     1 <1>   0.0800 
 28 H       -3.5520    -1.9880    -1.5090 H     1 <1>   0.0800 
 29 H       -4.5730     0.0820    -1.6670 H     1 <1>   0.0800 
 30 H       -1.7070     4.7300     1.3140 H     1 <1>   0.0800 
 31 H       -1.6180     4.6060    -0.4390 H     1 <1>   0.0800 
 32 H       -0.1660     4.3690     0.5480 H     1 <1>   0.0800 
 33 H       -2.7780    -4.2850    -1.5920 H     1 <1>   0.1500 
 34 H       -5.2810    -2.9880     1.6120 H     1 <1>   0.1500 
 35 H       -8.2150     0.4720    -1.2670 H     1 <1>   0.0800 
 36 H       -7.3440    -1.0140    -1.0130 H     1 <1>   0.0800 
 37 H       -6.9410     0.0090    -2.3650 H     1 <1>   0.0800 
 38 H       -7.7080     1.1380     1.0640 H     1 <1>   0.0800 
 39 H       -6.0750     1.3000     1.6390 H     1 <1>   0.0800 
 40 H       -6.7470    -0.2850     1.3620 H     1 <1>   0.0800 
 41 H       -7.1720     2.6440    -0.9170 H     1 <1>   0.0800 
 42 H       -5.8110     2.2820    -1.9430 H     1 <1>   0.0800 
 43 H       -5.5600     2.8210    -0.2990 H     1 <1>   0.0800 
 44 H       -3.1450    -6.6130    -0.9320 H     1 <1>   0.1500 
 45 H       -5.6410    -5.3220     2.2690 H     1 <1>   0.1500 
 46 H       -4.5740    -7.1410     0.9990 H     1 <1>   0.1500 
@<TRIPOS>BOND
  1   1   2  2   
  2   2   3  am  
  3   2   4  1   
  4   3   5  1   
  5   3   6  1   
  6   4   7  1   
  7   4  22  1   
  8   4  23  1   
  9   5   8  1   
 10   5  24  1   
 11   5  25  1   
 12   6   9  1   
 13   6  26  1   
 14   6  27  1   
 15   7  10  1   
 16   8  11  1   
 17   8  12  1   
 18   8  28  1   
 19   9  11  1   
 20   9  13  1   
 21   9  29  1   
 22  10  30  1   
 23  10  31  1   
 24  10  32  1   
 25  12  14  ar  
 26  12  15  ar  
 27  13  16  1   
 28  13  17  1   
 29  13  18  1   
 30  14  19  ar  
 31  14  33  1   
 32  15  20  ar  
 33  15  34  1   
 34  16  35  1   
 35  16  36  1   
 36  16  37  1   
 37  17  38  1   
 38  17  39  1   
 39  17  40  1   
 40  18  41  1   
 41  18  42  1   
 42  18  43  1   
 43  19  21  ar  
 44  19  44  1   
 45  20  21  ar  
 46  20  45  1   
 47  21  46  1   
@<TRIPOS>SUBSTRUCTURE
  1 ****   8 GROUP 4 **** **** 0

# MOE 2024.06 (io_trps.svl 2023.06)
