@<TRIPOS>MOLECULE
NONAME
45 48 1 0 0 
SMALL
USER_CHARGES


@<TRIPOS>ATOM
  1 O       -0.3750    -0.4450     1.3050 O.3   1 <1>  -0.5600 
  2 C       -0.3260    -1.7500     0.7680 C.3   1 <1>   0.2800 
  3 C       -1.6080     0.1950     1.4720 C.3   1 <1>   0.1200 
  4 C       -1.7580    -2.3500     0.5730 C.3   1 <1>   0.2000 
  5 C        0.4790    -2.5860     1.7920 C.3   1 <1>  -0.1600 
  6 C        0.4450    -1.6040    -0.5650 C.3   1 <1>  -0.1600 
  7 C       -2.4090     0.0940     0.1740 C.3   1 <1>  -0.1600 
  8 O       -1.7110    -3.6140    -0.0370 O.3   1 <1>  -0.6800 
  9 C       -2.7500    -1.3730    -0.1380 C.3   1 <1>   0.2800 
 10 C        1.4390    -3.5680     1.1200 C.3   1 <1>   0.2090 
 11 C        1.9510    -1.5430    -0.3290 C.3   1 <1>   0.2090 
 12 O       -4.0060    -1.6030     0.3890 O.3   1 <1>  -0.6800 
 13 C       -2.8980    -1.5820    -1.6520 C.3   1 <1>  -0.2400 
 14 N        2.4090    -2.8310     0.2580 N.pl3 1 <1>  -0.8380 
 15 C        3.5210    -3.4830    -0.2440 C.ar  1 <1>   0.4100 
 16 N        3.4440    -4.7870    -0.4000 N.ar  1 <1>  -0.6200 
 17 C        4.6980    -2.7960    -0.5880 C.ar  1 <1>   0.0000 
 18 C        4.5170    -5.3930    -0.9220 C.ar  1 <1>   0.4700 
 19 C        5.7240    -3.5470    -1.1200 C.ar  1 <1>   0.1050 
 20 C        5.1830    -1.4660    -0.5310 C.2   1 <1>  -0.1500 
 21 N        5.6550    -4.8670    -1.3030 N.ar  1 <1>  -0.5670 
 22 N        6.7800    -2.7360    -1.4010 N.pl3 1 <1>   0.0330 
 23 C        6.4420    -1.4610    -1.0340 C.2   1 <1>  -0.3020 
 24 H       -2.1300    -0.2640     2.2960 H     1 <1>   0.0800 
 25 H       -1.4090     1.2240     1.7180 H     1 <1>   0.0800 
 26 H       -2.1480    -2.5270     1.5600 H     1 <1>   0.0800 
 27 H        1.0660    -1.9390     2.4190 H     1 <1>   0.0800 
 28 H       -0.1840    -3.1390     2.4310 H     1 <1>   0.0800 
 29 H        0.2610    -2.4400    -1.2120 H     1 <1>   0.0800 
 30 H        0.1320    -0.7170    -1.0810 H     1 <1>   0.0800 
 31 H       -1.8120     0.5190    -0.6110 H     1 <1>   0.0800 
 32 H       -3.3040     0.6860     0.2490 H     1 <1>   0.0800 
 33 H       -1.4480    -3.5290    -0.9720 H     1 <1>   0.4000 
 34 H        0.8890    -4.2720     0.5180 H     1 <1>   0.0800 
 35 H        1.9810    -4.1210     1.8690 H     1 <1>   0.0800 
 36 H        2.1850    -0.7380     0.3480 H     1 <1>   0.0800 
 37 H        2.4540    -1.3670    -1.2640 H     1 <1>   0.0800 
 38 H       -4.6820    -1.1830    -0.1720 H     1 <1>   0.4000 
 39 H       -1.9490    -1.4750    -2.1410 H     1 <1>   0.0800 
 40 H       -3.5690    -0.8530    -2.0700 H     1 <1>   0.0800 
 41 H       -3.2810    -2.5650    -1.8640 H     1 <1>   0.0800 
 42 H        4.4210    -6.4580    -1.0430 H     1 <1>   0.1500 
 43 H        4.6210    -0.6360    -0.1400 H     1 <1>   0.1500 
 44 H        7.6620    -3.0650    -1.8020 H     1 <1>   0.2700 
 45 H        7.1200    -0.6330    -1.1490 H     1 <1>   0.1500 
@<TRIPOS>BOND
  1   1   2  1   
  2   1   3  1   
  3   2   4  1   
  4   2   5  1   
  5   2   6  1   
  6   3   7  1   
  7   3  24  1   
  8   3  25  1   
  9   4   8  1   
 10   4   9  1   
 11   4  26  1   
 12   5  10  1   
 13   5  27  1   
 14   5  28  1   
 15   6  11  1   
 16   6  29  1   
 17   6  30  1   
 18   7   9  1   
 19   7  31  1   
 20   7  32  1   
 21   8  33  1   
 22   9  12  1   
 23   9  13  1   
 24  10  14  1   
 25  10  34  1   
 26  10  35  1   
 27  11  14  1   
 28  11  36  1   
 29  11  37  1   
 30  12  38  1   
 31  13  39  1   
 32  13  40  1   
 33  13  41  1   
 34  14  15  1   
 35  15  16  ar  
 36  15  17  ar  
 37  16  18  ar  
 38  17  19  ar  
 39  17  20  1   
 40  18  21  ar  
 41  18  42  1   
 42  19  21  ar  
 43  19  22  1   
 44  20  23  2   
 45  20  43  1   
 46  22  23  1   
 47  22  44  1   
 48  23  45  1   
@<TRIPOS>SUBSTRUCTURE
  1 ****  11 GROUP 4 **** **** 0

# MOE 2024.06 (io_trps.svl 2023.06)
