@<TRIPOS>MOLECULE
NONAME
52 55 1 0 0 
SMALL
USER_CHARGES


@<TRIPOS>ATOM
  1 O       -0.2420     3.3860    -4.4150 O.2   1 <1>  -0.5700 
  2 C       -0.4290     4.3470    -3.7130 C.2   1 <1>   0.5690 
  3 N        0.1700     4.4470    -2.5060 N.am  1 <1>  -0.7300 
  4 C       -1.3780     5.4610    -4.1700 C.3   1 <1>   0.1810 
  5 C       -0.0160     5.6020    -1.5950 C.3   1 <1>   0.3640 
  6 O       -1.2150     6.6560    -3.4370 O.3   1 <1>  -0.5600 
  7 C       -0.1580     5.0780    -0.1710 C.ar  1 <1>  -0.1440 
  8 C       -1.2180     6.4780    -2.0270 C.3   1 <1>   0.2610 
  9 C       -1.0780     4.0860     0.1440 C.ar  1 <1>  -0.1500 
 10 C        0.6450     5.5980     0.8340 C.ar  1 <1>  -0.1500 
 11 C       -1.1440     7.8220    -1.3050 C.2   1 <1>   0.5690 
 12 C       -1.1920     3.6230     1.4440 C.ar  1 <1>  -0.1500 
 13 C        0.5310     5.1350     2.1330 C.ar  1 <1>  -0.1500 
 14 O       -1.8780     8.0360    -0.3690 O.2   1 <1>  -0.5700 
 15 N       -0.2200     8.7300    -1.7090 N.am  1 <1>  -0.7300 
 16 C       -0.3870     4.1470     2.4390 C.ar  1 <1>  -0.1500 
 17 C        0.2910     9.8230    -0.8700 C.3   1 <1>   0.2840 
 18 C        1.4700     9.2870    -0.0760 C.ar  1 <1>  -0.1430 
 19 C        2.6630     8.9330    -0.7110 C.ar  1 <1>   0.0830 
 20 C        1.3440     9.1350     1.2980 C.ar  1 <1>  -0.1500 
 21 O        2.7300     9.0880    -2.0610 O.3   1 <1>  -0.3630 
 22 C        3.7260     8.4310     0.0410 C.ar  1 <1>  -0.1500 
 23 C        2.4070     8.6390     2.0270 C.ar  1 <1>  -0.1430 
 24 C        3.9190     8.8320    -2.7750 C.3   1 <1>   0.0400 
 25 C        3.5790     8.2900     1.4080 C.ar  1 <1>  -0.1430 
 26 C        2.4770     8.4010     3.5140 C.3   1 <1>  -0.0170 
 27 C        4.5870     7.7700     2.4020 C.3   1 <1>  -0.0170 
 28 C        3.7550     7.5610     3.6790 C.3   1 <1>  -0.1600 
 29 H        0.7770     3.6920    -2.1830 H     1 <1>   0.3700 
 30 H       -2.3950     5.1320    -4.0610 H     1 <1>   0.0800 
 31 H       -1.1940     5.6830    -5.2050 H     1 <1>   0.0800 
 32 H        0.8750     6.2050    -1.6480 H     1 <1>   0.0800 
 33 H       -2.1400     5.9990    -1.7520 H     1 <1>   0.0800 
 34 H       -1.7090     3.6650    -0.6190 H     1 <1>   0.1500 
 35 H        1.3630     6.3700     0.6170 H     1 <1>   0.1500 
 36 H       -1.9070     2.8550     1.6810 H     1 <1>   0.1500 
 37 H        1.1580     5.5480     2.9030 H     1 <1>   0.1500 
 38 H        0.3820     8.5110    -2.5060 H     1 <1>   0.3700 
 39 H       -0.4760     3.7890     3.4500 H     1 <1>   0.1500 
 40 H        0.6030    10.6420    -1.4930 H     1 <1>   0.0800 
 41 H       -0.4860    10.1710    -0.2100 H     1 <1>   0.0800 
 42 H        0.4240     9.3910     1.7960 H     1 <1>   0.1500 
 43 H        4.6570     8.1490    -0.4090 H     1 <1>   0.1500 
 44 H        3.7430     9.0590    -3.8110 H     1 <1>   0.0800 
 45 H        4.1760     7.7940    -2.6670 H     1 <1>   0.0800 
 46 H        4.7000     9.4650    -2.3910 H     1 <1>   0.0800 
 47 H        2.5740     9.3450     4.0210 H     1 <1>   0.0800 
 48 H        1.6070     7.8810     3.8750 H     1 <1>   0.0800 
 49 H        5.0370     6.8520     2.0680 H     1 <1>   0.0800 
 50 H        5.3480     8.5140     2.5620 H     1 <1>   0.0800 
 51 H        3.4810     6.5230     3.7460 H     1 <1>   0.0800 
 52 H        4.3030     7.8360     4.5630 H     1 <1>   0.0800 
@<TRIPOS>BOND
  1   1   2  2   
  2   2   3  am  
  3   2   4  1   
  4   3   5  1   
  5   3  29  1   
  6   4   6  1   
  7   4  30  1   
  8   4  31  1   
  9   5   7  1   
 10   5   8  1   
 11   5  32  1   
 12   6   8  1   
 13   7   9  ar  
 14   7  10  ar  
 15   8  11  1   
 16   8  33  1   
 17   9  12  ar  
 18   9  34  1   
 19  10  13  ar  
 20  10  35  1   
 21  11  14  2   
 22  11  15  am  
 23  12  16  ar  
 24  12  36  1   
 25  13  16  ar  
 26  13  37  1   
 27  15  17  1   
 28  15  38  1   
 29  16  39  1   
 30  17  18  1   
 31  17  40  1   
 32  17  41  1   
 33  18  19  ar  
 34  18  20  ar  
 35  19  21  1   
 36  19  22  ar  
 37  20  23  ar  
 38  20  42  1   
 39  21  24  1   
 40  22  25  ar  
 41  22  43  1   
 42  23  25  ar  
 43  23  26  1   
 44  24  44  1   
 45  24  45  1   
 46  24  46  1   
 47  25  27  1   
 48  26  28  1   
 49  26  47  1   
 50  26  48  1   
 51  27  28  1   
 52  27  49  1   
 53  27  50  1   
 54  28  51  1   
 55  28  52  1   
@<TRIPOS>SUBSTRUCTURE
  1 ****  10 GROUP 4 **** **** 0

# MOE 2024.06 (io_trps.svl 2023.06)
