@<TRIPOS>MOLECULE
NONAME
41 42 1 0 0 
SMALL
USER_CHARGES


@<TRIPOS>ATOM
  1 CL       0.3150    -0.2600    -0.3460 Cl    1 <1>  -0.1770 
  2 C        1.6600     0.8510    -0.2750 C.ar  1 <1>   0.1770 
  3 C        2.9440     0.3550    -0.1630 C.ar  1 <1>  -0.1500 
  4 C        1.4180     2.2100    -0.3310 C.ar  1 <1>  -0.1500 
  5 C        4.0170     1.2300    -0.1060 C.ar  1 <1>  -0.1440 
  6 C        2.4850     3.0900    -0.2740 C.ar  1 <1>  -0.1500 
  7 C        3.7890     2.6050    -0.1610 C.ar  1 <1>   0.0820 
  8 C        5.4290     0.6730     0.0170 C.3   1 <1>  -0.0960 
  9 O        4.8750     3.4210    -0.1000 O.3   1 <1>  -0.3630 
 10 C        4.7550     4.8220    -0.1230 C.3   1 <1>   0.1200 
 11 C        6.1740     5.3940    -0.0300 C.3   1 <1>   0.3430 
 12 N        6.2070     6.8940    -0.0840 N.4   1 <1>  -0.9590 
 13 C        7.5990     7.3800    -0.2500 C.3   1 <1>   0.5230 
 14 C        5.5640     7.5360     1.1110 C.3   1 <1>   0.2630 
 15 C        7.5420     8.8420    -0.6260 C.2   1 <1>  -0.3320 
 16 N        8.5040     9.7270    -0.2740 N.pl3 1 <1>   0.3140 
 17 C        6.6210     9.5350    -1.3410 C.2   1 <1>  -0.1500 
 18 N        8.2160    10.9540    -0.7210 N.2   1 <1>  -0.7070 
 19 C        9.7440     9.4970     0.4870 C.3   1 <1>   0.0160 
 20 C        7.0970    10.8380    -1.3620 C.2   1 <1>   0.1390 
 21 H        3.0900    -0.7100    -0.1230 H     1 <1>   0.1500 
 22 H        0.4070     2.5640    -0.4180 H     1 <1>   0.1500 
 23 H        2.2710     4.1400    -0.3210 H     1 <1>   0.1500 
 24 H        5.4210    -0.4020     0.0430 H     1 <1>   0.0800 
 25 H        5.8870     1.0320     0.9200 H     1 <1>   0.0800 
 26 H        6.0210     0.9870    -0.8240 H     1 <1>   0.0800 
 27 H        4.1570     5.1160     0.7210 H     1 <1>   0.0800 
 28 H        4.2860     5.1010    -1.0500 H     1 <1>   0.0800 
 29 H        6.7440     4.9950    -0.8530 H     1 <1>   0.0800 
 30 H        6.6230     5.0550     0.8890 H     1 <1>   0.0800 
 31 H        5.7180     7.2150    -0.9300 H     1 <1>   0.4500 
 32 H        8.1010     6.8310    -1.0300 H     1 <1>   0.0800 
 33 H        8.1440     7.2500     0.6710 H     1 <1>   0.0800 
 34 H        6.0630     7.2340     2.0170 H     1 <1>   0.0800 
 35 H        4.5250     7.2560     1.1790 H     1 <1>   0.0800 
 36 H        5.6190     8.6110     1.0330 H     1 <1>   0.0800 
 37 H        5.7100     9.2200    -1.8180 H     1 <1>   0.1500 
 38 H       10.3410     8.7560    -0.0100 H     1 <1>   0.0800 
 39 H        9.5030     9.1800     1.4840 H     1 <1>   0.0800 
 40 H       10.2990    10.4180     0.5360 H     1 <1>   0.0800 
 41 H        6.6070    11.6670    -1.8490 H     1 <1>   0.1500 
@<TRIPOS>BOND
  1   1   2  1   
  2   2   3  ar  
  3   2   4  ar  
  4   3   5  ar  
  5   3  21  1   
  6   4   6  ar  
  7   4  22  1   
  8   5   7  ar  
  9   5   8  1   
 10   6   7  ar  
 11   6  23  1   
 12   7   9  1   
 13   8  24  1   
 14   8  25  1   
 15   8  26  1   
 16   9  10  1   
 17  10  11  1   
 18  10  27  1   
 19  10  28  1   
 20  11  12  1   
 21  11  29  1   
 22  11  30  1   
 23  12  13  1   
 24  12  14  1   
 25  12  31  1   
 26  13  15  1   
 27  13  32  1   
 28  13  33  1   
 29  14  34  1   
 30  14  35  1   
 31  14  36  1   
 32  15  16  1   
 33  15  17  2   
 34  16  18  1   
 35  16  19  1   
 36  17  20  1   
 37  17  37  1   
 38  18  20  2   
 39  19  38  1   
 40  19  39  1   
 41  19  40  1   
 42  20  41  1   
@<TRIPOS>SUBSTRUCTURE
  1 ****  10 GROUP 4 **** **** 0

# MOE 2024.06 (io_trps.svl 2023.06)
