@<TRIPOS>MOLECULE
NONAME
49 51 1 0 0 
SMALL
USER_CHARGES


@<TRIPOS>ATOM
  1 F        1.0400     0.2340     0.9160 F     1 <1>  -0.3400 
  2 C        1.7020    -0.2230    -0.1380 C.3   1 <1>   1.1640 
  3 F        2.9910    -0.0490     0.1260 F     1 <1>  -0.3400 
  4 F        1.4150     0.5940    -1.1440 F     1 <1>  -0.3400 
  5 C        1.3530    -1.6910    -0.4380 C.ar  1 <1>  -0.1440 
  6 C        0.3540    -2.0200    -1.3470 C.ar  1 <1>  -0.1500 
  7 C        2.0270    -2.7260     0.2010 C.ar  1 <1>  -0.1500 
  8 C        0.0380    -3.3420    -1.6020 C.ar  1 <1>  -0.1500 
  9 C        1.7060    -4.0460    -0.0580 C.ar  1 <1>  -0.1500 
 10 C        0.6950    -4.3870    -0.9550 C.ar  1 <1>   0.0860 
 11 C        0.3200    -5.7690    -1.1980 C.2   1 <1>   0.5440 
 12 O       -0.0940    -6.1190    -2.2850 O.2   1 <1>  -0.5700 
 13 N        0.3180    -6.7090    -0.1910 N.am  1 <1>  -0.6600 
 14 C       -0.3320    -6.4080     1.1200 C.3   1 <1>   0.1400 
 15 C        0.2710    -8.1570    -0.5440 C.3   1 <1>   0.1400 
 16 C       -1.7990    -6.9030     1.1370 C.3   1 <1>   0.4230 
 17 C       -1.1930    -8.6300    -0.5870 C.3   1 <1>   0.3430 
 18 N       -1.9200    -8.3610     0.7160 N.4   1 <1>  -0.9590 
 19 C       -2.6950    -5.9980     0.2570 C.3   1 <1>   0.1200 
 20 C       -3.3760    -8.7470     0.6770 C.3   1 <1>   0.4230 
 21 O       -4.0180    -6.4440     0.2980 O.3   1 <1>  -0.5600 
 22 C       -4.2060    -7.7500    -0.1690 C.3   1 <1>   0.1200 
 23 C       -3.5400   -10.2040     0.2160 C.3   1 <1>  -0.1600 
 24 C       -4.9380   -10.7630     0.5240 C.3   1 <1>  -0.1600 
 25 C       -5.0360   -12.2380     0.1270 C.3   1 <1>  -0.2400 
 26 H       -0.1860    -1.2450    -1.8690 H     1 <1>   0.1500 
 27 H        2.8140    -2.5070     0.9060 H     1 <1>   0.1500 
 28 H       -0.7330    -3.5730    -2.3180 H     1 <1>   0.1500 
 29 H        2.2530    -4.8280     0.4410 H     1 <1>   0.1500 
 30 H        0.2220    -6.8900     1.9070 H     1 <1>   0.0800 
 31 H       -0.3110    -5.3490     1.3160 H     1 <1>   0.0800 
 32 H        0.7270    -8.3150    -1.5080 H     1 <1>   0.0800 
 33 H        0.8290    -8.7280     0.1770 H     1 <1>   0.0800 
 34 H       -2.1610    -6.8020     2.1460 H     1 <1>   0.0800 
 35 H       -1.2100    -9.6840    -0.8100 H     1 <1>   0.0800 
 36 H       -1.6860    -8.1140    -1.3960 H     1 <1>   0.0800 
 37 H       -1.4720    -8.9290     1.4430 H     1 <1>   0.4500 
 38 H       -2.3680    -5.9860    -0.7680 H     1 <1>   0.0800 
 39 H       -2.6840    -4.9870     0.6280 H     1 <1>   0.0800 
 40 H       -3.7610    -8.6890     1.6820 H     1 <1>   0.0800 
 41 H       -5.2560    -7.9690    -0.0820 H     1 <1>   0.0800 
 42 H       -3.9350    -7.7910    -1.2090 H     1 <1>   0.0800 
 43 H       -3.3680   -10.2830    -0.8430 H     1 <1>   0.0800 
 44 H       -2.8200   -10.8190     0.7280 H     1 <1>   0.0800 
 45 H       -5.1500   -10.6730     1.5770 H     1 <1>   0.0800 
 46 H       -5.6930   -10.2150    -0.0150 H     1 <1>   0.0800 
 47 H       -4.3210   -12.8300     0.6720 H     1 <1>   0.0800 
 48 H       -4.8580   -12.3630    -0.9270 H     1 <1>   0.0800 
 49 H       -6.0200   -12.6130     0.3480 H     1 <1>   0.0800 
@<TRIPOS>BOND
  1   1   2  1   
  2   2   3  1   
  3   2   4  1   
  4   2   5  1   
  5   5   6  ar  
  6   5   7  ar  
  7   6   8  ar  
  8   6  26  1   
  9   7   9  ar  
 10   7  27  1   
 11   8  10  ar  
 12   8  28  1   
 13   9  10  ar  
 14   9  29  1   
 15  10  11  1   
 16  11  12  2   
 17  11  13  am  
 18  13  14  1   
 19  13  15  1   
 20  14  16  1   
 21  14  30  1   
 22  14  31  1   
 23  15  17  1   
 24  15  32  1   
 25  15  33  1   
 26  16  18  1   
 27  16  19  1   
 28  16  34  1   
 29  17  18  1   
 30  17  35  1   
 31  17  36  1   
 32  18  20  1   
 33  18  37  1   
 34  19  21  1   
 35  19  38  1   
 36  19  39  1   
 37  20  22  1   
 38  20  23  1   
 39  20  40  1   
 40  21  22  1   
 41  22  41  1   
 42  22  42  1   
 43  23  24  1   
 44  23  43  1   
 45  23  44  1   
 46  24  25  1   
 47  24  45  1   
 48  24  46  1   
 49  25  47  1   
 50  25  48  1   
 51  25  49  1   
@<TRIPOS>SUBSTRUCTURE
  1 ****  11 GROUP 4 **** **** 0

# MOE 2024.06 (io_trps.svl 2023.06)
