@<TRIPOS>MOLECULE
NONAME
54 57 1 0 0 
SMALL
USER_CHARGES


@<TRIPOS>ATOM
  1 O        4.0290    -2.3290     2.1830 O.2   1 <1>  -0.5700 
  2 C        3.2720    -2.2270     1.2360 C.2   1 <1>   0.5440 
  3 N        2.8750    -0.9570     0.8470 N.am  1 <1>  -0.6600 
  4 C        2.8340    -3.4250     0.5410 C.ar  1 <1>   0.0860 
  5 C        3.2220     0.2070     1.7250 C.3   1 <1>   0.1400 
  6 C        2.4080    -0.6830    -0.5510 C.3   1 <1>   0.1400 
  7 C        1.4880    -3.6610     0.2690 C.ar  1 <1>  -0.1500 
  8 C        3.7550    -4.3790     0.1160 C.ar  1 <1>  -0.1500 
  9 C        4.4550     1.0180     1.2460 C.3   1 <1>   0.4230 
 10 C        3.2090     0.3980    -1.3100 C.3   1 <1>  -0.0800 
 11 C        1.0500    -4.7840    -0.4220 C.ar  1 <1>   0.0000 
 12 C        3.3470    -5.5110    -0.5640 C.ar  1 <1>  -0.1500 
 13 N        4.0970     2.1370     0.2980 N.4   1 <1>  -0.9590 
 14 C        5.6090     0.1640     0.6520 C.3   1 <1>   0.1200 
 15 C        4.6820     0.0410    -1.6060 C.3   1 <1>   0.1200 
 16 C        3.0310     1.7840    -0.6860 C.3   1 <1>   0.3430 
 17 C       -0.3530    -4.9820    -0.7180 C.ar  1 <1>   0.0000 
 18 C        2.0060    -5.7090    -0.8320 C.ar  1 <1>  -0.1500 
 19 C        3.7410     3.3890     1.0340 C.3   1 <1>   0.2630 
 20 O        5.3140    -0.5570    -0.5200 O.3   1 <1>  -0.5600 
 21 C       -1.3300    -5.0650     0.2820 C.ar  1 <1>   0.0820 
 22 C       -0.7580    -5.0930    -2.0460 C.ar  1 <1>  -0.1500 
 23 O       -0.9220    -4.9630     1.5740 O.3   1 <1>  -0.3630 
 24 C       -2.6680    -5.2510    -0.0610 C.ar  1 <1>  -0.1500 
 25 C       -2.0860    -5.2790    -2.3820 C.ar  1 <1>  -0.1500 
 26 C       -1.7970    -5.1620     2.6610 C.3   1 <1>   0.0400 
 27 C       -3.0430    -5.3570    -1.3870 C.ar  1 <1>  -0.1500 
 28 H        2.3650     0.8470     1.8240 H     1 <1>   0.0800 
 29 H        3.4360    -0.1520     2.7170 H     1 <1>   0.0800 
 30 H        2.4610    -1.5860    -1.1340 H     1 <1>   0.0800 
 31 H        1.3700    -0.3990    -0.5080 H     1 <1>   0.0800 
 32 H        0.7550    -2.9520     0.6110 H     1 <1>   0.1500 
 33 H        4.7990    -4.2230     0.3270 H     1 <1>   0.1500 
 34 H        4.8640     1.4760     2.1310 H     1 <1>   0.0800 
 35 H        2.7320     0.4690    -2.2710 H     1 <1>   0.0800 
 36 H        4.0740    -6.2380    -0.8830 H     1 <1>   0.1500 
 37 H        4.9540     2.3130    -0.2440 H     1 <1>   0.4500 
 38 H        5.9070    -0.5660     1.3850 H     1 <1>   0.0800 
 39 H        6.4630     0.7840     0.4490 H     1 <1>   0.0800 
 40 H        5.2580     0.8940    -1.9220 H     1 <1>   0.0800 
 41 H        4.7110    -0.6870    -2.3990 H     1 <1>   0.0800 
 42 H        2.0650     1.8240    -0.2100 H     1 <1>   0.0800 
 43 H        3.0340     2.5190    -1.4750 H     1 <1>   0.0800 
 44 H        1.6900    -6.5930    -1.3580 H     1 <1>   0.1500 
 45 H        2.8500     3.2390     1.6230 H     1 <1>   0.0800 
 46 H        3.5630     4.1950     0.3400 H     1 <1>   0.0800 
 47 H        4.5440     3.6790     1.6930 H     1 <1>   0.0800 
 48 H       -0.0200    -5.0310    -2.8260 H     1 <1>   0.1500 
 49 H       -3.4320    -5.3140     0.6900 H     1 <1>   0.1500 
 50 H       -2.3760    -5.3620    -3.4150 H     1 <1>   0.1500 
 51 H       -1.2240    -5.0810     3.5680 H     1 <1>   0.0800 
 52 H       -2.2270    -6.1440     2.5880 H     1 <1>   0.0800 
 53 H       -2.5580    -4.4020     2.6410 H     1 <1>   0.0800 
 54 H       -4.0780    -5.5010    -1.6470 H     1 <1>   0.1500 
@<TRIPOS>BOND
  1   1   2  2   
  2   2   3  am  
  3   2   4  1   
  4   3   5  1   
  5   3   6  1   
  6   4   7  ar  
  7   4   8  ar  
  8   5   9  1   
  9   5  28  1   
 10   5  29  1   
 11   6  10  1   
 12   6  30  1   
 13   6  31  1   
 14   7  11  ar  
 15   7  32  1   
 16   8  12  ar  
 17   8  33  1   
 18   9  13  1   
 19   9  14  1   
 20   9  34  1   
 21  10  15  1   
 22  10  16  1   
 23  10  35  1   
 24  11  17  1   
 25  11  18  ar  
 26  12  18  ar  
 27  12  36  1   
 28  13  16  1   
 29  13  19  1   
 30  13  37  1   
 31  14  20  1   
 32  14  38  1   
 33  14  39  1   
 34  15  20  1   
 35  15  40  1   
 36  15  41  1   
 37  16  42  1   
 38  16  43  1   
 39  17  21  ar  
 40  17  22  ar  
 41  18  44  1   
 42  19  45  1   
 43  19  46  1   
 44  19  47  1   
 45  21  23  1   
 46  21  24  ar  
 47  22  25  ar  
 48  22  48  1   
 49  23  26  1   
 50  24  27  ar  
 51  24  49  1   
 52  25  27  ar  
 53  25  50  1   
 54  26  51  1   
 55  26  52  1   
 56  26  53  1   
 57  27  54  1   
@<TRIPOS>SUBSTRUCTURE
  1 ****   7 GROUP 4 **** **** 0

# MOE 2024.06 (io_trps.svl 2023.06)
