@<TRIPOS>MOLECULE
NONAME
52 54 1 0 0 
SMALL
USER_CHARGES


@<TRIPOS>ATOM
  1 S        3.7850    -1.1850    -0.8150 S.3   1 <1>  -0.3320 
  2 C        2.0150    -1.4980    -0.8930 C.ar  1 <1>   0.1020 
  3 C        3.9450     0.1840     0.4080 C.3   1 <1>   0.1500 
  4 C        1.3100    -2.0230     0.1860 C.ar  1 <1>  -0.1440 
  5 C        1.3830    -1.1740    -2.0800 C.ar  1 <1>  -0.1500 
  6 C        3.1480     1.3840    -0.1110 C.3   1 <1>  -0.1600 
  7 C        5.4340     0.5050     0.5400 C.3   1 <1>  -0.1600 
  8 C       -0.0620    -2.1830     0.0550 C.ar  1 <1>  -0.1500 
  9 C        1.9680    -2.4540     1.4900 C.3   1 <1>  -0.0970 
 10 C        0.0160    -1.3450    -2.1950 C.ar  1 <1>  -0.1500 
 11 C        3.4100     2.6220     0.7400 C.3   1 <1>   0.3430 
 12 C        5.6480     1.7570     1.3850 C.3   1 <1>   0.3430 
 13 C       -0.7050    -1.8440    -1.1250 C.ar  1 <1>  -0.1500 
 14 N        4.8790     2.8840     0.8000 N.4   1 <1>  -0.9590 
 15 C        5.2190     4.1630     1.4630 C.3   1 <1>   0.5230 
 16 C        4.3820     5.2790     0.8820 C.2   1 <1>  -0.3320 
 17 N        4.2860     5.6830    -0.4130 N.pl3 1 <1>   0.0480 
 18 C        3.5720     6.0890     1.6000 C.2   1 <1>   0.0770 
 19 C        3.4040     6.7100    -0.3670 C.2   1 <1>   0.0360 
 20 C        4.8470     5.1790    -1.6960 C.3   1 <1>   0.0960 
 21 N        2.9570     6.9780     0.8130 N.2   1 <1>  -0.5650 
 22 C        6.3700     5.0210    -1.7000 C.3   1 <1>   0.1200 
 23 O        6.7230     3.8480    -1.0310 O.3   1 <1>  -0.5600 
 24 C        8.0820     3.5450    -1.1420 C.3   1 <1>   0.0400 
 25 H        3.5450    -0.1700     1.3410 H     1 <1>   0.0800 
 26 H        1.9560    -0.7900    -2.9040 H     1 <1>   0.1500 
 27 H        2.0970     1.1590    -0.0840 H     1 <1>   0.0800 
 28 H        3.4150     1.5900    -1.1320 H     1 <1>   0.0800 
 29 H        5.8660     0.6570    -0.4340 H     1 <1>   0.0800 
 30 H        5.9390    -0.3280     0.9980 H     1 <1>   0.0800 
 31 H       -0.6410    -2.5810     0.8700 H     1 <1>   0.1500 
 32 H        2.9750    -2.7920     1.3210 H     1 <1>   0.0800 
 33 H        1.4220    -3.2710     1.9270 H     1 <1>   0.0800 
 34 H        1.9760    -1.6390     2.1890 H     1 <1>   0.0800 
 35 H       -0.4860    -1.0930    -3.1140 H     1 <1>   0.1500 
 36 H        3.0260     2.4680     1.7350 H     1 <1>   0.0800 
 37 H        2.8940     3.4650     0.3080 H     1 <1>   0.0800 
 38 H        6.6990     1.9980     1.4050 H     1 <1>   0.0800 
 39 H        5.3200     1.5730     2.3960 H     1 <1>   0.0800 
 40 H       -1.7700    -1.9760    -1.2110 H     1 <1>   0.1500 
 41 H        5.2450     3.0180    -0.1610 H     1 <1>   0.4500 
 42 H        6.2640     4.3850     1.3180 H     1 <1>   0.0800 
 43 H        5.0300     4.0900     2.5220 H     1 <1>   0.0800 
 44 H        3.3870     6.0870     2.6630 H     1 <1>   0.1500 
 45 H        3.1030     7.2490    -1.2500 H     1 <1>   0.1500 
 46 H        4.5880     5.8870    -2.4630 H     1 <1>   0.0800 
 47 H        4.3790     4.2450    -1.9500 H     1 <1>   0.0800 
 48 H        6.8470     5.8650    -1.2300 H     1 <1>   0.0800 
 49 H        6.7130     4.9420    -2.7190 H     1 <1>   0.0800 
 50 H        8.2790     2.6400    -0.5950 H     1 <1>   0.0800 
 51 H        8.6660     4.3510    -0.7290 H     1 <1>   0.0800 
 52 H        8.3330     3.3970    -2.1790 H     1 <1>   0.0800 
@<TRIPOS>BOND
  1   1   2  1   
  2   1   3  1   
  3   2   4  ar  
  4   2   5  ar  
  5   3   6  1   
  6   3   7  1   
  7   3  25  1   
  8   4   8  ar  
  9   4   9  1   
 10   5  10  ar  
 11   5  26  1   
 12   6  11  1   
 13   6  27  1   
 14   6  28  1   
 15   7  12  1   
 16   7  29  1   
 17   7  30  1   
 18   8  13  ar  
 19   8  31  1   
 20   9  32  1   
 21   9  33  1   
 22   9  34  1   
 23  10  13  ar  
 24  10  35  1   
 25  11  14  1   
 26  11  36  1   
 27  11  37  1   
 28  12  14  1   
 29  12  38  1   
 30  12  39  1   
 31  13  40  1   
 32  14  15  1   
 33  14  41  1   
 34  15  16  1   
 35  15  42  1   
 36  15  43  1   
 37  16  17  1   
 38  16  18  2   
 39  17  19  1   
 40  17  20  1   
 41  18  21  1   
 42  18  44  1   
 43  19  21  2   
 44  19  45  1   
 45  20  22  1   
 46  20  46  1   
 47  20  47  1   
 48  22  23  1   
 49  22  48  1   
 50  22  49  1   
 51  23  24  1   
 52  24  50  1   
 53  24  51  1   
 54  24  52  1   
@<TRIPOS>SUBSTRUCTURE
  1 ****   6 GROUP 4 **** **** 0

# MOE 2024.06 (io_trps.svl 2023.06)
