@<TRIPOS>MOLECULE
NONAME
45 46 1 0 0 
SMALL
USER_CHARGES


@<TRIPOS>ATOM
  1 O        0.3090    -0.4010     2.5110 O.2   1 <1>  -0.5700 
  2 C        1.0700    -0.8130     1.6680 C.2   1 <1>   0.5690 
  3 N        2.0200    -0.0030     1.1320 N.am  1 <1>  -0.7300 
  4 C        0.9940    -2.2870     1.2380 C.3   1 <1>   0.1710 
  5 C        2.1710     1.4190     1.4750 C.3   1 <1>   0.2840 
  6 N        0.2280    -2.5740    -0.0120 N.3   1 <1>  -0.8100 
  7 C        3.3760     1.9640     0.7270 C.ar  1 <1>  -0.1430 
  8 C       -0.0070    -4.0240    -0.1530 C.3   1 <1>   0.1100 
  9 C        0.8580    -2.0030    -1.2130 C.3   1 <1>   0.1100 
 10 C        3.2190     2.5860    -0.5030 C.ar  1 <1>  -0.1500 
 11 C        4.6480     1.8410     1.2640 C.ar  1 <1>  -0.1500 
 12 C       -0.9340    -4.3170    -1.3420 C.3   1 <1>   0.1200 
 13 C       -0.0370    -2.2310    -2.4360 C.3   1 <1>  -0.1600 
 14 C        4.3180     3.0870    -1.1780 C.ar  1 <1>  -0.1500 
 15 C        5.7450     2.3440     0.5880 C.ar  1 <1>  -0.1500 
 16 C       -1.1350    -5.7900    -1.4720 C.1   1 <1>   0.3570 
 17 C       -0.3570    -3.7180    -2.6370 C.3   1 <1>  -0.1600 
 18 C        5.5930     2.9800    -0.6370 C.ar  1 <1>   0.1170 
 19 N       -1.2730    -6.9150    -1.5650 N.1   1 <1>  -0.5570 
 20 N        6.7170     3.4840    -1.3000 N.am  1 <1>  -0.5470 
 21 C        6.9660     4.7160    -1.8150 C.2   1 <1>   0.5690 
 22 O        8.0100     4.9330    -2.3720 O.2   1 <1>  -0.5700 
 23 C        5.9610     5.8360    -1.6840 C.3   1 <1>  -0.1790 
 24 H        2.6620    -0.3380     0.4150 H     1 <1>   0.3700 
 25 H        0.5280    -2.8140     2.0520 H     1 <1>   0.0800 
 26 H        1.9940    -2.6670     1.1410 H     1 <1>   0.0800 
 27 H        2.3090     1.5200     2.5380 H     1 <1>   0.0800 
 28 H        1.2780     1.9520     1.1970 H     1 <1>   0.0800 
 29 H       -0.4690    -4.3990     0.7460 H     1 <1>   0.0800 
 30 H        0.9330    -4.5330    -0.2890 H     1 <1>   0.0800 
 31 H        1.8230    -2.4550    -1.3730 H     1 <1>   0.0800 
 32 H        0.9890    -0.9430    -1.0870 H     1 <1>   0.0800 
 33 H        2.2380     2.6820    -0.9380 H     1 <1>   0.1500 
 34 H        4.7860     1.3540     2.2150 H     1 <1>   0.1500 
 35 H       -1.8910    -3.8720    -1.1390 H     1 <1>   0.0800 
 36 H        0.4530    -1.8450    -3.3130 H     1 <1>   0.0800 
 37 H       -0.9490    -1.6750    -2.3010 H     1 <1>   0.0800 
 38 H        4.1850     3.5580    -2.1350 H     1 <1>   0.1500 
 39 H        6.7260     2.2480     1.0160 H     1 <1>   0.1500 
 40 H       -1.0630    -3.8350    -3.4410 H     1 <1>   0.0800 
 41 H        0.5450    -4.2410    -2.9050 H     1 <1>   0.0800 
 42 H        7.5250     2.8650    -1.3670 H     1 <1>   0.3700 
 43 H        5.4780     5.7950    -0.7260 H     1 <1>   0.0800 
 44 H        5.2290     5.7570    -2.4640 H     1 <1>   0.0800 
 45 H        6.4640     6.7810    -1.7760 H     1 <1>   0.0800 
@<TRIPOS>BOND
  1   1   2  2   
  2   2   3  am  
  3   2   4  1   
  4   3   5  1   
  5   3  24  1   
  6   4   6  1   
  7   4  25  1   
  8   4  26  1   
  9   5   7  1   
 10   5  27  1   
 11   5  28  1   
 12   6   8  1   
 13   6   9  1   
 14   7  10  ar  
 15   7  11  ar  
 16   8  12  1   
 17   8  29  1   
 18   8  30  1   
 19   9  13  1   
 20   9  31  1   
 21   9  32  1   
 22  10  14  ar  
 23  10  33  1   
 24  11  15  ar  
 25  11  34  1   
 26  12  16  1   
 27  12  17  1   
 28  12  35  1   
 29  13  17  1   
 30  13  36  1   
 31  13  37  1   
 32  14  18  ar  
 33  14  38  1   
 34  15  18  ar  
 35  15  39  1   
 36  16  19  3   
 37  17  40  1   
 38  17  41  1   
 39  18  20  1   
 40  20  21  am  
 41  20  42  1   
 42  21  22  2   
 43  21  23  1   
 44  23  43  1   
 45  23  44  1   
 46  23  45  1   
@<TRIPOS>SUBSTRUCTURE
  1 ****   3 GROUP 4 **** **** 0

# MOE 2024.06 (io_trps.svl 2023.06)
