@<TRIPOS>MOLECULE
NONAME
61 64 1 0 0 
SMALL
USER_CHARGES


@<TRIPOS>ATOM
  1 O       -3.2160    -0.0350    -2.8320 O.2   1 <1>  -0.5700 
  2 C       -3.3080    -0.4360    -1.7040 C.2   1 <1>   0.5690 
  3 N       -3.5210     0.4240    -0.6930 N.am  1 <1>  -0.7300 
  4 C       -3.2160    -1.9110    -1.4260 C.3   1 <1>  -0.0190 
  5 C       -3.6670     0.0570     0.7340 C.3   1 <1>   0.2200 
  6 C       -2.0230    -2.2430    -0.5010 C.3   1 <1>   0.1200 
  7 C       -4.5970    -2.4120    -0.9810 C.3   1 <1>   0.3430 
  8 C       -2.3780    -0.6340     1.2450 C.3   1 <1>   0.1200 
  9 C       -4.9570    -0.7840     0.9540 C.3   1 <1>   0.3430 
 10 O       -2.2780    -1.9810     0.8540 O.3   1 <1>  -0.5600 
 11 N       -4.8810    -2.2090     0.4790 N.4   1 <1>  -0.9590 
 12 C       -6.0680    -2.9960     0.9020 C.3   1 <1>   0.4860 
 13 C       -5.7690    -4.4710     0.7260 C.ar  1 <1>  -0.1430 
 14 C       -6.3450    -5.1660    -0.3300 C.ar  1 <1>   0.0830 
 15 C       -4.9290    -5.1390     1.6040 C.ar  1 <1>  -0.1500 
 16 O       -7.1550    -4.5070    -1.1880 O.3   1 <1>  -0.3630 
 17 C       -6.0680    -6.5130    -0.5170 C.ar  1 <1>  -0.1500 
 18 C       -4.6600    -6.4850     1.4210 C.ar  1 <1>  -0.1500 
 19 C       -8.5220    -4.9100    -1.2430 C.3   1 <1>   0.1810 
 20 C       -5.2270    -7.1710     0.3610 C.ar  1 <1>  -0.1500 
 21 C       -9.3330    -4.4450    -0.0240 C.2   1 <1>   0.5690 
 22 O       -8.9320    -3.4820     0.5970 O.2   1 <1>  -0.5700 
 23 N      -10.4910    -5.0920     0.3400 N.am  1 <1>  -0.6600 
 24 C      -11.2580    -4.6780     1.5510 C.3   1 <1>   0.1400 
 25 C      -11.1500    -6.1950    -0.4200 C.3   1 <1>   0.1400 
 26 C      -12.6610    -4.2200     1.1420 C.3   1 <1>  -0.1600 
 27 C      -12.5540    -5.7570    -0.8500 C.3   1 <1>  -0.1600 
 28 C      -13.4020    -5.3100     0.3510 C.3   1 <1>  -0.0800 
 29 C      -14.7720    -4.8050    -0.1120 C.3   1 <1>  -0.2400 
 30 H       -3.5260     1.4200    -0.9420 H     1 <1>   0.3700 
 31 H       -3.0110    -2.3750    -2.3750 H     1 <1>   0.0800 
 32 H       -3.7810     0.9770     1.2820 H     1 <1>   0.0800 
 33 H       -1.1430    -1.6970    -0.8000 H     1 <1>   0.0800 
 34 H       -1.8010    -3.2940    -0.5750 H     1 <1>   0.0800 
 35 H       -4.6400    -3.4670    -1.1980 H     1 <1>   0.0800 
 36 H       -5.3610    -1.9340    -1.5730 H     1 <1>   0.0800 
 37 H       -2.3770    -0.6280     2.3220 H     1 <1>   0.0800 
 38 H       -1.4990    -0.1060     0.9130 H     1 <1>   0.0800 
 39 H       -5.7800    -0.2840     0.4700 H     1 <1>   0.0800 
 40 H       -5.1620    -0.7930     2.0110 H     1 <1>   0.0800 
 41 H       -4.0510    -2.6160     0.9500 H     1 <1>   0.4500 
 42 H       -6.3030    -2.8030     1.9360 H     1 <1>   0.0800 
 43 H       -6.9150    -2.7120     0.3030 H     1 <1>   0.0800 
 44 H       -4.4780    -4.6270     2.4380 H     1 <1>   0.1500 
 45 H       -6.4970    -7.0460    -1.3470 H     1 <1>   0.1500 
 46 H       -4.0080    -7.0030     2.1050 H     1 <1>   0.1500 
 47 H       -8.9490    -4.4770    -2.1270 H     1 <1>   0.0800 
 48 H       -8.5500    -5.9780    -1.3280 H     1 <1>   0.0800 
 49 H       -5.0120    -8.2170     0.2220 H     1 <1>   0.1500 
 50 H      -11.3290    -5.5140     2.2260 H     1 <1>   0.0800 
 51 H      -10.7590    -3.8770     2.0710 H     1 <1>   0.0800 
 52 H      -10.5890    -6.4680    -1.2940 H     1 <1>   0.0800 
 53 H      -11.2210    -7.0620     0.2150 H     1 <1>   0.0800 
 54 H      -13.2200    -3.9710     2.0270 H     1 <1>   0.0800 
 55 H      -12.5720    -3.3270     0.5480 H     1 <1>   0.0800 
 56 H      -12.4650    -4.9490    -1.5560 H     1 <1>   0.0800 
 57 H      -13.0400    -6.5760    -1.3490 H     1 <1>   0.0800 
 58 H      -13.5530    -6.1580     0.9990 H     1 <1>   0.0800 
 59 H      -14.6650    -3.9530    -0.7610 H     1 <1>   0.0800 
 60 H      -15.3680    -4.5150     0.7360 H     1 <1>   0.0800 
 61 H      -15.2960    -5.5790    -0.6440 H     1 <1>   0.0800 
@<TRIPOS>BOND
  1   1   2  2   
  2   2   3  am  
  3   2   4  1   
  4   3   5  1   
  5   3  30  1   
  6   4   6  1   
  7   4   7  1   
  8   4  31  1   
  9   5   8  1   
 10   5   9  1   
 11   5  32  1   
 12   6  10  1   
 13   6  33  1   
 14   6  34  1   
 15   7  11  1   
 16   7  35  1   
 17   7  36  1   
 18   8  10  1   
 19   8  37  1   
 20   8  38  1   
 21   9  11  1   
 22   9  39  1   
 23   9  40  1   
 24  11  12  1   
 25  11  41  1   
 26  12  13  1   
 27  12  42  1   
 28  12  43  1   
 29  13  14  ar  
 30  13  15  ar  
 31  14  16  1   
 32  14  17  ar  
 33  15  18  ar  
 34  15  44  1   
 35  16  19  1   
 36  17  20  ar  
 37  17  45  1   
 38  18  20  ar  
 39  18  46  1   
 40  19  21  1   
 41  19  47  1   
 42  19  48  1   
 43  20  49  1   
 44  21  22  2   
 45  21  23  am  
 46  23  24  1   
 47  23  25  1   
 48  24  26  1   
 49  24  50  1   
 50  24  51  1   
 51  25  27  1   
 52  25  52  1   
 53  25  53  1   
 54  26  28  1   
 55  26  54  1   
 56  26  55  1   
 57  27  28  1   
 58  27  56  1   
 59  27  57  1   
 60  28  29  1   
 61  28  58  1   
 62  29  59  1   
 63  29  60  1   
 64  29  61  1   
@<TRIPOS>SUBSTRUCTURE
  1 ****  12 GROUP 4 **** **** 0

# MOE 2024.06 (io_trps.svl 2023.06)
