@<TRIPOS>MOLECULE
NONAME
53 56 1 0 0 
SMALL
USER_CHARGES


@<TRIPOS>ATOM
  1 O       -1.0170     2.7700     2.3010 O.2   1 <1>  -0.5700 
  2 C       -0.7250     3.1550     1.1820 C.2   1 <1>   0.7160 
  3 N       -1.7370     3.3490     0.2640 N.am  1 <1>  -0.6600 
  4 C        0.6590     3.3950     0.8430 C.2   1 <1>  -0.0860 
  5 C       -3.1760     3.2700     0.6890 C.3   1 <1>   0.1400 
  6 C       -1.4700     3.4950    -1.1980 C.3   1 <1>   0.1400 
  7 C        1.7550     2.6010     1.2010 C.2   1 <1>   0.1080 
  8 C        1.2380     4.4060     0.1330 C.2   1 <1>  -0.3020 
  9 C       -4.0660     4.1720    -0.1860 C.3   1 <1>   0.1440 
 10 C       -2.6660     3.0220    -2.0320 C.3   1 <1>  -0.1600 
 11 N        2.8790     3.0590     0.7520 N.2   1 <1>  -0.7070 
 12 C        1.6820     1.3310     2.0210 C.3   1 <1>  -0.0590 
 13 N        2.5590     4.1830     0.0950 N.pl3 1 <1>   0.3140 
 14 C       -5.5080     4.1350     0.2860 C.ar  1 <1>   0.1660 
 15 C       -3.9820     3.7430    -1.6740 C.3   1 <1>  -0.1600 
 16 C       -3.7030     5.6720    -0.0030 C.3   1 <1>  -0.1600 
 17 C        3.5860     5.0230    -0.5510 C.3   1 <1>   0.0960 
 18 N       -6.1970     3.0440     0.5410 N.ar  1 <1>  -0.6200 
 19 C       -6.0300     5.3870     0.4190 C.ar  1 <1>  -0.1430 
 20 C       -5.0280     6.4530     0.0590 C.3   1 <1>  -0.0170 
 21 C        4.0010     6.1820     0.3670 C.3   1 <1>  -0.1600 
 22 C       -7.4420     3.2630     0.9400 C.ar  1 <1>   0.4760 
 23 C       -7.3320     5.4970     0.8400 C.ar  1 <1>   0.1600 
 24 C        5.0660     7.0650    -0.2940 C.3   1 <1>  -0.2400 
 25 N       -8.0540     4.4290     1.1060 N.ar  1 <1>  -0.6200 
 26 C       -8.2590     2.0320     1.2470 C.3   1 <1>  -0.0970 
 27 H       -3.2750     3.5630     1.7200 H     1 <1>   0.0800 
 28 H       -3.5100     2.2500     0.6070 H     1 <1>   0.0800 
 29 H       -0.6010     2.9170    -1.4670 H     1 <1>   0.0800 
 30 H       -1.2680     4.5300    -1.4150 H     1 <1>   0.0800 
 31 H        0.7740     5.2580    -0.3250 H     1 <1>   0.1500 
 32 H       -2.7860     1.9650    -1.8680 H     1 <1>   0.0800 
 33 H       -2.4540     3.1580    -3.0780 H     1 <1>   0.0800 
 34 H        0.9420     0.6690     1.6110 H     1 <1>   0.0800 
 35 H        1.4170     1.5720     3.0340 H     1 <1>   0.0800 
 36 H        2.6360     0.8350     2.0180 H     1 <1>   0.0800 
 37 H       -4.1130     4.6030    -2.3070 H     1 <1>   0.0800 
 38 H       -4.7930     3.0700    -1.8960 H     1 <1>   0.0800 
 39 H       -3.0590     6.0420    -0.7790 H     1 <1>   0.0800 
 40 H       -3.1970     5.8020     0.9390 H     1 <1>   0.0800 
 41 H        3.1890     5.4000    -1.4740 H     1 <1>   0.0800 
 42 H        4.4370     4.4030    -0.7690 H     1 <1>   0.0800 
 43 H       -5.2720     6.8680    -0.9040 H     1 <1>   0.0800 
 44 H       -4.9930     7.2350     0.7980 H     1 <1>   0.0800 
 45 H        4.3960     5.7780     1.2850 H     1 <1>   0.0800 
 46 H        3.1400     6.7820     0.6030 H     1 <1>   0.0800 
 47 H       -7.7880     6.4650     0.9600 H     1 <1>   0.1500 
 48 H        5.9470     6.4880    -0.5180 H     1 <1>   0.0800 
 49 H        5.3430     7.8640     0.3710 H     1 <1>   0.0800 
 50 H        4.6900     7.4950    -1.2050 H     1 <1>   0.0800 
 51 H       -8.0730     1.2780     0.5050 H     1 <1>   0.0800 
 52 H       -9.3070     2.2680     1.2490 H     1 <1>   0.0800 
 53 H       -7.9800     1.6540     2.2120 H     1 <1>   0.0800 
@<TRIPOS>BOND
  1   1   2  2   
  2   2   3  am  
  3   2   4  1   
  4   3   5  1   
  5   3   6  1   
  6   4   7  1   
  7   4   8  2   
  8   5   9  1   
  9   5  27  1   
 10   5  28  1   
 11   6  10  1   
 12   6  29  1   
 13   6  30  1   
 14   7  11  2   
 15   7  12  1   
 16   8  13  1   
 17   8  31  1   
 18   9  14  1   
 19   9  15  1   
 20   9  16  1   
 21  10  15  1   
 22  10  32  1   
 23  10  33  1   
 24  11  13  1   
 25  12  34  1   
 26  12  35  1   
 27  12  36  1   
 28  13  17  1   
 29  14  18  ar  
 30  14  19  ar  
 31  15  37  1   
 32  15  38  1   
 33  16  20  1   
 34  16  39  1   
 35  16  40  1   
 36  17  21  1   
 37  17  41  1   
 38  17  42  1   
 39  18  22  ar  
 40  19  20  1   
 41  19  23  ar  
 42  20  43  1   
 43  20  44  1   
 44  21  24  1   
 45  21  45  1   
 46  21  46  1   
 47  22  25  ar  
 48  22  26  1   
 49  23  25  ar  
 50  23  47  1   
 51  24  48  1   
 52  24  49  1   
 53  24  50  1   
 54  26  51  1   
 55  26  52  1   
 56  26  53  1   
@<TRIPOS>SUBSTRUCTURE
  1 ****   3 GROUP 4 **** **** 0

# MOE 2024.06 (io_trps.svl 2023.06)
