@<TRIPOS>MOLECULE
NONAME
39 40 1 0 0 
SMALL
USER_CHARGES


@<TRIPOS>ATOM
  1 S        0.4210     0.0170    -0.6820 S.o2  1 <1>   1.3330 
  2 O        1.8510     0.1900    -0.5490 O.2   1 <1>  -0.6500 
  3 O       -0.1670    -0.0480    -2.0010 O.2   1 <1>  -0.6500 
  4 N       -0.0310    -1.3780     0.1700 N.am  1 <1>  -0.8490 
  5 C       -0.3670     1.3390     0.2360 C.3   1 <1>  -0.0550 
  6 C       -1.3700    -1.8650    -0.1790 C.3   1 <1>   0.1160 
  7 C        0.9460    -2.4610     0.0200 C.3   1 <1>   0.1160 
  8 C       -0.0910     2.7340    -0.3630 C.3   1 <1>  -0.0800 
  9 C       -0.7890     3.8900     0.3550 C.3   1 <1>   0.2000 
 10 C        1.3920     3.1260    -0.3530 C.3   1 <1>   0.2090 
 11 O       -0.6500     3.7230     1.7240 O.3   1 <1>  -0.6800 
 12 C        0.0270     5.1130    -0.0630 C.3   1 <1>   0.2090 
 13 N        1.4290     4.6090    -0.1910 N.pl3 1 <1>  -0.8380 
 14 C        2.5630     5.3640    -0.2050 C.ar  1 <1>   0.1000 
 15 C        2.5260     6.7660    -0.1670 C.ar  1 <1>  -0.1500 
 16 C        3.8360     4.7770    -0.2630 C.ar  1 <1>  -0.1500 
 17 C        3.6790     7.5070    -0.1840 C.ar  1 <1>   0.2110 
 18 C        4.9720     5.5420    -0.2800 C.ar  1 <1>   0.2110 
 19 N        4.8880     6.8950    -0.2400 N.ar  1 <1>  -0.1790 
 20 H       -1.4260     1.1760     0.2500 H     1 <1>   0.0800 
 21 H       -0.0220     1.3060     1.2510 H     1 <1>   0.0800 
 22 H       -1.6360    -2.6980     0.4500 H     1 <1>   0.0800 
 23 H       -1.4000    -2.1800    -1.2090 H     1 <1>   0.0800 
 24 H       -2.0990    -1.0860    -0.0340 H     1 <1>   0.0800 
 25 H        0.6380    -3.3230     0.5870 H     1 <1>   0.0800 
 26 H        1.9070    -2.1430     0.3880 H     1 <1>   0.0800 
 27 H        1.0450    -2.7340    -1.0180 H     1 <1>   0.0800 
 28 H       -0.4180     2.7360    -1.3890 H     1 <1>   0.0800 
 29 H       -1.8360     3.9740     0.1210 H     1 <1>   0.0800 
 30 H        1.8740     2.8280    -1.2700 H     1 <1>   0.0800 
 31 H        1.8970     2.6680     0.4810 H     1 <1>   0.0800 
 32 H        0.2920     3.8620     1.9570 H     1 <1>   0.4000 
 33 H       -0.0600     5.9020     0.6650 H     1 <1>   0.0800 
 34 H       -0.3090     5.4640    -1.0230 H     1 <1>   0.0800 
 35 H        1.5760     7.2650    -0.1280 H     1 <1>   0.1500 
 36 H        3.9240     3.7060    -0.2950 H     1 <1>   0.1500 
 37 H        3.6430     8.5850    -0.1550 H     1 <1>   0.1500 
 38 H        5.9470     5.0820    -0.3260 H     1 <1>   0.1500 
 39 H        5.7450     7.4590    -0.2540 H     1 <1>   0.4570 
@<TRIPOS>BOND
  1   1   2  2   
  2   1   3  2   
  3   1   4  am  
  4   1   5  1   
  5   4   6  1   
  6   4   7  1   
  7   5   8  1   
  8   5  20  1   
  9   5  21  1   
 10   6  22  1   
 11   6  23  1   
 12   6  24  1   
 13   7  25  1   
 14   7  26  1   
 15   7  27  1   
 16   8   9  1   
 17   8  10  1   
 18   8  28  1   
 19   9  11  1   
 20   9  12  1   
 21   9  29  1   
 22  10  13  1   
 23  10  30  1   
 24  10  31  1   
 25  11  32  1   
 26  12  13  1   
 27  12  33  1   
 28  12  34  1   
 29  13  14  1   
 30  14  15  ar  
 31  14  16  ar  
 32  15  17  ar  
 33  15  35  1   
 34  16  18  ar  
 35  16  36  1   
 36  17  19  ar  
 37  17  37  1   
 38  18  19  ar  
 39  18  38  1   
 40  19  39  1   
@<TRIPOS>SUBSTRUCTURE
  1 ****  10 GROUP 4 **** **** 0

# MOE 2024.06 (io_trps.svl 2023.06)
