@<TRIPOS>MOLECULE
NONAME
50 52 1 0 0 
SMALL
USER_CHARGES


@<TRIPOS>ATOM
  1 S       -0.7660     0.3760     1.3900 S.o2  1 <1>   1.5010 
  2 O       -1.2530     1.4540     2.2190 O.2   1 <1>  -0.6500 
  3 O       -0.6380    -0.9590     1.9380 O.2   1 <1>  -0.6500 
  4 N       -1.8300     0.2200     0.0680 N.am  1 <1>  -0.8490 
  5 C        0.7700     0.8410     0.5810 C.2   1 <1>  -0.0630 
  6 C       -1.6740    -1.0280    -0.6950 C.3   1 <1>   0.1960 
  7 C       -3.2340     0.5470     0.3540 C.3   1 <1>   0.1960 
  8 C        1.1130     1.8690    -0.2400 C.2   1 <1>  -0.3320 
  9 C        1.9390     0.1010     0.6930 C.2   1 <1>   0.1390 
 10 C       -2.3880    -2.2440    -0.0320 C.3   1 <1>   0.4230 
 11 C       -3.9290    -0.6140     1.0780 C.3   1 <1>  -0.1600 
 12 N        2.4110     1.6970    -0.5720 N.pl3 1 <1>   0.3140 
 13 C        0.2490     3.0260    -0.7220 C.3   1 <1>  -0.0600 
 14 N        2.9160     0.5940    -0.0020 N.2   1 <1>  -0.7070 
 15 N       -2.1590    -3.5740    -0.7420 N.4   1 <1>  -0.9590 
 16 C       -3.8810    -1.9440     0.2780 C.3   1 <1>   0.0000 
 17 C        3.2390     2.5590    -1.4260 C.3   1 <1>   0.0160 
 18 C       -3.1430    -4.6420    -0.3660 C.3   1 <1>   0.3430 
 19 C       -2.0270    -3.5040    -2.2350 C.3   1 <1>   0.2630 
 20 C       -4.4600    -3.0850     1.1650 C.3   1 <1>  -0.1600 
 21 C       -4.6920    -1.8200    -1.0450 C.3   1 <1>   0.1200 
 22 C       -3.6910    -4.4150     1.0430 C.3   1 <1>  -0.1600 
 23 O       -5.9580    -1.3080    -0.8220 O.3   1 <1>  -0.6800 
 24 H       -2.0740    -0.8590    -1.6780 H     1 <1>   0.0800 
 25 H       -0.6240    -1.2430    -0.8020 H     1 <1>   0.0800 
 26 H       -3.2990     1.4440     0.9480 H     1 <1>   0.0800 
 27 H       -3.7450     0.7540    -0.5720 H     1 <1>   0.0800 
 28 H        2.0350    -0.7920     1.2890 H     1 <1>   0.1500 
 29 H       -1.9330    -2.3590     0.9360 H     1 <1>   0.0800 
 30 H       -3.4590    -0.7360     2.0400 H     1 <1>   0.0800 
 31 H       -4.9480    -0.3290     1.2770 H     1 <1>   0.0800 
 32 H       -0.7430     2.9550    -0.3120 H     1 <1>   0.0800 
 33 H        0.1750     3.0160    -1.7950 H     1 <1>   0.0800 
 34 H        0.6750     3.9620    -0.4080 H     1 <1>   0.0800 
 35 H       -1.2500    -3.8990    -0.3780 H     1 <1>   0.4500 
 36 H        2.7910     2.6300    -2.3990 H     1 <1>   0.0800 
 37 H        4.2210     2.1310    -1.5120 H     1 <1>   0.0800 
 38 H        3.3100     3.5330    -0.9810 H     1 <1>   0.0800 
 39 H       -3.9700    -4.6370    -1.0570 H     1 <1>   0.0800 
 40 H       -2.6720    -5.6110    -0.4220 H     1 <1>   0.0800 
 41 H       -2.9370    -3.1330    -2.6790 H     1 <1>   0.0800 
 42 H       -1.8250    -4.4840    -2.6380 H     1 <1>   0.0800 
 43 H       -1.2140    -2.8530    -2.5150 H     1 <1>   0.0800 
 44 H       -4.4430    -2.8010     2.2040 H     1 <1>   0.0800 
 45 H       -5.4940    -3.2540     0.9200 H     1 <1>   0.0800 
 46 H       -4.8120    -2.7730    -1.5280 H     1 <1>   0.0800 
 47 H       -4.2150    -1.1490    -1.7370 H     1 <1>   0.0800 
 48 H       -4.3480    -5.2270     1.3040 H     1 <1>   0.0800 
 49 H       -2.8740    -4.4350     1.7450 H     1 <1>   0.0800 
 50 H       -6.5010    -1.8910    -0.2540 H     1 <1>   0.4000 
@<TRIPOS>BOND
  1   1   2  2   
  2   1   3  2   
  3   1   4  am  
  4   1   5  1   
  5   4   6  1   
  6   4   7  1   
  7   5   8  2   
  8   5   9  1   
  9   6  10  1   
 10   6  24  1   
 11   6  25  1   
 12   7  11  1   
 13   7  26  1   
 14   7  27  1   
 15   8  12  1   
 16   8  13  1   
 17   9  14  2   
 18   9  28  1   
 19  10  15  1   
 20  10  16  1   
 21  10  29  1   
 22  11  16  1   
 23  11  30  1   
 24  11  31  1   
 25  12  14  1   
 26  12  17  1   
 27  13  32  1   
 28  13  33  1   
 29  13  34  1   
 30  15  18  1   
 31  15  19  1   
 32  15  35  1   
 33  16  20  1   
 34  16  21  1   
 35  17  36  1   
 36  17  37  1   
 37  17  38  1   
 38  18  22  1   
 39  18  39  1   
 40  18  40  1   
 41  19  41  1   
 42  19  42  1   
 43  19  43  1   
 44  20  22  1   
 45  20  44  1   
 46  20  45  1   
 47  21  23  1   
 48  21  46  1   
 49  21  47  1   
 50  22  48  1   
 51  22  49  1   
 52  23  50  1   
@<TRIPOS>SUBSTRUCTURE
  1 ****   6 GROUP 4 **** **** 0

# MOE 2024.06 (io_trps.svl 2023.06)
