@<TRIPOS>MOLECULE
NONAME
50 53 1 0 0 
SMALL
USER_CHARGES


@<TRIPOS>ATOM
  1 O        2.2360    -2.0320    -1.8950 O.3   1 <1>  -0.6800 
  2 C        1.2620    -1.3540    -1.1530 C.3   1 <1>   0.1200 
  3 C        1.1840    -1.7580     0.3620 C.3   1 <1>   0.0000 
  4 C        2.3180    -2.6580     0.9360 C.3   1 <1>   0.4230 
  5 C        1.2290    -0.4500     1.2060 C.3   1 <1>  -0.1600 
  6 C       -0.1550    -2.4850     0.6180 C.3   1 <1>  -0.1600 
  7 N        2.1330    -4.1560     0.7090 N.4   1 <1>  -0.9590 
  8 C        3.7130    -2.0380     0.6510 C.3   1 <1>   0.2090 
  9 C        2.6470     0.1000     1.4930 C.3   1 <1>   0.2090 
 10 C       -0.2090    -3.8620    -0.0760 C.3   1 <1>  -0.1600 
 11 C        1.1610    -4.4890    -0.3720 C.3   1 <1>   0.3430 
 12 C        3.3940    -4.9480     0.5450 C.3   1 <1>   0.2630 
 13 N        3.6660    -0.5240     0.5840 N.pl3 1 <1>  -0.8380 
 14 C        4.3850     0.2160    -0.2910 C.ar  1 <1>   0.4610 
 15 N        4.4230    -0.2100    -1.5580 N.ar  1 <1>  -0.1790 
 16 C        5.0520     1.4520     0.0340 C.ar  1 <1>   0.0000 
 17 C        5.0080     0.4960    -2.5840 C.ar  1 <1>   0.2110 
 18 C        5.6200     2.2140    -1.0100 C.ar  1 <1>   0.0000 
 19 C        5.2150     1.9340     1.3460 C.ar  1 <1>  -0.1500 
 20 C        5.5870     1.6910    -2.3300 C.ar  1 <1>  -0.1500 
 21 C        6.2270     3.4440    -0.7270 C.ar  1 <1>  -0.1500 
 22 C        5.8250     3.1360     1.6070 C.ar  1 <1>  -0.1500 
 23 C        6.3250     3.9040     0.5610 C.ar  1 <1>  -0.1500 
 24 H        1.8950    -2.1750    -2.8110 H     1 <1>   0.4000 
 25 H        1.4700    -0.3020    -1.2560 H     1 <1>   0.0800 
 26 H        0.3120    -1.5280    -1.6320 H     1 <1>   0.0800 
 27 H        2.2180    -2.5440     2.0020 H     1 <1>   0.0800 
 28 H        0.7610    -0.6130     2.1630 H     1 <1>   0.0800 
 29 H        0.6430     0.3190     0.7310 H     1 <1>   0.0800 
 30 H       -0.2790    -2.6400     1.6770 H     1 <1>   0.0800 
 31 H       -0.9890    -1.8810     0.2960 H     1 <1>   0.0800 
 32 H        1.6790    -4.5020     1.5670 H     1 <1>   0.4500 
 33 H        4.1120    -2.4370    -0.2630 H     1 <1>   0.0800 
 34 H        4.3790    -2.3170     1.4500 H     1 <1>   0.0800 
 35 H        2.9180    -0.1090     2.5160 H     1 <1>   0.0800 
 36 H        2.6350     1.1720     1.3720 H     1 <1>   0.0800 
 37 H       -0.7340    -3.7700    -1.0120 H     1 <1>   0.0800 
 38 H       -0.7870    -4.5410     0.5280 H     1 <1>   0.0800 
 39 H        1.5320    -4.1210    -1.3130 H     1 <1>   0.0800 
 40 H        1.0510    -5.5590    -0.4610 H     1 <1>   0.0800 
 41 H        3.8970    -4.6700    -0.3660 H     1 <1>   0.0800 
 42 H        3.1700    -6.0020     0.5020 H     1 <1>   0.0800 
 43 H        4.0580    -4.7780     1.3780 H     1 <1>   0.0800 
 44 H        3.8510    -1.0390    -1.7610 H     1 <1>   0.4570 
 45 H        4.9720     0.0710    -3.5750 H     1 <1>   0.1500 
 46 H        4.8670     1.3520     2.1790 H     1 <1>   0.1500 
 47 H        6.0420     2.2710    -3.1150 H     1 <1>   0.1500 
 48 H        6.6300     4.0350    -1.5320 H     1 <1>   0.1500 
 49 H        5.9290     3.4940     2.6180 H     1 <1>   0.1500 
 50 H        6.7940     4.8500     0.7750 H     1 <1>   0.1500 
@<TRIPOS>BOND
  1   1   2  1   
  2   1  24  1   
  3   2   3  1   
  4   2  25  1   
  5   2  26  1   
  6   3   4  1   
  7   3   5  1   
  8   3   6  1   
  9   4   7  1   
 10   4   8  1   
 11   4  27  1   
 12   5   9  1   
 13   5  28  1   
 14   5  29  1   
 15   6  10  1   
 16   6  30  1   
 17   6  31  1   
 18   7  11  1   
 19   7  12  1   
 20   7  32  1   
 21   8  13  1   
 22   8  33  1   
 23   8  34  1   
 24   9  13  1   
 25   9  35  1   
 26   9  36  1   
 27  10  11  1   
 28  10  37  1   
 29  10  38  1   
 30  11  39  1   
 31  11  40  1   
 32  12  41  1   
 33  12  42  1   
 34  12  43  1   
 35  13  14  1   
 36  14  15  ar  
 37  14  16  ar  
 38  15  17  ar  
 39  15  44  1   
 40  16  18  ar  
 41  16  19  ar  
 42  17  20  ar  
 43  17  45  1   
 44  18  20  ar  
 45  18  21  ar  
 46  19  22  ar  
 47  19  46  1   
 48  20  47  1   
 49  21  23  ar  
 50  21  48  1   
 51  22  23  ar  
 52  22  49  1   
 53  23  50  1   
@<TRIPOS>SUBSTRUCTURE
  1 ****  13 GROUP 4 **** **** 0

# MOE 2024.06 (io_trps.svl 2023.06)
