@<TRIPOS>MOLECULE
NONAME
57 60 1 0 0 
SMALL
USER_CHARGES


@<TRIPOS>ATOM
  1 O       -0.4380     0.0670    -0.1580 O.2   1 <1>  -0.5700 
  2 C       -1.5160     0.6130    -0.1460 C.2   1 <1>   0.5690 
  3 N       -2.6760    -0.1040    -0.2430 N.am  1 <1>  -0.6600 
  4 C       -1.5900     2.1320    -0.0270 C.3   1 <1>  -0.0990 
  5 C       -4.0560     0.4400    -0.2270 C.3   1 <1>   0.1400 
  6 C       -2.6950    -1.5820    -0.3560 C.3   1 <1>   0.1400 
  7 C       -0.2230     2.8240     0.1560 C.3   1 <1>  -0.1600 
  8 C       -4.9680    -0.7810    -0.3650 C.3   1 <1>   0.2000 
  9 C       -4.1180    -1.9860     0.0350 C.3   1 <1>  -0.0800 
 10 C       -0.3250     4.3420     0.4010 C.3   1 <1>  -0.0800 
 11 O       -6.0730    -0.6850     0.4670 O.3   1 <1>  -0.6800 
 12 C       -4.5960    -3.2930    -0.6190 C.3   1 <1>  -0.0170 
 13 C       -0.9150     5.0920    -0.8090 C.3   1 <1>  -0.1600 
 14 C        1.0680     4.8990     0.7450 C.3   1 <1>  -0.1600 
 15 C       -3.7230    -4.4670    -0.2130 C.ar  1 <1>   0.1670 
 16 C       -0.9430     6.6090    -0.5790 C.3   1 <1>  -0.1600 
 17 C        1.0340     6.4150     0.9810 C.3   1 <1>  -0.1600 
 18 N       -2.6810    -4.7180    -0.9450 N.ar  1 <1>  -0.6200 
 19 C       -4.0720    -5.2120     0.9250 C.ar  1 <1>  -0.1500 
 20 C        0.4490     7.1480    -0.2320 C.3   1 <1>  -0.1600 
 21 C       -1.8860    -5.7560    -0.5790 C.ar  1 <1>   0.3100 
 22 C       -3.2940    -6.2610     1.3120 C.ar  1 <1>  -0.1500 
 23 C       -2.1540    -6.5610     0.5490 C.ar  1 <1>   0.0000 
 24 C       -0.7470    -6.0420    -1.3490 C.ar  1 <1>  -0.1500 
 25 C       -1.2770    -7.6190     0.8590 C.ar  1 <1>  -0.1500 
 26 C        0.0940    -7.0750    -1.0300 C.ar  1 <1>  -0.1500 
 27 C       -0.1750    -7.8720     0.0870 C.ar  1 <1>  -0.1500 
 28 H       -2.0610     2.5000    -0.9180 H     1 <1>   0.0800 
 29 H       -2.2130     2.3720     0.8140 H     1 <1>   0.0800 
 30 H       -4.2300     0.9470     0.7060 H     1 <1>   0.0800 
 31 H       -4.2010     1.1140    -1.0520 H     1 <1>   0.0800 
 32 H       -2.4810    -1.8580    -1.3750 H     1 <1>   0.0800 
 33 H       -1.9610    -2.0320     0.2910 H     1 <1>   0.0800 
 34 H        0.3870     2.6350    -0.7110 H     1 <1>   0.0800 
 35 H        0.2700     2.3700     0.9990 H     1 <1>   0.0800 
 36 H       -5.3130    -0.8640    -1.3810 H     1 <1>   0.0800 
 37 H       -4.1290    -2.0970     1.1050 H     1 <1>   0.0800 
 38 H       -0.9660     4.5080     1.2510 H     1 <1>   0.0800 
 39 H       -5.7920    -0.6550     1.4020 H     1 <1>   0.4000 
 40 H       -4.5750    -3.1960    -1.6900 H     1 <1>   0.0800 
 41 H       -5.6150    -3.4860    -0.3330 H     1 <1>   0.0800 
 42 H       -0.3230     4.8800    -1.6840 H     1 <1>   0.0800 
 43 H       -1.9190     4.7610    -1.0000 H     1 <1>   0.0800 
 44 H        1.4450     4.4150     1.6290 H     1 <1>   0.0800 
 45 H        1.7490     4.6850    -0.0620 H     1 <1>   0.0800 
 46 H       -1.3080     7.1010    -1.4640 H     1 <1>   0.0800 
 47 H       -1.6220     6.8340     0.2270 H     1 <1>   0.0800 
 48 H        0.4350     6.6270     1.8500 H     1 <1>   0.0800 
 49 H        2.0310     6.7720     1.1720 H     1 <1>   0.0800 
 50 H       -4.9520    -4.9440     1.4800 H     1 <1>   0.1500 
 51 H        0.3870     8.2020    -0.0220 H     1 <1>   0.0800 
 52 H        1.1030     7.0170    -1.0770 H     1 <1>   0.0800 
 53 H       -3.5290    -6.8550     2.1770 H     1 <1>   0.1500 
 54 H       -0.5580    -5.4170    -2.2020 H     1 <1>   0.1500 
 55 H       -1.4890    -8.2280     1.7200 H     1 <1>   0.1500 
 56 H        0.9640    -7.2830    -1.6290 H     1 <1>   0.1500 
 57 H        0.4940    -8.6810     0.3260 H     1 <1>   0.1500 
@<TRIPOS>BOND
  1   1   2  2   
  2   2   3  am  
  3   2   4  1   
  4   3   5  1   
  5   3   6  1   
  6   4   7  1   
  7   4  28  1   
  8   4  29  1   
  9   5   8  1   
 10   5  30  1   
 11   5  31  1   
 12   6   9  1   
 13   6  32  1   
 14   6  33  1   
 15   7  10  1   
 16   7  34  1   
 17   7  35  1   
 18   8   9  1   
 19   8  11  1   
 20   8  36  1   
 21   9  12  1   
 22   9  37  1   
 23  10  13  1   
 24  10  14  1   
 25  10  38  1   
 26  11  39  1   
 27  12  15  1   
 28  12  40  1   
 29  12  41  1   
 30  13  16  1   
 31  13  42  1   
 32  13  43  1   
 33  14  17  1   
 34  14  44  1   
 35  14  45  1   
 36  15  18  ar  
 37  15  19  ar  
 38  16  20  1   
 39  16  46  1   
 40  16  47  1   
 41  17  20  1   
 42  17  48  1   
 43  17  49  1   
 44  18  21  ar  
 45  19  22  ar  
 46  19  50  1   
 47  20  51  1   
 48  20  52  1   
 49  21  23  ar  
 50  21  24  ar  
 51  22  23  ar  
 52  22  53  1   
 53  23  25  ar  
 54  24  26  ar  
 55  24  54  1   
 56  25  27  ar  
 57  25  55  1   
 58  26  27  ar  
 59  26  56  1   
 60  27  57  1   
@<TRIPOS>SUBSTRUCTURE
  1 ****   6 GROUP 4 **** **** 0

# MOE 2024.06 (io_trps.svl 2023.06)
