@<TRIPOS>MOLECULE
NONAME
44 46 1 0 0 
SMALL
USER_CHARGES


@<TRIPOS>ATOM
  1 O       -0.2750     2.0510     3.0740 O.co2 1 <1>  -0.9000 
  2 C        0.6500     1.7860     2.2850 C.2   1 <1>   0.9790 
  3 O        1.0810     0.6200     2.2340 O.co2 1 <1>  -0.9000 
  4 C        1.2300     2.8280     1.4500 C.ar  1 <1>  -0.1790 
  5 C        2.2750     2.5620     0.5650 C.ar  1 <1>  -0.1500 
  6 C        0.7650     4.1420     1.5020 C.ar  1 <1>  -0.1500 
  7 C        2.8460     3.5590    -0.2010 C.ar  1 <1>  -0.1500 
  8 C        1.3340     5.1390     0.7360 C.ar  1 <1>  -0.1500 
  9 C        2.4050     4.8780    -0.1190 C.ar  1 <1>   0.0860 
 10 C        3.0560     5.9440    -0.8560 C.2   1 <1>   0.5440 
 11 O        3.6680     5.7340    -1.8890 O.2   1 <1>  -0.5700 
 12 N        3.1240     7.2160    -0.3430 N.am  1 <1>  -0.6600 
 13 C        3.8760     7.3630     0.9570 C.3   1 <1>   0.2200 
 14 C        3.0680     8.3890    -1.2750 C.3   1 <1>   0.1400 
 15 C        3.4990     8.6410     1.7200 C.3   1 <1>   0.1200 
 16 C        5.4050     7.2640     0.7210 C.3   1 <1>   0.3430 
 17 C        4.1930     9.4270    -1.0910 C.3   1 <1>  -0.0800 
 18 O        4.2860     9.7190     1.3190 O.3   1 <1>  -0.5600 
 19 N        5.7750     7.4530    -0.7250 N.4   1 <1>  -0.9590 
 20 C        3.9460    10.3360     0.1230 C.3   1 <1>   0.1200 
 21 C        5.6370     8.8820    -1.1410 C.3   1 <1>   0.3430 
 22 C        7.2150     7.0130    -0.9280 C.3   1 <1>   0.2370 
 23 C        8.2350     7.7780    -0.0780 C.2   1 <1>   0.9060 
 24 O        8.4560     7.3670     1.0650 O.co2 1 <1>  -0.9000 
 25 O        8.6860     8.8350    -0.5280 O.co2 1 <1>  -0.9000 
 26 H        2.6360     1.5480     0.4940 H     1 <1>   0.1500 
 27 H       -0.0570     4.3650     2.1630 H     1 <1>   0.1500 
 28 H        3.6520     3.3120    -0.8700 H     1 <1>   0.1500 
 29 H        0.9400     6.1370     0.8080 H     1 <1>   0.1500 
 30 H        3.5990     6.5440     1.5980 H     1 <1>   0.0800 
 31 H        3.0930     8.0370    -2.2930 H     1 <1>   0.0800 
 32 H        2.1160     8.8750    -1.1440 H     1 <1>   0.0800 
 33 H        3.7030     8.4940     2.7660 H     1 <1>   0.0800 
 34 H        2.4560     8.8820     1.6090 H     1 <1>   0.0800 
 35 H        5.7360     6.2900     1.0420 H     1 <1>   0.0800 
 36 H        5.9240     7.9860     1.3330 H     1 <1>   0.0800 
 37 H        4.1110    10.0880    -1.9340 H     1 <1>   0.0800 
 38 H        5.1230     6.8700    -1.2880 H     1 <1>   0.4500 
 39 H        2.9200    10.6570     0.1780 H     1 <1>   0.0800 
 40 H        4.5660    11.2140     0.0460 H     1 <1>   0.0800 
 41 H        6.2730     9.4970    -0.5220 H     1 <1>   0.0800 
 42 H        6.0000     8.9720    -2.1510 H     1 <1>   0.0800 
 43 H        7.3150     5.9730    -0.6820 H     1 <1>   0.0800 
 44 H        7.4950     7.1460    -1.9570 H     1 <1>   0.0800 
@<TRIPOS>BOND
  1   1   2  ar  
  2   2   3  ar  
  3   2   4  1   
  4   4   5  ar  
  5   4   6  ar  
  6   5   7  ar  
  7   5  26  1   
  8   6   8  ar  
  9   6  27  1   
 10   7   9  ar  
 11   7  28  1   
 12   8   9  ar  
 13   8  29  1   
 14   9  10  1   
 15  10  11  2   
 16  10  12  am  
 17  12  13  1   
 18  12  14  1   
 19  13  15  1   
 20  13  16  1   
 21  13  30  1   
 22  14  17  1   
 23  14  31  1   
 24  14  32  1   
 25  15  18  1   
 26  15  33  1   
 27  15  34  1   
 28  16  19  1   
 29  16  35  1   
 30  16  36  1   
 31  17  20  1   
 32  17  21  1   
 33  17  37  1   
 34  18  20  1   
 35  19  21  1   
 36  19  22  1   
 37  19  38  1   
 38  20  39  1   
 39  20  40  1   
 40  21  41  1   
 41  21  42  1   
 42  22  23  1   
 43  22  43  1   
 44  22  44  1   
 45  23  24  ar  
 46  23  25  ar  
@<TRIPOS>SUBSTRUCTURE
  1 ****  13 GROUP 4 **** **** 0

# MOE 2024.06 (io_trps.svl 2023.06)
