@<TRIPOS>MOLECULE
NONAME
49 51 1 0 0 
SMALL
USER_CHARGES


@<TRIPOS>ATOM
  1 F        0.3490     0.7620     0.2650 F     1 <1>  -0.1900 
  2 C        1.3960     1.5400     0.3590 C.ar  1 <1>   0.1900 
  3 C        2.2470     1.3840     1.4360 C.ar  1 <1>  -0.1500 
  4 C        1.6100     2.4890    -0.6220 C.ar  1 <1>  -0.1500 
  5 C        3.3530     2.2120     1.5280 C.ar  1 <1>  -0.1500 
  6 C        2.7190     3.3130    -0.5230 C.ar  1 <1>  -0.1500 
  7 C        3.5950     3.1750     0.5560 C.ar  1 <1>   0.0830 
  8 O        4.7030     3.9400     0.7280 O.3   1 <1>  -0.3630 
  9 C        5.0520     4.9430    -0.1910 C.3   1 <1>   0.1200 
 10 C        6.3430     5.5860     0.3140 C.3   1 <1>  -0.1600 
 11 C        6.8050     6.6910    -0.6340 C.3   1 <1>   0.3430 
 12 N        8.0020     7.3830    -0.0810 N.4   1 <1>  -0.9590 
 13 C        8.2230     8.6780    -0.8060 C.3   1 <1>   0.3430 
 14 C        9.2260     6.5250    -0.1280 C.3   1 <1>   0.3430 
 15 C        9.3870     9.4710    -0.1980 C.3   1 <1>  -0.0190 
 16 C       10.4010     7.2620     0.5170 C.3   1 <1>  -0.1600 
 17 C        9.6050    10.7490    -1.0110 C.2   1 <1>   0.4230 
 18 C       10.6670     8.6150    -0.1590 C.3   1 <1>  -0.1600 
 19 O        9.2430    10.7170    -2.1630 O.2   1 <1>  -0.5700 
 20 C       10.2200    11.9100    -0.3860 C.ar  1 <1>   0.3960 
 21 N       10.5400    11.8560     0.9170 N.ar  1 <1>  -0.6200 
 22 C       10.4660    13.0560    -1.1460 C.ar  1 <1>  -0.1500 
 23 C       11.0960    12.9320     1.4460 C.ar  1 <1>   0.1600 
 24 C       11.0450    14.1720    -0.5840 C.ar  1 <1>  -0.1500 
 25 C       11.3670    14.0970     0.7520 C.ar  1 <1>  -0.1500 
 26 H        2.0470     0.6340     2.1800 H     1 <1>   0.1500 
 27 H        0.9210     2.5750    -1.4430 H     1 <1>   0.1500 
 28 H        4.0350     2.1140     2.3540 H     1 <1>   0.1500 
 29 H        2.8780     4.0470    -1.2890 H     1 <1>   0.1500 
 30 H        4.2470     5.6580    -0.2300 H     1 <1>   0.0800 
 31 H        5.1940     4.4820    -1.1540 H     1 <1>   0.0800 
 32 H        7.0910     4.8170     0.3850 H     1 <1>   0.0800 
 33 H        6.1560     5.9990     1.2890 H     1 <1>   0.0800 
 34 H        6.0030     7.4030    -0.7520 H     1 <1>   0.0800 
 35 H        7.0310     6.2770    -1.6040 H     1 <1>   0.0800 
 36 H        7.8180     7.6060     0.9060 H     1 <1>   0.4500 
 37 H        7.3310     9.2820    -0.7680 H     1 <1>   0.0800 
 38 H        8.4430     8.4790    -1.8430 H     1 <1>   0.0800 
 39 H        9.4690     6.2900    -1.1520 H     1 <1>   0.0800 
 40 H        9.0560     5.6010     0.4010 H     1 <1>   0.0800 
 41 H        9.1070     9.7420     0.8040 H     1 <1>   0.0800 
 42 H       11.2830     6.6500     0.4390 H     1 <1>   0.0800 
 43 H       10.2040     7.4060     1.5650 H     1 <1>   0.0800 
 44 H       11.4420     9.1400     0.3750 H     1 <1>   0.0800 
 45 H       11.0190     8.4500    -1.1650 H     1 <1>   0.0800 
 46 H       10.1970    13.0670    -2.1880 H     1 <1>   0.1500 
 47 H       11.3540    12.8890     2.4910 H     1 <1>   0.1500 
 48 H       11.2390    15.0600    -1.1620 H     1 <1>   0.1500 
 49 H       11.8230    14.9330     1.2530 H     1 <1>   0.1500 
@<TRIPOS>BOND
  1   1   2  1   
  2   2   3  ar  
  3   2   4  ar  
  4   3   5  ar  
  5   3  26  1   
  6   4   6  ar  
  7   4  27  1   
  8   5   7  ar  
  9   5  28  1   
 10   6   7  ar  
 11   6  29  1   
 12   7   8  1   
 13   8   9  1   
 14   9  10  1   
 15   9  30  1   
 16   9  31  1   
 17  10  11  1   
 18  10  32  1   
 19  10  33  1   
 20  11  12  1   
 21  11  34  1   
 22  11  35  1   
 23  12  13  1   
 24  12  14  1   
 25  12  36  1   
 26  13  15  1   
 27  13  37  1   
 28  13  38  1   
 29  14  16  1   
 30  14  39  1   
 31  14  40  1   
 32  15  17  1   
 33  15  18  1   
 34  15  41  1   
 35  16  18  1   
 36  16  42  1   
 37  16  43  1   
 38  17  19  2   
 39  17  20  1   
 40  18  44  1   
 41  18  45  1   
 42  20  21  ar  
 43  20  22  ar  
 44  21  23  ar  
 45  22  24  ar  
 46  22  46  1   
 47  23  25  ar  
 48  23  47  1   
 49  24  25  ar  
 50  24  48  1   
 51  25  49  1   
@<TRIPOS>SUBSTRUCTURE
  1 ****  12 GROUP 4 **** **** 0

# MOE 2024.06 (io_trps.svl 2023.06)
