@<TRIPOS>MOLECULE
NONAME
38 41 1 0 0 
SMALL
USER_CHARGES


@<TRIPOS>ATOM
  1 O        3.8060     1.6650     2.7490 O.co2 1 <1>  -0.9000 
  2 C        4.3710     0.8700     2.0060 C.2   1 <1>   0.9060 
  3 O        5.5950     0.7300     2.1420 O.co2 1 <1>  -0.9000 
  4 C        3.7050     0.4590     0.6900 C.3   1 <1>  -0.0480 
  5 C        4.7300     0.2630    -0.4200 C.2   1 <1>  -0.2880 
  6 C        2.8280     1.5920     0.0810 C.3   1 <1>  -0.1600 
  7 C        4.7050     1.2290    -1.3310 C.2   1 <1>  -0.2880 
  8 C        3.6410     2.2590    -1.0500 C.3   1 <1>   0.3140 
  9 N        4.2470     3.5680    -0.6670 N.pl3 1 <1>   0.0480 
 10 C        5.1610     3.9100     0.2690 C.ar  1 <1>   0.1560 
 11 C        3.9690     4.7470    -1.2920 C.2   1 <1>   0.0360 
 12 N        5.8320     3.2130     1.2240 N.ar  1 <1>  -0.1260 
 13 C        5.3830     5.2550     0.1840 C.ar  1 <1>   0.2270 
 14 N        4.6130     5.7620    -0.8300 N.2   1 <1>  -0.5650 
 15 C        6.6110     3.8300     2.1130 C.ar  1 <1>   0.7710 
 16 C        6.3010     5.8410     1.1140 C.ar  1 <1>   0.4100 
 17 N        6.8910     5.1260     2.0650 N.ar  1 <1>  -0.6200 
 18 N        7.1230     3.1020     3.0970 N.pl3 1 <1>  -0.9000 
 19 N        6.6460     7.1500     1.1270 N.pl3 1 <1>  -0.6690 
 20 C        6.2210     8.2300     0.2260 C.3   1 <1>   0.0690 
 21 C        6.8900     9.5560     0.3820 C.3   1 <1>  -0.2000 
 22 C        5.4700     9.3730     0.8220 C.3   1 <1>  -0.2000 
 23 H        3.1260    -0.4310     0.8550 H     1 <1>   0.0800 
 24 H        5.3810    -0.5960    -0.3570 H     1 <1>   0.1500 
 25 H        2.4690     2.3030     0.8050 H     1 <1>   0.0800 
 26 H        1.9690     1.1240    -0.3660 H     1 <1>   0.0800 
 27 H        5.3280     1.3490    -2.2010 H     1 <1>   0.1500 
 28 H        3.0160     2.3970    -1.9150 H     1 <1>   0.0800 
 29 H        3.2640     4.8030    -2.1060 H     1 <1>   0.1500 
 30 H        5.6980     2.2100     1.4250 H     1 <1>   0.4570 
 31 H        6.8170     2.1220     3.2480 H     1 <1>   0.4000 
 32 H        7.6730     3.5230     3.8440 H     1 <1>   0.4000 
 33 H        7.2600     7.4490     1.8860 H     1 <1>   0.4000 
 34 H        5.9800     7.9030    -0.7720 H     1 <1>   0.1000 
 35 H        7.6530     9.6760     1.1300 H     1 <1>   0.1000 
 36 H        7.0730    10.1500    -0.4960 H     1 <1>   0.1000 
 37 H        4.6880     9.8280     0.2400 H     1 <1>   0.1000 
 38 H        5.2400     9.3410     1.8730 H     1 <1>   0.1000 
@<TRIPOS>BOND
  1   1   2  ar  
  2   2   3  ar  
  3   2   4  1   
  4   4   5  1   
  5   4   6  1   
  6   4  23  1   
  7   5   7  2   
  8   5  24  1   
  9   6   8  1   
 10   6  25  1   
 11   6  26  1   
 12   7   8  1   
 13   7  27  1   
 14   8   9  1   
 15   8  28  1   
 16   9  10  1   
 17   9  11  1   
 18  10  12  ar  
 19  10  13  ar  
 20  11  14  2   
 21  11  29  1   
 22  12  15  ar  
 23  12  30  1   
 24  13  14  1   
 25  13  16  ar  
 26  15  17  ar  
 27  15  18  1   
 28  16  17  ar  
 29  16  19  1   
 30  18  31  1   
 31  18  32  1   
 32  19  20  1   
 33  19  33  1   
 34  20  21  1   
 35  20  22  1   
 36  20  34  1   
 37  21  22  1   
 38  21  35  1   
 39  21  36  1   
 40  22  37  1   
 41  22  38  1   
@<TRIPOS>SUBSTRUCTURE
  1 ****  10 GROUP 4 **** **** 0

# MOE 2024.06 (io_trps.svl 2023.06)
