@<TRIPOS>MOLECULE
NONAME
51 54 1 0 0 
SMALL
USER_CHARGES


@<TRIPOS>ATOM
  1 S        2.5150     3.3590    -2.9660 S.3   1 <1>  -0.0800 
  2 C        2.9410     1.8180    -2.2130 C.2   1 <1>   0.0400 
  3 C        1.9360     2.5710    -4.4190 C.2   1 <1>  -0.1100 
  4 C        3.5150     1.8240    -0.8970 C.2   1 <1>   0.4780 
  5 C        2.6320     0.8140    -3.0740 C.2   1 <1>  -0.1500 
  6 C        2.0670     1.2360    -4.3140 C.2   1 <1>  -0.1500 
  7 O        3.8810     0.6840    -0.3390 O.3   1 <1>  -0.2800 
  8 N        3.7510     2.8500    -0.1310 N.2   1 <1>  -0.5650 
  9 C        4.3690     0.9750     0.8320 C.2   1 <1>  -0.0400 
 10 C        4.2930     2.3060     0.9760 C.2   1 <1>   0.0460 
 11 C        4.8710    -0.1570     1.7080 C.3   1 <1>  -0.0600 
 12 C        4.7200     3.2040     2.1260 C.3   1 <1>   0.5240 
 13 N        5.2770     4.4570     1.5390 N.4   1 <1>  -0.9590 
 14 C        6.6220     4.2420     0.9380 C.3   1 <1>   0.3430 
 15 C        5.2060     5.6160     2.4660 C.3   1 <1>   0.3430 
 16 C        7.0480     5.4990     0.1850 C.3   1 <1>  -0.1600 
 17 C        5.6280     6.8880     1.7330 C.3   1 <1>  -0.1600 
 18 C        7.0160     6.7460     1.0880 C.3   1 <1>   0.1000 
 19 C        7.3800     8.0180     0.3290 C.2   1 <1>   0.2980 
 20 O        7.6860     9.0830     1.0260 O.3   1 <1>  -0.0190 
 21 N        7.4120     8.1620    -0.9340 N.2   1 <1>  -0.5650 
 22 N        7.9370     9.9830     0.1270 N.2   1 <1>  -0.4100 
 23 C        7.7750     9.4370    -1.0140 C.2   1 <1>   0.3350 
 24 C        7.9660    10.1140    -2.3730 C.3   1 <1>   0.1010 
 25 C        9.3500     9.7860    -2.9500 C.3   1 <1>  -0.2400 
 26 C        7.7730    11.6380    -2.3070 C.3   1 <1>  -0.2400 
 27 H        1.5540     3.1970    -5.2070 H     1 <1>   0.1500 
 28 H        2.7880    -0.2310    -2.8690 H     1 <1>   0.1500 
 29 H        1.7850     0.5220    -5.0680 H     1 <1>   0.1500 
 30 H        5.6600    -0.6850     1.2030 H     1 <1>   0.0800 
 31 H        4.0690    -0.8480     1.9010 H     1 <1>   0.0800 
 32 H        5.2430     0.2130     2.6450 H     1 <1>   0.0800 
 33 H        5.4450     2.7100     2.7510 H     1 <1>   0.0800 
 34 H        3.8480     3.4360     2.7150 H     1 <1>   0.0800 
 35 H        4.6360     4.6240     0.7390 H     1 <1>   0.4500 
 36 H        6.5900     3.4100     0.2500 H     1 <1>   0.0800 
 37 H        7.3400     4.0200     1.7100 H     1 <1>   0.0800 
 38 H        5.8600     5.4520     3.3080 H     1 <1>   0.0800 
 39 H        4.1990     5.7350     2.8350 H     1 <1>   0.0800 
 40 H        6.3980     5.6370    -0.6620 H     1 <1>   0.0800 
 41 H        8.0440     5.3610    -0.1980 H     1 <1>   0.0800 
 42 H        5.6400     7.7070     2.4320 H     1 <1>   0.0800 
 43 H        4.8980     7.1230     0.9770 H     1 <1>   0.0800 
 44 H        7.7510     6.6190     1.8650 H     1 <1>   0.0800 
 45 H        7.2190     9.7160    -3.0380 H     1 <1>   0.0800 
 46 H       10.1220    10.1610    -2.3010 H     1 <1>   0.0800 
 47 H        9.4680    10.2270    -3.9230 H     1 <1>   0.0800 
 48 H        9.4670     8.7200    -3.0400 H     1 <1>   0.0800 
 49 H        8.5160    12.0840    -1.6690 H     1 <1>   0.0800 
 50 H        6.8000    11.8670    -1.9100 H     1 <1>   0.0800 
 51 H        7.8540    12.0700    -3.2880 H     1 <1>   0.0800 
@<TRIPOS>BOND
  1   1   2  1   
  2   1   3  1   
  3   2   4  1   
  4   2   5  2   
  5   3   6  2   
  6   3  27  1   
  7   4   7  1   
  8   4   8  2   
  9   5   6  1   
 10   5  28  1   
 11   6  29  1   
 12   7   9  1   
 13   8  10  1   
 14   9  10  2   
 15   9  11  1   
 16  10  12  1   
 17  11  30  1   
 18  11  31  1   
 19  11  32  1   
 20  12  13  1   
 21  12  33  1   
 22  12  34  1   
 23  13  14  1   
 24  13  15  1   
 25  13  35  1   
 26  14  16  1   
 27  14  36  1   
 28  14  37  1   
 29  15  17  1   
 30  15  38  1   
 31  15  39  1   
 32  16  18  1   
 33  16  40  1   
 34  16  41  1   
 35  17  18  1   
 36  17  42  1   
 37  17  43  1   
 38  18  19  1   
 39  18  44  1   
 40  19  20  1   
 41  19  21  2   
 42  20  22  1   
 43  21  23  1   
 44  22  23  2   
 45  23  24  1   
 46  24  25  1   
 47  24  26  1   
 48  24  45  1   
 49  25  46  1   
 50  25  47  1   
 51  25  48  1   
 52  26  49  1   
 53  26  50  1   
 54  26  51  1   
@<TRIPOS>SUBSTRUCTURE
  1 ****  16 GROUP 4 **** **** 0

# MOE 2024.06 (io_trps.svl 2023.06)
