@<TRIPOS>MOLECULE
NONAME
53 57 1 0 0 
SMALL
USER_CHARGES


@<TRIPOS>ATOM
  1 F       -0.9380    -0.1850    -1.6460 F     1 <1>  -0.1900 
  2 C       -1.8850    -0.9670    -1.1690 C.ar  1 <1>   0.1900 
  3 C       -3.0600    -0.4580    -0.6100 C.ar  1 <1>   0.4100 
  4 C       -1.7080    -2.3200    -1.2400 C.ar  1 <1>   0.1600 
  5 N       -3.9810    -1.3010    -0.1750 N.ar  1 <1>  -0.6200 
  6 N       -3.3520     0.9000    -0.4860 N.pl3 1 <1>  -0.8380 
  7 N       -2.6220    -3.1620    -0.7960 N.ar  1 <1>  -0.6200 
  8 C       -3.7050    -2.5870    -0.2850 C.ar  1 <1>   0.7200 
  9 C       -2.3120     1.9410    -0.2990 C.3   1 <1>   0.2090 
 10 C       -4.6560     1.3770     0.0380 C.3   1 <1>   0.2090 
 11 N       -4.6810    -3.3930     0.1880 N.pl3 1 <1>  -0.8690 
 12 C       -2.9810     3.0330     0.5270 C.3   1 <1>  -0.1600 
 13 C       -4.4700     2.8740     0.2430 C.3   1 <1>  -0.1600 
 14 C       -4.9270    -4.7400    -0.3770 C.3   1 <1>   0.2890 
 15 C       -6.3620    -5.2260    -0.2000 C.3   1 <1>  -0.0800 
 16 C       -4.1010    -5.8250     0.3200 C.3   1 <1>   0.1200 
 17 C       -6.1350    -6.7370    -0.1930 C.3   1 <1>   0.1200 
 18 C       -7.0370    -4.7590     1.1120 C.3   1 <1>  -0.0170 
 19 O       -4.9460    -6.9280     0.5020 O.3   1 <1>  -0.5600 
 20 C       -8.4380    -5.3410     1.2710 C.ar  1 <1>  -0.1440 
 21 C       -9.5490    -4.8610     0.5370 C.ar  1 <1>   0.0000 
 22 C       -8.6540    -6.3670     2.1430 C.ar  1 <1>  -0.1500 
 23 C      -10.7970    -5.4960     0.7460 C.ar  1 <1>   0.3100 
 24 C       -9.4970    -3.7890    -0.3850 C.ar  1 <1>  -0.1500 
 25 C       -9.9330    -6.9190     2.2810 C.ar  1 <1>   0.1600 
 26 N      -10.9720    -6.5210     1.6180 N.ar  1 <1>  -0.6200 
 27 C      -11.9150    -5.0520     0.0220 C.ar  1 <1>  -0.1500 
 28 C      -10.6070    -3.3790    -1.0730 C.ar  1 <1>  -0.1500 
 29 C      -11.8320    -4.0180    -0.8710 C.ar  1 <1>  -0.1500 
 30 H       -0.8070    -2.7210    -1.6680 H     1 <1>   0.1500 
 31 H       -1.4480     1.5460     0.2090 H     1 <1>   0.0800 
 32 H       -2.0240     2.3250    -1.2640 H     1 <1>   0.0800 
 33 H       -5.4480     1.1640    -0.6590 H     1 <1>   0.0800 
 34 H       -4.8610     0.8950     0.9790 H     1 <1>   0.0800 
 35 H       -5.5120    -2.8460     0.3960 H     1 <1>   0.4000 
 36 H       -2.7860     2.8470     1.5690 H     1 <1>   0.0800 
 37 H       -2.6140     4.0100     0.2690 H     1 <1>   0.0800 
 38 H       -4.7260     3.3830    -0.6700 H     1 <1>   0.0800 
 39 H       -5.0860     3.2470     1.0420 H     1 <1>   0.0800 
 40 H       -4.6750    -4.7430    -1.4250 H     1 <1>   0.0800 
 41 H       -6.9610    -4.9530    -1.0480 H     1 <1>   0.0800 
 42 H       -3.7670    -5.5000     1.2890 H     1 <1>   0.0800 
 43 H       -3.2630    -6.1250    -0.2830 H     1 <1>   0.0800 
 44 H       -5.9940    -7.1080    -1.1940 H     1 <1>   0.0800 
 45 H       -6.9210    -7.2940     0.2860 H     1 <1>   0.0800 
 46 H       -7.1080    -3.6880     1.1470 H     1 <1>   0.0800 
 47 H       -6.4270    -5.0560     1.9480 H     1 <1>   0.0800 
 48 H       -7.8570    -6.7790     2.7360 H     1 <1>   0.1500 
 49 H       -8.5680    -3.2790    -0.5510 H     1 <1>   0.1500 
 50 H      -10.0590    -7.7290     2.9800 H     1 <1>   0.1500 
 51 H      -12.8480    -5.5560     0.1960 H     1 <1>   0.1500 
 52 H      -10.5530    -2.5620    -1.7730 H     1 <1>   0.1500 
 53 H      -12.6980    -3.6880    -1.4180 H     1 <1>   0.1500 
@<TRIPOS>BOND
  1   1   2  1   
  2   2   3  ar  
  3   2   4  ar  
  4   3   5  ar  
  5   3   6  1   
  6   4   7  ar  
  7   4  30  1   
  8   5   8  ar  
  9   6   9  1   
 10   6  10  1   
 11   7   8  ar  
 12   8  11  1   
 13   9  12  1   
 14   9  31  1   
 15   9  32  1   
 16  10  13  1   
 17  10  33  1   
 18  10  34  1   
 19  11  14  1   
 20  11  35  1   
 21  12  13  1   
 22  12  36  1   
 23  12  37  1   
 24  13  38  1   
 25  13  39  1   
 26  14  15  1   
 27  14  16  1   
 28  14  40  1   
 29  15  17  1   
 30  15  18  1   
 31  15  41  1   
 32  16  19  1   
 33  16  42  1   
 34  16  43  1   
 35  17  19  1   
 36  17  44  1   
 37  17  45  1   
 38  18  20  1   
 39  18  46  1   
 40  18  47  1   
 41  20  21  ar  
 42  20  22  ar  
 43  21  23  ar  
 44  21  24  ar  
 45  22  25  ar  
 46  22  48  1   
 47  23  26  ar  
 48  23  27  ar  
 49  24  28  ar  
 50  24  49  1   
 51  25  26  ar  
 52  25  50  1   
 53  27  29  ar  
 54  27  51  1   
 55  28  29  ar  
 56  28  52  1   
 57  29  53  1   
@<TRIPOS>SUBSTRUCTURE
  1 ****  11 GROUP 4 **** **** 0

# MOE 2024.06 (io_trps.svl 2023.06)
