@<TRIPOS>MOLECULE
NONAME
54 56 1 0 0 
SMALL
USER_CHARGES


@<TRIPOS>ATOM
  1 S       -0.0160     0.2510     0.9710 S.3   1 <1>  -0.4600 
  2 C       -0.1940     1.9440     0.3660 C.3   1 <1>   0.0700 
  3 C       -1.6860    -0.4450     0.8190 C.3   1 <1>  -0.0100 
  4 C        1.2000     2.5760     0.4340 C.3   1 <1>   0.3430 
  5 N        1.2230     3.9880    -0.0700 N.4   1 <1>  -0.9590 
  6 C        2.6400     4.4300    -0.2480 C.3   1 <1>   0.3430 
  7 C        0.4600     4.9150     0.8250 C.3   1 <1>   0.3430 
  8 C        2.6740     5.8300    -0.8460 C.3   1 <1>  -0.1600 
  9 C        0.4700     6.3270     0.2480 C.3   1 <1>  -0.1600 
 10 C        1.9060     6.7980     0.0490 C.3   1 <1>   0.2890 
 11 N        1.9030     8.1270    -0.5730 N.pl3 1 <1>  -0.8690 
 12 C        2.9160     9.0400    -0.4220 C.ar  1 <1>   0.4100 
 13 N        3.9410     8.6940     0.3470 N.ar  1 <1>  -0.6200 
 14 C        2.8450    10.2670    -1.0760 C.ar  1 <1>  -0.1500 
 15 C        4.9100     9.5870     0.4630 C.ar  1 <1>   0.1600 
 16 C        3.8590    11.1830    -0.9390 C.ar  1 <1>  -0.1500 
 17 C        4.9420    10.8470    -0.1300 C.ar  1 <1>   0.0860 
 18 C        6.0630    11.7300     0.0920 C.2   1 <1>   0.5440 
 19 O        7.1860    11.2620     0.1170 O.2   1 <1>  -0.5700 
 20 N        5.9080    13.0870     0.2900 N.am  1 <1>  -0.6600 
 21 C        7.0630    14.0330     0.2080 C.3   1 <1>   0.1400 
 22 C        4.6930    13.7020     0.9030 C.3   1 <1>   0.1400 
 23 C        7.2860    14.7320     1.5580 C.3   1 <1>   0.1200 
 24 C        5.0540    14.4350     2.2080 C.3   1 <1>   0.1200 
 25 O        6.1030    15.3370     1.9990 O.3   1 <1>  -0.5600 
 26 H       -0.9010     2.4330     1.0110 H     1 <1>   0.0800 
 27 H       -0.5610     1.8820    -0.6430 H     1 <1>   0.0800 
 28 H       -1.6470    -1.4620     1.1690 H     1 <1>   0.0800 
 29 H       -1.9730    -0.4130    -0.2160 H     1 <1>   0.0800 
 30 H       -2.3530     0.1390     1.4280 H     1 <1>   0.0800 
 31 H        1.8680     1.9720    -0.1590 H     1 <1>   0.0800 
 32 H        1.5480     2.5460     1.4550 H     1 <1>   0.0800 
 33 H        0.7830     4.0050    -1.0010 H     1 <1>   0.4500 
 34 H        3.1630     3.7500    -0.9010 H     1 <1>   0.0800 
 35 H        3.1450     4.4370     0.7060 H     1 <1>   0.0800 
 36 H        0.9090     4.9260     1.8060 H     1 <1>   0.0800 
 37 H       -0.5600     4.5810     0.9260 H     1 <1>   0.0800 
 38 H        2.2590     5.8180    -1.8370 H     1 <1>   0.0800 
 39 H        3.6980     6.1530    -0.9140 H     1 <1>   0.0800 
 40 H       -0.0230     6.9910     0.9360 H     1 <1>   0.0800 
 41 H       -0.0660     6.3430    -0.6840 H     1 <1>   0.0800 
 42 H        2.3890     6.8560     1.0120 H     1 <1>   0.0800 
 43 H        1.2040     8.3040    -1.2960 H     1 <1>   0.4000 
 44 H        1.9920    10.4870    -1.6890 H     1 <1>   0.1500 
 45 H        5.7530     9.3120     1.0750 H     1 <1>   0.1500 
 46 H        3.8310    12.1330    -1.4430 H     1 <1>   0.1500 
 47 H        6.8590    14.7750    -0.5430 H     1 <1>   0.0800 
 48 H        7.9630    13.5160    -0.0780 H     1 <1>   0.0800 
 49 H        3.9550    12.9520     1.1230 H     1 <1>   0.0800 
 50 H        4.2630    14.4050     0.2110 H     1 <1>   0.0800 
 51 H        8.0330    15.5000     1.4600 H     1 <1>   0.0800 
 52 H        7.6130    14.0240     2.3000 H     1 <1>   0.0800 
 53 H        5.3510    13.7330     2.9670 H     1 <1>   0.0800 
 54 H        4.2080    14.9940     2.5670 H     1 <1>   0.0800 
@<TRIPOS>BOND
  1   1   2  1   
  2   1   3  1   
  3   2   4  1   
  4   2  26  1   
  5   2  27  1   
  6   3  28  1   
  7   3  29  1   
  8   3  30  1   
  9   4   5  1   
 10   4  31  1   
 11   4  32  1   
 12   5   6  1   
 13   5   7  1   
 14   5  33  1   
 15   6   8  1   
 16   6  34  1   
 17   6  35  1   
 18   7   9  1   
 19   7  36  1   
 20   7  37  1   
 21   8  10  1   
 22   8  38  1   
 23   8  39  1   
 24   9  10  1   
 25   9  40  1   
 26   9  41  1   
 27  10  11  1   
 28  10  42  1   
 29  11  12  1   
 30  11  43  1   
 31  12  13  ar  
 32  12  14  ar  
 33  13  15  ar  
 34  14  16  ar  
 35  14  44  1   
 36  15  17  ar  
 37  15  45  1   
 38  16  17  ar  
 39  16  46  1   
 40  17  18  1   
 41  18  19  2   
 42  18  20  am  
 43  20  21  1   
 44  20  22  1   
 45  21  23  1   
 46  21  47  1   
 47  21  48  1   
 48  22  24  1   
 49  22  49  1   
 50  22  50  1   
 51  23  25  1   
 52  23  51  1   
 53  23  52  1   
 54  24  25  1   
 55  24  53  1   
 56  24  54  1   
@<TRIPOS>SUBSTRUCTURE
  1 ****  13 GROUP 4 **** **** 0

# MOE 2024.06 (io_trps.svl 2023.06)
