@<TRIPOS>MOLECULE
NONAME
44 45 1 0 0 
SMALL
USER_CHARGES


@<TRIPOS>ATOM
  1 CL      -0.1470     0.3710     0.1450 Cl    1 <1>  -0.1770 
  2 C       -1.8520     0.7230     0.0490 C.ar  1 <1>   0.1770 
  3 C       -2.7690    -0.2930     0.2340 C.ar  1 <1>  -0.1500 
  4 C       -2.2680     2.0140    -0.2090 C.ar  1 <1>  -0.1500 
  5 C       -4.1210    -0.0090     0.1590 C.ar  1 <1>  -0.1500 
  6 C       -3.6230     2.2850    -0.2840 C.ar  1 <1>  -0.1500 
  7 C       -4.5830     1.2850    -0.1030 C.ar  1 <1>   0.0530 
  8 C       -5.9910     1.5970    -0.1820 C.2   1 <1>   0.0870 
  9 O       -6.4000     2.8320    -0.0300 O.3   1 <1>  -0.0190 
 10 C       -7.1050     0.8450    -0.3900 C.2   1 <1>  -0.0860 
 11 N       -7.6970     2.9600    -0.1270 N.2   1 <1>  -0.4100 
 12 C       -8.1440     1.7780    -0.3560 C.2   1 <1>   0.3720 
 13 C       -7.2590    -0.5570    -0.6060 C.2   1 <1>   0.7160 
 14 N       -9.4900     1.4700    -0.5570 N.pl3 1 <1>  -0.8520 
 15 O       -6.7910    -1.0580    -1.6120 O.2   1 <1>  -0.5700 
 16 N       -7.9200    -1.3720     0.2940 N.am  1 <1>  -0.6600 
 17 C      -10.4390     2.6100    -0.7100 C.3   1 <1>   0.2090 
 18 C       -8.1310    -2.8210     0.0090 C.3   1 <1>   0.1400 
 19 C       -8.5230    -0.8780     1.5670 C.3   1 <1>   0.0600 
 20 C      -11.8810     2.1060    -0.6420 C.3   1 <1>   0.1200 
 21 C       -9.3710    -3.0130    -0.8690 C.3   1 <1>   0.1200 
 22 O      -12.7420     3.1760    -0.8710 O.3   1 <1>  -0.5600 
 23 O       -9.5600    -4.3650    -1.1130 O.3   1 <1>  -0.6800 
 24 C      -14.0910     2.8410    -0.8030 C.3   1 <1>   0.0400 
 25 H       -2.4240    -1.2920     0.4340 H     1 <1>   0.1500 
 26 H       -1.5390     2.7910    -0.3510 H     1 <1>   0.1500 
 27 H       -4.8200    -0.8110     0.3100 H     1 <1>   0.1500 
 28 H       -3.9410     3.2930    -0.4890 H     1 <1>   0.1500 
 29 H       -9.6030     0.7970    -1.3200 H     1 <1>   0.4000 
 30 H      -10.2670     3.0930    -1.6570 H     1 <1>   0.0800 
 31 H      -10.2810     3.3240     0.0810 H     1 <1>   0.0800 
 32 H       -8.2570    -3.3590     0.9330 H     1 <1>   0.0800 
 33 H       -7.2670    -3.2150    -0.4980 H     1 <1>   0.0800 
 34 H       -8.1200     0.0810     1.8430 H     1 <1>   0.0800 
 35 H       -8.3180    -1.5700     2.3650 H     1 <1>   0.0800 
 36 H       -9.5890    -0.7810     1.4490 H     1 <1>   0.0800 
 37 H      -12.0820     1.7030     0.3360 H     1 <1>   0.0800 
 38 H      -12.0530     1.3620    -1.3990 H     1 <1>   0.0800 
 39 H       -9.2530    -2.5120    -1.8150 H     1 <1>   0.0800 
 40 H      -10.2480    -2.6450    -0.3650 H     1 <1>   0.0800 
 41 H       -8.8680    -4.7070    -1.7140 H     1 <1>   0.4000 
 42 H      -14.6660     3.7310    -0.9880 H     1 <1>   0.0800 
 43 H      -14.3140     2.4630     0.1800 H     1 <1>   0.0800 
 44 H      -14.3130     2.1020    -1.5540 H     1 <1>   0.0800 
@<TRIPOS>BOND
  1   1   2  1   
  2   2   3  ar  
  3   2   4  ar  
  4   3   5  ar  
  5   3  25  1   
  6   4   6  ar  
  7   4  26  1   
  8   5   7  ar  
  9   5  27  1   
 10   6   7  ar  
 11   6  28  1   
 12   7   8  1   
 13   8   9  1   
 14   8  10  2   
 15   9  11  1   
 16  10  12  1   
 17  10  13  1   
 18  11  12  2   
 19  12  14  1   
 20  13  15  2   
 21  13  16  am  
 22  14  17  1   
 23  14  29  1   
 24  16  18  1   
 25  16  19  1   
 26  17  20  1   
 27  17  30  1   
 28  17  31  1   
 29  18  21  1   
 30  18  32  1   
 31  18  33  1   
 32  19  34  1   
 33  19  35  1   
 34  19  36  1   
 35  20  22  1   
 36  20  37  1   
 37  20  38  1   
 38  21  23  1   
 39  21  39  1   
 40  21  40  1   
 41  22  24  1   
 42  23  41  1   
 43  24  42  1   
 44  24  43  1   
 45  24  44  1   
@<TRIPOS>SUBSTRUCTURE
  1 ****  10 GROUP 4 **** **** 0

# MOE 2024.06 (io_trps.svl 2023.06)
