@<TRIPOS>MOLECULE
NONAME
45 47 1 0 0 
SMALL
USER_CHARGES


@<TRIPOS>ATOM
  1 F       -2.5220     2.6230    -1.8840 F     1 <1>  -0.1900 
  2 C       -1.4970     3.0030    -1.1710 C.ar  1 <1>   0.1900 
  3 C       -1.4280     2.6420     0.1740 C.ar  1 <1>   0.0860 
  4 C       -0.5260     3.7550    -1.8010 C.ar  1 <1>  -0.1500 
  5 C       -2.4620     1.8740     0.8250 C.2   1 <1>   0.5440 
  6 C       -0.2950     3.0600     0.8770 C.ar  1 <1>  -0.1500 
  7 C        0.5740     4.1630    -1.0690 C.ar  1 <1>   0.0830 
  8 O       -2.2020     0.7470     1.2030 O.2   1 <1>  -0.5700 
  9 N       -3.7190     2.3940     1.0680 N.am  1 <1>  -0.6600 
 10 C        0.6940     3.8130     0.2690 C.ar  1 <1>  -0.1500 
 11 O        1.5180     4.8960    -1.6660 O.3   1 <1>  -0.5330 
 12 C       -4.1030     3.8100     0.8410 C.3   1 <1>   0.1400 
 13 C       -4.8270     1.5680     1.6180 C.3   1 <1>   0.1400 
 14 C       -5.2700     3.8630    -0.1500 C.3   1 <1>  -0.1600 
 15 C       -6.0060     1.6020     0.6430 C.3   1 <1>  -0.1600 
 16 C       -6.4810     3.0320     0.3310 C.3   1 <1>   0.2800 
 17 O       -6.9600     3.5490     1.5440 O.3   1 <1>  -0.5600 
 18 C       -7.6350     2.9620    -0.6960 C.3   1 <1>  -0.1600 
 19 C       -7.6360     4.7720     1.5390 C.3   1 <1>   0.1200 
 20 C       -8.5280     4.2050    -0.7570 C.3   1 <1>   0.2800 
 21 C       -8.8780     4.6740     0.6540 C.3   1 <1>  -0.1600 
 22 O       -7.8420     5.2130    -1.3880 O.3   1 <1>  -0.6800 
 23 C       -9.7810     3.9600    -1.5950 C.3   1 <1>  -0.2400 
 24 H       -0.6170     4.0170    -2.8390 H     1 <1>   0.1500 
 25 H       -0.2020     2.7810     1.9140 H     1 <1>   0.1500 
 26 H        1.5540     4.1230     0.8360 H     1 <1>   0.1500 
 27 H        2.2730     5.1220    -1.0920 H     1 <1>   0.4500 
 28 H       -3.2760     4.3820     0.4620 H     1 <1>   0.0800 
 29 H       -4.4040     4.2430     1.7800 H     1 <1>   0.0800 
 30 H       -5.1260     1.9680     2.5720 H     1 <1>   0.0800 
 31 H       -4.5100     0.5500     1.7660 H     1 <1>   0.0800 
 32 H       -4.9310     3.4720    -1.0920 H     1 <1>   0.0800 
 33 H       -5.5280     4.8880    -0.3150 H     1 <1>   0.0800 
 34 H       -6.8170     1.0330     1.0590 H     1 <1>   0.0800 
 35 H       -5.7020     1.1150    -0.2670 H     1 <1>   0.0800 
 36 H       -8.2640     2.1350    -0.4200 H     1 <1>   0.0800 
 37 H       -7.2500     2.7380    -1.6750 H     1 <1>   0.0800 
 38 H       -6.9690     5.5470     1.2070 H     1 <1>   0.0800 
 39 H       -7.9230     4.9850     2.5540 H     1 <1>   0.0800 
 40 H       -9.3800     5.6240     0.6120 H     1 <1>   0.0800 
 41 H       -9.5540     3.9710     1.1060 H     1 <1>   0.0800 
 42 H       -7.0040     5.3690    -0.9220 H     1 <1>   0.4000 
 43 H      -10.3800     3.1850    -1.1530 H     1 <1>   0.0800 
 44 H       -9.5100     3.6560    -2.5900 H     1 <1>   0.0800 
 45 H      -10.3730     4.8560    -1.6510 H     1 <1>   0.0800 
@<TRIPOS>BOND
  1   1   2  1   
  2   2   3  ar  
  3   2   4  ar  
  4   3   5  1   
  5   3   6  ar  
  6   4   7  ar  
  7   4  24  1   
  8   5   8  2   
  9   5   9  am  
 10   6  10  ar  
 11   6  25  1   
 12   7  10  ar  
 13   7  11  1   
 14   9  12  1   
 15   9  13  1   
 16  10  26  1   
 17  11  27  1   
 18  12  14  1   
 19  12  28  1   
 20  12  29  1   
 21  13  15  1   
 22  13  30  1   
 23  13  31  1   
 24  14  16  1   
 25  14  32  1   
 26  14  33  1   
 27  15  16  1   
 28  15  34  1   
 29  15  35  1   
 30  16  17  1   
 31  16  18  1   
 32  17  19  1   
 33  18  20  1   
 34  18  36  1   
 35  18  37  1   
 36  19  21  1   
 37  19  38  1   
 38  19  39  1   
 39  20  21  1   
 40  20  22  1   
 41  20  23  1   
 42  21  40  1   
 43  21  41  1   
 44  22  42  1   
 45  23  43  1   
 46  23  44  1   
 47  23  45  1   
@<TRIPOS>SUBSTRUCTURE
  1 ****  12 GROUP 4 **** **** 0

# MOE 2024.06 (io_trps.svl 2023.06)
