@<TRIPOS>MOLECULE
NONAME
47 49 1 0 0 
SMALL
USER_CHARGES


@<TRIPOS>ATOM
  1 S       -0.9550     0.4920    -0.6440 S.3   1 <1>  -0.0800 
  2 C       -2.1350    -0.5760     0.1040 C.2   1 <1>  -0.1400 
  3 C       -1.9080     0.5910    -2.1130 C.2   1 <1>  -0.1100 
  4 C       -3.1660    -0.7960    -0.7340 C.2   1 <1>  -0.1500 
  5 C       -1.8580    -1.0560     1.5180 C.3   1 <1>   0.0200 
  6 C       -3.0330    -0.1380    -1.9980 C.2   1 <1>  -0.1500 
  7 C       -0.5240    -1.8200     1.6580 C.3   1 <1>  -0.1600 
  8 C        0.0320    -2.5530     0.4150 C.3   1 <1>   0.4230 
  9 N       -0.6100    -3.8810     0.1620 N.4   1 <1>  -0.9590 
 10 C        1.5450    -2.7600     0.6160 C.3   1 <1>  -0.1600 
 11 C       -0.0090    -4.6180    -0.9900 C.3   1 <1>   0.3430 
 12 C       -2.0930    -3.8550    -0.0170 C.3   1 <1>   0.4860 
 13 C        2.2080    -3.5200    -0.5360 C.3   1 <1>  -0.1600 
 14 C        1.4820    -4.8460    -0.7630 C.3   1 <1>  -0.1600 
 15 C       -2.6600    -5.2580     0.1780 C.ar  1 <1>   0.1670 
 16 N       -2.1510    -5.9610     1.1860 N.ar  1 <1>  -0.6200 
 17 C       -3.6370    -5.7270    -0.6810 C.ar  1 <1>  -0.1500 
 18 C       -2.6540    -7.1790     1.3450 C.ar  1 <1>   0.1600 
 19 C       -4.1430    -6.9960    -0.5060 C.ar  1 <1>   0.0830 
 20 C       -3.6310    -7.7380     0.5440 C.ar  1 <1>  -0.1500 
 21 O       -5.0940    -7.4210    -1.3630 O.3   1 <1>  -0.3630 
 22 C       -5.6850    -8.6970    -1.2400 C.3   1 <1>   0.0400 
 23 H       -1.5230     1.1970    -2.9150 H     1 <1>   0.1500 
 24 H       -4.0420    -1.3860    -0.5230 H     1 <1>   0.1500 
 25 H       -2.6760    -1.6670     1.8550 H     1 <1>   0.0800 
 26 H       -1.8390    -0.1990     2.1700 H     1 <1>   0.0800 
 27 H       -3.7910    -0.2350    -2.7570 H     1 <1>   0.1500 
 28 H       -0.5730    -2.4930     2.4960 H     1 <1>   0.0800 
 29 H        0.1980    -1.0670     1.9230 H     1 <1>   0.0800 
 30 H       -0.1000    -1.9310    -0.4550 H     1 <1>   0.0800 
 31 H       -0.4780    -4.4830     0.9910 H     1 <1>   0.4500 
 32 H        1.7150    -3.2890     1.5380 H     1 <1>   0.0800 
 33 H        2.0240    -1.8000     0.7060 H     1 <1>   0.0800 
 34 H       -0.1480    -4.0510    -1.8960 H     1 <1>   0.0800 
 35 H       -0.4940    -5.5740    -1.1090 H     1 <1>   0.0800 
 36 H       -2.3510    -3.4700    -0.9890 H     1 <1>   0.0800 
 37 H       -2.5440    -3.2330     0.7290 H     1 <1>   0.0800 
 38 H        3.2450    -3.7050    -0.3050 H     1 <1>   0.0800 
 39 H        2.1710    -2.9250    -1.4330 H     1 <1>   0.0800 
 40 H        1.8980    -5.3390    -1.6250 H     1 <1>   0.0800 
 41 H        1.6210    -5.4980     0.0820 H     1 <1>   0.0800 
 42 H       -4.0210    -5.1270    -1.4860 H     1 <1>   0.1500 
 43 H       -2.2640    -7.7660     2.1610 H     1 <1>   0.1500 
 44 H       -3.9750    -8.7340     0.7500 H     1 <1>   0.1500 
 45 H       -6.4140    -8.8040    -2.0230 H     1 <1>   0.0800 
 46 H       -6.1670    -8.7680    -0.2810 H     1 <1>   0.0800 
 47 H       -4.9230    -9.4480    -1.3460 H     1 <1>   0.0800 
@<TRIPOS>BOND
  1   1   2  1   
  2   1   3  1   
  3   2   4  2   
  4   2   5  1   
  5   3   6  2   
  6   3  23  1   
  7   4   6  1   
  8   4  24  1   
  9   5   7  1   
 10   5  25  1   
 11   5  26  1   
 12   6  27  1   
 13   7   8  1   
 14   7  28  1   
 15   7  29  1   
 16   8   9  1   
 17   8  10  1   
 18   8  30  1   
 19   9  11  1   
 20   9  12  1   
 21   9  31  1   
 22  10  13  1   
 23  10  32  1   
 24  10  33  1   
 25  11  14  1   
 26  11  34  1   
 27  11  35  1   
 28  12  15  1   
 29  12  36  1   
 30  12  37  1   
 31  13  14  1   
 32  13  38  1   
 33  13  39  1   
 34  14  40  1   
 35  14  41  1   
 36  15  16  ar  
 37  15  17  ar  
 38  16  18  ar  
 39  17  19  ar  
 40  17  42  1   
 41  18  20  ar  
 42  18  43  1   
 43  19  20  ar  
 44  19  21  1   
 45  20  44  1   
 46  21  22  1   
 47  22  45  1   
 48  22  46  1   
 49  22  47  1   
@<TRIPOS>SUBSTRUCTURE
  1 ****  12 GROUP 4 **** **** 0

# MOE 2024.06 (io_trps.svl 2023.06)
