@<TRIPOS>MOLECULE
NONAME
52 54 1 0 0 
SMALL
USER_CHARGES


@<TRIPOS>ATOM
  1 S       -0.3400    -0.4040     0.8340 S.o2  1 <1>   1.5760 
  2 O       -0.1090    -1.6960     1.4310 O.2   1 <1>  -0.6500 
  3 O       -1.4570     0.4210     1.2240 O.2   1 <1>  -0.6500 
  4 N        1.0770     0.5080     0.8640 N.am  1 <1>  -0.8490 
  5 N       -0.5520    -0.5600    -0.8170 N.am  1 <1>  -0.9140 
  6 C        0.9380     1.8240     0.2360 C.3   1 <1>   0.1960 
  7 C        2.2440    -0.2300     0.3840 C.3   1 <1>   0.1960 
  8 C       -0.7810    -1.8680    -1.4490 C.3   1 <1>   0.2760 
  9 C        2.1850     2.6720     0.4960 C.3   1 <1>  -0.1600 
 10 C        3.5240     0.5660     0.6560 C.3   1 <1>  -0.1600 
 11 C       -2.0100    -2.6870    -1.0300 C.3   1 <1>  -0.0800 
 12 C        0.3890    -2.8550    -1.3210 C.3   1 <1>   0.1200 
 13 C        3.4610     1.9610     0.0170 C.3   1 <1>  -0.0800 
 14 C       -1.3920    -3.9550    -0.4460 C.3   1 <1>   0.1200 
 15 C       -3.0900    -2.0570    -0.1290 C.3   1 <1>  -0.0170 
 16 O       -0.1870    -4.1070    -1.1210 O.3   1 <1>  -0.5600 
 17 C        4.7230     2.7690     0.3460 C.3   1 <1>   0.1200 
 18 C       -4.2880    -2.9840     0.0020 C.ar  1 <1>  -0.1430 
 19 O        4.6630     3.9860    -0.3250 O.3   1 <1>  -0.5600 
 20 C       -5.2710    -3.0510    -0.9640 C.ar  1 <1>  -0.1500 
 21 C       -4.4520    -3.8080     1.0970 C.ar  1 <1>  -0.1500 
 22 C        5.7490     4.8190    -0.0820 C.3   1 <1>   0.0400 
 23 C       -6.3380    -3.9180    -0.7950 C.ar  1 <1>   0.1600 
 24 C       -5.5570    -4.6390     1.1690 C.ar  1 <1>   0.1600 
 25 N       -6.5040    -4.7150     0.2480 N.ar  1 <1>  -0.6200 
 26 H       -1.3720     0.0200    -0.9710 H     1 <1>   0.4200 
 27 H        0.7930     1.7130    -0.8250 H     1 <1>   0.0800 
 28 H        0.0820     2.3340     0.6460 H     1 <1>   0.0800 
 29 H        2.3110    -1.1750     0.8970 H     1 <1>   0.0800 
 30 H        2.1490    -0.4190    -0.6720 H     1 <1>   0.0800 
 31 H       -0.8870    -1.6700    -2.5020 H     1 <1>   0.0800 
 32 H        2.0800     3.6130    -0.0150 H     1 <1>   0.0800 
 33 H        2.2500     2.8790     1.5500 H     1 <1>   0.0800 
 34 H        3.6540     0.6520     1.7210 H     1 <1>   0.0800 
 35 H        4.3640     0.0220     0.2630 H     1 <1>   0.0800 
 36 H       -2.4970    -2.9930    -1.9400 H     1 <1>   0.0800 
 37 H        1.0190    -2.6510    -0.4780 H     1 <1>   0.0800 
 38 H        0.9780    -2.8940    -2.2190 H     1 <1>   0.0800 
 39 H        3.4140     1.8410    -1.0520 H     1 <1>   0.0800 
 40 H       -2.0030    -4.8260    -0.6090 H     1 <1>   0.0800 
 41 H       -1.1760    -3.8480     0.6040 H     1 <1>   0.0800 
 42 H       -3.4140    -1.1180    -0.5400 H     1 <1>   0.0800 
 43 H       -2.7040    -1.8720     0.8560 H     1 <1>   0.0800 
 44 H        5.6020     2.2420     0.0180 H     1 <1>   0.0800 
 45 H        4.7840     2.9580     1.4040 H     1 <1>   0.0800 
 46 H       -5.2200    -2.4400    -1.8460 H     1 <1>   0.1500 
 47 H       -3.7310    -3.8110     1.8950 H     1 <1>   0.1500 
 48 H        5.6080     5.7250    -0.6450 H     1 <1>   0.0800 
 49 H        6.6520     4.3290    -0.4050 H     1 <1>   0.0800 
 50 H        5.7940     5.0470     0.9680 H     1 <1>   0.0800 
 51 H       -7.0960    -3.9590    -1.5580 H     1 <1>   0.1500 
 52 H       -5.6670    -5.2740     2.0310 H     1 <1>   0.1500 
@<TRIPOS>BOND
  1   1   2  2   
  2   1   3  2   
  3   1   4  am  
  4   1   5  am  
  5   4   6  1   
  6   4   7  1   
  7   5   8  1   
  8   5  26  1   
  9   6   9  1   
 10   6  27  1   
 11   6  28  1   
 12   7  10  1   
 13   7  29  1   
 14   7  30  1   
 15   8  11  1   
 16   8  12  1   
 17   8  31  1   
 18   9  13  1   
 19   9  32  1   
 20   9  33  1   
 21  10  13  1   
 22  10  34  1   
 23  10  35  1   
 24  11  14  1   
 25  11  15  1   
 26  11  36  1   
 27  12  16  1   
 28  12  37  1   
 29  12  38  1   
 30  13  17  1   
 31  13  39  1   
 32  14  16  1   
 33  14  40  1   
 34  14  41  1   
 35  15  18  1   
 36  15  42  1   
 37  15  43  1   
 38  17  19  1   
 39  17  44  1   
 40  17  45  1   
 41  18  20  ar  
 42  18  21  ar  
 43  19  22  1   
 44  20  23  ar  
 45  20  46  1   
 46  21  24  ar  
 47  21  47  1   
 48  22  48  1   
 49  22  49  1   
 50  22  50  1   
 51  23  25  ar  
 52  23  51  1   
 53  24  25  ar  
 54  24  52  1   
@<TRIPOS>SUBSTRUCTURE
  1 ****   5 GROUP 4 **** **** 0

# MOE 2024.06 (io_trps.svl 2023.06)
