@<TRIPOS>MOLECULE
NONAME
49 51 1 0 0 
SMALL
USER_CHARGES


@<TRIPOS>ATOM
  1 O        3.8120    -0.2710     1.5230 O.2   1 <1>  -0.5700 
  2 C        3.0240    -0.7630     0.7380 C.2   1 <1>   0.5440 
  3 N        2.7430    -0.0180    -0.3810 N.am  1 <1>  -0.6600 
  4 C        2.5680    -2.1360     0.8880 C.ar  1 <1>   0.0860 
  5 C        3.3310    -0.4380    -1.6860 C.3   1 <1>   0.1400 
  6 C        2.3510     1.4170    -0.2740 C.3   1 <1>   0.1400 
  7 C        1.2320    -2.5480     0.7470 C.ar  1 <1>  -0.1440 
  8 C        3.5200    -3.1130     1.1860 C.ar  1 <1>  -0.1500 
  9 C        4.8690    -0.2830    -1.6740 C.3   1 <1>   0.3430 
 10 C        3.5520     2.3560    -0.0720 C.3   1 <1>  -0.1600 
 11 C        0.9050    -3.8910     0.8670 C.ar  1 <1>  -0.1500 
 12 C        0.0890    -1.5680     0.4900 C.3   1 <1>  -0.0160 
 13 C        3.1850    -4.4480     1.3050 C.ar  1 <1>  -0.1500 
 14 N        5.3190     0.7750    -0.7120 N.4   1 <1>  -0.9590 
 15 C        4.7440     2.1160    -1.0010 C.3   1 <1>   0.3430 
 16 C        1.8720    -4.8390     1.1390 C.ar  1 <1>  -0.1500 
 17 C       -0.2440    -0.7710     1.7550 C.3   1 <1>  -0.2400 
 18 C        6.8040     0.7920    -0.4810 C.3   1 <1>   0.5240 
 19 C        7.2110     1.5250     0.8010 C.2   1 <1>   0.3350 
 20 N        7.7390     0.9540     1.8070 N.2   1 <1>  -0.4100 
 21 N        7.0410     2.8330     0.9620 N.2   1 <1>  -0.5650 
 22 O        7.9450     1.8710     2.7030 O.3   1 <1>  -0.0190 
 23 C        7.5070     2.9690     2.1400 C.2   1 <1>   0.2980 
 24 C        7.5910     4.2650     2.9140 C.3   1 <1>  -0.0600 
 25 H        2.9130     0.1580    -2.4790 H     1 <1>   0.0800 
 26 H        3.0740    -1.4650    -1.8870 H     1 <1>   0.0800 
 27 H        1.6760     1.5310     0.5590 H     1 <1>   0.0800 
 28 H        1.8120     1.6990    -1.1630 H     1 <1>   0.0800 
 29 H        4.5440    -2.8190     1.3330 H     1 <1>   0.1500 
 30 H        5.2190    -0.0650    -2.6690 H     1 <1>   0.0800 
 31 H        5.2930    -1.2280    -1.3760 H     1 <1>   0.0800 
 32 H        3.8840     2.3000     0.9510 H     1 <1>   0.0800 
 33 H        3.2090     3.3650    -0.2190 H     1 <1>   0.0800 
 34 H       -0.1160    -4.2140     0.7590 H     1 <1>   0.1500 
 35 H       -0.7930    -2.1060     0.1860 H     1 <1>   0.0800 
 36 H        0.3290    -0.9000    -0.3160 H     1 <1>   0.0800 
 37 H        3.9410    -5.1810     1.5320 H     1 <1>   0.1500 
 38 H        4.8860     0.5070     0.2040 H     1 <1>   0.4500 
 39 H        5.4790     2.8840    -0.8250 H     1 <1>   0.0800 
 40 H        4.4320     2.1810    -2.0300 H     1 <1>   0.0800 
 41 H        1.6010    -5.8770     1.2300 H     1 <1>   0.1500 
 42 H       -0.5220    -1.4420     2.5490 H     1 <1>   0.0800 
 43 H       -1.0660    -0.1030     1.5670 H     1 <1>   0.0800 
 44 H        0.6020    -0.1930     2.0790 H     1 <1>   0.0800 
 45 H        7.3000     1.2560    -1.3150 H     1 <1>   0.0800 
 46 H        7.1630    -0.2190    -0.3980 H     1 <1>   0.0800 
 47 H        7.2020     5.0750     2.3240 H     1 <1>   0.0800 
 48 H        8.6150     4.4730     3.1620 H     1 <1>   0.0800 
 49 H        7.0180     4.1850     3.8190 H     1 <1>   0.0800 
@<TRIPOS>BOND
  1   1   2  2   
  2   2   3  am  
  3   2   4  1   
  4   3   5  1   
  5   3   6  1   
  6   4   7  ar  
  7   4   8  ar  
  8   5   9  1   
  9   5  25  1   
 10   5  26  1   
 11   6  10  1   
 12   6  27  1   
 13   6  28  1   
 14   7  11  ar  
 15   7  12  1   
 16   8  13  ar  
 17   8  29  1   
 18   9  14  1   
 19   9  30  1   
 20   9  31  1   
 21  10  15  1   
 22  10  32  1   
 23  10  33  1   
 24  11  16  ar  
 25  11  34  1   
 26  12  17  1   
 27  12  35  1   
 28  12  36  1   
 29  13  16  ar  
 30  13  37  1   
 31  14  15  1   
 32  14  18  1   
 33  14  38  1   
 34  15  39  1   
 35  15  40  1   
 36  16  41  1   
 37  17  42  1   
 38  17  43  1   
 39  17  44  1   
 40  18  19  1   
 41  18  45  1   
 42  18  46  1   
 43  19  20  2   
 44  19  21  1   
 45  20  22  1   
 46  21  23  2   
 47  22  23  1   
 48  23  24  1   
 49  24  47  1   
 50  24  48  1   
 51  24  49  1   
@<TRIPOS>SUBSTRUCTURE
  1 ****   1 GROUP 4 **** **** 0

# MOE 2024.06 (io_trps.svl 2023.06)
