@<TRIPOS>MOLECULE
NONAME
42 45 1 0 0 
SMALL
USER_CHARGES


@<TRIPOS>ATOM
  1 S        0.1030    -0.1490     1.6690 S.o2  1 <1>   1.4470 
  2 O        0.7010    -1.3790     2.1450 O.2   1 <1>  -0.6500 
  3 O       -0.2860     0.8480     2.6410 O.2   1 <1>  -0.6500 
  4 N       -1.2760    -0.6060     0.7920 N.am  1 <1>  -0.8490 
  5 C        1.1850     0.5990     0.4290 C.ar  1 <1>  -0.0090 
  6 C       -1.0350    -1.7800    -0.0510 C.3   1 <1>   0.1960 
  7 C       -2.4360    -0.7840     1.6660 C.3   1 <1>   0.1960 
  8 C        0.7860     1.7220    -0.2840 C.ar  1 <1>   0.1900 
  9 C        2.4460     0.0750     0.1440 C.ar  1 <1>  -0.1500 
 10 C       -2.2510    -2.0810    -0.9220 C.3   1 <1>  -0.1600 
 11 C       -3.6980    -0.9980     0.8340 C.3   1 <1>  -0.1600 
 12 F       -0.3850     2.2500    -0.0530 F     1 <1>  -0.1900 
 13 C        1.5700     2.3260    -1.2490 C.ar  1 <1>  -0.1500 
 14 C        3.2620     0.6540    -0.8170 C.ar  1 <1>  -0.1500 
 15 C       -3.5660    -2.1730    -0.1410 C.3   1 <1>   0.4610 
 16 C        2.8070     1.7700    -1.4960 C.ar  1 <1>   0.1900 
 17 O       -4.5620    -2.0150    -1.1330 O.3   1 <1>  -0.5600 
 18 C       -3.7510    -3.5370     0.5570 C.2   1 <1>  -0.1810 
 19 F        3.5730     2.3120    -2.4010 F     1 <1>  -0.1900 
 20 C       -5.8850    -2.3780    -0.8270 C.3   1 <1>   0.1200 
 21 C       -4.8460    -4.2730     0.3100 C.2   1 <1>  -0.1400 
 22 C       -2.8740    -4.1780     1.5020 C.2   1 <1>  -0.1500 
 23 C       -5.9850    -3.8900    -0.5950 C.3   1 <1>   0.0200 
 24 S       -4.8450    -5.7900     1.1840 S.3   1 <1>  -0.0800 
 25 C       -3.3100    -5.3790     1.9260 C.2   1 <1>  -0.1100 
 26 H       -0.7830    -2.6330     0.5530 H     1 <1>   0.0800 
 27 H       -0.1950    -1.5890    -0.6980 H     1 <1>   0.0800 
 28 H       -2.5790     0.1030     2.2620 H     1 <1>   0.0800 
 29 H       -2.2730    -1.6070     2.3400 H     1 <1>   0.0800 
 30 H        2.7940    -0.7940     0.6800 H     1 <1>   0.1500 
 31 H       -2.0920    -3.0010    -1.4540 H     1 <1>   0.0800 
 32 H       -2.3320    -1.2890    -1.6450 H     1 <1>   0.0800 
 33 H       -3.8860    -0.0960     0.2800 H     1 <1>   0.0800 
 34 H       -4.5230    -1.1690     1.4990 H     1 <1>   0.0800 
 35 H        1.2300     3.1940    -1.7840 H     1 <1>   0.1500 
 36 H        4.2360     0.2520    -1.0380 H     1 <1>   0.1500 
 37 H       -6.5060    -2.0850    -1.6550 H     1 <1>   0.0800 
 38 H       -6.1960    -1.8370     0.0490 H     1 <1>   0.0800 
 39 H       -1.9590    -3.7340     1.8410 H     1 <1>   0.1500 
 40 H       -5.9080    -4.4180    -1.5280 H     1 <1>   0.0800 
 41 H       -6.9280    -4.1270    -0.1360 H     1 <1>   0.0800 
 42 H       -2.8910    -6.0910     2.6150 H     1 <1>   0.1500 
@<TRIPOS>BOND
  1   1   2  2   
  2   1   3  2   
  3   1   4  am  
  4   1   5  1   
  5   4   6  1   
  6   4   7  1   
  7   5   8  ar  
  8   5   9  ar  
  9   6  10  1   
 10   6  26  1   
 11   6  27  1   
 12   7  11  1   
 13   7  28  1   
 14   7  29  1   
 15   8  12  1   
 16   8  13  ar  
 17   9  14  ar  
 18   9  30  1   
 19  10  15  1   
 20  10  31  1   
 21  10  32  1   
 22  11  15  1   
 23  11  33  1   
 24  11  34  1   
 25  13  16  ar  
 26  13  35  1   
 27  14  16  ar  
 28  14  36  1   
 29  15  17  1   
 30  15  18  1   
 31  16  19  1   
 32  17  20  1   
 33  18  21  2   
 34  18  22  1   
 35  20  23  1   
 36  20  37  1   
 37  20  38  1   
 38  21  23  1   
 39  21  24  1   
 40  22  25  2   
 41  22  39  1   
 42  23  40  1   
 43  23  41  1   
 44  24  25  1   
 45  25  42  1   
@<TRIPOS>SUBSTRUCTURE
  1 ****   6 GROUP 4 **** **** 0

# MOE 2024.06 (io_trps.svl 2023.06)
