@<TRIPOS>MOLECULE
NONAME
54 56 1 0 0 
SMALL
USER_CHARGES


@<TRIPOS>ATOM
  1 S        1.2160     0.6860     0.1920 S.o2  1 <1>   1.3330 
  2 O        1.9770     0.9710     1.3870 O.2   1 <1>  -0.6500 
  3 O       -0.0600     0.0150     0.3020 O.2   1 <1>  -0.6500 
  4 N        2.2000    -0.2430    -0.8330 N.am  1 <1>  -0.8490 
  5 C        0.9650     2.1870    -0.7570 C.3   1 <1>  -0.0550 
  6 C        3.6140     0.1320    -0.7710 C.3   1 <1>   0.1160 
  7 C        2.0540    -1.6810    -0.5840 C.3   1 <1>   0.1160 
  8 C       -0.1330     3.1080    -0.1850 C.3   1 <1>  -0.0800 
  9 C       -0.4610     4.2280    -1.1770 C.3   1 <1>   0.2000 
 10 C        0.3520     3.8560     1.0660 C.3   1 <1>   0.1400 
 11 O       -1.7120     4.7290    -0.8590 O.3   1 <1>  -0.6800 
 12 C        0.5780     5.3070    -0.8850 C.3   1 <1>   0.1400 
 13 N        0.8640     5.1520     0.5610 N.am  1 <1>  -0.6600 
 14 C        1.4830     6.0790     1.3640 C.2   1 <1>   0.5440 
 15 O        1.4710     5.9000     2.5660 O.2   1 <1>  -0.5700 
 16 C        2.1200     7.2600     0.8200 C.ar  1 <1>   0.0860 
 17 C        3.2520     7.1960    -0.0140 C.ar  1 <1>   0.0000 
 18 C        1.5950     8.5100     1.1440 C.ar  1 <1>  -0.1500 
 19 C        3.8760     5.9450    -0.3960 C.ar  1 <1>   0.0000 
 20 C        3.7980     8.3880    -0.4880 C.ar  1 <1>  -0.1500 
 21 C        2.1470     9.6780     0.6580 C.ar  1 <1>  -0.1500 
 22 C        4.2430     4.9890     0.5490 C.ar  1 <1>  -0.1500 
 23 C        4.1370     5.6600    -1.7350 C.ar  1 <1>  -0.1500 
 24 C        3.2550     9.6160    -0.1640 C.ar  1 <1>  -0.1500 
 25 C        4.8400     3.7950     0.1830 C.ar  1 <1>  -0.1440 
 26 C        4.7420     4.4750    -2.1120 C.ar  1 <1>  -0.1500 
 27 C        5.0970     3.5440    -1.1540 C.ar  1 <1>  -0.1500 
 28 C        5.2050     2.7870     1.2580 C.3   1 <1>  -0.0970 
 29 H        1.8910     2.7260    -0.8280 H     1 <1>   0.0800 
 30 H        0.6770     1.8990    -1.7490 H     1 <1>   0.0800 
 31 H        4.1770    -0.4240    -1.5020 H     1 <1>   0.0800 
 32 H        4.0160    -0.0690     0.2090 H     1 <1>   0.0800 
 33 H        3.7240     1.1800    -0.9820 H     1 <1>   0.0800 
 34 H        2.6790    -2.2420    -1.2570 H     1 <1>   0.0800 
 35 H        1.0330    -1.9810    -0.7470 H     1 <1>   0.0800 
 36 H        2.3250    -1.9140     0.4320 H     1 <1>   0.0800 
 37 H       -1.0080     2.5160     0.0270 H     1 <1>   0.0800 
 38 H       -0.4750     3.9150    -2.2070 H     1 <1>   0.0800 
 39 H        1.1250     3.3310     1.6020 H     1 <1>   0.0800 
 40 H       -0.4690     4.0420     1.7370 H     1 <1>   0.0800 
 41 H       -1.6770     5.1170     0.0390 H     1 <1>   0.4000 
 42 H        0.2140     6.2930    -1.1200 H     1 <1>   0.0800 
 43 H        1.4730     5.1070    -1.4450 H     1 <1>   0.0800 
 44 H        0.7380     8.5570     1.7950 H     1 <1>   0.1500 
 45 H        4.6710     8.3540    -1.1170 H     1 <1>   0.1500 
 46 H        1.7210    10.6310     0.9210 H     1 <1>   0.1500 
 47 H        4.0570     5.1850     1.5910 H     1 <1>   0.1500 
 48 H        3.8660     6.3760    -2.4900 H     1 <1>   0.1500 
 49 H        3.6960    10.5210    -0.5440 H     1 <1>   0.1500 
 50 H        4.9420     4.2790    -3.1520 H     1 <1>   0.1500 
 51 H        5.5780     2.6300    -1.4550 H     1 <1>   0.1500 
 52 H        5.7980     1.9870     0.8530 H     1 <1>   0.0800 
 53 H        4.3110     2.3730     1.6890 H     1 <1>   0.0800 
 54 H        5.7690     3.2690     2.0360 H     1 <1>   0.0800 
@<TRIPOS>BOND
  1   1   2  2   
  2   1   3  2   
  3   1   4  am  
  4   1   5  1   
  5   4   6  1   
  6   4   7  1   
  7   5   8  1   
  8   5  29  1   
  9   5  30  1   
 10   6  31  1   
 11   6  32  1   
 12   6  33  1   
 13   7  34  1   
 14   7  35  1   
 15   7  36  1   
 16   8   9  1   
 17   8  10  1   
 18   8  37  1   
 19   9  11  1   
 20   9  12  1   
 21   9  38  1   
 22  10  13  1   
 23  10  39  1   
 24  10  40  1   
 25  11  41  1   
 26  12  13  1   
 27  12  42  1   
 28  12  43  1   
 29  13  14  am  
 30  14  15  2   
 31  14  16  1   
 32  16  17  ar  
 33  16  18  ar  
 34  17  19  1   
 35  17  20  ar  
 36  18  21  ar  
 37  18  44  1   
 38  19  22  ar  
 39  19  23  ar  
 40  20  24  ar  
 41  20  45  1   
 42  21  24  ar  
 43  21  46  1   
 44  22  25  ar  
 45  22  47  1   
 46  23  26  ar  
 47  23  48  1   
 48  24  49  1   
 49  25  27  ar  
 50  25  28  1   
 51  26  27  ar  
 52  26  50  1   
 53  27  51  1   
 54  28  52  1   
 55  28  53  1   
 56  28  54  1   
@<TRIPOS>SUBSTRUCTURE
  1 ****  13 GROUP 4 **** **** 0

# MOE 2024.06 (io_trps.svl 2023.06)
