@<TRIPOS>MOLECULE
NONAME
32 33 1 0 0 
SMALL
USER_CHARGES


@<TRIPOS>ATOM
  1 S       -0.0940     0.3300     0.6970 S.3   1 <1>  -0.0800 
  2 C        1.4600     1.0760     0.3150 C.2   1 <1>  -0.0050 
  3 C        0.5080    -1.2760     0.3780 C.2   1 <1>  -0.1100 
  4 C        2.3480     0.0930    -0.0070 C.2   1 <1>  -0.1810 
  5 C        1.4890     2.5030     0.4010 C.2   1 <1>  -0.1050 
  6 C        1.8020    -1.2240     0.0200 C.2   1 <1>  -0.1500 
  7 C        3.8150     0.2600    -0.3640 C.3   1 <1>  -0.0590 
  8 C        2.4340     3.3600    -0.0590 C.2   1 <1>  -0.1800 
  9 C        2.4260     4.7860     0.0190 C.cat 1 <1>   0.7390 
 10 N        1.2680     5.4090    -0.1120 N.pl3 1 <1>  -0.7940 
 11 N        3.5340     5.5070     0.2120 N.pl3 1 <1>  -0.8330 
 12 C        1.0550     6.8660    -0.0930 C.3   1 <1>   0.3290 
 13 C        3.5350     6.9980     0.2380 C.3   1 <1>   0.3290 
 14 C        4.8790     4.9180     0.5080 C.3   1 <1>   0.2490 
 15 C        2.3410     7.5510    -0.5350 C.3   1 <1>  -0.1600 
 16 H       -0.1750    -2.0990     0.4920 H     1 <1>   0.1500 
 17 H        0.6230     2.9040     0.9000 H     1 <1>   0.1500 
 18 H        2.3990    -2.0850    -0.2290 H     1 <1>   0.1500 
 19 H        4.2440     1.0870     0.1680 H     1 <1>   0.0800 
 20 H        3.9190     0.4170    -1.4230 H     1 <1>   0.0800 
 21 H        4.3650    -0.6230    -0.0920 H     1 <1>   0.0800 
 22 H        3.2920     2.9650    -0.5620 H     1 <1>   0.1500 
 23 H        0.4260     4.8490    -0.2620 H     1 <1>   0.4500 
 24 H        0.7860     7.1740     0.9040 H     1 <1>   0.0800 
 25 H        0.2530     7.1290    -0.7640 H     1 <1>   0.0800 
 26 H        4.4430     7.3740    -0.2050 H     1 <1>   0.0800 
 27 H        3.4960     7.3310     1.2620 H     1 <1>   0.0800 
 28 H        4.8040     3.8850     0.8010 H     1 <1>   0.0800 
 29 H        5.3460     5.4520     1.3190 H     1 <1>   0.0800 
 30 H        5.5100     4.9890    -0.3620 H     1 <1>   0.0800 
 31 H        2.2630     8.6120    -0.3770 H     1 <1>   0.0800 
 32 H        2.4910     7.3890    -1.5880 H     1 <1>   0.0800 
@<TRIPOS>BOND
  1   1   2  1   
  2   1   3  1   
  3   2   4  2   
  4   2   5  1   
  5   3   6  2   
  6   3  16  1   
  7   4   6  1   
  8   4   7  1   
  9   5   8  2   
 10   5  17  1   
 11   6  18  1   
 12   7  19  1   
 13   7  20  1   
 14   7  21  1   
 15   8   9  1   
 16   8  22  1   
 17   9  10  ar  
 18   9  11  ar  
 19  10  12  1   
 20  10  23  1   
 21  11  13  1   
 22  11  14  1   
 23  12  15  1   
 24  12  24  1   
 25  12  25  1   
 26  13  15  1   
 27  13  26  1   
 28  13  27  1   
 29  14  28  1   
 30  14  29  1   
 31  14  30  1   
 32  15  31  1   
 33  15  32  1   
@<TRIPOS>SUBSTRUCTURE
  1 ****   8 GROUP 4 **** **** 0

# MOE 2024.06 (io_trps.svl 2023.06)
