@<TRIPOS>MOLECULE
NONAME
60 63 1 0 0 
SMALL
USER_CHARGES


@<TRIPOS>ATOM
  1 O       -0.0870    -3.7050    -0.2760 O.2   1 <1>  -0.5700 
  2 C        0.9260    -3.0870    -0.5080 C.2   1 <1>   0.5690 
  3 N        1.3950    -2.9040    -1.7820 N.am  1 <1>  -0.6600 
  4 C        1.6950    -2.5540     0.6820 C.3   1 <1>  -0.0990 
  5 C        2.4710    -1.9440    -2.1360 C.3   1 <1>   0.1400 
  6 C        0.7150    -3.5230    -2.9530 C.3   1 <1>   0.0600 
  7 C        2.6240    -1.3620     0.3830 C.3   1 <1>  -0.0800 
  8 C        3.3520    -1.5190    -0.9530 C.3   1 <1>  -0.0800 
  9 C        3.7660    -1.3020     1.4120 C.3   1 <1>  -0.1600 
 10 C        4.5180    -2.4510    -0.6310 C.3   1 <1>  -0.1600 
 11 C        4.9820    -1.9750     0.7490 C.3   1 <1>   0.2200 
 12 N        5.6160    -3.0740     1.5480 N.am  1 <1>  -0.6600 
 13 C        6.9760    -3.1420     1.7760 C.2   1 <1>   0.5690 
 14 C        4.7270    -4.1810     2.0320 C.3   1 <1>   0.0600 
 15 O        7.4690    -4.0650     2.3830 O.2   1 <1>  -0.5700 
 16 C        7.9440    -2.0650     1.2960 C.3   1 <1>   0.0440 
 17 C        8.1800    -2.0880    -0.2180 C.ar  1 <1>  -0.1440 
 18 C        7.9640    -0.9700    -1.0230 C.ar  1 <1>   0.0820 
 19 C        8.6350    -3.2610    -0.7990 C.ar  1 <1>  -0.1500 
 20 O        7.4870     0.1560    -0.4380 O.3   1 <1>  -0.3630 
 21 C        8.2320    -1.0350    -2.3880 C.ar  1 <1>  -0.1500 
 22 C        8.8830    -3.3280    -2.1590 C.ar  1 <1>  -0.1500 
 23 C        6.7560     1.1220    -1.1650 C.3   1 <1>   0.2630 
 24 C        8.6850    -2.2130    -2.9530 C.ar  1 <1>  -0.1500 
 25 C        5.7000     1.7400    -0.2570 C.ar  1 <1>  -0.1440 
 26 C        5.9530     1.9690     1.0890 C.ar  1 <1>  -0.1500 
 27 C        4.4590     2.0820    -0.7760 C.ar  1 <1>  -0.1500 
 28 C        4.9790     2.5170     1.9040 C.ar  1 <1>  -0.1500 
 29 C        3.4830     2.6290     0.0390 C.ar  1 <1>  -0.1500 
 30 C        3.7420     2.8450     1.3800 C.ar  1 <1>  -0.1500 
 31 H        0.9940    -2.2720     1.4460 H     1 <1>   0.0800 
 32 H        2.2590    -3.3810     1.0600 H     1 <1>   0.0800 
 33 H        3.0940    -2.3720    -2.9030 H     1 <1>   0.0800 
 34 H        2.0020    -1.0670    -2.5460 H     1 <1>   0.0800 
 35 H        1.4370    -4.0340    -3.5650 H     1 <1>   0.0800 
 36 H        0.2270    -2.7610    -3.5350 H     1 <1>   0.0800 
 37 H       -0.0250    -4.2370    -2.6320 H     1 <1>   0.0800 
 38 H        2.0470    -0.4520     0.3860 H     1 <1>   0.0800 
 39 H        3.7820    -0.5680    -1.2090 H     1 <1>   0.0800 
 40 H        3.4960    -1.7330     2.3570 H     1 <1>   0.0800 
 41 H        4.0130    -0.2690     1.5850 H     1 <1>   0.0800 
 42 H        5.3090    -2.3640    -1.3550 H     1 <1>   0.0800 
 43 H        4.1720    -3.4670    -0.6060 H     1 <1>   0.0800 
 44 H        5.6910    -1.1880     0.5870 H     1 <1>   0.0800 
 45 H        4.0110    -3.8050     2.7390 H     1 <1>   0.0800 
 46 H        5.2970    -4.9500     2.5230 H     1 <1>   0.0800 
 47 H        4.2110    -4.6360     1.2070 H     1 <1>   0.0800 
 48 H        7.5960    -1.1110     1.6410 H     1 <1>   0.0800 
 49 H        8.8910    -2.2290     1.7760 H     1 <1>   0.0800 
 50 H        8.8010    -4.1350    -0.1890 H     1 <1>   0.1500 
 51 H        8.1030    -0.1790    -3.0220 H     1 <1>   0.1500 
 52 H        9.2360    -4.2470    -2.5950 H     1 <1>   0.1500 
 53 H        7.4440     1.8690    -1.5190 H     1 <1>   0.0800 
 54 H        6.2740     0.6400    -1.9960 H     1 <1>   0.0800 
 55 H        8.8900    -2.2640    -4.0080 H     1 <1>   0.1500 
 56 H        6.9130     1.7190     1.5080 H     1 <1>   0.1500 
 57 H        4.2430     1.9250    -1.8180 H     1 <1>   0.1500 
 58 H        5.1850     2.6890     2.9470 H     1 <1>   0.1500 
 59 H        2.5220     2.8890    -0.3700 H     1 <1>   0.1500 
 60 H        2.9840     3.2710     2.0150 H     1 <1>   0.1500 
@<TRIPOS>BOND
  1   1   2  2   
  2   2   3  am  
  3   2   4  1   
  4   3   5  1   
  5   3   6  1   
  6   4   7  1   
  7   4  31  1   
  8   4  32  1   
  9   5   8  1   
 10   5  33  1   
 11   5  34  1   
 12   6  35  1   
 13   6  36  1   
 14   6  37  1   
 15   7   8  1   
 16   7   9  1   
 17   7  38  1   
 18   8  10  1   
 19   8  39  1   
 20   9  11  1   
 21   9  40  1   
 22   9  41  1   
 23  10  11  1   
 24  10  42  1   
 25  10  43  1   
 26  11  12  1   
 27  11  44  1   
 28  12  13  am  
 29  12  14  1   
 30  13  15  2   
 31  13  16  1   
 32  14  45  1   
 33  14  46  1   
 34  14  47  1   
 35  16  17  1   
 36  16  48  1   
 37  16  49  1   
 38  17  18  ar  
 39  17  19  ar  
 40  18  20  1   
 41  18  21  ar  
 42  19  22  ar  
 43  19  50  1   
 44  20  23  1   
 45  21  24  ar  
 46  21  51  1   
 47  22  24  ar  
 48  22  52  1   
 49  23  25  1   
 50  23  53  1   
 51  23  54  1   
 52  24  55  1   
 53  25  26  ar  
 54  25  27  ar  
 55  26  28  ar  
 56  26  56  1   
 57  27  29  ar  
 58  27  57  1   
 59  28  30  ar  
 60  28  58  1   
 61  29  30  ar  
 62  29  59  1   
 63  30  60  1   
@<TRIPOS>SUBSTRUCTURE
  1 ****  11 GROUP 4 **** **** 0

# MOE 2024.06 (io_trps.svl 2023.06)
