@<TRIPOS>MOLECULE
NONAME
55 57 1 0 0 
SMALL
USER_CHARGES


@<TRIPOS>ATOM
  1 O       -2.2820     0.1190     2.2230 O.2   1 <1>  -0.5700 
  2 C       -2.0670     0.7650     1.2240 C.2   1 <1>   0.5690 
  3 N       -1.9560     0.1730    -0.0080 N.am  1 <1>  -0.6600 
  4 C       -1.9650     2.2810     1.3880 C.3   1 <1>   0.1810 
  5 C       -2.0450    -1.3210    -0.1530 C.3   1 <1>   0.3640 
  6 C       -1.7780     0.9450    -1.2810 C.3   1 <1>   0.1400 
  7 O       -0.7500     2.7840     0.8490 O.3   1 <1>  -0.3630 
  8 C       -0.6560    -1.9790    -0.2530 C.ar  1 <1>  -0.1440 
  9 C       -2.9520    -1.7170    -1.3640 C.3   1 <1>   0.2000 
 10 C       -1.8900     0.0550    -2.5280 C.3   1 <1>   0.1200 
 11 C       -0.5500     4.1190     0.7090 C.ar  1 <1>   0.0820 
 12 C        0.5360    -1.2650    -0.3270 C.ar  1 <1>  -0.1500 
 13 C       -0.5890    -3.3680    -0.2480 C.ar  1 <1>  -0.1500 
 14 O       -3.0080    -0.7650    -2.4060 O.3   1 <1>  -0.5600 
 15 C       -4.3990    -1.9570    -0.9170 C.3   1 <1>   0.1200 
 16 C        0.5470     4.5090    -0.0390 C.ar  1 <1>  -0.1500 
 17 C       -1.3770     5.0910     1.2650 C.ar  1 <1>  -0.1500 
 18 C        1.7520    -1.9190    -0.4240 C.ar  1 <1>  -0.1500 
 19 C        0.6250    -4.0250    -0.3450 C.ar  1 <1>  -0.1500 
 20 O       -4.4860    -3.1440    -0.1940 O.3   1 <1>  -0.6800 
 21 C        0.8160     5.8500    -0.2440 C.ar  1 <1>  -0.1500 
 22 C       -1.1000     6.4320     1.0570 C.ar  1 <1>  -0.1500 
 23 C        1.7980    -3.3010    -0.4380 C.ar  1 <1>  -0.1500 
 24 C       -0.0030     6.8340     0.3030 C.ar  1 <1>   0.1170 
 25 N        0.2190     8.2100     0.1200 N.am  1 <1>  -0.5470 
 26 C        1.3310     8.9030    -0.2710 C.2   1 <1>   0.5690 
 27 O        2.3910     8.3910    -0.5320 O.2   1 <1>  -0.5700 
 28 C        1.2170    10.4150    -0.3640 C.3   1 <1>  -0.0990 
 29 C        0.3030    10.8790    -1.5100 C.3   1 <1>  -0.2400 
 30 H       -1.9940     2.5300     2.4320 H     1 <1>   0.0800 
 31 H       -2.7870     2.7460     0.8770 H     1 <1>   0.0800 
 32 H       -2.4960    -1.7310     0.7350 H     1 <1>   0.0800 
 33 H       -2.5310     1.7110    -1.3400 H     1 <1>   0.0800 
 34 H       -0.8150     1.4250    -1.2840 H     1 <1>   0.0800 
 35 H       -2.5860    -2.6230    -1.8100 H     1 <1>   0.0800 
 36 H       -1.0150    -0.5600    -2.6530 H     1 <1>   0.0800 
 37 H       -2.0140     0.6610    -3.4080 H     1 <1>   0.0800 
 38 H        0.5420    -0.1910    -0.2990 H     1 <1>   0.1500 
 39 H       -1.4890    -3.9520    -0.1610 H     1 <1>   0.1500 
 40 H       -5.0530    -2.0350    -1.7670 H     1 <1>   0.0800 
 41 H       -4.7280    -1.1540    -0.2790 H     1 <1>   0.0800 
 42 H        1.1900     3.7590    -0.4620 H     1 <1>   0.1500 
 43 H       -2.2290     4.8270     1.8620 H     1 <1>   0.1500 
 44 H        2.6640    -1.3510    -0.4830 H     1 <1>   0.1500 
 45 H        0.6570    -5.1010    -0.3440 H     1 <1>   0.1500 
 46 H       -4.5230    -3.9140    -0.7960 H     1 <1>   0.4000 
 47 H        1.6700     6.1230    -0.8350 H     1 <1>   0.1500 
 48 H       -1.7430     7.1740     1.4940 H     1 <1>   0.1500 
 49 H        2.7440    -3.8090    -0.5130 H     1 <1>   0.1500 
 50 H       -0.5820     8.7980     0.3370 H     1 <1>   0.3700 
 51 H        0.8520    10.7950     0.5730 H     1 <1>   0.0800 
 52 H        2.2020    10.8200    -0.5150 H     1 <1>   0.0800 
 53 H       -0.7020    10.5240    -1.3680 H     1 <1>   0.0800 
 54 H        0.6720    10.5020    -2.4490 H     1 <1>   0.0800 
 55 H        0.2850    11.9530    -1.5560 H     1 <1>   0.0800 
@<TRIPOS>BOND
  1   1   2  2   
  2   2   3  am  
  3   2   4  1   
  4   3   5  1   
  5   3   6  1   
  6   4   7  1   
  7   4  30  1   
  8   4  31  1   
  9   5   8  1   
 10   5   9  1   
 11   5  32  1   
 12   6  10  1   
 13   6  33  1   
 14   6  34  1   
 15   7  11  1   
 16   8  12  ar  
 17   8  13  ar  
 18   9  14  1   
 19   9  15  1   
 20   9  35  1   
 21  10  14  1   
 22  10  36  1   
 23  10  37  1   
 24  11  16  ar  
 25  11  17  ar  
 26  12  18  ar  
 27  12  38  1   
 28  13  19  ar  
 29  13  39  1   
 30  15  20  1   
 31  15  40  1   
 32  15  41  1   
 33  16  21  ar  
 34  16  42  1   
 35  17  22  ar  
 36  17  43  1   
 37  18  23  ar  
 38  18  44  1   
 39  19  23  ar  
 40  19  45  1   
 41  20  46  1   
 42  21  24  ar  
 43  21  47  1   
 44  22  24  ar  
 45  22  48  1   
 46  23  49  1   
 47  24  25  1   
 48  25  26  am  
 49  25  50  1   
 50  26  27  2   
 51  26  28  1   
 52  28  29  1   
 53  28  51  1   
 54  28  52  1   
 55  29  53  1   
 56  29  54  1   
 57  29  55  1   
@<TRIPOS>SUBSTRUCTURE
  1 ****   7 GROUP 4 **** **** 0

# MOE 2024.06 (io_trps.svl 2023.06)
