@<TRIPOS>MOLECULE
NONAME
59 62 1 0 0 
SMALL
USER_CHARGES


@<TRIPOS>ATOM
  1 O       -1.6040     0.9950    -1.9880 O.2   1 <1>  -0.5700 
  2 C       -2.2430     1.1340    -0.9730 C.2   1 <1>   0.5690 
  3 N       -3.3240     0.3360    -0.6780 N.am  1 <1>  -0.6600 
  4 C       -1.8370     2.2780    -0.0550 C.3   1 <1>  -0.0990 
  5 C       -4.0660     0.3490     0.6180 C.3   1 <1>   0.1400 
  6 C       -3.9620    -0.4850    -1.7460 C.3   1 <1>   0.1400 
  7 C       -2.8700     3.4160    -0.1270 C.3   1 <1>  -0.1600 
  8 C       -4.2730    -1.0850     1.1090 C.3   1 <1>  -0.1600 
  9 C       -4.2520    -1.9040    -1.2460 C.3   1 <1>  -0.1600 
 10 C       -2.6680     4.4970     0.9420 C.3   1 <1>   0.0210 
 11 C       -5.0310    -1.9310     0.0770 C.3   1 <1>   0.3000 
 12 C       -3.8540     5.4450     0.9680 C.2   1 <1>   0.0460 
 13 N       -6.3710    -1.3560    -0.1640 N.am  1 <1>  -0.7300 
 14 C       -5.1840    -3.3790     0.5480 C.3   1 <1>  -0.2400 
 15 N       -4.1820     6.1370     2.0640 N.2   1 <1>  -0.2270 
 16 C       -4.7350     5.7110    -0.0070 C.2   1 <1>  -0.3020 
 17 C       -7.3610    -1.1240     0.7410 C.2   1 <1>   0.5690 
 18 N       -5.2500     6.8100     1.8000 N.2   1 <1>  -0.4180 
 19 N       -5.6030     6.5620     0.5360 N.pl3 1 <1>   0.3140 
 20 O       -7.3040    -1.4870     1.8910 O.2   1 <1>  -0.5700 
 21 C       -8.5880    -0.3540     0.2870 C.3   1 <1>   0.0440 
 22 C       -6.8130     7.1270    -0.0830 C.3   1 <1>   0.0960 
 23 C       -8.2670     1.0920    -0.0790 C.ar  1 <1>  -0.1440 
 24 C       -7.9210     6.0760    -0.1700 C.3   1 <1>   0.1200 
 25 C       -7.6580     1.9260     0.8500 C.ar  1 <1>  -0.1500 
 26 C       -8.5910     1.5940    -1.3320 C.ar  1 <1>  -0.1500 
 27 O       -7.5260     5.0410    -1.0530 O.3   1 <1>  -0.3630 
 28 C       -7.3860     3.2470     0.5380 C.ar  1 <1>  -0.1500 
 29 C       -8.3250     2.9150    -1.6440 C.ar  1 <1>  -0.1500 
 30 C       -7.7400     3.7500    -0.7070 C.ar  1 <1>   0.0820 
 31 H       -0.8780     2.6500    -0.3700 H     1 <1>   0.0800 
 32 H       -1.7220     1.9130     0.9480 H     1 <1>   0.0800 
 33 H       -5.0170     0.8330     0.4750 H     1 <1>   0.0800 
 34 H       -3.5310     0.8940     1.3730 H     1 <1>   0.0800 
 35 H       -3.3240    -0.5410    -2.6110 H     1 <1>   0.0800 
 36 H       -4.8760    -0.0030    -2.0460 H     1 <1>   0.0800 
 37 H       -3.8580     3.0080    -0.0050 H     1 <1>   0.0800 
 38 H       -2.8270     3.8630    -1.1050 H     1 <1>   0.0800 
 39 H       -4.8020    -1.0730     2.0440 H     1 <1>   0.0800 
 40 H       -3.3100    -1.5240     1.2980 H     1 <1>   0.0800 
 41 H       -3.3070    -2.4000    -1.1100 H     1 <1>   0.0800 
 42 H       -4.7900    -2.4500    -2.0000 H     1 <1>   0.0800 
 43 H       -1.7660     5.0530     0.7560 H     1 <1>   0.0800 
 44 H       -2.5870     4.0340     1.9100 H     1 <1>   0.0800 
 45 H       -6.4650    -0.9250    -1.0810 H     1 <1>   0.3700 
 46 H       -4.2180    -3.8380     0.6600 H     1 <1>   0.0800 
 47 H       -5.7520    -3.9490    -0.1650 H     1 <1>   0.0800 
 48 H       -5.6790    -3.4210     1.5010 H     1 <1>   0.0800 
 49 H       -4.8110     5.3490    -1.0150 H     1 <1>   0.1500 
 50 H       -9.3110    -0.3580     1.0820 H     1 <1>   0.0800 
 51 H       -9.0220    -0.8690    -0.5490 H     1 <1>   0.0800 
 52 H       -6.5690     7.4940    -1.0630 H     1 <1>   0.0800 
 53 H       -7.1440     7.9520     0.5200 H     1 <1>   0.0800 
 54 H       -8.8170     6.5130    -0.5720 H     1 <1>   0.0800 
 55 H       -8.1430     5.6790     0.8050 H     1 <1>   0.0800 
 56 H       -7.3950     1.5470     1.8240 H     1 <1>   0.1500 
 57 H       -9.0590     0.9650    -2.0690 H     1 <1>   0.1500 
 58 H       -6.8980     3.8750     1.2620 H     1 <1>   0.1500 
 59 H       -8.5780     3.3090    -2.6120 H     1 <1>   0.1500 
@<TRIPOS>BOND
  1   1   2  2   
  2   2   3  am  
  3   2   4  1   
  4   3   5  1   
  5   3   6  1   
  6   4   7  1   
  7   4  31  1   
  8   4  32  1   
  9   5   8  1   
 10   5  33  1   
 11   5  34  1   
 12   6   9  1   
 13   6  35  1   
 14   6  36  1   
 15   7  10  1   
 16   7  37  1   
 17   7  38  1   
 18   8  11  1   
 19   8  39  1   
 20   8  40  1   
 21   9  11  1   
 22   9  41  1   
 23   9  42  1   
 24  10  12  1   
 25  10  43  1   
 26  10  44  1   
 27  11  13  1   
 28  11  14  1   
 29  12  15  1   
 30  12  16  2   
 31  13  17  am  
 32  13  45  1   
 33  14  46  1   
 34  14  47  1   
 35  14  48  1   
 36  15  18  2   
 37  16  19  1   
 38  16  49  1   
 39  17  20  2   
 40  17  21  1   
 41  18  19  1   
 42  19  22  1   
 43  21  23  1   
 44  21  50  1   
 45  21  51  1   
 46  22  24  1   
 47  22  52  1   
 48  22  53  1   
 49  23  25  ar  
 50  23  26  ar  
 51  24  27  1   
 52  24  54  1   
 53  24  55  1   
 54  25  28  ar  
 55  25  56  1   
 56  26  29  ar  
 57  26  57  1   
 58  27  30  1   
 59  28  30  ar  
 60  28  58  1   
 61  29  30  ar  
 62  29  59  1   
@<TRIPOS>SUBSTRUCTURE
  1 ****  28 GROUP 4 **** **** 0

# MOE 2024.06 (io_trps.svl 2023.06)
