@<TRIPOS>MOLECULE
NONAME
50 53 1 0 0 
SMALL
USER_CHARGES


@<TRIPOS>ATOM
  1 O        0.1000     1.4420     1.0930 O.2   1 <1>  -0.5700 
  2 C        1.0880     0.7810     0.8240 C.2   1 <1>   0.5440 
  3 N        1.3830     0.5440    -0.5010 N.am  1 <1>  -0.6600 
  4 C        1.9460     0.3140     1.8800 C.ar  1 <1>   0.0860 
  5 C        2.5280    -0.2500    -0.9920 C.3   1 <1>   0.1400 
  6 C        0.4290     0.8380    -1.5900 C.3   1 <1>   0.1400 
  7 C        1.8790    -1.0140     2.3350 C.ar  1 <1>   0.4100 
  8 C        2.8650     1.1600     2.4820 C.ar  1 <1>  -0.1500 
  9 C        2.0770    -0.7630    -2.3530 C.3   1 <1>  -0.1600 
 10 C        1.0900     0.2900    -2.8520 C.3   1 <1>  -0.1600 
 11 N        2.6560    -1.5170     3.2960 N.ar  1 <1>  -0.6200 
 12 N        0.9640    -1.8990     1.8130 N.pl3 1 <1>  -0.8380 
 13 C        3.6640     0.6460     3.4790 C.ar  1 <1>  -0.1500 
 14 C        3.5200    -0.6820     3.8410 C.ar  1 <1>   0.1600 
 15 C       -0.1850    -2.2490     2.6920 C.3   1 <1>   0.2090 
 16 C        1.4630    -3.1440     1.1630 C.3   1 <1>   0.2090 
 17 C       -0.0200    -3.7450     2.9540 C.3   1 <1>   0.2000 
 18 C        0.5450    -4.2790     1.6390 C.3   1 <1>  -0.0800 
 19 O        0.9540    -3.8990     3.9280 O.3   1 <1>  -0.6800 
 20 C       -0.5810    -4.5780     0.6290 C.3   1 <1>  -0.0160 
 21 C       -0.0330    -4.9960    -0.7280 C.ar  1 <1>  -0.1440 
 22 C       -0.1350    -4.1780    -1.8350 C.ar  1 <1>  -0.1500 
 23 C        0.5980    -6.2080    -0.9220 C.ar  1 <1>  -0.1500 
 24 C        0.3880    -4.5970    -3.0470 C.ar  1 <1>   0.1600 
 25 C        1.0870    -6.5320    -2.1770 C.ar  1 <1>   0.1600 
 26 N        1.0000    -5.7530    -3.2430 N.ar  1 <1>  -0.6200 
 27 H        3.3810     0.3980    -1.0990 H     1 <1>   0.0800 
 28 H        2.7680    -1.0600    -0.3260 H     1 <1>   0.0800 
 29 H       -0.4970     0.3280    -1.3890 H     1 <1>   0.0800 
 30 H        0.2490     1.8970    -1.6590 H     1 <1>   0.0800 
 31 H        2.9390     2.1870     2.1710 H     1 <1>   0.1500 
 32 H        2.9070    -0.9010    -3.0240 H     1 <1>   0.0800 
 33 H        1.5740    -1.7040    -2.2200 H     1 <1>   0.0800 
 34 H        0.3670    -0.1150    -3.5360 H     1 <1>   0.0800 
 35 H        1.6230     1.0880    -3.3380 H     1 <1>   0.0800 
 36 H        4.3900     1.2660     3.9740 H     1 <1>   0.1500 
 37 H        4.1500    -1.0730     4.6220 H     1 <1>   0.1500 
 38 H       -0.1800    -1.6850     3.6100 H     1 <1>   0.0800 
 39 H       -1.1010    -2.0520     2.1650 H     1 <1>   0.0800 
 40 H        1.4550    -3.0310     0.0940 H     1 <1>   0.0800 
 41 H        2.4750    -3.3430     1.4760 H     1 <1>   0.0800 
 42 H       -0.9200    -4.2340     3.2820 H     1 <1>   0.0800 
 43 H        1.1110    -5.1790     1.8030 H     1 <1>   0.0800 
 44 H        1.6400    -3.2000     3.7680 H     1 <1>   0.4000 
 45 H       -1.2050    -3.7110     0.5030 H     1 <1>   0.0800 
 46 H       -1.2010    -5.3700     1.0110 H     1 <1>   0.0800 
 47 H       -0.6140    -3.2180    -1.7670 H     1 <1>   0.1500 
 48 H        0.7130    -6.9030    -0.1110 H     1 <1>   0.1500 
 49 H        0.2990    -3.9460    -3.9000 H     1 <1>   0.1500 
 50 H        1.5770    -7.4810    -2.3090 H     1 <1>   0.1500 
@<TRIPOS>BOND
  1   1   2  2   
  2   2   3  am  
  3   2   4  1   
  4   3   5  1   
  5   3   6  1   
  6   4   7  ar  
  7   4   8  ar  
  8   5   9  1   
  9   5  27  1   
 10   5  28  1   
 11   6  10  1   
 12   6  29  1   
 13   6  30  1   
 14   7  11  ar  
 15   7  12  1   
 16   8  13  ar  
 17   8  31  1   
 18   9  10  1   
 19   9  32  1   
 20   9  33  1   
 21  10  34  1   
 22  10  35  1   
 23  11  14  ar  
 24  12  15  1   
 25  12  16  1   
 26  13  14  ar  
 27  13  36  1   
 28  14  37  1   
 29  15  17  1   
 30  15  38  1   
 31  15  39  1   
 32  16  18  1   
 33  16  40  1   
 34  16  41  1   
 35  17  18  1   
 36  17  19  1   
 37  17  42  1   
 38  18  20  1   
 39  18  43  1   
 40  19  44  1   
 41  20  21  1   
 42  20  45  1   
 43  20  46  1   
 44  21  22  ar  
 45  21  23  ar  
 46  22  24  ar  
 47  22  47  1   
 48  23  25  ar  
 49  23  48  1   
 50  24  26  ar  
 51  24  49  1   
 52  25  26  ar  
 53  25  50  1   
@<TRIPOS>SUBSTRUCTURE
  1 ****  16 GROUP 4 **** **** 0

# MOE 2024.06 (io_trps.svl 2023.06)
