@<TRIPOS>MOLECULE
NONAME
51 54 1 0 0 
SMALL
USER_CHARGES


@<TRIPOS>ATOM
  1 O        2.4620    -1.1170     2.8980 O.2   1 <1>  -0.5700 
  2 C        2.0700    -1.3910     1.7760 C.2   1 <1>   0.5440 
  3 N        1.7510    -0.3350     0.9360 N.am  1 <1>  -0.6600 
  4 C        1.9890    -2.8000     1.3880 C.ar  1 <1>   0.3960 
  5 C        1.5750     1.0620     1.4400 C.3   1 <1>   0.1400 
  6 C        1.5600    -0.4520    -0.5430 C.3   1 <1>   0.1400 
  7 N        1.0120    -3.2370     0.5790 N.ar  1 <1>  -0.6200 
  8 C        2.9570    -3.6700     1.8960 C.ar  1 <1>   0.1600 
  9 C        2.3660     2.0590     0.5790 C.3   1 <1>   0.1200 
 10 C        2.3340     0.6470    -1.2900 C.3   1 <1>   0.1200 
 11 C        1.0590    -4.5340     0.3180 C.ar  1 <1>   0.4100 
 12 N        3.0430    -4.9670     1.6370 N.ar  1 <1>  -0.6200 
 13 O        2.0370     1.9120    -0.7730 O.3   1 <1>  -0.5600 
 14 N        0.0620    -5.0380    -0.5120 N.pl3 1 <1>  -0.8380 
 15 C        2.0720    -5.3600     0.8370 C.ar  1 <1>   0.1600 
 16 C       -1.0080    -4.1590    -1.0730 C.3   1 <1>   0.2090 
 17 C       -0.4800    -6.4120    -0.3140 C.3   1 <1>   0.2090 
 18 C       -2.1480    -5.1030    -1.4540 C.3   1 <1>   0.2000 
 19 C       -1.9890    -6.3010    -0.5260 C.3   1 <1>  -0.0800 
 20 O       -3.3950    -4.5200    -1.2760 O.3   1 <1>  -0.6800 
 21 C       -2.6330    -7.5850    -1.0740 C.3   1 <1>   0.0210 
 22 C       -2.2980    -8.8030    -0.2300 C.2   1 <1>   0.1080 
 23 N       -2.1840    -8.7730     1.0620 N.2   1 <1>  -0.7070 
 24 C       -2.0750   -10.0760    -0.7450 C.2   1 <1>  -0.1500 
 25 N       -1.8910   -10.0410     1.4100 N.pl3 1 <1>   0.3000 
 26 C       -1.8160   -10.8480     0.3310 C.2   1 <1>  -0.3320 
 27 C       -1.5010   -12.3310     0.3970 C.3   1 <1>  -0.0600 
 28 H        0.5310     1.3190     1.4050 H     1 <1>   0.0800 
 29 H        1.8990     1.1460     2.4620 H     1 <1>   0.0800 
 30 H        1.9040    -1.4060    -0.8990 H     1 <1>   0.0800 
 31 H        0.5120    -0.3690    -0.7710 H     1 <1>   0.0800 
 32 H        3.7050    -3.2610     2.5530 H     1 <1>   0.1500 
 33 H        3.4240     1.9050     0.6990 H     1 <1>   0.0800 
 34 H        2.1290     3.0670     0.8680 H     1 <1>   0.0800 
 35 H        2.0650     0.6470    -2.3320 H     1 <1>   0.0800 
 36 H        3.3950     0.4830    -1.2080 H     1 <1>   0.0800 
 37 H        2.0610    -6.3960     0.5600 H     1 <1>   0.1500 
 38 H       -1.3400    -3.4620    -0.3230 H     1 <1>   0.0800 
 39 H       -0.6410    -3.6290    -1.9330 H     1 <1>   0.0800 
 40 H       -0.0430    -7.0700    -1.0460 H     1 <1>   0.0800 
 41 H       -0.2690    -6.7860     0.6740 H     1 <1>   0.0800 
 42 H       -2.0490    -5.3880    -2.4870 H     1 <1>   0.0800 
 43 H       -2.4210    -6.0730     0.4330 H     1 <1>   0.0800 
 44 H       -3.5350    -4.3100    -0.3320 H     1 <1>   0.4000 
 45 H       -2.3010    -7.7580    -2.0810 H     1 <1>   0.0800 
 46 H       -3.7020    -7.4650    -1.0930 H     1 <1>   0.0800 
 47 H       -2.1110   -10.3570    -1.7820 H     1 <1>   0.1500 
 48 H       -1.7520   -10.3220     2.3880 H     1 <1>   0.2700 
 49 H       -1.5030   -12.7550    -0.5920 H     1 <1>   0.0800 
 50 H       -2.2390   -12.8430     0.9890 H     1 <1>   0.0800 
 51 H       -0.5310   -12.4870     0.8340 H     1 <1>   0.0800 
@<TRIPOS>BOND
  1   1   2  2   
  2   2   3  am  
  3   2   4  1   
  4   3   5  1   
  5   3   6  1   
  6   4   7  ar  
  7   4   8  ar  
  8   5   9  1   
  9   5  28  1   
 10   5  29  1   
 11   6  10  1   
 12   6  30  1   
 13   6  31  1   
 14   7  11  ar  
 15   8  12  ar  
 16   8  32  1   
 17   9  13  1   
 18   9  33  1   
 19   9  34  1   
 20  10  13  1   
 21  10  35  1   
 22  10  36  1   
 23  11  14  1   
 24  11  15  ar  
 25  12  15  ar  
 26  14  16  1   
 27  14  17  1   
 28  15  37  1   
 29  16  18  1   
 30  16  38  1   
 31  16  39  1   
 32  17  19  1   
 33  17  40  1   
 34  17  41  1   
 35  18  19  1   
 36  18  20  1   
 37  18  42  1   
 38  19  21  1   
 39  19  43  1   
 40  20  44  1   
 41  21  22  1   
 42  21  45  1   
 43  21  46  1   
 44  22  23  2   
 45  22  24  1   
 46  23  25  1   
 47  24  26  2   
 48  24  47  1   
 49  25  26  1   
 50  25  48  1   
 51  26  27  1   
 52  27  49  1   
 53  27  50  1   
 54  27  51  1   
@<TRIPOS>SUBSTRUCTURE
  1 ****  11 GROUP 4 **** **** 0

# MOE 2024.06 (io_trps.svl 2023.06)
