@<TRIPOS>MOLECULE
NONAME
45 46 1 0 0 
SMALL
USER_CHARGES


@<TRIPOS>ATOM
  1 S        0.0130    -0.0960     0.0180 S.o2  1 <1>   1.3330 
  2 O       -0.7250     1.0590     0.4770 O.2   1 <1>  -0.6500 
  3 O        0.2650    -1.1910     0.9270 O.2   1 <1>  -0.6500 
  4 N       -0.7710    -0.7220    -1.3510 N.am  1 <1>  -0.8490 
  5 C        1.5660     0.4840    -0.6630 C.3   1 <1>  -0.0550 
  6 C       -2.2290    -0.5950    -1.2670 C.3   1 <1>   0.1160 
  7 C       -0.4080    -2.1130    -1.6450 C.3   1 <1>   0.1160 
  8 C        2.4510     1.2100     0.3680 C.3   1 <1>  -0.0800 
  9 C        3.6310     1.8820    -0.3110 C.3   1 <1>   0.2200 
 10 C        3.1320     0.2390     1.3440 C.3   1 <1>   0.1200 
 11 N        4.0660     3.0300     0.5100 N.am  1 <1>  -0.7300 
 12 C        4.6870     0.7870    -0.2630 C.3   1 <1>   0.1200 
 13 O        4.4600     0.1000     0.9280 O.3   1 <1>  -0.5600 
 14 C        3.8860     4.3280     0.1670 C.2   1 <1>   0.5690 
 15 O        3.3040     4.6480    -0.8430 O.2   1 <1>  -0.5700 
 16 C        4.4600     5.4250     1.0400 C.3   1 <1>   0.0440 
 17 C        5.9130     5.7300     0.6810 C.ar  1 <1>  -0.1440 
 18 C        6.2990     6.0820    -0.6120 C.ar  1 <1>   0.0820 
 19 C        6.8810     5.6750     1.6740 C.ar  1 <1>  -0.1500 
 20 O        5.4200     6.1350    -1.6290 O.3   1 <1>  -0.5330 
 21 C        7.6200     6.3830    -0.8940 C.ar  1 <1>  -0.1500 
 22 C        8.2040     5.9690     1.3890 C.ar  1 <1>  -0.1500 
 23 C        8.5750     6.3250     0.1040 C.ar  1 <1>  -0.1500 
 24 H        2.1030    -0.3410    -1.0860 H     1 <1>   0.0800 
 25 H        1.3370     1.1690    -1.4570 H     1 <1>   0.0800 
 26 H       -2.6910    -0.9870    -2.1560 H     1 <1>   0.0800 
 27 H       -2.5040     0.4430    -1.1760 H     1 <1>   0.0800 
 28 H       -2.6030    -1.1270    -0.4070 H     1 <1>   0.0800 
 29 H       -0.8590    -2.4250    -2.5720 H     1 <1>   0.0800 
 30 H       -0.7440    -2.7650    -0.8550 H     1 <1>   0.0800 
 31 H        0.6600    -2.2080    -1.7380 H     1 <1>   0.0800 
 32 H        1.8470     1.9300     0.8940 H     1 <1>   0.0800 
 33 H        3.4220     2.1990    -1.3190 H     1 <1>   0.0800 
 34 H        2.6780    -0.7370     1.3630 H     1 <1>   0.0800 
 35 H        3.1450     0.6430     2.3410 H     1 <1>   0.0800 
 36 H        4.6130     2.7730     1.3350 H     1 <1>   0.3700 
 37 H        5.6910     1.1750    -0.2750 H     1 <1>   0.0800 
 38 H        4.5550     0.0920    -1.0730 H     1 <1>   0.0800 
 39 H        3.8740     6.3160     0.9080 H     1 <1>   0.0800 
 40 H        4.3750     5.1310     2.0690 H     1 <1>   0.0800 
 41 H        6.6170     5.4090     2.6830 H     1 <1>   0.1500 
 42 H        4.5520     5.6970    -1.4380 H     1 <1>   0.4500 
 43 H        7.8930     6.6580    -1.8970 H     1 <1>   0.1500 
 44 H        8.9460     5.9230     2.1670 H     1 <1>   0.1500 
 45 H        9.6020     6.5570    -0.1190 H     1 <1>   0.1500 
@<TRIPOS>BOND
  1   1   2  2   
  2   1   3  2   
  3   1   4  am  
  4   1   5  1   
  5   4   6  1   
  6   4   7  1   
  7   5   8  1   
  8   5  24  1   
  9   5  25  1   
 10   6  26  1   
 11   6  27  1   
 12   6  28  1   
 13   7  29  1   
 14   7  30  1   
 15   7  31  1   
 16   8   9  1   
 17   8  10  1   
 18   8  32  1   
 19   9  11  1   
 20   9  12  1   
 21   9  33  1   
 22  10  13  1   
 23  10  34  1   
 24  10  35  1   
 25  11  14  am  
 26  11  36  1   
 27  12  13  1   
 28  12  37  1   
 29  12  38  1   
 30  14  15  2   
 31  14  16  1   
 32  16  17  1   
 33  16  39  1   
 34  16  40  1   
 35  17  18  ar  
 36  17  19  ar  
 37  18  20  1   
 38  18  21  ar  
 39  19  22  ar  
 40  19  41  1   
 41  20  42  1   
 42  21  23  ar  
 43  21  43  1   
 44  22  23  ar  
 45  22  44  1   
 46  23  45  1   
@<TRIPOS>SUBSTRUCTURE
  1 ****   9 GROUP 4 **** **** 0

# MOE 2024.06 (io_trps.svl 2023.06)
