@<TRIPOS>MOLECULE
NONAME
55 58 1 0 0 
SMALL
USER_CHARGES


@<TRIPOS>ATOM
  1 O       -1.1010    -0.2640    -1.5910 O.2   1 <1>  -0.5700 
  2 C       -1.8880     0.3080    -0.8600 C.2   1 <1>   0.5440 
  3 N       -1.6610     1.6350    -0.5560 N.am  1 <1>  -0.6600 
  4 C       -3.0130    -0.4260    -0.3340 C.ar  1 <1>   0.0860 
  5 C       -0.6310     2.4390    -1.2800 C.3   1 <1>   0.1400 
  6 C       -2.2220     2.3460     0.6310 C.3   1 <1>   0.1400 
  7 C       -2.8240    -1.6640     0.2740 C.ar  1 <1>   0.1600 
  8 C       -4.3230     0.0380    -0.4140 C.ar  1 <1>  -0.1500 
  9 C       -1.1450     3.8630    -1.5470 C.3   1 <1>   0.1200 
 10 C       -2.6560     3.7720     0.2500 C.3   1 <1>   0.1200 
 11 N       -3.7670    -2.4220     0.8050 N.ar  1 <1>  -0.6200 
 12 C       -5.3180    -0.7400     0.1270 C.ar  1 <1>  -0.1500 
 13 O       -1.6040     4.4600    -0.3660 O.3   1 <1>  -0.5600 
 14 C       -5.0080    -1.9570     0.7280 C.ar  1 <1>   0.4100 
 15 N       -6.0100    -2.7150     1.2680 N.pl3 1 <1>  -0.8690 
 16 C       -5.8530    -4.1370     1.5900 C.3   1 <1>   0.4700 
 17 C       -7.1740    -4.8160     1.2830 C.2   1 <1>  -0.1810 
 18 C       -5.4850    -4.2700     3.0640 C.3   1 <1>  -0.2400 
 19 C       -8.3800    -4.6300     1.9490 C.2   1 <1>   0.1390 
 20 C       -7.4640    -5.7120     0.3170 C.2   1 <1>  -0.3020 
 21 N       -9.3370    -5.3420     1.4430 N.2   1 <1>  -0.7070 
 22 N       -8.7750    -6.0440     0.4210 N.pl3 1 <1>   0.5930 
 23 C       -9.5290    -6.8850    -0.4480 C.ar  1 <1>  -0.0230 
 24 C       -9.0590    -8.1400    -0.8470 C.ar  1 <1>   0.0820 
 25 C      -10.7670    -6.4520    -0.9150 C.ar  1 <1>  -0.1500 
 26 O       -7.8570    -8.5590    -0.3630 O.3   1 <1>  -0.3630 
 27 C       -9.8220    -8.9220    -1.7110 C.ar  1 <1>  -0.1500 
 28 C      -11.5210    -7.2350    -1.7700 C.ar  1 <1>  -0.1500 
 29 C       -7.3710    -9.8630    -0.5950 C.3   1 <1>   0.0400 
 30 C      -11.0470    -8.4700    -2.1700 C.ar  1 <1>  -0.1500 
 31 H       -0.3820     1.9720    -2.2180 H     1 <1>   0.0800 
 32 H        0.2640     2.4870    -0.6850 H     1 <1>   0.0800 
 33 H       -1.4620     2.4080     1.3920 H     1 <1>   0.0800 
 34 H       -3.0570     1.8140     1.0470 H     1 <1>   0.0800 
 35 H       -1.8160    -2.0410     0.3190 H     1 <1>   0.1500 
 36 H       -4.5380     0.9780    -0.8920 H     1 <1>   0.1500 
 37 H       -1.9510     3.8450    -2.2600 H     1 <1>   0.0800 
 38 H       -0.3520     4.4750    -1.9390 H     1 <1>   0.0800 
 39 H       -2.9360     4.3230     1.1300 H     1 <1>   0.0800 
 40 H       -3.4930     3.7480    -0.4250 H     1 <1>   0.0800 
 41 H       -6.3420    -0.4220     0.0930 H     1 <1>   0.1500 
 42 H       -6.9560    -2.5210     0.9420 H     1 <1>   0.4000 
 43 H       -5.0810    -4.5760     0.9790 H     1 <1>   0.0800 
 44 H       -6.2190    -3.7910     3.6840 H     1 <1>   0.0800 
 45 H       -4.5260    -3.8180     3.2360 H     1 <1>   0.0800 
 46 H       -5.4270    -5.3100     3.3280 H     1 <1>   0.0800 
 47 H       -8.5160    -3.9690     2.7890 H     1 <1>   0.1500 
 48 H       -6.8330    -6.1390    -0.4390 H     1 <1>   0.1500 
 49 H      -11.1420    -5.4930    -0.6020 H     1 <1>   0.1500 
 50 H       -9.4840    -9.8860    -2.0400 H     1 <1>   0.1500 
 51 H      -12.4750    -6.8820    -2.1210 H     1 <1>   0.1500 
 52 H       -6.4420    -9.9720    -0.0640 H     1 <1>   0.0800 
 53 H       -7.2060    -9.9930    -1.6490 H     1 <1>   0.0800 
 54 H       -8.0890   -10.5740    -0.2240 H     1 <1>   0.0800 
 55 H      -11.6320    -9.0800    -2.8370 H     1 <1>   0.1500 
@<TRIPOS>BOND
  1   1   2  2   
  2   2   3  am  
  3   2   4  1   
  4   3   5  1   
  5   3   6  1   
  6   4   7  ar  
  7   4   8  ar  
  8   5   9  1   
  9   5  31  1   
 10   5  32  1   
 11   6  10  1   
 12   6  33  1   
 13   6  34  1   
 14   7  11  ar  
 15   7  35  1   
 16   8  12  ar  
 17   8  36  1   
 18   9  13  1   
 19   9  37  1   
 20   9  38  1   
 21  10  13  1   
 22  10  39  1   
 23  10  40  1   
 24  11  14  ar  
 25  12  14  ar  
 26  12  41  1   
 27  14  15  1   
 28  15  16  1   
 29  15  42  1   
 30  16  17  1   
 31  16  18  1   
 32  16  43  1   
 33  17  19  1   
 34  17  20  2   
 35  18  44  1   
 36  18  45  1   
 37  18  46  1   
 38  19  21  2   
 39  19  47  1   
 40  20  22  1   
 41  20  48  1   
 42  21  22  1   
 43  22  23  1   
 44  23  24  ar  
 45  23  25  ar  
 46  24  26  1   
 47  24  27  ar  
 48  25  28  ar  
 49  25  49  1   
 50  26  29  1   
 51  27  30  ar  
 52  27  50  1   
 53  28  30  ar  
 54  28  51  1   
 55  29  52  1   
 56  29  53  1   
 57  29  54  1   
 58  30  55  1   
@<TRIPOS>SUBSTRUCTURE
  1 ****  15 GROUP 4 **** **** 0

# MOE 2024.06 (io_trps.svl 2023.06)
