@<TRIPOS>MOLECULE
NONAME
51 52 1 0 0 
SMALL
USER_CHARGES


@<TRIPOS>ATOM
  1 S        0.4230     0.4280    -0.3900 S.o2  1 <1>   1.3330 
  2 O        0.5740    -0.8580    -1.0330 O.2   1 <1>  -0.6500 
  3 O       -0.7710     1.2090    -0.6210 O.2   1 <1>  -0.6500 
  4 N        0.5440     0.1850     1.2880 N.am  1 <1>  -0.8490 
  5 C        1.8670     1.4180    -0.7830 C.3   1 <1>  -0.0550 
  6 C       -0.1300    -1.0450     1.7170 C.3   1 <1>   0.1160 
  7 C        0.0490     1.3200     2.0760 C.3   1 <1>   0.1160 
  8 C        3.2080     0.6660    -0.6400 C.3   1 <1>  -0.0800 
  9 C        4.4250     1.4290    -1.1380 C.3   1 <1>   0.2200 
 10 C        3.6050     0.2990     0.7960 C.3   1 <1>   0.1200 
 11 N        4.3780     2.8430    -0.7020 N.am  1 <1>  -0.7300 
 12 C        5.5320     0.7180    -0.3740 C.3   1 <1>   0.1200 
 13 O        4.9920     0.4640     0.8870 O.3   1 <1>  -0.5600 
 14 C        4.0220     3.8900    -1.4820 C.2   1 <1>   0.5690 
 15 O        3.6270     3.7390    -2.6110 O.2   1 <1>  -0.5700 
 16 C        4.1240     5.2790    -0.9020 C.3   1 <1>  -0.0990 
 17 C        5.5480     5.8270    -1.0450 C.3   1 <1>  -0.0170 
 18 C        5.6980     7.1200    -0.2560 C.ar  1 <1>  -0.1440 
 19 C        5.9420     7.1000     1.1170 C.ar  1 <1>   0.0820 
 20 C        5.5860     8.3340    -0.9150 C.ar  1 <1>  -0.1500 
 21 O        6.0370     5.8870     1.7280 O.3   1 <1>  -0.3620 
 22 C        6.0750     8.3030     1.8080 C.ar  1 <1>  -0.1500 
 23 C        5.7190     9.5250    -0.2220 C.ar  1 <1>  -0.1500 
 24 C        6.4270     5.7700     3.0790 C.3   1 <1>   0.0400 
 25 C        5.9640     9.5080     1.1390 C.ar  1 <1>  -0.1500 
 26 H        1.7800     1.7460    -1.8010 H     1 <1>   0.0800 
 27 H        1.8730     2.2950    -0.1670 H     1 <1>   0.0800 
 28 H       -0.0270    -1.1770     2.7800 H     1 <1>   0.0800 
 29 H        0.3120    -1.8970     1.2290 H     1 <1>   0.0800 
 30 H       -1.1760    -1.0060     1.4630 H     1 <1>   0.0800 
 31 H        0.2310     1.1500     3.1240 H     1 <1>   0.0800 
 32 H       -1.0100     1.4530     1.9220 H     1 <1>   0.0800 
 33 H        0.5560     2.2240     1.7860 H     1 <1>   0.0800 
 34 H        3.1440    -0.2500    -1.2020 H     1 <1>   0.0800 
 35 H        4.5520     1.3640    -2.2060 H     1 <1>   0.0800 
 36 H        3.3560    -0.7220     1.0320 H     1 <1>   0.0800 
 37 H        3.1540     0.9580     1.5170 H     1 <1>   0.0800 
 38 H        4.7040     2.9980     0.2570 H     1 <1>   0.3700 
 39 H        6.4240     1.3120    -0.2770 H     1 <1>   0.0800 
 40 H        5.7660    -0.2280    -0.8300 H     1 <1>   0.0800 
 41 H        3.4340     5.9290    -1.4090 H     1 <1>   0.0800 
 42 H        3.8470     5.2460     0.1350 H     1 <1>   0.0800 
 43 H        5.7640     5.9950    -2.0850 H     1 <1>   0.0800 
 44 H        6.2590     5.1040    -0.6840 H     1 <1>   0.0800 
 45 H        5.3950     8.3600    -1.9730 H     1 <1>   0.1500 
 46 H        6.2620     8.3220     2.8640 H     1 <1>   0.1500 
 47 H        5.6320    10.4620    -0.7430 H     1 <1>   0.1500 
 48 H        6.4940     4.7240     3.3180 H     1 <1>   0.0800 
 49 H        5.6850     6.2400     3.6990 H     1 <1>   0.0800 
 50 H        7.3880     6.2350     3.2060 H     1 <1>   0.0800 
 51 H        6.0670    10.4340     1.6760 H     1 <1>   0.1500 
@<TRIPOS>BOND
  1   1   2  2   
  2   1   3  2   
  3   1   4  am  
  4   1   5  1   
  5   4   6  1   
  6   4   7  1   
  7   5   8  1   
  8   5  26  1   
  9   5  27  1   
 10   6  28  1   
 11   6  29  1   
 12   6  30  1   
 13   7  31  1   
 14   7  32  1   
 15   7  33  1   
 16   8   9  1   
 17   8  10  1   
 18   8  34  1   
 19   9  11  1   
 20   9  12  1   
 21   9  35  1   
 22  10  13  1   
 23  10  36  1   
 24  10  37  1   
 25  11  14  am  
 26  11  38  1   
 27  12  13  1   
 28  12  39  1   
 29  12  40  1   
 30  14  15  2   
 31  14  16  1   
 32  16  17  1   
 33  16  41  1   
 34  16  42  1   
 35  17  18  1   
 36  17  43  1   
 37  17  44  1   
 38  18  19  ar  
 39  18  20  ar  
 40  19  21  1   
 41  19  22  ar  
 42  20  23  ar  
 43  20  45  1   
 44  21  24  1   
 45  22  25  ar  
 46  22  46  1   
 47  23  25  ar  
 48  23  47  1   
 49  24  48  1   
 50  24  49  1   
 51  24  50  1   
 52  25  51  1   
@<TRIPOS>SUBSTRUCTURE
  1 ****  11 GROUP 4 **** **** 0

# MOE 2024.06 (io_trps.svl 2023.06)
