@<TRIPOS>MOLECULE
NONAME
48 50 1 0 0 
SMALL
USER_CHARGES


@<TRIPOS>ATOM
  1 S        1.1090     1.1480    -0.2090 S.o2  1 <1>   1.3330 
  2 O        2.2530     1.7620     0.4290 O.2   1 <1>  -0.6500 
  3 O        0.6900     1.6160    -1.5110 O.2   1 <1>  -0.6500 
  4 N        1.4180    -0.5160    -0.3420 N.am  1 <1>  -0.8490 
  5 C       -0.2860     1.1920     0.9250 C.3   1 <1>  -0.0550 
  6 C        0.5540    -1.1960    -1.3140 C.3   1 <1>   0.1160 
  7 C        2.8240    -0.8000    -0.6470 C.3   1 <1>   0.1160 
  8 C       -0.8300     2.5820     1.3280 C.3   1 <1>  -0.0800 
  9 C       -1.2260     3.4600     0.1380 C.3   1 <1>   0.2000 
 10 C        0.1790     3.4270     2.1230 C.3   1 <1>   0.1100 
 11 O       -2.3270     4.2010     0.5220 O.3   1 <1>  -0.6800 
 12 C       -0.0550     4.4260    -0.0080 C.3   1 <1>   0.1100 
 13 N        0.4040     4.6700     1.3690 N.3   1 <1>  -0.8100 
 14 C        1.8180     5.0890     1.4100 C.3   1 <1>   0.2480 
 15 C        2.0180     6.4920     0.8350 C.2   1 <1>  -0.0380 
 16 N        3.2310     6.7670     0.2390 N.pl3 1 <1>  -0.5840 
 17 C        1.0710     7.4680     0.8970 C.2   1 <1>  -0.1360 
 18 C        3.4860     8.0420    -0.2940 C.2   1 <1>  -0.0680 
 19 C        1.2720     8.7750     0.3660 C.2   1 <1>   0.5650 
 20 N        2.5340     9.0320    -0.2370 N.pl3 1 <1>   0.5610 
 21 C        4.5730     8.5560    -0.9100 C.2   1 <1>  -0.1500 
 22 O        0.3870     9.6180     0.4410 O.2   1 <1>  -0.5700 
 23 N        3.0350    10.1770    -0.8210 N.2   1 <1>  -0.7070 
 24 C        4.2300     9.8700    -1.2080 C.2   1 <1>   0.1080 
 25 C        5.1270    10.8660    -1.9060 C.3   1 <1>  -0.0590 
 26 H       -1.0940     0.6430     0.4830 H     1 <1>   0.0800 
 27 H       -0.0080     0.6700     1.8200 H     1 <1>   0.0800 
 28 H        0.7330    -2.2570    -1.2890 H     1 <1>   0.0800 
 29 H        0.7490    -0.8320    -2.3100 H     1 <1>   0.0800 
 30 H       -0.4810    -1.0210    -1.0800 H     1 <1>   0.0800 
 31 H        2.9860    -1.8630    -0.7110 H     1 <1>   0.0800 
 32 H        3.4580    -0.4120     0.1330 H     1 <1>   0.0800 
 33 H        3.1050    -0.3410    -1.5810 H     1 <1>   0.0800 
 34 H       -1.6930     2.4030     1.9460 H     1 <1>   0.0800 
 35 H       -1.4670     2.9240    -0.7640 H     1 <1>   0.0800 
 36 H        1.1010     2.8910     2.2750 H     1 <1>   0.0800 
 37 H       -0.2240     3.6760     3.0910 H     1 <1>   0.0800 
 38 H       -2.0120     4.8510     1.1860 H     1 <1>   0.4000 
 39 H       -0.3520     5.3380    -0.4960 H     1 <1>   0.0800 
 40 H        0.7280     3.9670    -0.5860 H     1 <1>   0.0800 
 41 H        2.1600     5.0920     2.4310 H     1 <1>   0.0800 
 42 H        2.4160     4.3800     0.8620 H     1 <1>   0.0800 
 43 H        3.9570     6.0420     0.1580 H     1 <1>   0.4000 
 44 H        0.1170     7.2930     1.3570 H     1 <1>   0.1500 
 45 H        5.5070     8.0760    -1.1320 H     1 <1>   0.1500 
 46 H        6.0750    10.4210    -2.1450 H     1 <1>   0.0800 
 47 H        5.2870    11.7140    -1.2660 H     1 <1>   0.0800 
 48 H        4.6550    11.2000    -2.8120 H     1 <1>   0.0800 
@<TRIPOS>BOND
  1   1   2  2   
  2   1   3  2   
  3   1   4  am  
  4   1   5  1   
  5   4   6  1   
  6   4   7  1   
  7   5   8  1   
  8   5  26  1   
  9   5  27  1   
 10   6  28  1   
 11   6  29  1   
 12   6  30  1   
 13   7  31  1   
 14   7  32  1   
 15   7  33  1   
 16   8   9  1   
 17   8  10  1   
 18   8  34  1   
 19   9  11  1   
 20   9  12  1   
 21   9  35  1   
 22  10  13  1   
 23  10  36  1   
 24  10  37  1   
 25  11  38  1   
 26  12  13  1   
 27  12  39  1   
 28  12  40  1   
 29  13  14  1   
 30  14  15  1   
 31  14  41  1   
 32  14  42  1   
 33  15  16  1   
 34  15  17  2   
 35  16  18  1   
 36  16  43  1   
 37  17  19  1   
 38  17  44  1   
 39  18  20  1   
 40  18  21  2   
 41  19  20  1   
 42  19  22  2   
 43  20  23  1   
 44  21  24  1   
 45  21  45  1   
 46  23  24  2   
 47  24  25  1   
 48  25  46  1   
 49  25  47  1   
 50  25  48  1   
@<TRIPOS>SUBSTRUCTURE
  1 ****  14 GROUP 4 **** **** 0

# MOE 2024.06 (io_trps.svl 2023.06)
