@<TRIPOS>MOLECULE
NONAME
44 45 1 0 0 
SMALL
USER_CHARGES


@<TRIPOS>ATOM
  1 S        0.5880    -0.2100    -1.3890 S.o2  1 <1>   1.3330 
  2 O        1.8930    -0.8320    -1.3510 O.2   1 <1>  -0.6500 
  3 O       -0.0900    -0.0540    -2.6560 O.2   1 <1>  -0.6500 
  4 N       -0.4480    -1.1140    -0.3890 N.am  1 <1>  -0.8490 
  5 C        0.6660     1.3880    -0.5660 C.3   1 <1>  -0.0550 
  6 C       -0.1650    -2.5520    -0.4520 C.3   1 <1>   0.1160 
  7 C       -1.8710    -0.8790    -0.6570 C.3   1 <1>   0.1160 
  8 C        1.6240     1.5250     0.6390 C.3   1 <1>  -0.0800 
  9 C        3.1020     1.4580     0.2460 C.3   1 <1>   0.2200 
 10 C        1.4940     0.4870     1.7590 C.3   1 <1>   0.1200 
 11 N        3.7400     2.7620     0.5350 N.am  1 <1>  -0.7300 
 12 C        3.6580     0.3660     1.1580 C.3   1 <1>   0.1200 
 13 O        2.7860     0.3170     2.2410 O.3   1 <1>  -0.5600 
 14 C        3.7450     3.8290    -0.3150 C.2   1 <1>   0.5440 
 15 O        3.1440     3.7250    -1.3670 O.2   1 <1>  -0.5700 
 16 C        4.4110     5.0620     0.0520 C.ar  1 <1>   0.0860 
 17 C        5.7630     5.0650     0.3980 C.ar  1 <1>   0.1900 
 18 C        3.7520     6.3010     0.0900 C.ar  1 <1>  -0.1440 
 19 F        6.4350     3.9460     0.3850 F     1 <1>  -0.1900 
 20 C        6.4530     6.2050     0.7610 C.ar  1 <1>  -0.1500 
 21 C        4.4370     7.4520     0.4520 C.ar  1 <1>  -0.1500 
 22 C        2.2740     6.4140    -0.2650 C.3   1 <1>  -0.0970 
 23 C        5.7800     7.4110     0.7880 C.ar  1 <1>  -0.1500 
 24 H        0.9670     2.1200    -1.2920 H     1 <1>   0.0800 
 25 H       -0.3210     1.6600    -0.2490 H     1 <1>   0.0800 
 26 H       -0.8320    -3.0930     0.1970 H     1 <1>   0.0800 
 27 H        0.8450    -2.7440    -0.1300 H     1 <1>   0.0800 
 28 H       -0.2810    -2.9110    -1.4610 H     1 <1>   0.0800 
 29 H       -2.4750    -1.4000     0.0670 H     1 <1>   0.0800 
 30 H       -2.1310    -1.2260    -1.6440 H     1 <1>   0.0800 
 31 H       -2.0950     0.1720    -0.5920 H     1 <1>   0.0800 
 32 H        1.4250     2.4840     1.0850 H     1 <1>   0.0800 
 33 H        3.2590     1.2030    -0.7880 H     1 <1>   0.0800 
 34 H        1.1610    -0.4720     1.4080 H     1 <1>   0.0800 
 35 H        0.8600     0.8220     2.5620 H     1 <1>   0.0800 
 36 H        4.1840     2.8330     1.4530 H     1 <1>   0.3700 
 37 H        4.6560     0.5690     1.5000 H     1 <1>   0.0800 
 38 H        3.6240    -0.5900     0.6630 H     1 <1>   0.0800 
 39 H        7.4960     6.1470     1.0160 H     1 <1>   0.1500 
 40 H        3.9270     8.4000     0.4760 H     1 <1>   0.1500 
 41 H        1.8890     7.3910    -0.0320 H     1 <1>   0.0800 
 42 H        1.7010     5.6870     0.2840 H     1 <1>   0.0800 
 43 H        2.1360     6.2360    -1.3170 H     1 <1>   0.0800 
 44 H        6.2960     8.3140     1.0670 H     1 <1>   0.1500 
@<TRIPOS>BOND
  1   1   2  2   
  2   1   3  2   
  3   1   4  am  
  4   1   5  1   
  5   4   6  1   
  6   4   7  1   
  7   5   8  1   
  8   5  24  1   
  9   5  25  1   
 10   6  26  1   
 11   6  27  1   
 12   6  28  1   
 13   7  29  1   
 14   7  30  1   
 15   7  31  1   
 16   8   9  1   
 17   8  10  1   
 18   8  32  1   
 19   9  11  1   
 20   9  12  1   
 21   9  33  1   
 22  10  13  1   
 23  10  34  1   
 24  10  35  1   
 25  11  14  am  
 26  11  36  1   
 27  12  13  1   
 28  12  37  1   
 29  12  38  1   
 30  14  15  2   
 31  14  16  1   
 32  16  17  ar  
 33  16  18  ar  
 34  17  19  1   
 35  17  20  ar  
 36  18  21  ar  
 37  18  22  1   
 38  20  23  ar  
 39  20  39  1   
 40  21  23  ar  
 41  21  40  1   
 42  22  41  1   
 43  22  42  1   
 44  22  43  1   
 45  23  44  1   
@<TRIPOS>SUBSTRUCTURE
  1 ****   9 GROUP 4 **** **** 0

# MOE 2024.06 (io_trps.svl 2023.06)
