@<TRIPOS>MOLECULE
NONAME
42 43 1 0 0 
SMALL
USER_CHARGES


@<TRIPOS>ATOM
  1 O        0.1520    -0.5570     0.9130 O.2   1 <1>  -0.5700 
  2 C        0.6580    -1.5420     0.4250 C.2   1 <1>   0.7800 
  3 O        1.9720    -1.6310     0.2220 O.3   1 <1>  -0.4300 
  4 N       -0.0930    -2.6480     0.1220 N.am  1 <1>  -0.6600 
  5 C        2.9330    -0.6110     0.4130 C.3   1 <1>   0.2800 
  6 C       -1.5860    -2.5940     0.2560 C.3   1 <1>   0.1400 
  7 C        0.4980    -3.9390    -0.3600 C.3   1 <1>   0.1400 
  8 C        3.0170    -0.2310     1.8960 C.3   1 <1>  -0.2400 
  9 C        4.2620    -1.2260    -0.0260 C.3   1 <1>  -0.2400 
 10 C        2.6140     0.5920    -0.4810 C.3   1 <1>  -0.2400 
 11 C       -2.2540    -3.9410    -0.1210 C.3   1 <1>   0.0000 
 12 C       -0.0100    -5.0620     0.5620 C.3   1 <1>   0.4230 
 13 C       -1.5420    -5.1990     0.4490 C.3   1 <1>  -0.1600 
 14 C       -3.7930    -3.9500     0.1120 C.3   1 <1>   0.0000 
 15 C       -2.5700    -4.0330    -1.6490 C.3   1 <1>   0.0000 
 16 N        0.3220    -4.6800     1.9540 N.4   1 <1>  -0.8530 
 17 C       -3.9690    -3.4390    -1.3410 C.3   1 <1>   0.0000 
 18 H       -1.9620    -1.7970    -0.3650 H     1 <1>   0.0800 
 19 H       -1.8330    -2.3450     1.2740 H     1 <1>   0.0800 
 20 H        1.5740    -3.9100    -0.3430 H     1 <1>   0.0800 
 21 H        0.1990    -4.1190    -1.3780 H     1 <1>   0.0800 
 22 H        3.1840    -1.1010     2.5030 H     1 <1>   0.0800 
 23 H        2.1230     0.2680     2.2230 H     1 <1>   0.0800 
 24 H        3.8360     0.4490     2.0500 H     1 <1>   0.0800 
 25 H        4.5000    -2.0840     0.5760 H     1 <1>   0.0800 
 26 H        5.0570    -0.5090     0.0820 H     1 <1>   0.0800 
 27 H        4.2160    -1.5210    -1.0590 H     1 <1>   0.0800 
 28 H        1.7210     1.0950    -0.1580 H     1 <1>   0.0800 
 29 H        2.4940     0.2810    -1.5040 H     1 <1>   0.0800 
 30 H        3.4170     1.3050    -0.4370 H     1 <1>   0.0800 
 31 H        0.4600    -6.0000     0.3110 H     1 <1>   0.0800 
 32 H       -1.7550    -6.0350    -0.1950 H     1 <1>   0.0800 
 33 H       -1.9660    -5.4460     1.4070 H     1 <1>   0.0800 
 34 H       -4.1330    -3.2550     0.8600 H     1 <1>   0.0000 
 35 H       -4.1950    -4.9410     0.2420 H     1 <1>   0.0000 
 36 H       -2.6400    -5.0410    -2.0200 H     1 <1>   0.0000 
 37 H       -1.9650    -3.3980    -2.2710 H     1 <1>   0.0000 
 38 H        0.0230    -3.7000     2.0690 H     1 <1>   0.4500 
 39 H        1.3330    -4.7030     2.1200 H     1 <1>   0.4500 
 40 H       -0.1550    -5.2640     2.6470 H     1 <1>   0.4500 
 41 H       -3.9920    -2.3650    -1.4060 H     1 <1>   0.0000 
 42 H       -4.7700    -3.9190    -1.8740 H     1 <1>   0.0000 
@<TRIPOS>BOND
  1   1   2  2   
  2   2   3  1   
  3   2   4  am  
  4   3   5  1   
  5   4   6  1   
  6   4   7  1   
  7   5   8  1   
  8   5   9  1   
  9   5  10  1   
 10   6  11  1   
 11   6  18  1   
 12   6  19  1   
 13   7  12  1   
 14   7  20  1   
 15   7  21  1   
 16   8  22  1   
 17   8  23  1   
 18   8  24  1   
 19   9  25  1   
 20   9  26  1   
 21   9  27  1   
 22  10  28  1   
 23  10  29  1   
 24  10  30  1   
 25  11  13  1   
 26  11  14  1   
 27  11  15  1   
 28  12  13  1   
 29  12  16  1   
 30  12  31  1   
 31  13  32  1   
 32  13  33  1   
 33  14  17  1   
 34  14  34  1   
 35  14  35  1   
 36  15  17  1   
 37  15  36  1   
 38  15  37  1   
 39  16  38  1   
 40  16  39  1   
 41  16  40  1   
 42  17  41  1   
 43  17  42  1   
@<TRIPOS>SUBSTRUCTURE
  1 ****   4 GROUP 4 **** **** 0

# MOE 2024.06 (io_trps.svl 2023.06)
