@<TRIPOS>MOLECULE
NONAME
53 56 1 0 0 
SMALL
USER_CHARGES


@<TRIPOS>ATOM
  1 S        0.2200     0.2290     0.0900 S.3   1 <1>  -0.0800 
  2 C       -0.5890     1.7120     0.5900 C.2   1 <1>   0.3250 
  3 C       -1.1630    -0.7030     0.5700 C.2   1 <1>  -0.1400 
  4 N       -1.7670     1.4820     1.0590 N.2   1 <1>  -0.5650 
  5 C        0.1230     2.9620     0.4230 C.ar  1 <1>   0.0530 
  6 C       -2.0840     0.1430     1.0560 C.2   1 <1>   0.0770 
  7 C       -1.0780    -2.1990     0.3670 C.3   1 <1>   0.5230 
  8 C       -0.4770     4.1220    -0.0900 C.ar  1 <1>  -0.1440 
  9 C        1.4710     3.0380     0.7830 C.ar  1 <1>  -0.1500 
 10 N       -2.4390    -2.7940     0.3810 N.4   1 <1>  -0.9590 
 11 C        0.2580     5.2890    -0.2290 C.ar  1 <1>  -0.1500 
 12 C       -1.9410     4.1410    -0.5130 C.3   1 <1>  -0.0970 
 13 C        2.1990     4.2030     0.6390 C.ar  1 <1>  -0.1500 
 14 C       -3.3420    -2.3460    -0.7150 C.3   1 <1>   0.3430 
 15 C       -2.4720    -4.2840     0.3490 C.3   1 <1>   0.3430 
 16 C        1.5910     5.3340     0.1310 C.ar  1 <1>  -0.1500 
 17 C       -4.4810    -3.3590    -0.6580 C.3   1 <1>   0.2000 
 18 C       -3.7280    -4.6770    -0.4450 C.3   1 <1>  -0.0800 
 19 O       -5.2190    -3.0680     0.4950 O.3   1 <1>  -0.5600 
 20 C       -4.5400    -5.8050     0.2210 C.3   1 <1>   0.0200 
 21 C       -6.6040    -3.0210     0.3210 C.3   1 <1>   0.0400 
 22 C       -3.7120    -7.0720     0.3250 C.2   1 <1>  -0.0400 
 23 O       -2.6490    -7.0960     1.0830 O.3   1 <1>  -0.0190 
 24 C       -3.8380    -8.2810    -0.2440 C.2   1 <1>  -0.1500 
 25 N       -2.0450    -8.2440     1.0390 N.2   1 <1>  -0.4100 
 26 C       -2.7430    -8.9840     0.2530 C.2   1 <1>   0.1080 
 27 C       -2.4110   -10.4220    -0.0800 C.3   1 <1>  -0.0590 
 28 H       -3.0530    -0.1220     1.4470 H     1 <1>   0.1500 
 29 H       -0.4740    -2.6300     1.1500 H     1 <1>   0.0800 
 30 H       -0.6040    -2.4040    -0.5790 H     1 <1>   0.0800 
 31 H        1.9620     2.1740     1.1900 H     1 <1>   0.1500 
 32 H       -2.9190    -2.5200     1.2520 H     1 <1>   0.4500 
 33 H       -0.2040     6.1790    -0.6210 H     1 <1>   0.1500 
 34 H       -2.1860     5.0510    -1.0300 H     1 <1>   0.0800 
 35 H       -2.5710     4.0630     0.3550 H     1 <1>   0.0800 
 36 H       -2.1500     3.3160    -1.1690 H     1 <1>   0.0800 
 37 H        3.2360     4.2330     0.9240 H     1 <1>   0.1500 
 38 H       -3.7040    -1.3420    -0.5640 H     1 <1>   0.0800 
 39 H       -2.8390    -2.4130    -1.6660 H     1 <1>   0.0800 
 40 H       -1.5950    -4.6860    -0.1340 H     1 <1>   0.0800 
 41 H       -2.5230    -4.6730     1.3540 H     1 <1>   0.0800 
 42 H        2.1520     6.2460     0.0170 H     1 <1>   0.1500 
 43 H       -5.1060    -3.3440    -1.5360 H     1 <1>   0.0800 
 44 H       -3.3980    -5.0310    -1.4070 H     1 <1>   0.0800 
 45 H       -5.4200    -6.0100    -0.3630 H     1 <1>   0.0800 
 46 H       -4.8570    -5.5180     1.2090 H     1 <1>   0.0800 
 47 H       -7.0570    -2.8160     1.2760 H     1 <1>   0.0800 
 48 H       -6.9550    -3.9700    -0.0460 H     1 <1>   0.0800 
 49 H       -6.8530    -2.2340    -0.3700 H     1 <1>   0.0800 
 50 H       -4.5810    -8.6580    -0.9220 H     1 <1>   0.1500 
 51 H       -3.2200   -11.0620     0.2200 H     1 <1>   0.0800 
 52 H       -1.5200   -10.7240     0.4400 H     1 <1>   0.0800 
 53 H       -2.2490   -10.5260    -1.1370 H     1 <1>   0.0800 
@<TRIPOS>BOND
  1   1   2  1   
  2   1   3  1   
  3   2   4  2   
  4   2   5  1   
  5   3   6  2   
  6   3   7  1   
  7   4   6  1   
  8   5   8  ar  
  9   5   9  ar  
 10   6  28  1   
 11   7  10  1   
 12   7  29  1   
 13   7  30  1   
 14   8  11  ar  
 15   8  12  1   
 16   9  13  ar  
 17   9  31  1   
 18  10  14  1   
 19  10  15  1   
 20  10  32  1   
 21  11  16  ar  
 22  11  33  1   
 23  12  34  1   
 24  12  35  1   
 25  12  36  1   
 26  13  16  ar  
 27  13  37  1   
 28  14  17  1   
 29  14  38  1   
 30  14  39  1   
 31  15  18  1   
 32  15  40  1   
 33  15  41  1   
 34  16  42  1   
 35  17  18  1   
 36  17  19  1   
 37  17  43  1   
 38  18  20  1   
 39  18  44  1   
 40  19  21  1   
 41  20  22  1   
 42  20  45  1   
 43  20  46  1   
 44  21  47  1   
 45  21  48  1   
 46  21  49  1   
 47  22  23  1   
 48  22  24  2   
 49  23  25  1   
 50  24  26  1   
 51  24  50  1   
 52  25  26  2   
 53  26  27  1   
 54  27  51  1   
 55  27  52  1   
 56  27  53  1   
@<TRIPOS>SUBSTRUCTURE
  1 ****   7 GROUP 4 **** **** 0

# MOE 2024.06 (io_trps.svl 2023.06)
