@<TRIPOS>MOLECULE
NONAME
39 40 1 0 0 
SMALL
USER_CHARGES


@<TRIPOS>ATOM
  1 O        0.2990     0.2420    -1.6120 O.2   1 <1>  -0.5700 
  2 C        1.1050    -0.3480    -0.9160 C.2   1 <1>   0.7160 
  3 N        2.1500     0.3180    -0.3280 N.am  1 <1>  -0.4940 
  4 C        0.9870    -1.7720    -0.6830 C.2   1 <1>   0.2030 
  5 C        2.5250     1.6630    -0.3810 C.2   1 <1>   0.2040 
  6 N        1.7920    -2.4910     0.0460 N.2   1 <1>  -0.4100 
  7 C        0.0010    -2.6030    -1.1920 C.2   1 <1>  -0.1500 
  8 O        1.8840     2.5460    -1.1090 O.3   1 <1>  -0.0190 
  9 C        3.5400     2.3020     0.2350 C.2   1 <1>  -0.1810 
 10 O        1.4010    -3.7420     0.0510 O.3   1 <1>  -0.0190 
 11 C        0.3190    -3.8020    -0.6960 C.2   1 <1>  -0.0400 
 12 N        2.4180     3.7380    -1.0120 N.2   1 <1>  -0.4100 
 13 C        3.4150     3.6160    -0.2110 C.2   1 <1>   0.1080 
 14 C        4.5830     1.7460     1.1900 C.3   1 <1>   0.0210 
 15 C       -0.3750    -5.1410    -0.8810 C.3   1 <1>   0.0200 
 16 C        4.3100     4.7740     0.1760 C.3   1 <1>  -0.0590 
 17 C        5.8610     1.3750     0.4360 C.3   1 <1>  -0.2400 
 18 C       -0.9460    -5.6930     0.4380 C.3   1 <1>  -0.0800 
 19 C       -1.5580    -7.0820     0.2150 C.3   1 <1>  -0.2400 
 20 C       -2.0030    -4.7540     1.0380 C.3   1 <1>  -0.2400 
 21 H        2.7470    -0.2930     0.2270 H     1 <1>   0.3700 
 22 H       -0.8080    -2.2980    -1.8300 H     1 <1>   0.1500 
 23 H        4.1930     0.8720     1.6810 H     1 <1>   0.0800 
 24 H        4.8040     2.4750     1.9500 H     1 <1>   0.0800 
 25 H        0.3390    -5.8380    -1.2830 H     1 <1>   0.0800 
 26 H       -1.1680    -5.0310    -1.5980 H     1 <1>   0.0800 
 27 H        5.3190     4.5760    -0.1340 H     1 <1>   0.0800 
 28 H        4.2840     4.9180     1.2400 H     1 <1>   0.0800 
 29 H        3.9710     5.6750    -0.3040 H     1 <1>   0.0800 
 30 H        5.6480     0.6370    -0.3170 H     1 <1>   0.0800 
 31 H        6.5900     0.9740     1.1170 H     1 <1>   0.0800 
 32 H        6.2790     2.2430    -0.0440 H     1 <1>   0.0800 
 33 H       -0.1380    -5.7910     1.1450 H     1 <1>   0.0800 
 34 H       -2.3760    -7.0310    -0.4810 H     1 <1>   0.0800 
 35 H       -1.9240    -7.4810     1.1450 H     1 <1>   0.0800 
 36 H       -0.8170    -7.7600    -0.1710 H     1 <1>   0.0800 
 37 H       -2.8180    -4.6080     0.3520 H     1 <1>   0.0800 
 38 H       -1.5720    -3.7950     1.2690 H     1 <1>   0.0800 
 39 H       -2.3940    -5.1680     1.9510 H     1 <1>   0.0800 
@<TRIPOS>BOND
  1   1   2  2   
  2   2   3  am  
  3   2   4  1   
  4   3   5  1   
  5   3  21  1   
  6   4   6  2   
  7   4   7  1   
  8   5   8  1   
  9   5   9  2   
 10   6  10  1   
 11   7  11  2   
 12   7  22  1   
 13   8  12  1   
 14   9  13  1   
 15   9  14  1   
 16  10  11  1   
 17  11  15  1   
 18  12  13  2   
 19  13  16  1   
 20  14  17  1   
 21  14  23  1   
 22  14  24  1   
 23  15  18  1   
 24  15  25  1   
 25  15  26  1   
 26  16  27  1   
 27  16  28  1   
 28  16  29  1   
 29  17  30  1   
 30  17  31  1   
 31  17  32  1   
 32  18  19  1   
 33  18  20  1   
 34  18  33  1   
 35  19  34  1   
 36  19  35  1   
 37  19  36  1   
 38  20  37  1   
 39  20  38  1   
 40  20  39  1   
@<TRIPOS>SUBSTRUCTURE
  1 ****   2 GROUP 4 **** **** 0

# MOE 2024.06 (io_trps.svl 2023.06)
