@<TRIPOS>MOLECULE
NONAME
47 50 1 0 0 
SMALL
USER_CHARGES


@<TRIPOS>ATOM
  1 O        3.9440    -0.9730    -3.1490 O.2   1 <1>  -0.5700 
  2 C        3.1570    -1.0750    -2.2330 C.2   1 <1>   0.5690 
  3 N        3.3050    -2.0110    -1.2410 N.am  1 <1>  -0.4770 
  4 C        1.9860    -0.1020    -2.1430 C.3   1 <1>   0.1810 
  5 C        2.3900    -2.0320    -0.1620 C.ar  1 <1>   0.1170 
  6 C        4.4840    -2.9370    -1.2860 C.3   1 <1>   0.2010 
  7 O        0.8840    -0.6470    -1.4230 O.3   1 <1>  -0.3630 
  8 C        1.1690    -1.3580    -0.3000 C.ar  1 <1>   0.0830 
  9 C        2.6430    -2.6870     1.0420 C.ar  1 <1>  -0.1500 
 10 C        5.7180    -2.2780    -0.6810 C.2   1 <1>   0.5690 
 11 C        0.2230    -1.3890     0.7070 C.ar  1 <1>  -0.1500 
 12 C        1.7020    -2.7080     2.0590 C.ar  1 <1>  -0.1440 
 13 O        6.2310    -2.7590     0.3010 O.2   1 <1>  -0.5700 
 14 N        6.1770    -1.1370    -1.2480 N.am  1 <1>  -0.7300 
 15 C        0.4870    -2.0650     1.8850 C.ar  1 <1>  -0.1500 
 16 C        1.9990    -3.4320     3.3600 C.3   1 <1>  -0.0970 
 17 C        6.9660    -0.1100    -0.5240 C.3   1 <1>   0.3210 
 18 C        6.1650     1.1790    -0.3280 C.2   1 <1>   0.3350 
 19 N        5.0270     1.4380    -0.8500 N.2   1 <1>  -0.4100 
 20 N        6.6270     2.1640     0.4320 N.2   1 <1>  -0.5650 
 21 O        4.6740     2.6170    -0.4390 O.3   1 <1>  -0.0190 
 22 C        5.6680     3.0000     0.3250 C.2   1 <1>   0.2980 
 23 C        5.6020     4.3770     0.9830 C.3   1 <1>   0.3800 
 24 O        4.3730     4.5860     1.6250 O.3   1 <1>  -0.5600 
 25 C        5.7540     5.5340    -0.0010 C.3   1 <1>  -0.1600 
 26 C        3.8740     5.8700     1.4040 C.3   1 <1>   0.1200 
 27 C        4.9600     6.6390     0.6640 C.3   1 <1>  -0.1600 
 28 H        1.6440     0.1520    -3.1280 H     1 <1>   0.0800 
 29 H        2.3040     0.7890    -1.6350 H     1 <1>   0.0800 
 30 H        4.6990    -3.1980    -2.3060 H     1 <1>   0.0800 
 31 H        4.2630    -3.8480    -0.7620 H     1 <1>   0.0800 
 32 H        3.5820    -3.1820     1.2040 H     1 <1>   0.1500 
 33 H       -0.7130    -0.8780     0.5690 H     1 <1>   0.1500 
 34 H        5.6300    -0.7560    -2.0360 H     1 <1>   0.3700 
 35 H       -0.2530    -2.0810     2.6660 H     1 <1>   0.1500 
 36 H        3.0580    -3.4560     3.5460 H     1 <1>   0.0800 
 37 H        1.6330    -4.4420     3.3070 H     1 <1>   0.0800 
 38 H        1.5240    -2.9320     4.1850 H     1 <1>   0.0800 
 39 H        7.8560     0.1130    -1.0840 H     1 <1>   0.0800 
 40 H        7.2600    -0.4850     0.4410 H     1 <1>   0.0800 
 41 H        6.3630     4.4450     1.7400 H     1 <1>   0.0800 
 42 H        5.3080     5.2710    -0.9440 H     1 <1>   0.0800 
 43 H        6.7860     5.7930    -0.1560 H     1 <1>   0.0800 
 44 H        3.6250     6.3190     2.3500 H     1 <1>   0.0800 
 45 H        2.9880     5.7740     0.7990 H     1 <1>   0.0800 
 46 H        4.5490     7.3400    -0.0410 H     1 <1>   0.0800 
 47 H        5.5700     7.1680     1.3760 H     1 <1>   0.0800 
@<TRIPOS>BOND
  1   1   2  2   
  2   2   3  am  
  3   2   4  1   
  4   3   5  1   
  5   3   6  1   
  6   4   7  1   
  7   4  28  1   
  8   4  29  1   
  9   5   8  ar  
 10   5   9  ar  
 11   6  10  1   
 12   6  30  1   
 13   6  31  1   
 14   7   8  1   
 15   8  11  ar  
 16   9  12  ar  
 17   9  32  1   
 18  10  13  2   
 19  10  14  am  
 20  11  15  ar  
 21  11  33  1   
 22  12  15  ar  
 23  12  16  1   
 24  14  17  1   
 25  14  34  1   
 26  15  35  1   
 27  16  36  1   
 28  16  37  1   
 29  16  38  1   
 30  17  18  1   
 31  17  39  1   
 32  17  40  1   
 33  18  19  2   
 34  18  20  1   
 35  19  21  1   
 36  20  22  2   
 37  21  22  1   
 38  22  23  1   
 39  23  24  1   
 40  23  25  1   
 41  23  41  1   
 42  24  26  1   
 43  25  27  1   
 44  25  42  1   
 45  25  43  1   
 46  26  27  1   
 47  26  44  1   
 48  26  45  1   
 49  27  46  1   
 50  27  47  1   
@<TRIPOS>SUBSTRUCTURE
  1 ****  19 GROUP 4 **** **** 0

# MOE 2024.06 (io_trps.svl 2023.06)
