@<TRIPOS>MOLECULE
NONAME
50 52 1 0 0 
SMALL
USER_CHARGES


@<TRIPOS>ATOM
  1 CL       1.0250     3.8690     2.9530 Cl    1 <1>  -0.1770 
  2 C        0.5450     3.3290     1.3610 C.ar  1 <1>   0.1770 
  3 C        1.3480     2.4740     0.6150 C.ar  1 <1>  -0.1440 
  4 C       -0.6750     3.7750     0.8850 C.ar  1 <1>  -0.1500 
  5 C        0.8750     2.0500    -0.6230 C.ar  1 <1>  -0.1500 
  6 C        2.7090     1.9980     1.1250 C.3   1 <1>   0.3640 
  7 C       -1.1220     3.3550    -0.3540 C.ar  1 <1>  -0.1500 
  8 C       -0.3470     2.4890    -1.1050 C.ar  1 <1>  -0.1500 
  9 N        2.6480     0.5220     1.2470 N.am  1 <1>  -0.7300 
 10 C        3.8650     2.4330     0.1820 C.3   1 <1>   0.2610 
 11 C        3.6600    -0.3000     0.8930 C.2   1 <1>   0.5690 
 12 O        5.0430     1.6860     0.4460 O.3   1 <1>  -0.5600 
 13 C        4.1400     3.9450     0.2630 C.2   1 <1>   0.5690 
 14 O        3.5670    -1.4910     1.0490 O.2   1 <1>  -0.5700 
 15 C        4.9190     0.2930     0.2540 C.3   1 <1>   0.1810 
 16 O        3.7440     4.5560     1.2310 O.2   1 <1>  -0.5700 
 17 N        4.8020     4.5950    -0.7570 N.am  1 <1>  -0.6600 
 18 C        5.0100     6.0720    -0.7000 C.3   1 <1>   0.1400 
 19 C        5.3520     3.9160    -1.9650 C.3   1 <1>   0.0600 
 20 C        6.1910     6.4600     0.2110 C.3   1 <1>  -0.0800 
 21 C        6.2960     7.9940     0.2940 C.3   1 <1>  -0.1600 
 22 C        7.5320     5.8550    -0.2520 C.3   1 <1>  -0.1600 
 23 C        7.4580     8.4360     1.1930 C.3   1 <1>  -0.1600 
 24 C        8.6960     6.3040     0.6420 C.3   1 <1>  -0.1600 
 25 C        8.7850     7.8330     0.7170 C.3   1 <1>  -0.1600 
 26 H       -1.2670     4.4420     1.4850 H     1 <1>   0.1500 
 27 H        1.4520     1.3670    -1.2230 H     1 <1>   0.1500 
 28 H        2.9080     2.3960     2.1040 H     1 <1>   0.0800 
 29 H       -2.0710     3.6980    -0.7310 H     1 <1>   0.1500 
 30 H       -0.6980     2.1540    -2.0660 H     1 <1>   0.1500 
 31 H        1.8240     0.1230     1.7000 H     1 <1>   0.3700 
 32 H        3.5760     2.2180    -0.8290 H     1 <1>   0.0800 
 33 H        4.9080     0.0970    -0.8030 H     1 <1>   0.0800 
 34 H        5.7870    -0.1740     0.6820 H     1 <1>   0.0800 
 35 H        5.1720     6.4550    -1.6930 H     1 <1>   0.0800 
 36 H        4.1120     6.5300    -0.3200 H     1 <1>   0.0800 
 37 H        6.1760     4.4800    -2.3650 H     1 <1>   0.0800 
 38 H        4.5870     3.8390    -2.7170 H     1 <1>   0.0800 
 39 H        5.7120     2.9340    -1.7160 H     1 <1>   0.0800 
 40 H        5.9760     6.0930     1.2010 H     1 <1>   0.0800 
 41 H        6.4410     8.4000    -0.6920 H     1 <1>   0.0800 
 42 H        5.3780     8.3960     0.6870 H     1 <1>   0.0800 
 43 H        7.4740     4.7820    -0.2220 H     1 <1>   0.0800 
 44 H        7.7300     6.1530    -1.2670 H     1 <1>   0.0800 
 45 H        7.5280     9.5090     1.1910 H     1 <1>   0.0800 
 46 H        7.2650     8.1190     2.2040 H     1 <1>   0.0800 
 47 H        8.5530     5.9070     1.6330 H     1 <1>   0.0800 
 48 H        9.6200     5.9070     0.2590 H     1 <1>   0.0800 
 49 H        9.5730     8.1150     1.3940 H     1 <1>   0.0800 
 50 H        9.0280     8.2250    -0.2550 H     1 <1>   0.0800 
@<TRIPOS>BOND
  1   1   2  1   
  2   2   3  ar  
  3   2   4  ar  
  4   3   5  ar  
  5   3   6  1   
  6   4   7  ar  
  7   4  26  1   
  8   5   8  ar  
  9   5  27  1   
 10   6   9  1   
 11   6  10  1   
 12   6  28  1   
 13   7   8  ar  
 14   7  29  1   
 15   8  30  1   
 16   9  11  am  
 17   9  31  1   
 18  10  12  1   
 19  10  13  1   
 20  10  32  1   
 21  11  14  2   
 22  11  15  1   
 23  12  15  1   
 24  13  16  2   
 25  13  17  am  
 26  15  33  1   
 27  15  34  1   
 28  17  18  1   
 29  17  19  1   
 30  18  20  1   
 31  18  35  1   
 32  18  36  1   
 33  19  37  1   
 34  19  38  1   
 35  19  39  1   
 36  20  21  1   
 37  20  22  1   
 38  20  40  1   
 39  21  23  1   
 40  21  41  1   
 41  21  42  1   
 42  22  24  1   
 43  22  43  1   
 44  22  44  1   
 45  23  25  1   
 46  23  45  1   
 47  23  46  1   
 48  24  25  1   
 49  24  47  1   
 50  24  48  1   
 51  25  49  1   
 52  25  50  1   
@<TRIPOS>SUBSTRUCTURE
  1 ****  13 GROUP 4 **** **** 0

# MOE 2024.06 (io_trps.svl 2023.06)
