@<TRIPOS>MOLECULE
NONAME
48 51 1 0 0 
SMALL
USER_CHARGES


@<TRIPOS>ATOM
  1 O       -0.0230     0.9330    -0.4020 O.2   1 <1>  -0.5700 
  2 C       -0.1960     2.1250    -0.2970 C.2   1 <1>   0.5690 
  3 N       -1.2670     2.6820     0.3540 N.am  1 <1>  -0.5090 
  4 C        0.8480     3.0420    -0.9220 C.3   1 <1>   0.1810 
  5 C       -1.3960     4.1720     0.5000 C.3   1 <1>   0.3640 
  6 C       -2.0990     1.8730     1.2860 C.3   1 <1>   0.0490 
  7 O        0.9660     4.2520    -0.2200 O.3   1 <1>  -0.5600 
  8 C       -2.7130     4.6430    -0.1150 C.ar  1 <1>  -0.1440 
  9 C       -0.2400     4.9910    -0.1490 C.3   1 <1>   0.2610 
 10 C       -2.7970     0.6550     0.7690 C.3   1 <1>  -0.2000 
 11 C       -3.5940     1.8500     1.1760 C.3   1 <1>  -0.2000 
 12 C       -3.5300     5.5210     0.5850 C.ar  1 <1>   0.1600 
 13 C       -3.1190     4.2210    -1.3700 C.ar  1 <1>  -0.1500 
 14 C       -0.0130     6.3410     0.5640 C.2   1 <1>   0.5690 
 15 N       -4.6870     5.9920     0.1470 N.ar  1 <1>  -0.6200 
 16 C       -4.3210     4.7040    -1.8390 C.ar  1 <1>  -0.1500 
 17 O       -0.6810     6.5980     1.5400 O.2   1 <1>  -0.5700 
 18 N        0.9140     7.2470     0.1040 N.am  1 <1>  -0.6600 
 19 C       -5.0560     5.5730    -1.0520 C.ar  1 <1>   0.1600 
 20 C        1.2760     8.4660     0.9150 C.3   1 <1>   0.2010 
 21 C        1.8220     7.0490    -1.0610 C.3   1 <1>   0.1400 
 22 C        2.7870     8.6970     1.0720 C.2   1 <1>   0.5690 
 23 C        3.2660     6.8570    -0.5720 C.3   1 <1>   0.1400 
 24 O        3.1420     9.5690     1.8320 O.2   1 <1>  -0.5700 
 25 N        3.6930     7.9460     0.3560 N.am  1 <1>  -0.6600 
 26 C        5.1630     8.0950     0.5340 C.3   1 <1>   0.0600 
 27 H        0.5900     3.2510    -1.9440 H     1 <1>   0.0800 
 28 H        1.8060     2.5550    -0.8960 H     1 <1>   0.0800 
 29 H       -1.4140     4.3690     1.5570 H     1 <1>   0.0800 
 30 H       -1.6600     1.8120     2.2690 H     1 <1>   0.1000 
 31 H       -0.5200     5.2220    -1.1600 H     1 <1>   0.0800 
 32 H       -2.7090     0.4180    -0.2770 H     1 <1>   0.1000 
 33 H       -2.8250    -0.2220     1.3900 H     1 <1>   0.1000 
 34 H       -4.1770     1.7840     2.0780 H     1 <1>   0.1000 
 35 H       -4.1090     2.3800     0.3970 H     1 <1>   0.1000 
 36 H       -3.2170     5.8610     1.5590 H     1 <1>   0.1500 
 37 H       -2.5350     3.5340    -1.9580 H     1 <1>   0.1500 
 38 H       -4.6920     4.4090    -2.8040 H     1 <1>   0.1500 
 39 H       -5.9950     5.9430    -1.4260 H     1 <1>   0.1500 
 40 H        0.8540     9.3340     0.4440 H     1 <1>   0.0800 
 41 H        0.8560     8.3970     1.9020 H     1 <1>   0.0800 
 42 H        1.5270     6.2040    -1.6530 H     1 <1>   0.0800 
 43 H        1.7780     7.9190    -1.6940 H     1 <1>   0.0800 
 44 H        3.9220     6.8350    -1.4240 H     1 <1>   0.0800 
 45 H        3.3440     5.9110    -0.0630 H     1 <1>   0.0800 
 46 H        5.6180     8.3680    -0.4020 H     1 <1>   0.0800 
 47 H        5.5840     7.1660     0.8780 H     1 <1>   0.0800 
 48 H        5.3850     8.8600     1.2580 H     1 <1>   0.0800 
@<TRIPOS>BOND
  1   1   2  2   
  2   2   3  am  
  3   2   4  1   
  4   3   5  1   
  5   3   6  1   
  6   4   7  1   
  7   4  27  1   
  8   4  28  1   
  9   5   8  1   
 10   5   9  1   
 11   5  29  1   
 12   6  10  1   
 13   6  11  1   
 14   6  30  1   
 15   7   9  1   
 16   8  12  ar  
 17   8  13  ar  
 18   9  14  1   
 19   9  31  1   
 20  10  11  1   
 21  10  32  1   
 22  10  33  1   
 23  11  34  1   
 24  11  35  1   
 25  12  15  ar  
 26  12  36  1   
 27  13  16  ar  
 28  13  37  1   
 29  14  17  2   
 30  14  18  am  
 31  15  19  ar  
 32  16  19  ar  
 33  16  38  1   
 34  18  20  1   
 35  18  21  1   
 36  19  39  1   
 37  20  22  1   
 38  20  40  1   
 39  20  41  1   
 40  21  23  1   
 41  21  42  1   
 42  21  43  1   
 43  22  24  2   
 44  22  25  am  
 45  23  25  1   
 46  23  44  1   
 47  23  45  1   
 48  25  26  1   
 49  26  46  1   
 50  26  47  1   
 51  26  48  1   
@<TRIPOS>SUBSTRUCTURE
  1 ****   9 GROUP 4 **** **** 0

# MOE 2024.06 (io_trps.svl 2023.06)
