@<TRIPOS>MOLECULE
NONAME
51 52 1 0 0 
SMALL
USER_CHARGES


@<TRIPOS>ATOM
  1 S        1.9440     2.4020     1.2950 S.o2  1 <1>   1.3330 
  2 O        2.6270     3.0860     2.3710 O.2   1 <1>  -0.6500 
  3 O        1.6450     0.9950     1.4340 O.2   1 <1>  -0.6500 
  4 N        0.4760     3.2070     1.0170 N.am  1 <1>  -0.8490 
  5 C        2.8560     2.6240    -0.2330 C.3   1 <1>  -0.0550 
  6 C        0.6040     4.6640     1.0090 C.3   1 <1>   0.1160 
  7 C       -0.5540     2.8000     1.9760 C.3   1 <1>   0.1160 
  8 C        4.0200     1.6250    -0.3770 C.3   1 <1>  -0.0800 
  9 C        4.8270     1.7330    -1.6600 C.3   1 <1>   0.2200 
 10 C        5.0880     1.7380     0.7140 C.3   1 <1>   0.1200 
 11 N        5.0960     3.1460    -2.0030 N.am  1 <1>  -0.7300 
 12 C        6.1290     1.0740    -1.2230 C.3   1 <1>   0.1200 
 13 O        6.3180     1.4690     0.1030 O.3   1 <1>  -0.5600 
 14 C        4.5450     3.8510    -3.0230 C.2   1 <1>   0.5690 
 15 O        3.7000     3.3640    -3.7350 O.2   1 <1>  -0.5700 
 16 C        4.9950     5.2870    -3.2920 C.3   1 <1>   0.1810 
 17 O        5.7350     5.8500    -2.2090 O.3   1 <1>  -0.3630 
 18 C        5.1340     6.0220    -1.0060 C.ar  1 <1>   0.0820 
 19 C        5.7790     5.5750     0.1480 C.ar  1 <1>  -0.1440 
 20 C        3.8870     6.6280    -0.9250 C.ar  1 <1>  -0.1500 
 21 C        5.1250     5.6800     1.3730 C.ar  1 <1>  -0.1440 
 22 C        7.1900     4.9870     0.0810 C.3   1 <1>  -0.0970 
 23 C        3.2600     6.7570     0.2970 C.ar  1 <1>  -0.1500 
 24 C        3.8720     6.2700     1.4370 C.ar  1 <1>  -0.1500 
 25 C        5.7430     5.1780     2.6720 C.3   1 <1>  -0.0970 
 26 H        2.1890     2.4830    -1.0610 H     1 <1>   0.0800 
 27 H        3.2260     3.6300    -0.2760 H     1 <1>   0.0800 
 28 H       -0.3510     5.1190     0.8090 H     1 <1>   0.0800 
 29 H        1.2860     4.9630     0.2340 H     1 <1>   0.0800 
 30 H        0.9710     5.0180     1.9590 H     1 <1>   0.0800 
 31 H       -1.4830     3.3000     1.7620 H     1 <1>   0.0800 
 32 H       -0.2450     3.0360     2.9810 H     1 <1>   0.0800 
 33 H       -0.7220     1.7380     1.9070 H     1 <1>   0.0800 
 34 H        3.6160     0.6280    -0.3270 H     1 <1>   0.0800 
 35 H        4.3660     1.2210    -2.4890 H     1 <1>   0.0800 
 36 H        4.9280     1.0300     1.5100 H     1 <1>   0.0800 
 37 H        5.1340     2.7340     1.1170 H     1 <1>   0.0800 
 38 H        5.7220     3.6380    -1.3550 H     1 <1>   0.3700 
 39 H        6.9710     1.3800    -1.8180 H     1 <1>   0.0800 
 40 H        6.0370     0.0020    -1.2380 H     1 <1>   0.0800 
 41 H        4.1460     5.9070    -3.5030 H     1 <1>   0.0800 
 42 H        5.6380     5.2900    -4.1510 H     1 <1>   0.0800 
 43 H        3.4050     7.0120    -1.8040 H     1 <1>   0.1500 
 44 H        7.8170     5.4620     0.8130 H     1 <1>   0.0800 
 45 H        7.6490     5.1400    -0.8780 H     1 <1>   0.0800 
 46 H        7.1680     3.9330     0.2820 H     1 <1>   0.0800 
 47 H        2.3010     7.2390     0.3640 H     1 <1>   0.1500 
 48 H        3.3690     6.3590     2.3850 H     1 <1>   0.1500 
 49 H        4.9870     5.0380     3.4240 H     1 <1>   0.0800 
 50 H        6.4600     5.8920     3.0340 H     1 <1>   0.0800 
 51 H        6.2340     4.2340     2.5280 H     1 <1>   0.0800 
@<TRIPOS>BOND
  1   1   2  2   
  2   1   3  2   
  3   1   4  am  
  4   1   5  1   
  5   4   6  1   
  6   4   7  1   
  7   5   8  1   
  8   5  26  1   
  9   5  27  1   
 10   6  28  1   
 11   6  29  1   
 12   6  30  1   
 13   7  31  1   
 14   7  32  1   
 15   7  33  1   
 16   8   9  1   
 17   8  10  1   
 18   8  34  1   
 19   9  11  1   
 20   9  12  1   
 21   9  35  1   
 22  10  13  1   
 23  10  36  1   
 24  10  37  1   
 25  11  14  am  
 26  11  38  1   
 27  12  13  1   
 28  12  39  1   
 29  12  40  1   
 30  14  15  2   
 31  14  16  1   
 32  16  17  1   
 33  16  41  1   
 34  16  42  1   
 35  17  18  1   
 36  18  19  ar  
 37  18  20  ar  
 38  19  21  ar  
 39  19  22  1   
 40  20  23  ar  
 41  20  43  1   
 42  21  24  ar  
 43  21  25  1   
 44  22  44  1   
 45  22  45  1   
 46  22  46  1   
 47  23  24  ar  
 48  23  47  1   
 49  24  48  1   
 50  25  49  1   
 51  25  50  1   
 52  25  51  1   
@<TRIPOS>SUBSTRUCTURE
  1 ****   5 GROUP 4 **** **** 0

# MOE 2024.06 (io_trps.svl 2023.06)
