@<TRIPOS>MOLECULE
NONAME
52 55 1 0 0 
SMALL
USER_CHARGES


@<TRIPOS>ATOM
  1 O        0.3680    -1.1390    -0.4210 O.3   1 <1>  -0.3630 
  2 C       -0.0010    -2.4160    -0.1630 C.ar  1 <1>   0.0830 
  3 C        1.3700    -0.8270    -1.3610 C.3   1 <1>   0.1200 
  4 C       -0.9720    -2.6130     0.7830 C.ar  1 <1>  -0.1500 
  5 C        0.5640    -3.5280    -0.8150 C.ar  1 <1>  -0.1500 
  6 C        1.5330     0.6890    -1.3900 C.3   1 <1>  -0.2400 
  7 C       -1.4210    -3.9020     1.1190 C.ar  1 <1>   0.0000 
  8 C        0.1370    -4.7920    -0.5020 C.ar  1 <1>  -0.1500 
  9 C       -0.8600    -5.0190     0.4620 C.ar  1 <1>   0.3100 
 10 C       -2.4100    -4.1380     2.0880 C.ar  1 <1>  -0.1500 
 11 N       -1.2480    -6.2950     0.7240 N.ar  1 <1>  -0.6200 
 12 C       -2.7760    -5.4250     2.3410 C.ar  1 <1>  -0.1500 
 13 C       -2.1650    -6.4740     1.6340 C.ar  1 <1>   0.1670 
 14 C       -2.6020    -7.9080     1.9300 C.3   1 <1>   0.4860 
 15 N       -2.6170    -8.7030     0.6640 N.4   1 <1>  -0.9590 
 16 C       -3.7630    -8.2910    -0.1970 C.3   1 <1>   0.3430 
 17 C       -2.7500   -10.1680     0.9220 C.3   1 <1>   0.3430 
 18 C       -4.8310    -9.3660     0.0160 C.3   1 <1>   0.2000 
 19 C       -4.0080   -10.6440     0.1740 C.3   1 <1>  -0.0800 
 20 O       -5.4750    -9.1130     1.2240 O.3   1 <1>  -0.6800 
 21 C       -3.6750   -11.2740    -1.1980 C.3   1 <1>  -0.0170 
 22 C       -2.9370   -12.5970    -1.0600 C.ar  1 <1>   0.1670 
 23 N       -1.6640   -12.5230    -0.7070 N.ar  1 <1>  -0.6200 
 24 C       -3.5990   -13.8000    -1.3050 C.ar  1 <1>   0.1600 
 25 C       -1.0990   -13.7200    -0.6280 C.ar  1 <1>   0.1600 
 26 N       -3.0400   -14.9930    -1.2130 N.ar  1 <1>  -0.6200 
 27 C       -1.7650   -14.9140    -0.8710 C.ar  1 <1>   0.1600 
 28 H        2.2860    -1.3020    -1.0550 H     1 <1>   0.0800 
 29 H        1.0600    -1.1940    -2.3250 H     1 <1>   0.0800 
 30 H       -1.4000    -1.7620     1.2800 H     1 <1>   0.1500 
 31 H        1.3280    -3.3970    -1.5580 H     1 <1>   0.1500 
 32 H        1.8260     1.0470    -0.4190 H     1 <1>   0.0800 
 33 H        0.6080     1.1540    -1.6810 H     1 <1>   0.0800 
 34 H        2.2930     0.9610    -2.1000 H     1 <1>   0.0800 
 35 H        0.5620    -5.6490    -0.9910 H     1 <1>   0.1500 
 36 H       -2.8530    -3.3040     2.6070 H     1 <1>   0.1500 
 37 H       -3.5290    -5.6400     3.0790 H     1 <1>   0.1500 
 38 H       -3.5800    -7.9130     2.3820 H     1 <1>   0.0800 
 39 H       -1.8990    -8.3400     2.6220 H     1 <1>   0.0800 
 40 H       -1.7310    -8.4550     0.1930 H     1 <1>   0.4500 
 41 H       -4.1350    -7.3100     0.0520 H     1 <1>   0.0800 
 42 H       -3.4530    -8.2960    -1.2290 H     1 <1>   0.0800 
 43 H       -1.8670   -10.6920     0.6010 H     1 <1>   0.0800 
 44 H       -2.8850   -10.3420     1.9770 H     1 <1>   0.0800 
 45 H       -5.5630    -9.3930    -0.7740 H     1 <1>   0.0800 
 46 H       -4.5370   -11.3760     0.7600 H     1 <1>   0.0800 
 47 H       -6.2810    -9.6660     1.3200 H     1 <1>   0.4000 
 48 H       -3.0690   -10.6070    -1.7860 H     1 <1>   0.0800 
 49 H       -4.5880   -11.4410    -1.7430 H     1 <1>   0.0800 
 50 H       -4.6360   -13.7810    -1.5900 H     1 <1>   0.1500 
 51 H       -0.0580   -13.7600    -0.3570 H     1 <1>   0.1500 
 52 H       -1.2230   -15.8390    -0.7800 H     1 <1>   0.1500 
@<TRIPOS>BOND
  1   1   2  1   
  2   1   3  1   
  3   2   4  ar  
  4   2   5  ar  
  5   3   6  1   
  6   3  28  1   
  7   3  29  1   
  8   4   7  ar  
  9   4  30  1   
 10   5   8  ar  
 11   5  31  1   
 12   6  32  1   
 13   6  33  1   
 14   6  34  1   
 15   7   9  ar  
 16   7  10  ar  
 17   8   9  ar  
 18   8  35  1   
 19   9  11  ar  
 20  10  12  ar  
 21  10  36  1   
 22  11  13  ar  
 23  12  13  ar  
 24  12  37  1   
 25  13  14  1   
 26  14  15  1   
 27  14  38  1   
 28  14  39  1   
 29  15  16  1   
 30  15  17  1   
 31  15  40  1   
 32  16  18  1   
 33  16  41  1   
 34  16  42  1   
 35  17  19  1   
 36  17  43  1   
 37  17  44  1   
 38  18  19  1   
 39  18  20  1   
 40  18  45  1   
 41  19  21  1   
 42  19  46  1   
 43  20  47  1   
 44  21  22  1   
 45  21  48  1   
 46  21  49  1   
 47  22  23  ar  
 48  22  24  ar  
 49  23  25  ar  
 50  24  26  ar  
 51  24  50  1   
 52  25  27  ar  
 53  25  51  1   
 54  26  27  ar  
 55  27  52  1   
@<TRIPOS>SUBSTRUCTURE
  1 ****  15 GROUP 4 **** **** 0

# MOE 2024.06 (io_trps.svl 2023.06)
