@<TRIPOS>MOLECULE
NONAME
48 50 1 0 0 
SMALL
USER_CHARGES


@<TRIPOS>ATOM
  1 O        0.1670    -0.6980    -1.2690 O.3   1 <1>  -0.0190 
  2 N       -0.1180    -1.9500    -1.0720 N.2   1 <1>  -0.4100 
  3 C        1.1220    -0.4470    -0.4040 C.2   1 <1>   0.2980 
  4 C        0.6490    -2.3650    -0.1430 C.2   1 <1>   0.3350 
  5 N        1.4650    -1.4350     0.3260 N.2   1 <1>  -0.5650 
  6 C        1.7220     0.9560    -0.3450 C.3   1 <1>   0.1000 
  7 C        0.6520    -3.7890     0.4150 C.3   1 <1>   0.5240 
  8 C        0.6610     1.9970     0.0380 C.3   1 <1>  -0.2400 
  9 C        2.3830     1.3330    -1.6780 C.3   1 <1>  -0.2400 
 10 N       -0.6660    -4.4850     0.1990 N.4   1 <1>  -0.9590 
 11 C       -1.7480    -3.8580     1.0110 C.3   1 <1>   0.3430 
 12 C       -0.5730    -5.9530     0.4170 C.3   1 <1>   0.3430 
 13 C       -3.0910    -4.4770     0.6250 C.3   1 <1>  -0.1600 
 14 C       -1.8970    -6.6140     0.0310 C.3   1 <1>  -0.1600 
 15 C       -3.0990    -6.0070     0.7820 C.3   1 <1>  -0.0800 
 16 C       -4.4380    -6.5680     0.2670 C.3   1 <1>  -0.1600 
 17 C       -4.6300    -8.0710     0.5340 C.3   1 <1>   0.0960 
 18 N       -5.8670    -8.5500    -0.1070 N.pl3 1 <1>   0.3140 
 19 N       -5.9070    -8.8380    -1.4190 N.2   1 <1>  -0.7070 
 20 C       -7.0660    -8.7460     0.4760 C.2   1 <1>  -0.3020 
 21 C       -7.1300    -9.2140    -1.6390 C.2   1 <1>   0.1390 
 22 C       -7.9060    -9.1780    -0.4880 C.2   1 <1>  -0.1500 
 23 H        2.4820     0.9550     0.4170 H     1 <1>   0.0800 
 24 H        0.8790    -3.7480     1.4670 H     1 <1>   0.0800 
 25 H        1.4390    -4.3340    -0.0770 H     1 <1>   0.0800 
 26 H       -0.1130     2.0440    -0.7080 H     1 <1>   0.0800 
 27 H        1.1100     2.9710     0.1290 H     1 <1>   0.0800 
 28 H        0.2150     1.7390     0.9820 H     1 <1>   0.0800 
 29 H        1.6540     1.3630    -2.4690 H     1 <1>   0.0800 
 30 H        3.1370     0.6090    -1.9340 H     1 <1>   0.0800 
 31 H        2.8500     2.2990    -1.6040 H     1 <1>   0.0800 
 32 H       -0.9120    -4.3130    -0.7880 H     1 <1>   0.4500 
 33 H       -1.7810    -2.7950     0.8290 H     1 <1>   0.0800 
 34 H       -1.5630    -4.0190     2.0610 H     1 <1>   0.0800 
 35 H       -0.3590    -6.1560     1.4540 H     1 <1>   0.0800 
 36 H        0.2210    -6.3690    -0.1830 H     1 <1>   0.0800 
 37 H       -3.3200    -4.2050    -0.3920 H     1 <1>   0.0800 
 38 H       -3.8570    -4.0480     1.2480 H     1 <1>   0.0800 
 39 H       -1.8190    -7.6640     0.2500 H     1 <1>   0.0800 
 40 H       -2.0400    -6.5200    -1.0320 H     1 <1>   0.0800 
 41 H       -3.0090    -6.2410     1.8310 H     1 <1>   0.0800 
 42 H       -4.5120    -6.3940    -0.7950 H     1 <1>   0.0800 
 43 H       -5.2500    -6.0410     0.7400 H     1 <1>   0.0800 
 44 H       -4.6870    -8.2660     1.5880 H     1 <1>   0.0800 
 45 H       -3.8200    -8.6400     0.1190 H     1 <1>   0.0800 
 46 H       -7.2530    -8.5730     1.5200 H     1 <1>   0.1500 
 47 H       -7.4920    -9.5180    -2.6080 H     1 <1>   0.1500 
 48 H       -8.9460    -9.4410    -0.4140 H     1 <1>   0.1500 
@<TRIPOS>BOND
  1   1   2  1   
  2   1   3  1   
  3   2   4  2   
  4   3   5  2   
  5   3   6  1   
  6   4   5  1   
  7   4   7  1   
  8   6   8  1   
  9   6   9  1   
 10   6  23  1   
 11   7  10  1   
 12   7  24  1   
 13   7  25  1   
 14   8  26  1   
 15   8  27  1   
 16   8  28  1   
 17   9  29  1   
 18   9  30  1   
 19   9  31  1   
 20  10  11  1   
 21  10  12  1   
 22  10  32  1   
 23  11  13  1   
 24  11  33  1   
 25  11  34  1   
 26  12  14  1   
 27  12  35  1   
 28  12  36  1   
 29  13  15  1   
 30  13  37  1   
 31  13  38  1   
 32  14  15  1   
 33  14  39  1   
 34  14  40  1   
 35  15  16  1   
 36  15  41  1   
 37  16  17  1   
 38  16  42  1   
 39  16  43  1   
 40  17  18  1   
 41  17  44  1   
 42  17  45  1   
 43  18  19  1   
 44  18  20  1   
 45  19  21  2   
 46  20  22  2   
 47  20  46  1   
 48  21  22  1   
 49  21  47  1   
 50  22  48  1   
@<TRIPOS>SUBSTRUCTURE
  1 ****  13 GROUP 4 **** **** 0

# MOE 2024.06 (io_trps.svl 2023.06)
