@<TRIPOS>MOLECULE
NONAME
36 37 1 0 0 
SMALL
USER_CHARGES


@<TRIPOS>ATOM
  1 S       -0.8690     0.7090     1.3950 S.o2  1 <1>   1.4470 
  2 O       -0.8630    -0.2330     2.4920 O.2   1 <1>  -0.6500 
  3 O       -1.4760     2.0090     1.6060 O.2   1 <1>  -0.6500 
  4 N       -1.6600     0.0180     0.0590 N.am  1 <1>  -0.8490 
  5 C        0.8280     0.9700     0.8020 C.ar  1 <1>  -0.0090 
  6 C       -1.1600    -1.2980    -0.3910 C.3   1 <1>   0.1960 
  7 C       -3.1240     0.0880     0.1050 C.3   1 <1>   0.1960 
  8 C        1.8280     0.0360     1.0440 C.ar  1 <1>  -0.1500 
  9 C        1.1660     2.1020     0.0680 C.ar  1 <1>  -0.1500 
 10 C       -1.7390    -2.4760     0.4040 C.3   1 <1>  -0.1860 
 11 C       -3.7270    -1.0310     0.9560 C.3   1 <1>  -0.1600 
 12 C        3.1180     0.2250     0.5770 C.ar  1 <1>  -0.1500 
 13 C        2.4550     2.2990    -0.3990 C.ar  1 <1>  -0.1500 
 14 C       -1.2970    -3.7880    -0.2070 C.2   1 <1>   0.9060 
 15 C       -3.2630    -2.3840     0.4280 C.3   1 <1>   0.2000 
 16 C        3.4380     1.3590    -0.1480 C.ar  1 <1>  -0.1440 
 17 O       -0.4390    -3.7860    -1.0950 O.co2 1 <1>  -0.9000 
 18 O       -1.8230    -4.8330     0.1980 O.co2 1 <1>  -0.9000 
 19 O       -3.7590    -3.3700     1.2480 O.3   1 <1>  -0.6800 
 20 C        4.8540     1.5630    -0.6560 C.3   1 <1>  -0.0970 
 21 H       -1.4320    -1.4250    -1.4260 H     1 <1>   0.0800 
 22 H       -0.0850    -1.3290    -0.3500 H     1 <1>   0.0800 
 23 H       -3.4410     1.0460     0.4810 H     1 <1>   0.0800 
 24 H       -3.4990    -0.0010    -0.9010 H     1 <1>   0.0800 
 25 H        1.5930    -0.8550     1.6030 H     1 <1>   0.1500 
 26 H        0.4070     2.8380    -0.1380 H     1 <1>   0.1500 
 27 H       -1.3580    -2.4520     1.4050 H     1 <1>   0.0800 
 28 H       -4.7990    -0.9790     0.9060 H     1 <1>   0.0800 
 29 H       -3.4260    -0.9120     1.9810 H     1 <1>   0.0800 
 30 H        3.8680    -0.5200     0.7810 H     1 <1>   0.1500 
 31 H        2.6840     3.1880    -0.9610 H     1 <1>   0.1500 
 32 H       -3.6530    -2.5580    -0.5620 H     1 <1>   0.0800 
 33 H       -3.2160    -4.1860     1.0380 H     1 <1>   0.4000 
 34 H        5.2570     0.6320    -1.0130 H     1 <1>   0.0800 
 35 H        5.4770     1.9310     0.1390 H     1 <1>   0.0800 
 36 H        4.8700     2.2710    -1.4650 H     1 <1>   0.0800 
@<TRIPOS>BOND
  1   1   2  2   
  2   1   3  2   
  3   1   4  am  
  4   1   5  1   
  5   4   6  1   
  6   4   7  1   
  7   5   8  ar  
  8   5   9  ar  
  9   6  10  1   
 10   6  21  1   
 11   6  22  1   
 12   7  11  1   
 13   7  23  1   
 14   7  24  1   
 15   8  12  ar  
 16   8  25  1   
 17   9  13  ar  
 18   9  26  1   
 19  10  14  1   
 20  10  15  1   
 21  10  27  1   
 22  11  15  1   
 23  11  28  1   
 24  11  29  1   
 25  12  16  ar  
 26  12  30  1   
 27  13  16  ar  
 28  13  31  1   
 29  14  17  ar  
 30  14  18  ar  
 31  15  19  1   
 32  15  32  1   
 33  16  20  1   
 34  19  33  1   
 35  20  34  1   
 36  20  35  1   
 37  20  36  1   
@<TRIPOS>SUBSTRUCTURE
  1 ****   6 GROUP 4 **** **** 0

# MOE 2024.06 (io_trps.svl 2023.06)
