@<TRIPOS>MOLECULE
NONAME
49 52 1 0 0 
SMALL
USER_CHARGES


@<TRIPOS>ATOM
  1 S        1.7440     0.5530    -0.7540 S.3   1 <1>  -0.0800 
  2 C        1.2330    -1.1060    -0.4000 C.2   1 <1>  -0.0130 
  3 C        0.1250     1.0410    -1.2080 C.2   1 <1>  -0.1400 
  4 C        2.2130    -2.0600     0.0640 C.ar  1 <1>   0.3630 
  5 C       -0.1010    -1.1980    -0.6390 C.2   1 <1>  -0.1500 
  6 C       -0.7220     0.0040    -1.0910 C.2   1 <1>  -0.1500 
  7 C       -0.0800     2.4770    -1.6440 C.3   1 <1>  -0.0600 
  8 N        3.4990    -1.7590    -0.0920 N.ar  1 <1>  -0.6200 
  9 C        1.8040    -3.2480     0.6650 C.ar  1 <1>  -0.1500 
 10 C        4.3960    -2.6280     0.3540 C.ar  1 <1>   0.4100 
 11 C        2.7330    -4.1430     1.1380 C.ar  1 <1>  -0.1500 
 12 N        5.6930    -2.2200     0.1360 N.pl3 1 <1>  -0.8380 
 13 C        4.0740    -3.8270     0.9980 C.ar  1 <1>  -0.1790 
 14 C        6.6400    -2.0180     1.2710 C.3   1 <1>   0.2090 
 15 C        6.2070    -2.0200    -1.2380 C.3   1 <1>   0.2090 
 16 C        5.0890    -4.7120     1.4990 C.2   1 <1>   0.9790 
 17 C        7.2030    -0.5770     1.3720 C.3   1 <1>   0.4230 
 18 C        6.5680    -0.5410    -1.4840 C.3   1 <1>  -0.0800 
 19 O        5.6700    -4.4590     2.5730 O.co2 1 <1>  -0.9000 
 20 O        5.3640    -5.7650     0.9020 O.co2 1 <1>  -0.9000 
 21 N        6.2720     0.5240     0.8740 N.4   1 <1>  -0.9590 
 22 C        8.6240    -0.4540     0.7810 C.3   1 <1>   0.1200 
 23 C        8.0780    -0.2650    -1.5280 C.3   1 <1>   0.1200 
 24 C        5.8030     0.4150    -0.5580 C.3   1 <1>   0.3430 
 25 C        5.0440     0.5390     1.7300 C.3   1 <1>   0.2630 
 26 O        8.7500    -0.9400    -0.5190 O.3   1 <1>  -0.5600 
 27 H       -0.6860    -2.0920    -0.5140 H     1 <1>   0.1500 
 28 H       -1.7760     0.0350    -1.3090 H     1 <1>   0.1500 
 29 H       -1.1110     2.6430    -1.8960 H     1 <1>   0.0800 
 30 H        0.5270     2.6880    -2.5050 H     1 <1>   0.0800 
 31 H        0.1950     3.1450    -0.8480 H     1 <1>   0.0800 
 32 H        0.7590    -3.4660     0.7680 H     1 <1>   0.1500 
 33 H        2.4490    -5.0690     1.6090 H     1 <1>   0.1500 
 34 H        6.1170    -2.2030     2.1910 H     1 <1>   0.0800 
 35 H        7.4360    -2.7410     1.2110 H     1 <1>   0.0800 
 36 H        7.0560    -2.6630    -1.4010 H     1 <1>   0.0800 
 37 H        5.4390    -2.3200    -1.9330 H     1 <1>   0.0800 
 38 H        7.3390    -0.4080     2.4270 H     1 <1>   0.0800 
 39 H        6.2110    -0.3230    -2.4730 H     1 <1>   0.0800 
 40 H        6.7610     1.4170     0.9770 H     1 <1>   0.4500 
 41 H        9.2930    -1.0450     1.3830 H     1 <1>   0.0800 
 42 H        8.9700     0.5640     0.8070 H     1 <1>   0.0800 
 43 H        8.3010     0.7870    -1.4660 H     1 <1>   0.0800 
 44 H        8.4760    -0.6380    -2.4570 H     1 <1>   0.0800 
 45 H        4.7730     0.0970    -0.5640 H     1 <1>   0.0800 
 46 H        5.8200     1.3970    -0.9980 H     1 <1>   0.0800 
 47 H        4.5230    -0.4020     1.6440 H     1 <1>   0.0800 
 48 H        4.3750     1.3230     1.4170 H     1 <1>   0.0800 
 49 H        5.3030     0.6930     2.7640 H     1 <1>   0.0800 
@<TRIPOS>BOND
  1   1   2  1   
  2   1   3  1   
  3   2   4  1   
  4   2   5  2   
  5   3   6  2   
  6   3   7  1   
  7   4   8  ar  
  8   4   9  ar  
  9   5   6  1   
 10   5  27  1   
 11   6  28  1   
 12   7  29  1   
 13   7  30  1   
 14   7  31  1   
 15   8  10  ar  
 16   9  11  ar  
 17   9  32  1   
 18  10  12  1   
 19  10  13  ar  
 20  11  13  ar  
 21  11  33  1   
 22  12  14  1   
 23  12  15  1   
 24  13  16  1   
 25  14  17  1   
 26  14  34  1   
 27  14  35  1   
 28  15  18  1   
 29  15  36  1   
 30  15  37  1   
 31  16  19  ar  
 32  16  20  ar  
 33  17  21  1   
 34  17  22  1   
 35  17  38  1   
 36  18  23  1   
 37  18  24  1   
 38  18  39  1   
 39  21  24  1   
 40  21  25  1   
 41  21  40  1   
 42  22  26  1   
 43  22  41  1   
 44  22  42  1   
 45  23  26  1   
 46  23  43  1   
 47  23  44  1   
 48  24  45  1   
 49  24  46  1   
 50  25  47  1   
 51  25  48  1   
 52  25  49  1   
@<TRIPOS>SUBSTRUCTURE
  1 ****   8 GROUP 4 **** **** 0

# MOE 2024.06 (io_trps.svl 2023.06)
