@<TRIPOS>MOLECULE
NONAME
45 47 1 0 0 
SMALL
USER_CHARGES


@<TRIPOS>ATOM
  1 CL       0.8190    -0.3180     1.7790 Cl    1 <1>  -0.1230 
  2 C        2.1410    -0.4510     0.6310 C.2   1 <1>   0.1230 
  3 C        3.0580     0.5470     0.2910 C.2   1 <1>   0.2030 
  4 C        2.4610    -1.5510    -0.0680 C.2   1 <1>  -0.3020 
  5 N        3.9190     0.0510    -0.5920 N.2   1 <1>  -0.7070 
  6 C        3.0280     1.9000     0.8310 C.2   1 <1>   0.7160 
  7 N        3.5380    -1.2180    -0.8030 N.pl3 1 <1>   0.3140 
  8 O        1.9570     2.4720     0.9560 O.2   1 <1>  -0.5700 
  9 N        4.1770     2.5920     1.1910 N.am  1 <1>  -0.6600 
 10 C        4.2500    -2.0990    -1.7370 C.3   1 <1>   0.0160 
 11 C        5.5250     1.9540     1.2590 C.3   1 <1>   0.1400 
 12 C        4.1740     4.0710     1.3400 C.3   1 <1>   0.1400 
 13 C        6.3980     2.3770     0.0720 C.3   1 <1>   0.1400 
 14 C        4.5390     4.7100    -0.0050 C.3   1 <1>  -0.1600 
 15 N        6.9040     3.7760     0.2470 N.am  1 <1>  -0.6600 
 16 C        6.0450     4.8910    -0.2520 C.3   1 <1>   0.1400 
 17 C        8.1000     3.9880     0.9090 C.2   1 <1>   0.6160 
 18 O        8.5120     3.1050     1.6400 O.2   1 <1>  -0.5700 
 19 C        8.8840     5.2050     0.7920 C.2   1 <1>   0.0910 
 20 O        8.7960     5.8830    -0.3730 O.3   1 <1>  -0.1530 
 21 C        9.7150     5.6820     1.7620 C.2   1 <1>  -0.1360 
 22 C        9.4840     7.0060    -0.6050 C.2   1 <1>  -0.0620 
 23 C       10.4690     6.8680     1.5870 C.2   1 <1>   0.5410 
 24 C       10.3130     7.5170     0.3340 C.2   1 <1>  -0.1360 
 25 C        9.2420     7.6080    -1.9740 C.3   1 <1>  -0.1020 
 26 O       11.2020     7.3090     2.4540 O.2   1 <1>  -0.5700 
 27 H        1.9970    -2.5190    -0.0810 H     1 <1>   0.1500 
 28 H        3.5650    -2.4460    -2.4880 H     1 <1>   0.0800 
 29 H        4.6570    -2.9330    -1.1970 H     1 <1>   0.0800 
 30 H        5.0470    -1.5490    -2.2030 H     1 <1>   0.0800 
 31 H        5.4320     0.8840     1.2640 H     1 <1>   0.0800 
 32 H        6.0110     2.2300     2.1790 H     1 <1>   0.0800 
 33 H        4.8670     4.3690     2.1080 H     1 <1>   0.0800 
 34 H        3.1940     4.4020     1.6390 H     1 <1>   0.0800 
 35 H        5.8450     2.2840    -0.8470 H     1 <1>   0.0800 
 36 H        7.2390     1.7070     0.0120 H     1 <1>   0.0800 
 37 H        4.0890     5.6850    -0.0450 H     1 <1>   0.0800 
 38 H        4.1020     4.1410    -0.8070 H     1 <1>   0.0800 
 39 H        6.3430     5.8000     0.2400 H     1 <1>   0.0800 
 40 H        6.2190     5.0200    -1.3070 H     1 <1>   0.0800 
 41 H        9.8350     5.1730     2.7010 H     1 <1>   0.1500 
 42 H       10.8840     8.4140     0.1900 H     1 <1>   0.1500 
 43 H        9.5220     6.9040    -2.7380 H     1 <1>   0.0800 
 44 H        9.8220     8.5040    -2.1030 H     1 <1>   0.0800 
 45 H        8.2010     7.8510    -2.0900 H     1 <1>   0.0800 
@<TRIPOS>BOND
  1   1   2  1   
  2   2   3  1   
  3   2   4  2   
  4   3   5  2   
  5   3   6  1   
  6   4   7  1   
  7   4  27  1   
  8   5   7  1   
  9   6   8  2   
 10   6   9  am  
 11   7  10  1   
 12   9  11  1   
 13   9  12  1   
 14  10  28  1   
 15  10  29  1   
 16  10  30  1   
 17  11  13  1   
 18  11  31  1   
 19  11  32  1   
 20  12  14  1   
 21  12  33  1   
 22  12  34  1   
 23  13  15  1   
 24  13  35  1   
 25  13  36  1   
 26  14  16  1   
 27  14  37  1   
 28  14  38  1   
 29  15  16  1   
 30  15  17  am  
 31  16  39  1   
 32  16  40  1   
 33  17  18  2   
 34  17  19  1   
 35  19  20  1   
 36  19  21  2   
 37  20  22  1   
 38  21  23  1   
 39  21  41  1   
 40  22  24  2   
 41  22  25  1   
 42  23  24  1   
 43  23  26  2   
 44  24  42  1   
 45  25  43  1   
 46  25  44  1   
 47  25  45  1   
@<TRIPOS>SUBSTRUCTURE
  1 ****  13 GROUP 4 **** **** 0

# MOE 2024.06 (io_trps.svl 2023.06)
