@<TRIPOS>MOLECULE
NONAME
50 52 1 0 0 
SMALL
USER_CHARGES


@<TRIPOS>ATOM
  1 O       -1.8170    -4.1010     1.0120 O.2   1 <1>  -0.5700 
  2 C       -0.6350    -4.2610     0.8620 C.2   1 <1>   0.5690 
  3 N       -0.0220    -5.4100     1.2130 N.am  1 <1>  -0.7300 
  4 C        0.2270    -3.1640     0.2770 C.3   1 <1>  -0.0990 
  5 C        1.4280    -5.6390     1.0720 C.3   1 <1>   0.1400 
  6 C        1.2290    -3.7490    -0.7380 C.3   1 <1>  -0.0800 
  7 C        1.9180    -5.0580    -0.2730 C.3   1 <1>  -0.0800 
  8 C        2.3510    -2.7700    -1.1150 C.3   1 <1>  -0.1600 
  9 C        3.4250    -4.7680    -0.2950 C.3   1 <1>  -0.1600 
 10 C        3.5730    -3.6560    -1.3330 C.3   1 <1>   0.4230 
 11 N        4.8570    -2.9040    -1.2600 N.4   1 <1>  -0.9590 
 12 C        5.1940    -2.3170     0.0720 C.3   1 <1>   0.4860 
 13 C        5.9930    -3.7280    -1.7820 C.3   1 <1>   0.2630 
 14 C        6.2900    -1.2900    -0.1280 C.ar  1 <1>  -0.1440 
 15 C        5.9960    -0.0610    -0.7030 C.ar  1 <1>  -0.1500 
 16 C        7.5950    -1.5680     0.2560 C.ar  1 <1>  -0.1500 
 17 C        6.9990     0.8680    -0.9050 C.ar  1 <1>  -0.1500 
 18 C        8.5990    -0.6370     0.0550 C.ar  1 <1>  -0.1500 
 19 C        8.3030     0.5900    -0.5320 C.ar  1 <1>   0.0820 
 20 O        9.2230     1.5560    -0.7690 O.3   1 <1>  -0.3630 
 21 C       10.5670     1.4120    -0.3620 C.3   1 <1>   0.1200 
 22 C       11.3300     2.6740    -0.7610 C.3   1 <1>   0.1200 
 23 O       12.6360     2.5860    -0.2970 O.3   1 <1>  -0.6800 
 24 H       -0.6010    -6.1360     1.6450 H     1 <1>   0.3700 
 25 H       -0.4030    -2.4330    -0.1980 H     1 <1>   0.0800 
 26 H        0.7390    -2.6880     1.0930 H     1 <1>   0.0800 
 27 H        1.9240    -5.1590     1.8980 H     1 <1>   0.0800 
 28 H        1.6350    -6.6950     1.1170 H     1 <1>   0.0800 
 29 H        0.6700    -3.9880    -1.6300 H     1 <1>   0.0800 
 30 H        1.7160    -5.8040    -1.0250 H     1 <1>   0.0800 
 31 H        2.5070    -2.0810    -0.3070 H     1 <1>   0.0800 
 32 H        2.0970    -2.2230    -2.0060 H     1 <1>   0.0800 
 33 H        3.9820    -5.6470    -0.5690 H     1 <1>   0.0800 
 34 H        3.7310    -4.4310     0.6780 H     1 <1>   0.0800 
 35 H        3.4780    -4.1010    -2.3110 H     1 <1>   0.0800 
 36 H        4.7700    -2.0950    -1.8900 H     1 <1>   0.4500 
 37 H        4.3360    -1.8300     0.5020 H     1 <1>   0.0800 
 38 H        5.5260    -3.0860     0.7500 H     1 <1>   0.0800 
 39 H        6.1720    -4.5740    -1.1390 H     1 <1>   0.0800 
 40 H        6.8940    -3.1360    -1.8330 H     1 <1>   0.0800 
 41 H        5.7700    -4.0890    -2.7730 H     1 <1>   0.0800 
 42 H        4.9920     0.1940    -0.9970 H     1 <1>   0.1500 
 43 H        7.8480    -2.5090     0.7160 H     1 <1>   0.1500 
 44 H        6.7810     1.8230    -1.3510 H     1 <1>   0.1500 
 45 H        9.6000    -0.8790     0.3600 H     1 <1>   0.1500 
 46 H       10.5810     1.2830     0.7060 H     1 <1>   0.0800 
 47 H       10.9830     0.5550    -0.8600 H     1 <1>   0.0800 
 48 H       10.8770     3.5520    -0.3350 H     1 <1>   0.0800 
 49 H       11.3670     2.7630    -1.8330 H     1 <1>   0.0800 
 50 H       12.6700     2.6980     0.6730 H     1 <1>   0.4000 
@<TRIPOS>BOND
  1   1   2  2   
  2   2   3  am  
  3   2   4  1   
  4   3   5  1   
  5   3  24  1   
  6   4   6  1   
  7   4  25  1   
  8   4  26  1   
  9   5   7  1   
 10   5  27  1   
 11   5  28  1   
 12   6   7  1   
 13   6   8  1   
 14   6  29  1   
 15   7   9  1   
 16   7  30  1   
 17   8  10  1   
 18   8  31  1   
 19   8  32  1   
 20   9  10  1   
 21   9  33  1   
 22   9  34  1   
 23  10  11  1   
 24  10  35  1   
 25  11  12  1   
 26  11  13  1   
 27  11  36  1   
 28  12  14  1   
 29  12  37  1   
 30  12  38  1   
 31  13  39  1   
 32  13  40  1   
 33  13  41  1   
 34  14  15  ar  
 35  14  16  ar  
 36  15  17  ar  
 37  15  42  1   
 38  16  18  ar  
 39  16  43  1   
 40  17  19  ar  
 41  17  44  1   
 42  18  19  ar  
 43  18  45  1   
 44  19  20  1   
 45  20  21  1   
 46  21  22  1   
 47  21  46  1   
 48  21  47  1   
 49  22  23  1   
 50  22  48  1   
 51  22  49  1   
 52  23  50  1   
@<TRIPOS>SUBSTRUCTURE
  1 ****  12 GROUP 4 **** **** 0

# MOE 2024.06 (io_trps.svl 2023.06)
