@<TRIPOS>MOLECULE
NONAME
50 53 1 0 0 
SMALL
USER_CHARGES


@<TRIPOS>ATOM
  1 S        0.1660     0.7920    -0.9610 S.o2  1 <1>   1.4470 
  2 O        0.8030     0.3120    -2.1670 O.2   1 <1>  -0.6500 
  3 O       -0.2360     2.1820    -0.9110 O.2   1 <1>  -0.6500 
  4 N        1.3210     0.5980     0.2700 N.am  1 <1>  -0.8490 
  5 C       -1.1900    -0.2920    -0.4450 C.ar  1 <1>  -0.0090 
  6 C        1.6440     1.7290     1.1600 C.3   1 <1>   0.1960 
  7 C        2.2920    -0.4960     0.1740 C.3   1 <1>   0.1960 
  8 C       -1.2730    -1.6020    -0.9040 C.ar  1 <1>  -0.1500 
  9 C       -2.1660     0.1500     0.4420 C.ar  1 <1>  -0.1500 
 10 C        2.9590     2.5120     0.8550 C.3   1 <1>   0.4230 
 11 C        3.6720    -0.0480    -0.3560 C.3   1 <1>  -0.0800 
 12 C       -2.2880    -2.4500    -0.4980 C.ar  1 <1>   0.0830 
 13 C       -3.1800    -0.6900     0.8700 C.ar  1 <1>  -0.1500 
 14 N        3.4620     2.5190    -0.5800 N.4   1 <1>  -0.9590 
 15 C        4.0870     2.0790     1.8160 C.3   1 <1>   0.1200 
 16 C        4.7440     0.0570     0.7430 C.3   1 <1>   0.1200 
 17 C        3.6190     1.1880    -1.2650 C.3   1 <1>   0.3430 
 18 O       -2.3050    -3.6900    -1.0540 O.3   1 <1>  -0.3630 
 19 C       -3.2420    -1.9970     0.4230 C.ar  1 <1>   0.0830 
 20 C        2.6350     3.4220    -1.4440 C.3   1 <1>   0.2630 
 21 O        4.2470     0.6950     1.8730 O.3   1 <1>  -0.5600 
 22 C       -3.5620    -4.2600    -1.3470 C.3   1 <1>   0.1200 
 23 O       -4.2280    -2.7770     0.9360 O.3   1 <1>  -0.3630 
 24 C       -4.1280    -4.9510    -0.1050 C.3   1 <1>  -0.1600 
 25 C       -3.9370    -4.1370     1.1770 C.3   1 <1>   0.1200 
 26 H        0.8290     2.4310     1.1730 H     1 <1>   0.0800 
 27 H        1.7020     1.3490     2.1660 H     1 <1>   0.0800 
 28 H        2.4050    -0.9510     1.1450 H     1 <1>   0.0800 
 29 H        1.8950    -1.2590    -0.4770 H     1 <1>   0.0800 
 30 H       -0.5440    -1.9740    -1.6020 H     1 <1>   0.1500 
 31 H       -2.1350     1.1630     0.8070 H     1 <1>   0.1500 
 32 H        2.7560     3.5370     1.1180 H     1 <1>   0.0800 
 33 H        4.0050    -0.8490    -0.9920 H     1 <1>   0.0800 
 34 H       -3.9250    -0.3390     1.5620 H     1 <1>   0.1500 
 35 H        4.4020     2.9290    -0.5400 H     1 <1>   0.4500 
 36 H        3.8330     2.3930     2.8140 H     1 <1>   0.0800 
 37 H        5.0280     2.5330     1.5590 H     1 <1>   0.0800 
 38 H        5.6310     0.5650     0.4030 H     1 <1>   0.0800 
 39 H        5.0280    -0.9340     1.0560 H     1 <1>   0.0800 
 40 H        2.8170     1.0530    -1.9680 H     1 <1>   0.0800 
 41 H        4.5260     1.2130    -1.8470 H     1 <1>   0.0800 
 42 H        1.6640     2.9960    -1.6190 H     1 <1>   0.0800 
 43 H        3.1130     3.5640    -2.4000 H     1 <1>   0.0800 
 44 H        2.5090     4.3850    -0.9770 H     1 <1>   0.0800 
 45 H       -4.2190    -3.4770    -1.6880 H     1 <1>   0.0800 
 46 H       -3.4260    -4.9690    -2.1440 H     1 <1>   0.0800 
 47 H       -5.1770    -5.1340    -0.2550 H     1 <1>   0.0800 
 48 H       -3.6530    -5.9080     0.0170 H     1 <1>   0.0800 
 49 H       -2.9240    -4.2080     1.5340 H     1 <1>   0.0800 
 50 H       -4.6010    -4.4850     1.9480 H     1 <1>   0.0800 
@<TRIPOS>BOND
  1   1   2  2   
  2   1   3  2   
  3   1   4  am  
  4   1   5  1   
  5   4   6  1   
  6   4   7  1   
  7   5   8  ar  
  8   5   9  ar  
  9   6  10  1   
 10   6  26  1   
 11   6  27  1   
 12   7  11  1   
 13   7  28  1   
 14   7  29  1   
 15   8  12  ar  
 16   8  30  1   
 17   9  13  ar  
 18   9  31  1   
 19  10  14  1   
 20  10  15  1   
 21  10  32  1   
 22  11  16  1   
 23  11  17  1   
 24  11  33  1   
 25  12  18  1   
 26  12  19  ar  
 27  13  19  ar  
 28  13  34  1   
 29  14  17  1   
 30  14  20  1   
 31  14  35  1   
 32  15  21  1   
 33  15  36  1   
 34  15  37  1   
 35  16  21  1   
 36  16  38  1   
 37  16  39  1   
 38  17  40  1   
 39  17  41  1   
 40  18  22  1   
 41  19  23  1   
 42  20  42  1   
 43  20  43  1   
 44  20  44  1   
 45  22  24  1   
 46  22  45  1   
 47  22  46  1   
 48  23  25  1   
 49  24  25  1   
 50  24  47  1   
 51  24  48  1   
 52  25  49  1   
 53  25  50  1   
@<TRIPOS>SUBSTRUCTURE
  1 ****   5 GROUP 4 **** **** 0

# MOE 2024.06 (io_trps.svl 2023.06)
