@<TRIPOS>MOLECULE
NONAME
50 52 1 0 0 
SMALL
USER_CHARGES


@<TRIPOS>ATOM
  1 O       -0.2950     3.5120     2.8950 O.2   1 <1>  -0.5700 
  2 C        0.1490     3.6630     1.7780 C.2   1 <1>   0.5690 
  3 N       -0.6720     3.7140     0.6750 N.am  1 <1>  -0.6600 
  4 C        1.6620     3.8210     1.6550 C.3   1 <1>   0.1810 
  5 C       -2.1350     3.4220     0.7780 C.3   1 <1>   0.1400 
  6 C       -0.2110     3.8840    -0.7300 C.3   1 <1>   0.1400 
  7 O        2.2250     2.7910     0.8540 O.3   1 <1>  -0.3620 
  8 C       -2.4860     2.1160     0.0200 C.3   1 <1>   0.0000 
  9 C       -0.5000     2.6010    -1.5160 C.3   1 <1>  -0.1600 
 10 C        3.5190     2.8430     0.4560 C.ar  1 <1>   0.0820 
 11 C       -3.9940     1.8220     0.0830 C.3   1 <1>   0.2000 
 12 C       -1.9880     2.2140    -1.4400 C.3   1 <1>  -0.1600 
 13 C       -1.9030     0.8950     0.7530 C.3   1 <1>  -0.1600 
 14 C        3.9110     1.9260    -0.5050 C.ar  1 <1>  -0.1500 
 15 C        4.4450     3.7560     0.9520 C.ar  1 <1>  -0.1500 
 16 O       -4.7500     2.9860    -0.0750 O.3   1 <1>  -0.5600 
 17 C       -4.2350     1.1780     1.4530 C.3   1 <1>  -0.1600 
 18 C       -2.8850     0.5910     1.8880 C.3   1 <1>  -0.1600 
 19 C        5.2110     1.9130    -0.9830 C.ar  1 <1>  -0.1440 
 20 C        5.7440     3.7450     0.4770 C.ar  1 <1>  -0.1500 
 21 C       -6.1030     2.7780    -0.3310 C.3   1 <1>   0.0400 
 22 C        6.1260     2.8270    -0.4870 C.ar  1 <1>  -0.1500 
 23 C        5.6360     0.9050    -2.0360 C.3   1 <1>  -0.0970 
 24 H        2.1090     3.7660     2.6300 H     1 <1>   0.0800 
 25 H        1.8830     4.7690     1.2040 H     1 <1>   0.0800 
 26 H       -2.4340     3.3460     1.8080 H     1 <1>   0.0800 
 27 H       -2.6750     4.2480     0.3490 H     1 <1>   0.0800 
 28 H       -0.7460     4.7070    -1.1730 H     1 <1>   0.0800 
 29 H        0.8380     4.1110    -0.7780 H     1 <1>   0.0800 
 30 H       -0.2190     2.7460    -2.5440 H     1 <1>   0.0800 
 31 H        0.1100     1.8080    -1.1200 H     1 <1>   0.0800 
 32 H       -4.2510     1.1270    -0.6990 H     1 <1>   0.0800 
 33 H       -2.1450     1.2810    -1.9520 H     1 <1>   0.0800 
 34 H       -2.5670     2.9660    -1.9490 H     1 <1>   0.0800 
 35 H       -1.8730     0.0510     0.0860 H     1 <1>   0.0800 
 36 H       -0.9080     1.0650     1.1270 H     1 <1>   0.0800 
 37 H        3.1860     1.2220    -0.8730 H     1 <1>   0.1500 
 38 H        4.1790     4.4730     1.7050 H     1 <1>   0.1500 
 39 H       -4.5470     1.9230     2.1650 H     1 <1>   0.0800 
 40 H       -4.9820     0.4090     1.3820 H     1 <1>   0.0800 
 41 H       -2.5540     1.0790     2.7900 H     1 <1>   0.0800 
 42 H       -2.9500    -0.4670     2.0710 H     1 <1>   0.0800 
 43 H        6.4630     4.4490     0.8590 H     1 <1>   0.1500 
 44 H       -6.5710     3.7390    -0.4530 H     1 <1>   0.0800 
 45 H       -6.5510     2.2630     0.5010 H     1 <1>   0.0800 
 46 H       -6.2100     2.2060    -1.2350 H     1 <1>   0.0800 
 47 H        7.1390     2.8270    -0.8480 H     1 <1>   0.1500 
 48 H        6.3010     1.3650    -2.7450 H     1 <1>   0.0800 
 49 H        4.7810     0.5270    -2.5670 H     1 <1>   0.0800 
 50 H        6.1430     0.0820    -1.5660 H     1 <1>   0.0800 
@<TRIPOS>BOND
  1   1   2  2   
  2   2   3  am  
  3   2   4  1   
  4   3   5  1   
  5   3   6  1   
  6   4   7  1   
  7   4  24  1   
  8   4  25  1   
  9   5   8  1   
 10   5  26  1   
 11   5  27  1   
 12   6   9  1   
 13   6  28  1   
 14   6  29  1   
 15   7  10  1   
 16   8  11  1   
 17   8  12  1   
 18   8  13  1   
 19   9  12  1   
 20   9  30  1   
 21   9  31  1   
 22  10  14  ar  
 23  10  15  ar  
 24  11  16  1   
 25  11  17  1   
 26  11  32  1   
 27  12  33  1   
 28  12  34  1   
 29  13  18  1   
 30  13  35  1   
 31  13  36  1   
 32  14  19  ar  
 33  14  37  1   
 34  15  20  ar  
 35  15  38  1   
 36  16  21  1   
 37  17  18  1   
 38  17  39  1   
 39  17  40  1   
 40  18  41  1   
 41  18  42  1   
 42  19  22  ar  
 43  19  23  1   
 44  20  22  ar  
 45  20  43  1   
 46  21  44  1   
 47  21  45  1   
 48  21  46  1   
 49  22  47  1   
 50  23  48  1   
 51  23  49  1   
 52  23  50  1   
@<TRIPOS>SUBSTRUCTURE
  1 ****   3 GROUP 4 **** **** 0

# MOE 2024.06 (io_trps.svl 2023.06)
