@<TRIPOS>MOLECULE
NONAME
51 54 1 0 0 
SMALL
USER_CHARGES


@<TRIPOS>ATOM
  1 O        0.3900     0.8780     1.0330 O.co2 1 <1>  -0.9000 
  2 C        1.4610     0.2750     1.0250 C.2   1 <1>   0.9060 
  3 O        1.8650    -0.3480     2.0190 O.co2 1 <1>  -0.9000 
  4 C        2.2780     0.2330    -0.2810 C.3   1 <1>  -0.1060 
  5 C        3.6620    -0.3990    -0.0300 C.3   1 <1>   0.4230 
  6 C        2.4350     1.6900    -0.8240 C.3   1 <1>  -0.1600 
  7 C        1.5550    -0.6600    -1.3170 C.3   1 <1>  -0.1600 
  8 N        3.5150    -1.7730     0.5570 N.4   1 <1>  -0.9590 
  9 C        4.5520     0.5840     0.7550 C.3   1 <1>   0.1400 
 10 C        3.8690     2.0990    -1.1830 C.3   1 <1>   0.1400 
 11 C        1.4580    -2.1120    -0.8120 C.3   1 <1>  -0.1600 
 12 C        2.8080    -2.6940    -0.3730 C.3   1 <1>   0.3430 
 13 C        4.7490    -2.3680     1.1340 C.3   1 <1>   0.2630 
 14 N        4.8040     1.8350    -0.0400 N.am  1 <1>  -0.6600 
 15 C        5.8430     2.6530     0.3400 C.2   1 <1>   0.5690 
 16 O        6.6250     2.2920     1.1880 O.2   1 <1>  -0.5700 
 17 C        6.0390     4.0330    -0.2890 C.3   1 <1>  -0.0190 
 18 C        7.4430     4.6560    -0.1240 C.3   1 <1>  -0.0170 
 19 C        5.0630     5.0880     0.2680 C.3   1 <1>  -0.0170 
 20 C        7.1520     6.1370    -0.1560 C.ar  1 <1>  -0.1430 
 21 C        5.8190     6.3790     0.0670 C.ar  1 <1>  -0.1430 
 22 C        8.0340     7.1790    -0.3700 C.ar  1 <1>  -0.1500 
 23 C        5.3270     7.6700     0.0850 C.ar  1 <1>  -0.1500 
 24 C        7.5510     8.4790    -0.3560 C.ar  1 <1>  -0.1500 
 25 C        6.2030     8.7230    -0.1290 C.ar  1 <1>  -0.1500 
 26 H        4.1410    -0.5200    -0.9860 H     1 <1>   0.0800 
 27 H        2.0950     2.3900    -0.0770 H     1 <1>   0.0800 
 28 H        1.7970     1.8420    -1.6760 H     1 <1>   0.0800 
 29 H        0.5590    -0.2800    -1.4840 H     1 <1>   0.0800 
 30 H        2.0800    -0.6370    -2.2560 H     1 <1>   0.0800 
 31 H        2.8500    -1.5690     1.3530 H     1 <1>   0.4500 
 32 H        5.5000     0.1270     0.9720 H     1 <1>   0.0800 
 33 H        4.0810     0.8530     1.6860 H     1 <1>   0.0800 
 34 H        3.8650     3.1390    -1.4500 H     1 <1>   0.0800 
 35 H        4.2000     1.5400    -2.0420 H     1 <1>   0.0800 
 36 H        1.0420    -2.7320    -1.5860 H     1 <1>   0.0800 
 37 H        0.7770    -2.1570     0.0220 H     1 <1>   0.0800 
 38 H        3.4210    -2.8610    -1.2430 H     1 <1>   0.0800 
 39 H        2.6410    -3.6420     0.1120 H     1 <1>   0.0800 
 40 H        5.5000    -2.4890     0.3720 H     1 <1>   0.0800 
 41 H        4.5270    -3.3310     1.5660 H     1 <1>   0.0800 
 42 H        5.1370    -1.7320     1.9140 H     1 <1>   0.0800 
 43 H        5.8780     3.9590    -1.3480 H     1 <1>   0.0800 
 44 H        8.1060     4.3560    -0.9150 H     1 <1>   0.0800 
 45 H        7.8790     4.4130     0.8300 H     1 <1>   0.0800 
 46 H        4.8970     4.9340     1.3210 H     1 <1>   0.0800 
 47 H        4.1240     5.0910    -0.2540 H     1 <1>   0.0800 
 48 H        9.0770     6.9850    -0.5420 H     1 <1>   0.1500 
 49 H        4.2830     7.8550     0.2620 H     1 <1>   0.1500 
 50 H        8.2240     9.3010    -0.5200 H     1 <1>   0.1500 
 51 H        5.8370     9.7350    -0.1190 H     1 <1>   0.1500 
@<TRIPOS>BOND
  1   1   2  ar  
  2   2   3  ar  
  3   2   4  1   
  4   4   5  1   
  5   4   6  1   
  6   4   7  1   
  7   5   8  1   
  8   5   9  1   
  9   5  26  1   
 10   6  10  1   
 11   6  27  1   
 12   6  28  1   
 13   7  11  1   
 14   7  29  1   
 15   7  30  1   
 16   8  12  1   
 17   8  13  1   
 18   8  31  1   
 19   9  14  1   
 20   9  32  1   
 21   9  33  1   
 22  10  14  1   
 23  10  34  1   
 24  10  35  1   
 25  11  12  1   
 26  11  36  1   
 27  11  37  1   
 28  12  38  1   
 29  12  39  1   
 30  13  40  1   
 31  13  41  1   
 32  13  42  1   
 33  14  15  am  
 34  15  16  2   
 35  15  17  1   
 36  17  18  1   
 37  17  19  1   
 38  17  43  1   
 39  18  20  1   
 40  18  44  1   
 41  18  45  1   
 42  19  21  1   
 43  19  46  1   
 44  19  47  1   
 45  20  21  ar  
 46  20  22  ar  
 47  21  23  ar  
 48  22  24  ar  
 49  22  48  1   
 50  23  25  ar  
 51  23  49  1   
 52  24  25  ar  
 53  24  50  1   
 54  25  51  1   
@<TRIPOS>SUBSTRUCTURE
  1 ****  14 GROUP 4 **** **** 0

# MOE 2024.06 (io_trps.svl 2023.06)
