@<TRIPOS>MOLECULE
NONAME
47 49 1 0 0 
SMALL
USER_CHARGES


@<TRIPOS>ATOM
  1 S        2.2050     0.2170     1.4580 S.o2  1 <1>   1.4470 
  2 O        1.8880    -0.6910     2.5360 O.2   1 <1>  -0.6500 
  3 O        3.3620     1.0840     1.5840 O.2   1 <1>  -0.6500 
  4 N        2.4600    -0.7170     0.0680 N.am  1 <1>  -0.8490 
  5 C        0.7500     1.2370     1.0690 C.ar  1 <1>  -0.0090 
  6 C        3.3280    -0.1130    -0.9560 C.3   1 <1>   0.3370 
  7 C        3.0010    -2.0430     0.3190 C.3   1 <1>   0.1960 
  8 C       -0.1440     0.8880     0.0550 C.ar  1 <1>  -0.1500 
  9 C        0.5100     2.4100     1.7820 C.ar  1 <1>  -0.1500 
 10 C        2.8020     1.1990    -1.5900 C.2   1 <1>   0.5690 
 11 C        3.5500    -1.2750    -1.9240 C.3   1 <1>  -0.1600 
 12 C        3.5230    -2.5210    -1.0360 C.3   1 <1>  -0.1600 
 13 C       -1.2270     1.6920    -0.2570 C.ar  1 <1>  -0.1500 
 14 C       -0.5670     3.2290     1.4830 C.ar  1 <1>  -0.1500 
 15 O        2.2000     1.1730    -2.6390 O.2   1 <1>  -0.5700 
 16 N        3.0290     2.3580    -0.8930 N.am  1 <1>  -0.4940 
 17 C       -1.4170     2.8530     0.4630 C.ar  1 <1>   0.1900 
 18 C        2.4530     3.6390    -1.0610 C.2   1 <1>  -0.0880 
 19 F       -2.4350     3.6170     0.1740 F     1 <1>  -0.1900 
 20 N        2.6300     4.6820    -0.2050 N.pl3 1 <1>   0.3140 
 21 C        1.6210     4.0860    -2.0290 C.2   1 <1>  -0.1500 
 22 N        1.9310     5.7710    -0.5950 N.2   1 <1>  -0.7070 
 23 C        3.4390     4.6950     1.0320 C.3   1 <1>   0.0960 
 24 C        1.3350     5.4010    -1.6870 C.2   1 <1>   0.1390 
 25 C        4.9350     4.8250     0.7160 C.3   1 <1>  -0.1600 
 26 C        5.7790     4.7660     1.9940 C.3   1 <1>  -0.2400 
 27 H        4.2820     0.1060    -0.5080 H     1 <1>   0.0800 
 28 H        2.2390    -2.6980     0.7100 H     1 <1>   0.0800 
 29 H        3.8130    -1.9820     1.0260 H     1 <1>   0.0800 
 30 H        0.0100    -0.0170    -0.5090 H     1 <1>   0.1500 
 31 H        1.1760     2.6910     2.5790 H     1 <1>   0.1500 
 32 H        4.4750    -1.1690    -2.4620 H     1 <1>   0.0800 
 33 H        2.7390    -1.3190    -2.6320 H     1 <1>   0.0800 
 34 H        2.8650    -3.2660    -1.4490 H     1 <1>   0.0800 
 35 H        4.5040    -2.9480    -0.9230 H     1 <1>   0.0800 
 36 H       -1.9090     1.4270    -1.0450 H     1 <1>   0.1500 
 37 H       -0.7460     4.1420     2.0230 H     1 <1>   0.1500 
 38 H        3.5490     2.2250    -0.0150 H     1 <1>   0.3700 
 39 H        1.2440     3.5530    -2.8830 H     1 <1>   0.1500 
 40 H        3.2480     3.7880     1.5750 H     1 <1>   0.0800 
 41 H        3.1170     5.5260     1.6330 H     1 <1>   0.0800 
 42 H        0.6890     6.0480    -2.2570 H     1 <1>   0.1500 
 43 H        5.1090     5.7650     0.2180 H     1 <1>   0.0800 
 44 H        5.2410     4.0310     0.0570 H     1 <1>   0.0800 
 45 H        5.5080     5.5660     2.6620 H     1 <1>   0.0800 
 46 H        6.8220     4.8660     1.7510 H     1 <1>   0.0800 
 47 H        5.6350     3.8270     2.5000 H     1 <1>   0.0800 
@<TRIPOS>BOND
  1   1   2  2   
  2   1   3  2   
  3   1   4  am  
  4   1   5  1   
  5   4   6  1   
  6   4   7  1   
  7   5   8  ar  
  8   5   9  ar  
  9   6  10  1   
 10   6  11  1   
 11   6  27  1   
 12   7  12  1   
 13   7  28  1   
 14   7  29  1   
 15   8  13  ar  
 16   8  30  1   
 17   9  14  ar  
 18   9  31  1   
 19  10  15  2   
 20  10  16  am  
 21  11  12  1   
 22  11  32  1   
 23  11  33  1   
 24  12  34  1   
 25  12  35  1   
 26  13  17  ar  
 27  13  36  1   
 28  14  17  ar  
 29  14  37  1   
 30  16  18  1   
 31  16  38  1   
 32  17  19  1   
 33  18  20  1   
 34  18  21  2   
 35  20  22  1   
 36  20  23  1   
 37  21  24  1   
 38  21  39  1   
 39  22  24  2   
 40  23  25  1   
 41  23  40  1   
 42  23  41  1   
 43  24  42  1   
 44  25  26  1   
 45  25  43  1   
 46  25  44  1   
 47  26  45  1   
 48  26  46  1   
 49  26  47  1   
@<TRIPOS>SUBSTRUCTURE
  1 ****  16 GROUP 4 **** **** 0

# MOE 2024.06 (io_trps.svl 2023.06)
