@<TRIPOS>MOLECULE
NONAME
50 53 1 0 0 
SMALL
USER_CHARGES


@<TRIPOS>ATOM
  1 O       -0.1330     0.0130     1.1350 O.2   1 <1>  -0.5700 
  2 C       -0.6860     1.0710     0.9690 C.2   1 <1>   0.5690 
  3 N       -1.9490     1.2850     0.4960 N.am  1 <1>  -0.4770 
  4 C        0.0030     2.3670     1.2940 C.3   1 <1>  -0.0990 
  5 C       -2.9240     0.3340     0.1300 C.ar  1 <1>   0.1170 
  6 C       -2.2420     2.7320     0.4440 C.3   1 <1>   0.1400 
  7 C       -1.1520     3.3800     1.3110 C.3   1 <1>  -0.0190 
  8 C       -3.0250    -0.8870     0.7880 C.ar  1 <1>  -0.1500 
  9 C       -3.8280     0.5950    -0.8960 C.ar  1 <1>  -0.1500 
 10 C       -0.7560     4.7800     0.8660 C.2   1 <1>   0.5690 
 11 C       -3.9940    -1.8100     0.4410 C.ar  1 <1>  -0.1500 
 12 C       -4.7990    -0.3270    -1.2440 C.ar  1 <1>  -0.1500 
 13 O       -1.3960     5.3330     0.0080 O.2   1 <1>  -0.5700 
 14 N        0.3040     5.3710     1.4840 N.am  1 <1>  -0.4940 
 15 C       -4.8950    -1.5400    -0.5790 C.ar  1 <1>  -0.1430 
 16 C        0.8310     6.6620     1.3590 C.2   1 <1>   0.2510 
 17 C       -5.9590    -2.5710    -0.9490 C.3   1 <1>   0.0630 
 18 N        1.4170     7.2150     2.3720 N.2   1 <1>  -0.3380 
 19 N        0.8410     7.4660     0.2700 N.pl3 1 <1>   0.3340 
 20 C       -5.7800    -3.0450    -2.3950 C.3   1 <1>  -0.2400 
 21 C       -7.3660    -2.0060    -0.7320 C.3   1 <1>  -0.2400 
 22 N        1.8190     8.4260     1.9930 N.2   1 <1>  -0.3380 
 23 C        1.4770     8.5760     0.7480 C.2   1 <1>   0.3120 
 24 C        0.5000     7.4110    -1.0780 C.2   1 <1>  -0.1810 
 25 N        1.7250     9.6900    -0.0240 N.2   1 <1>  -0.5760 
 26 C        0.7570     8.4990    -1.8450 C.2   1 <1>  -0.1360 
 27 C        1.3720     9.6430    -1.2610 C.2   1 <1>   0.3750 
 28 C        1.6250    10.8470    -2.1410 C.3   1 <1>  -0.1790 
 29 H        0.7090     2.5800     0.5120 H     1 <1>   0.0800 
 30 H        0.5050     2.3030     2.2420 H     1 <1>   0.0800 
 31 H       -3.2270     2.9400     0.8280 H     1 <1>   0.0800 
 32 H       -2.1740     3.0590    -0.5800 H     1 <1>   0.0800 
 33 H       -1.5400     3.4460     2.3130 H     1 <1>   0.0800 
 34 H       -2.3390    -1.1210     1.5820 H     1 <1>   0.1500 
 35 H       -3.7750     1.5200    -1.4370 H     1 <1>   0.1500 
 36 H       -4.0390    -2.7440     0.9720 H     1 <1>   0.1500 
 37 H       -5.4820    -0.0950    -2.0410 H     1 <1>   0.1500 
 38 H        0.6840     4.8880     2.2970 H     1 <1>   0.3700 
 39 H       -5.8470    -3.4280    -0.3070 H     1 <1>   0.0800 
 40 H       -5.9300    -2.2360    -3.0860 H     1 <1>   0.0800 
 41 H       -6.4840    -3.8260    -2.6210 H     1 <1>   0.0800 
 42 H       -4.7850    -3.4310    -2.5310 H     1 <1>   0.0800 
 43 H       -7.5510    -1.1730    -1.3860 H     1 <1>   0.0800 
 44 H       -7.4720    -1.6730     0.2860 H     1 <1>   0.0800 
 45 H       -8.1050    -2.7640    -0.9220 H     1 <1>   0.0800 
 46 H        0.0510     6.5100    -1.4490 H     1 <1>   0.1500 
 47 H        0.5120     8.5320    -2.8910 H     1 <1>   0.1500 
 48 H        0.6960    11.2110    -2.5390 H     1 <1>   0.0800 
 49 H        2.2800    10.5790    -2.9490 H     1 <1>   0.0800 
 50 H        2.0860    11.6330    -1.5700 H     1 <1>   0.0800 
@<TRIPOS>BOND
  1   1   2  2   
  2   2   3  am  
  3   2   4  1   
  4   3   5  1   
  5   3   6  1   
  6   4   7  1   
  7   4  29  1   
  8   4  30  1   
  9   5   8  ar  
 10   5   9  ar  
 11   6   7  1   
 12   6  31  1   
 13   6  32  1   
 14   7  10  1   
 15   7  33  1   
 16   8  11  ar  
 17   8  34  1   
 18   9  12  ar  
 19   9  35  1   
 20  10  13  2   
 21  10  14  am  
 22  11  15  ar  
 23  11  36  1   
 24  12  15  ar  
 25  12  37  1   
 26  14  16  1   
 27  14  38  1   
 28  15  17  1   
 29  16  18  2   
 30  16  19  1   
 31  17  20  1   
 32  17  21  1   
 33  17  39  1   
 34  18  22  1   
 35  19  23  1   
 36  19  24  1   
 37  20  40  1   
 38  20  41  1   
 39  20  42  1   
 40  21  43  1   
 41  21  44  1   
 42  21  45  1   
 43  22  23  2   
 44  23  25  1   
 45  24  26  2   
 46  24  46  1   
 47  25  27  2   
 48  26  27  1   
 49  26  47  1   
 50  27  28  1   
 51  28  48  1   
 52  28  49  1   
 53  28  50  1   
@<TRIPOS>SUBSTRUCTURE
  1 ****   7 GROUP 4 **** **** 0

# MOE 2024.06 (io_trps.svl 2023.06)
