@<TRIPOS>MOLECULE
NONAME
47 50 1 0 0 
SMALL
USER_CHARGES


@<TRIPOS>ATOM
  1 O        1.5740    -0.4600     1.8830 O.2   1 <1>  -0.5700 
  2 C        1.9230    -0.7420     0.7590 C.2   1 <1>   0.5690 
  3 N        2.6220     0.1770    -0.0010 N.am  1 <1>  -0.6600 
  4 C        1.5900    -2.1410     0.2400 C.3   1 <1>  -0.0190 
  5 C        2.9160     1.5170     0.6090 C.3   1 <1>   0.1400 
  6 C        3.3320    -0.1570    -1.2790 C.3   1 <1>   0.1400 
  7 C        0.3150    -2.7850     0.8300 C.3   1 <1>  -0.0160 
  8 C        2.7150    -3.1600     0.5050 C.3   1 <1>  -0.0160 
  9 C        4.3600     1.6460     1.1650 C.3   1 <1>   0.4230 
 10 C        4.8510     0.1370    -1.2730 C.3   1 <1>  -0.0800 
 11 C        0.6250    -4.2600     0.7440 C.ar  1 <1>  -0.1440 
 12 C        1.9700    -4.4690     0.5650 C.ar  1 <1>  -0.1440 
 13 N        5.3400     2.1750     0.1460 N.4   1 <1>  -0.9590 
 14 C        4.9210     0.3560     1.8250 C.3   1 <1>   0.1200 
 15 C        5.6830    -0.6730    -0.2540 C.3   1 <1>   0.1200 
 16 C        5.1420     1.6390    -1.2330 C.3   1 <1>   0.3430 
 17 C       -0.2520    -5.3250     0.8250 C.ar  1 <1>  -0.1500 
 18 C        2.4790    -5.7500     0.4640 C.ar  1 <1>  -0.1500 
 19 C        5.3630     3.6710     0.1310 C.3   1 <1>   0.2630 
 20 O        5.0610    -0.7670     0.9870 O.3   1 <1>  -0.5600 
 21 C        0.2480    -6.6140     0.7230 C.ar  1 <1>  -0.1500 
 22 C        1.6080    -6.8260     0.5440 C.ar  1 <1>  -0.1500 
 23 H        1.4210    -2.0950    -0.8190 H     1 <1>   0.0800 
 24 H        2.7160     2.2900    -0.1090 H     1 <1>   0.0800 
 25 H        2.2390     1.6950     1.4260 H     1 <1>   0.0800 
 26 H        3.2110    -1.1970    -1.5130 H     1 <1>   0.0800 
 27 H        2.8630     0.3960    -2.0760 H     1 <1>   0.0800 
 28 H       -0.5610    -2.5230     0.2640 H     1 <1>   0.0800 
 29 H        0.1740    -2.5230     1.8640 H     1 <1>   0.0800 
 30 H        3.1840    -2.9720     1.4560 H     1 <1>   0.0800 
 31 H        3.4560    -3.1590    -0.2730 H     1 <1>   0.0800 
 32 H        4.3050     2.3750     1.9550 H     1 <1>   0.0800 
 33 H        5.1960    -0.1780    -2.2420 H     1 <1>   0.0800 
 34 H        6.2620     1.8440     0.4640 H     1 <1>   0.4500 
 35 H        4.2520     0.0580     2.6150 H     1 <1>   0.0800 
 36 H        5.8790     0.5530     2.2720 H     1 <1>   0.0800 
 37 H        6.6740    -0.2720    -0.1210 H     1 <1>   0.0800 
 38 H        5.7850    -1.6840    -0.6120 H     1 <1>   0.0800 
 39 H        4.3300     2.1600    -1.7150 H     1 <1>   0.0800 
 40 H        6.0340     1.8320    -1.8080 H     1 <1>   0.0800 
 41 H       -1.3050    -5.1560     0.9670 H     1 <1>   0.1500 
 42 H        3.5340    -5.9110     0.3280 H     1 <1>   0.1500 
 43 H        4.4090     4.0600    -0.1880 H     1 <1>   0.0800 
 44 H        6.1230     4.0280    -0.5460 H     1 <1>   0.0800 
 45 H        5.5790     4.0540     1.1160 H     1 <1>   0.0800 
 46 H       -0.4220    -7.4530     0.7850 H     1 <1>   0.1500 
 47 H        1.9880    -7.8290     0.4670 H     1 <1>   0.1500 
@<TRIPOS>BOND
  1   1   2  2   
  2   2   3  am  
  3   2   4  1   
  4   3   5  1   
  5   3   6  1   
  6   4   7  1   
  7   4   8  1   
  8   4  23  1   
  9   5   9  1   
 10   5  24  1   
 11   5  25  1   
 12   6  10  1   
 13   6  26  1   
 14   6  27  1   
 15   7  11  1   
 16   7  28  1   
 17   7  29  1   
 18   8  12  1   
 19   8  30  1   
 20   8  31  1   
 21   9  13  1   
 22   9  14  1   
 23   9  32  1   
 24  10  15  1   
 25  10  16  1   
 26  10  33  1   
 27  11  12  ar  
 28  11  17  ar  
 29  12  18  ar  
 30  13  16  1   
 31  13  19  1   
 32  13  34  1   
 33  14  20  1   
 34  14  35  1   
 35  14  36  1   
 36  15  20  1   
 37  15  37  1   
 38  15  38  1   
 39  16  39  1   
 40  16  40  1   
 41  17  21  ar  
 42  17  41  1   
 43  18  22  ar  
 44  18  42  1   
 45  19  43  1   
 46  19  44  1   
 47  19  45  1   
 48  21  22  ar  
 49  21  46  1   
 50  22  47  1   
@<TRIPOS>SUBSTRUCTURE
  1 ****   2 GROUP 4 **** **** 0

# MOE 2024.06 (io_trps.svl 2023.06)
