@<TRIPOS>MOLECULE
NONAME
56 57 1 0 0 
SMALL
USER_CHARGES


@<TRIPOS>ATOM
  1 S       -1.0080     0.1700    -0.6230 S.o2  1 <1>   1.0900 
  2 O       -1.1410     1.5710    -0.9480 O.2   1 <1>  -0.6500 
  3 O       -0.5120    -0.7560    -1.6120 O.2   1 <1>  -0.6500 
  4 C       -2.6060    -0.4220    -0.0700 C.3   1 <1>  -0.0550 
  5 C        0.0360     0.0310     0.8160 C.3   1 <1>  -0.1350 
  6 C       -3.2710     0.4840     0.9780 C.3   1 <1>  -0.0990 
  7 C       -4.6320    -0.0640     1.3520 C.2   1 <1>   0.5690 
  8 O       -4.6450    -0.9300     2.1940 O.2   1 <1>  -0.5700 
  9 N       -5.7780     0.3840     0.7450 N.am  1 <1>  -0.6600 
 10 C       -5.7980     1.3620    -0.3840 C.3   1 <1>   0.1400 
 11 C       -7.1050    -0.1120     1.2160 C.3   1 <1>   0.1400 
 12 C       -7.0820     1.2050    -1.1970 C.3   1 <1>  -0.1600 
 13 C       -8.1700     0.9820     1.0860 C.3   1 <1>  -0.1600 
 14 C       -8.3380     1.5380    -0.3540 C.3   1 <1>   0.2800 
 15 O       -8.3610     2.9410    -0.1950 O.3   1 <1>  -0.5600 
 16 C       -9.6780     1.0270    -1.0020 C.3   1 <1>   0.2000 
 17 C       -8.9680     3.7160    -1.1810 C.3   1 <1>   0.1200 
 18 O       -9.5370     0.8240    -2.3860 O.3   1 <1>  -0.6800 
 19 C      -10.8610     2.0090    -0.7440 C.3   1 <1>   0.3000 
 20 C      -10.4710     3.4060    -1.2740 C.3   1 <1>  -0.1600 
 21 N      -11.1040     2.1780     0.7090 N.am  1 <1>  -0.7300 
 22 C      -12.1720     1.5760    -1.4250 C.3   1 <1>  -0.2400 
 23 C      -11.6900     1.4410     1.6820 C.2   1 <1>   0.5690 
 24 O      -11.6930     1.8820     2.8030 O.2   1 <1>  -0.5700 
 25 C      -12.3170     0.0760     1.4180 C.3   1 <1>  -0.0990 
 26 C      -12.4330    -0.8200     2.6640 C.3   1 <1>  -0.2400 
 27 H       -3.2580    -0.4910    -0.9210 H     1 <1>   0.0800 
 28 H       -2.5070    -1.4120     0.3330 H     1 <1>   0.0800 
 29 H       -0.3160     0.6650     1.6060 H     1 <1>   0.0800 
 30 H        1.0370     0.3290     0.5680 H     1 <1>   0.0800 
 31 H        0.0640    -0.9820     1.1660 H     1 <1>   0.0800 
 32 H       -2.6720     0.5130     1.8690 H     1 <1>   0.0800 
 33 H       -3.3530     1.4920     0.6150 H     1 <1>   0.0800 
 34 H       -5.7410     2.3630     0.0130 H     1 <1>   0.0800 
 35 H       -4.9530     1.1990    -1.0300 H     1 <1>   0.0800 
 36 H       -7.3850    -0.9720     0.6330 H     1 <1>   0.0800 
 37 H       -7.0380    -0.4170     2.2470 H     1 <1>   0.0800 
 38 H       -7.1320     0.1880    -1.5460 H     1 <1>   0.0800 
 39 H       -7.0310     1.8320    -2.0660 H     1 <1>   0.0800 
 40 H       -7.8970     1.7760     1.7580 H     1 <1>   0.0800 
 41 H       -9.0920     0.5730     1.4490 H     1 <1>   0.0800 
 42 H       -9.9190     0.0590    -0.6020 H     1 <1>   0.0800 
 43 H       -8.8160     4.7500    -0.9240 H     1 <1>   0.0800 
 44 H       -8.4750     3.5250    -2.1170 H     1 <1>   0.0800 
 45 H       -9.2990     1.6610    -2.8250 H     1 <1>   0.4000 
 46 H      -11.0310     4.1660    -0.7580 H     1 <1>   0.0800 
 47 H      -10.7390     3.4940    -2.3110 H     1 <1>   0.0800 
 48 H      -10.6010     2.9900     1.0790 H     1 <1>   0.3700 
 49 H      -12.0890     1.6630    -2.4930 H     1 <1>   0.0800 
 50 H      -12.9890     2.1970    -1.1020 H     1 <1>   0.0800 
 51 H      -12.3990     0.5490    -1.2230 H     1 <1>   0.0800 
 52 H      -13.2980     0.2320     1.0100 H     1 <1>   0.0800 
 53 H      -11.7250    -0.4480     0.6940 H     1 <1>   0.0800 
 54 H      -13.0610    -0.3500     3.4020 H     1 <1>   0.0800 
 55 H      -11.4610    -0.9820     3.0970 H     1 <1>   0.0800 
 56 H      -12.8610    -1.7710     2.4030 H     1 <1>   0.0800 
@<TRIPOS>BOND
  1   1   2  2   
  2   1   3  2   
  3   1   4  1   
  4   1   5  1   
  5   4   6  1   
  6   4  27  1   
  7   4  28  1   
  8   5  29  1   
  9   5  30  1   
 10   5  31  1   
 11   6   7  1   
 12   6  32  1   
 13   6  33  1   
 14   7   8  2   
 15   7   9  am  
 16   9  10  1   
 17   9  11  1   
 18  10  12  1   
 19  10  34  1   
 20  10  35  1   
 21  11  13  1   
 22  11  36  1   
 23  11  37  1   
 24  12  14  1   
 25  12  38  1   
 26  12  39  1   
 27  13  14  1   
 28  13  40  1   
 29  13  41  1   
 30  14  15  1   
 31  14  16  1   
 32  15  17  1   
 33  16  18  1   
 34  16  19  1   
 35  16  42  1   
 36  17  20  1   
 37  17  43  1   
 38  17  44  1   
 39  18  45  1   
 40  19  20  1   
 41  19  21  1   
 42  19  22  1   
 43  20  46  1   
 44  20  47  1   
 45  21  23  am  
 46  21  48  1   
 47  22  49  1   
 48  22  50  1   
 49  22  51  1   
 50  23  24  2   
 51  23  25  1   
 52  25  26  1   
 53  25  52  1   
 54  25  53  1   
 55  26  54  1   
 56  26  55  1   
 57  26  56  1   
@<TRIPOS>SUBSTRUCTURE
  1 ****  13 GROUP 4 **** **** 0

# MOE 2024.06 (io_trps.svl 2023.06)
