@<TRIPOS>MOLECULE
NONAME
39 41 1 0 0 
SMALL
USER_CHARGES


@<TRIPOS>ATOM
  1 N        0.9480     0.3500     1.4400 N.2   1 <1>  -0.6180 
  2 C        2.0750     0.0690     0.7880 C.cat 1 <1>   0.9590 
  3 C       -0.0420    -0.4580     1.2090 C.2   1 <1>   0.3680 
  4 N        3.2020     0.7610     0.8870 N.pl3 1 <1>  -0.7050 
  5 N        2.2400    -0.9550    -0.0690 N.pl3 1 <1>  -0.6350 
  6 C        0.0320    -1.5600     0.3360 C.2   1 <1>  -0.1460 
  7 C        4.1460     0.1690     0.0790 C.2   1 <1>   0.1720 
  8 C        1.1980    -1.8080    -0.3120 C.2   1 <1>   0.2200 
  9 C        3.5450    -0.8910    -0.5100 C.2   1 <1>   0.1910 
 10 C        5.5850     0.7000    -0.0530 C.3   1 <1>   0.4080 
 11 N        5.5710     2.0760    -0.6020 N.pl3 1 <1>  -0.7190 
 12 C        6.4830    -0.1660    -0.9510 C.3   1 <1>  -0.1700 
 13 C        6.4290     3.0690    -0.3210 C.cat 1 <1>   1.0680 
 14 C        6.8650    -1.5020    -0.2960 C.3   1 <1>  -0.2490 
 15 N        7.4560     2.9920     0.4950 N.pl3 1 <1>  -0.7050 
 16 N        6.4090     4.3060    -0.8140 N.pl3 1 <1>  -0.4640 
 17 C        8.0540     4.2160     0.4770 C.2   1 <1>   0.4780 
 18 N        7.4490     5.0300    -0.3000 N.2   1 <1>  -0.2690 
 19 C        5.4860     4.9590    -1.7770 C.3   1 <1>   0.2650 
 20 C        9.2890     4.5190     1.2970 C.3   1 <1>  -0.0820 
 21 H       -0.9770    -0.2800     1.7120 H     1 <1>   0.0490 
 22 H        3.2440     1.5520     1.5320 H     1 <1>   0.4430 
 23 H       -0.8380    -2.1790     0.2040 H     1 <1>   0.1400 
 24 H        1.3370    -2.6320    -0.9950 H     1 <1>   0.1400 
 25 H        3.9450    -1.6080    -1.2110 H     1 <1>   0.1400 
 26 H        6.0170     0.7240     0.9340 H     1 <1>   0.0700 
 27 H        4.8960     2.2290    -1.3500 H     1 <1>   0.4430 
 28 H        7.4000     0.3580    -1.1590 H     1 <1>   0.0700 
 29 H        5.9980    -0.3580    -1.8940 H     1 <1>   0.0700 
 30 H        7.4060    -1.3380     0.6210 H     1 <1>   0.0700 
 31 H        7.5060    -2.0600    -0.9590 H     1 <1>   0.0700 
 32 H        6.0060    -2.1110    -0.0810 H     1 <1>   0.0700 
 33 H        7.7880     2.1930     1.0240 H     1 <1>   0.4430 
 34 H        4.6460     4.3250    -1.9990 H     1 <1>   0.0700 
 35 H        6.0140     5.1790    -2.6900 H     1 <1>   0.0700 
 36 H        5.1250     5.8830    -1.3580 H     1 <1>   0.0700 
 37 H       10.0970     3.8730     1.0050 H     1 <1>   0.0700 
 38 H        9.0840     4.3800     2.3430 H     1 <1>   0.0700 
 39 H        9.5930     5.5390     1.1400 H     1 <1>   0.0700 
@<TRIPOS>BOND
  1   1   2  1   
  2   1   3  2   
  3   2   4  ar  
  4   2   5  ar  
  5   3   6  1   
  6   3  21  1   
  7   4   7  1   
  8   4  22  1   
  9   5   8  1   
 10   5   9  1   
 11   6   8  2   
 12   6  23  1   
 13   7   9  2   
 14   7  10  1   
 15   8  24  1   
 16   9  25  1   
 17  10  11  1   
 18  10  12  1   
 19  10  26  1   
 20  11  13  ar  
 21  11  27  1   
 22  12  14  1   
 23  12  28  1   
 24  12  29  1   
 25  13  15  ar  
 26  13  16  ar  
 27  14  30  1   
 28  14  31  1   
 29  14  32  1   
 30  15  17  1   
 31  15  33  1   
 32  16  18  1   
 33  16  19  1   
 34  17  18  2   
 35  17  20  1   
 36  19  34  1   
 37  19  35  1   
 38  19  36  1   
 39  20  37  1   
 40  20  38  1   
 41  20  39  1   
@<TRIPOS>SUBSTRUCTURE
  1 ****  10 GROUP 4 **** **** 0

# MOE 2024.06 (io_trps.svl 2023.06)
