@<TRIPOS>MOLECULE
NONAME
50 52 1 0 0 
SMALL
USER_CHARGES


@<TRIPOS>ATOM
  1 S        0.2140    -0.0140    -1.9340 S.o2  1 <1>   1.4470 
  2 O       -0.4320     0.5610    -3.0930 O.2   1 <1>  -0.6500 
  3 O        1.3180    -0.9330    -2.1170 O.2   1 <1>  -0.6500 
  4 N        0.8230     1.2800    -1.0250 N.am  1 <1>  -0.8490 
  5 C       -1.0370    -0.7410    -0.8400 C.ar  1 <1>  -0.0090 
  6 C        1.6060     0.8270     0.1420 C.3   1 <1>   0.1960 
  7 C        1.6600     2.1600    -1.8600 C.3   1 <1>   0.1960 
  8 C       -0.9610    -2.0700    -0.4360 C.ar  1 <1>  -0.1500 
  9 C       -2.1030     0.0190    -0.3720 C.ar  1 <1>  -0.1500 
 10 C        2.0990     2.0090     0.9970 C.3   1 <1>   0.2090 
 11 C        2.1870     3.3850    -1.0850 C.3   1 <1>   0.2090 
 12 C       -1.9080    -2.6240     0.4090 C.ar  1 <1>  -0.1500 
 13 C       -3.0540    -0.5250     0.4730 C.ar  1 <1>  -0.1500 
 14 N        2.8880     2.9880     0.1800 N.pl3 1 <1>  -0.8380 
 15 C       -2.9650    -1.8470     0.8700 C.ar  1 <1>   0.0820 
 16 C        4.2150     3.1790     0.3750 C.ar  1 <1>   0.4100 
 17 O       -3.9350    -2.3050     1.6980 O.3   1 <1>  -0.3630 
 18 N        4.9400     2.0850     0.5190 N.ar  1 <1>  -0.6200 
 19 C        4.7870     4.4780     0.4240 C.ar  1 <1>  -0.1440 
 20 C       -3.9720    -3.6520     2.1160 C.3   1 <1>   0.0400 
 21 C        6.2370     2.2260     0.6660 C.ar  1 <1>   0.7710 
 22 C        6.1360     4.5650     0.5730 C.ar  1 <1>   0.2110 
 23 C        3.8880     5.7200     0.3410 C.3   1 <1>  -0.0170 
 24 N        6.8500     3.4200     0.6860 N.ar  1 <1>  -0.1790 
 25 N        6.9460     1.1080     0.7970 N.pl3 1 <1>  -0.9000 
 26 C        4.5290     7.0180     0.8480 C.3   1 <1>  -0.2400 
 27 H        2.4620     0.2570    -0.1830 H     1 <1>   0.0800 
 28 H        0.9980     0.1890     0.7600 H     1 <1>   0.0800 
 29 H        1.0840     2.5130    -2.6990 H     1 <1>   0.0800 
 30 H        2.4970     1.6030    -2.2480 H     1 <1>   0.0800 
 31 H       -0.1460    -2.6820    -0.7880 H     1 <1>   0.1500 
 32 H       -2.1870     1.0500    -0.6750 H     1 <1>   0.1500 
 33 H        2.6990     1.6350     1.8080 H     1 <1>   0.0800 
 34 H        1.2480     2.5110     1.4230 H     1 <1>   0.0800 
 35 H        1.3580     4.0270    -0.8430 H     1 <1>   0.0800 
 36 H        2.8590     3.9290    -1.7240 H     1 <1>   0.0800 
 37 H       -1.8070    -3.6540     0.6940 H     1 <1>   0.1500 
 38 H       -3.8750     0.0740     0.8280 H     1 <1>   0.1500 
 39 H       -4.8350    -3.7820     2.7430 H     1 <1>   0.0800 
 40 H       -3.0790    -3.8690     2.6750 H     1 <1>   0.0800 
 41 H       -4.0500    -4.2840     1.2500 H     1 <1>   0.0800 
 42 H        6.6690     5.5010     0.6160 H     1 <1>   0.1500 
 43 H        3.0020     5.5440     0.9290 H     1 <1>   0.0800 
 44 H        3.5750     5.8670    -0.6780 H     1 <1>   0.0800 
 45 H        7.8580     3.4200     0.8020 H     1 <1>   0.4570 
 46 H        7.9520     0.9920     0.9240 H     1 <1>   0.4000 
 47 H        6.4310     0.2220     0.7630 H     1 <1>   0.4000 
 48 H        4.8750     6.9030     1.8610 H     1 <1>   0.0800 
 49 H        3.7960     7.8060     0.8360 H     1 <1>   0.0800 
 50 H        5.3460     7.3220     0.2180 H     1 <1>   0.0800 
@<TRIPOS>BOND
  1   1   2  2   
  2   1   3  2   
  3   1   4  am  
  4   1   5  1   
  5   4   6  1   
  6   4   7  1   
  7   5   8  ar  
  8   5   9  ar  
  9   6  10  1   
 10   6  27  1   
 11   6  28  1   
 12   7  11  1   
 13   7  29  1   
 14   7  30  1   
 15   8  12  ar  
 16   8  31  1   
 17   9  13  ar  
 18   9  32  1   
 19  10  14  1   
 20  10  33  1   
 21  10  34  1   
 22  11  14  1   
 23  11  35  1   
 24  11  36  1   
 25  12  15  ar  
 26  12  37  1   
 27  13  15  ar  
 28  13  38  1   
 29  14  16  1   
 30  15  17  1   
 31  16  18  ar  
 32  16  19  ar  
 33  17  20  1   
 34  18  21  ar  
 35  19  22  ar  
 36  19  23  1   
 37  20  39  1   
 38  20  40  1   
 39  20  41  1   
 40  21  24  ar  
 41  21  25  1   
 42  22  24  ar  
 43  22  42  1   
 44  23  26  1   
 45  23  43  1   
 46  23  44  1   
 47  24  45  1   
 48  25  46  1   
 49  25  47  1   
 50  26  48  1   
 51  26  49  1   
 52  26  50  1   
@<TRIPOS>SUBSTRUCTURE
  1 ****   6 GROUP 4 **** **** 0

# MOE 2024.06 (io_trps.svl 2023.06)
