@<TRIPOS>MOLECULE
NONAME
48 50 1 0 0 
SMALL
USER_CHARGES


@<TRIPOS>ATOM
  1 O        1.7770    -1.4010     0.8300 O.co2 1 <1>  -0.9000 
  2 C        1.8760    -0.1720     0.9760 C.2   1 <1>   0.9060 
  3 O        1.7380     0.3430     2.0910 O.co2 1 <1>  -0.9000 
  4 C        2.1890     0.6940    -0.2620 C.3   1 <1>  -0.1060 
  5 C        3.3790     0.0650    -1.0340 C.3   1 <1>   0.2000 
  6 C        2.6170     2.1370     0.1380 C.3   1 <1>  -0.1600 
  7 C        0.9460     0.7320    -1.1930 C.3   1 <1>  -0.0160 
  8 O        3.0860    -1.2430    -1.3830 O.3   1 <1>  -0.6800 
  9 C        4.6820     0.0970    -0.2220 C.3   1 <1>   0.1400 
 10 C        3.9280     2.1610     0.9370 C.3   1 <1>   0.1400 
 11 C       -0.1610     1.6950    -0.7670 C.ar  1 <1>  -0.1440 
 12 N        5.0120     1.5130     0.1420 N.am  1 <1>  -0.6600 
 13 C       -0.9130     1.4470     0.3710 C.ar  1 <1>  -0.1500 
 14 C       -0.4290     2.8300    -1.5180 C.ar  1 <1>  -0.1500 
 15 C        6.1910     2.1010    -0.2520 C.2   1 <1>   0.5690 
 16 C       -1.9160     2.3190     0.7540 C.ar  1 <1>  -0.1500 
 17 C       -1.4330     3.7040    -1.1380 C.ar  1 <1>  -0.1500 
 18 O        7.0130     1.4880    -0.8950 O.2   1 <1>  -0.5700 
 19 C        6.5020     3.5610     0.1110 C.3   1 <1>  -0.0190 
 20 C       -2.1780     3.4490     0.0000 C.ar  1 <1>  -0.1500 
 21 C        7.6220     4.2270    -0.6970 C.3   1 <1>  -0.1600 
 22 C        6.9730     3.7470     1.5570 C.3   1 <1>  -0.1600 
 23 C        8.0220     5.4490     0.1300 C.3   1 <1>  -0.1600 
 24 C        7.6930     5.1000     1.5860 C.3   1 <1>  -0.1600 
 25 H        3.5500     0.5980    -1.9520 H     1 <1>   0.0800 
 26 H        1.8500     2.5830     0.7480 H     1 <1>   0.0800 
 27 H        2.7310     2.7470    -0.7390 H     1 <1>   0.0800 
 28 H        1.2630     0.9990    -2.1850 H     1 <1>   0.0800 
 29 H        0.5280    -0.2580    -1.2640 H     1 <1>   0.0800 
 30 H        2.5860    -1.6250    -0.5960 H     1 <1>   0.4000 
 31 H        5.4710    -0.3390    -0.8080 H     1 <1>   0.0800 
 32 H        4.5660    -0.4800     0.6800 H     1 <1>   0.0800 
 33 H        3.8070     1.6230     1.8630 H     1 <1>   0.0800 
 34 H        4.1670     3.1750     1.1870 H     1 <1>   0.0800 
 35 H       -0.7130     0.5720     0.9700 H     1 <1>   0.1500 
 36 H        0.1460     3.0380    -2.4020 H     1 <1>   0.1500 
 37 H       -2.4850     2.1130     1.6430 H     1 <1>   0.1500 
 38 H       -1.6340     4.5810    -1.7260 H     1 <1>   0.1500 
 39 H        5.6180     4.1500    -0.0500 H     1 <1>   0.0800 
 40 H       -2.9570     4.1260     0.3000 H     1 <1>   0.1500 
 41 H        8.4660     3.5610    -0.7670 H     1 <1>   0.0800 
 42 H        7.3010     4.4890    -1.6900 H     1 <1>   0.0800 
 43 H        6.1590     3.7100     2.2590 H     1 <1>   0.0800 
 44 H        7.6740     2.9660     1.7980 H     1 <1>   0.0800 
 45 H        9.0660     5.6810     0.0010 H     1 <1>   0.0800 
 46 H        7.4360     6.2990    -0.1770 H     1 <1>   0.0800 
 47 H        7.0510     5.8550     2.0060 H     1 <1>   0.0800 
 48 H        8.5880     5.0350     2.1800 H     1 <1>   0.0800 
@<TRIPOS>BOND
  1   1   2  ar  
  2   2   3  ar  
  3   2   4  1   
  4   4   5  1   
  5   4   6  1   
  6   4   7  1   
  7   5   8  1   
  8   5   9  1   
  9   5  25  1   
 10   6  10  1   
 11   6  26  1   
 12   6  27  1   
 13   7  11  1   
 14   7  28  1   
 15   7  29  1   
 16   8  30  1   
 17   9  12  1   
 18   9  31  1   
 19   9  32  1   
 20  10  12  1   
 21  10  33  1   
 22  10  34  1   
 23  11  13  ar  
 24  11  14  ar  
 25  12  15  am  
 26  13  16  ar  
 27  13  35  1   
 28  14  17  ar  
 29  14  36  1   
 30  15  18  2   
 31  15  19  1   
 32  16  20  ar  
 33  16  37  1   
 34  17  20  ar  
 35  17  38  1   
 36  19  21  1   
 37  19  22  1   
 38  19  39  1   
 39  20  40  1   
 40  21  23  1   
 41  21  41  1   
 42  21  42  1   
 43  22  24  1   
 44  22  43  1   
 45  22  44  1   
 46  23  24  1   
 47  23  45  1   
 48  23  46  1   
 49  24  47  1   
 50  24  48  1   
@<TRIPOS>SUBSTRUCTURE
  1 ****   6 GROUP 4 **** **** 0

# MOE 2024.06 (io_trps.svl 2023.06)
