@<TRIPOS>MOLECULE
NONAME
40 42 1 0 0 
SMALL
USER_CHARGES


@<TRIPOS>ATOM
  1 S       -0.5400     0.7470    -0.5790 S.3   1 <1>  -0.0800 
  2 C       -1.8990    -0.3000    -0.9420 C.2   1 <1>  -0.1100 
  3 C       -1.1350     1.0270     1.0460 C.2   1 <1>  -0.1100 
  4 C       -2.7290    -0.3940     0.1160 C.2   1 <1>  -0.1810 
  5 C       -2.2840     0.3610     1.2550 C.2   1 <1>  -0.1500 
  6 C       -4.0080    -1.2020     0.1520 C.3   1 <1>   0.5240 
  7 N       -5.0980    -0.3850    -0.4460 N.4   1 <1>  -0.9590 
  8 C       -5.4050     0.8270     0.3710 C.3   1 <1>   0.3430 
  9 C       -6.3090    -1.2110    -0.7120 C.3   1 <1>   0.3430 
 10 C       -6.4330     1.6920    -0.3470 C.3   1 <1>  -0.1600 
 11 C       -7.3530    -0.3750    -1.4400 C.3   1 <1>  -0.1600 
 12 C       -7.6990     0.8960    -0.6680 C.3   1 <1>   0.4180 
 13 O       -8.4780     1.6490    -1.5500 O.3   1 <1>  -0.5600 
 14 C       -8.4860     0.5570     0.5990 C.2   1 <1>  -0.2880 
 15 C       -9.2840     2.6610    -1.0100 C.3   1 <1>   0.1200 
 16 C       -9.6860     1.0680     0.8820 C.2   1 <1>  -0.2760 
 17 C      -10.3340     2.0660    -0.0620 C.3   1 <1>  -0.0220 
 18 C      -10.5060     0.7190     2.1120 C.3   1 <1>  -0.1020 
 19 H       -1.9190    -0.7320    -1.9280 H     1 <1>   0.1500 
 20 H       -0.5450     1.6680     1.6810 H     1 <1>   0.1500 
 21 H       -2.8290     0.3730     2.1840 H     1 <1>   0.1500 
 22 H       -4.2480    -1.4810     1.1650 H     1 <1>   0.0800 
 23 H       -3.8680    -2.1010    -0.4270 H     1 <1>   0.0800 
 24 H       -4.7320    -0.0470    -1.3470 H     1 <1>   0.4500 
 25 H       -4.5090     1.4060     0.5280 H     1 <1>   0.0800 
 26 H       -5.7920     0.5340     1.3340 H     1 <1>   0.0800 
 27 H       -6.7220    -1.5700     0.2170 H     1 <1>   0.0800 
 28 H       -6.0520    -2.0640    -1.3210 H     1 <1>   0.0800 
 29 H       -6.0040     2.0790    -1.2540 H     1 <1>   0.0800 
 30 H       -6.6810     2.5220     0.2890 H     1 <1>   0.0800 
 31 H       -8.2470    -0.9590    -1.5680 H     1 <1>   0.0800 
 32 H       -6.9830    -0.1180    -2.4170 H     1 <1>   0.0800 
 33 H       -8.0000    -0.1400     1.2530 H     1 <1>   0.1500 
 34 H       -9.7660     3.1700    -1.8260 H     1 <1>   0.0800 
 35 H       -8.6580     3.3620    -0.4880 H     1 <1>   0.0800 
 36 H      -11.1060     1.5810    -0.6330 H     1 <1>   0.0800 
 37 H      -10.7850     2.8690     0.4940 H     1 <1>   0.0800 
 38 H      -11.4540     0.3040     1.8180 H     1 <1>   0.0800 
 39 H      -10.6830     1.6000     2.7040 H     1 <1>   0.0800 
 40 H       -9.9930    -0.0030     2.7210 H     1 <1>   0.0800 
@<TRIPOS>BOND
  1   1   2  1   
  2   1   3  1   
  3   2   4  2   
  4   2  19  1   
  5   3   5  2   
  6   3  20  1   
  7   4   5  1   
  8   4   6  1   
  9   5  21  1   
 10   6   7  1   
 11   6  22  1   
 12   6  23  1   
 13   7   8  1   
 14   7   9  1   
 15   7  24  1   
 16   8  10  1   
 17   8  25  1   
 18   8  26  1   
 19   9  11  1   
 20   9  27  1   
 21   9  28  1   
 22  10  12  1   
 23  10  29  1   
 24  10  30  1   
 25  11  12  1   
 26  11  31  1   
 27  11  32  1   
 28  12  13  1   
 29  12  14  1   
 30  13  15  1   
 31  14  16  2   
 32  14  33  1   
 33  15  17  1   
 34  15  34  1   
 35  15  35  1   
 36  16  17  1   
 37  16  18  1   
 38  17  36  1   
 39  17  37  1   
 40  18  38  1   
 41  18  39  1   
 42  18  40  1   
@<TRIPOS>SUBSTRUCTURE
  1 ****   8 GROUP 4 **** **** 0

# MOE 2024.06 (io_trps.svl 2023.06)
