@<TRIPOS>MOLECULE
NONAME
48 50 1 0 0 
SMALL
USER_CHARGES


@<TRIPOS>ATOM
  1 O       -1.3740    -1.6290     0.2450 O.2   1 <1>  -0.5700 
  2 C       -0.3420    -2.2310     0.3790 C.2   1 <1>   0.5690 
  3 N       -0.2940    -3.4350     0.9840 N.am  1 <1>  -0.7300 
  4 C        0.9640    -1.6520    -0.1210 C.3   1 <1>  -0.0990 
  5 C        0.9520    -4.1960     1.1920 C.3   1 <1>   0.1400 
  6 C        1.8050    -2.7410    -0.8180 C.3   1 <1>  -0.0800 
  7 C        1.8390    -4.0980    -0.0690 C.3   1 <1>  -0.0800 
  8 C        3.2660    -2.3240    -1.0430 C.3   1 <1>  -0.1600 
  9 C        3.3200    -4.3890     0.2080 C.3   1 <1>  -0.1600 
 10 C        4.0640    -3.6130    -0.8790 C.3   1 <1>   0.4230 
 11 N        5.5090    -3.3680    -0.5910 N.4   1 <1>  -0.9590 
 12 C        5.7910    -2.6580     0.6940 C.3   1 <1>   0.3430 
 13 C        6.2860    -4.6450    -0.6750 C.3   1 <1>   0.2630 
 14 C        6.6730    -1.4360     0.4370 C.3   1 <1>  -0.1600 
 15 C        8.0860    -1.7730    -0.0620 C.3   1 <1>  -0.0170 
 16 C        8.8840    -0.4940    -0.2310 C.ar  1 <1>  -0.1440 
 17 C        8.9130     0.1610    -1.4540 C.ar  1 <1>  -0.1500 
 18 C        9.5890     0.0350     0.8400 C.ar  1 <1>  -0.1500 
 19 C        9.6370     1.3310    -1.6020 C.ar  1 <1>  -0.1500 
 20 C       10.3120     1.2050     0.6910 C.ar  1 <1>  -0.1500 
 21 C       10.3360     1.8550    -0.5300 C.ar  1 <1>  -0.1500 
 22 H       -1.1730    -3.8070     1.3560 H     1 <1>   0.3700 
 23 H        0.7570    -0.8460    -0.8030 H     1 <1>   0.0800 
 24 H        1.4820    -1.2490     0.7290 H     1 <1>   0.0800 
 25 H        1.4580    -3.7810     2.0470 H     1 <1>   0.0800 
 26 H        0.7180    -5.2270     1.4010 H     1 <1>   0.0800 
 27 H        1.3500    -2.9230    -1.7790 H     1 <1>   0.0800 
 28 H        1.4800    -4.8460    -0.7580 H     1 <1>   0.0800 
 29 H        3.5470    -1.5950    -0.3050 H     1 <1>   0.0800 
 30 H        3.3950    -1.9020    -2.0240 H     1 <1>   0.0800 
 31 H        3.5190    -5.4450     0.1520 H     1 <1>   0.0800 
 32 H        3.5750    -4.0250     1.1860 H     1 <1>   0.0800 
 33 H        3.9740    -4.1680    -1.8000 H     1 <1>   0.0800 
 34 H        5.8430    -2.7470    -1.3410 H     1 <1>   0.4500 
 35 H        4.8690    -2.3250     1.1420 H     1 <1>   0.0800 
 36 H        6.2760    -3.3210     1.3930 H     1 <1>   0.0800 
 37 H        5.9670    -5.3300     0.0950 H     1 <1>   0.0800 
 38 H        7.3400    -4.4550    -0.5480 H     1 <1>   0.0800 
 39 H        6.1370    -5.1130    -1.6350 H     1 <1>   0.0800 
 40 H        6.1860    -0.7720    -0.2560 H     1 <1>   0.0800 
 41 H        6.7680    -0.8990     1.3650 H     1 <1>   0.0800 
 42 H        8.0510    -2.2870    -1.0060 H     1 <1>   0.0800 
 43 H        8.5880    -2.4120     0.6450 H     1 <1>   0.0800 
 44 H        8.3780    -0.2300    -2.3000 H     1 <1>   0.1500 
 45 H        9.5820    -0.4570     1.7960 H     1 <1>   0.1500 
 46 H        9.6580     1.8370    -2.5530 H     1 <1>   0.1500 
 47 H       10.8570     1.6120     1.5250 H     1 <1>   0.1500 
 48 H       10.8980     2.7650    -0.6450 H     1 <1>   0.1500 
@<TRIPOS>BOND
  1   1   2  2   
  2   2   3  am  
  3   2   4  1   
  4   3   5  1   
  5   3  22  1   
  6   4   6  1   
  7   4  23  1   
  8   4  24  1   
  9   5   7  1   
 10   5  25  1   
 11   5  26  1   
 12   6   7  1   
 13   6   8  1   
 14   6  27  1   
 15   7   9  1   
 16   7  28  1   
 17   8  10  1   
 18   8  29  1   
 19   8  30  1   
 20   9  10  1   
 21   9  31  1   
 22   9  32  1   
 23  10  11  1   
 24  10  33  1   
 25  11  12  1   
 26  11  13  1   
 27  11  34  1   
 28  12  14  1   
 29  12  35  1   
 30  12  36  1   
 31  13  37  1   
 32  13  38  1   
 33  13  39  1   
 34  14  15  1   
 35  14  40  1   
 36  14  41  1   
 37  15  16  1   
 38  15  42  1   
 39  15  43  1   
 40  16  17  ar  
 41  16  18  ar  
 42  17  19  ar  
 43  17  44  1   
 44  18  20  ar  
 45  18  45  1   
 46  19  21  ar  
 47  19  46  1   
 48  20  21  ar  
 49  20  47  1   
 50  21  48  1   
@<TRIPOS>SUBSTRUCTURE
  1 ****  12 GROUP 4 **** **** 0

# MOE 2024.06 (io_trps.svl 2023.06)
