@<TRIPOS>MOLECULE
NONAME
44 45 1 0 0 
SMALL
USER_CHARGES


@<TRIPOS>ATOM
  1 CL       1.4180    -0.5540     0.8880 Cl    1 <1>  -0.1770 
  2 C        0.6400    -2.0410     0.4210 C.ar  1 <1>   0.1770 
  3 C        1.4080    -3.1640     0.1810 C.ar  1 <1>  -0.1500 
  4 C       -0.7330    -2.0800     0.2930 C.ar  1 <1>  -0.1500 
  5 C        0.8010    -4.3540    -0.1910 C.ar  1 <1>  -0.1440 
  6 C       -1.3380    -3.2670    -0.0730 C.ar  1 <1>  -0.1500 
  7 C       -0.5970    -4.4280    -0.3100 C.ar  1 <1>   0.0860 
  8 C        1.6930    -5.5570    -0.4790 C.3   1 <1>  -0.0960 
  9 C       -1.3070    -5.6440    -0.6610 C.2   1 <1>   0.5440 
 10 O       -2.1170    -5.6550    -1.5670 O.2   1 <1>  -0.5700 
 11 N       -1.1240    -6.7900     0.0570 N.am  1 <1>  -0.7300 
 12 C       -1.8220    -8.0680    -0.2070 C.3   1 <1>   0.2200 
 13 C       -3.1840    -8.0510     0.4920 C.3   1 <1>  -0.0800 
 14 C       -1.0950    -9.2210     0.4790 C.3   1 <1>   0.1200 
 15 C       -3.0580    -9.1340     1.5710 C.3   1 <1>   0.1200 
 16 C       -4.3760    -8.1640    -0.4850 C.3   1 <1>  -0.0550 
 17 O       -1.6900    -9.3250     1.7310 O.3   1 <1>  -0.5600 
 18 S       -4.5950    -9.7180    -1.3670 S.o2  1 <1>   1.3330 
 19 O       -5.5470    -9.5220    -2.4360 O.2   1 <1>  -0.6500 
 20 O       -3.2980   -10.2850    -1.6640 O.2   1 <1>  -0.6500 
 21 N       -5.3500   -10.7200    -0.2190 N.am  1 <1>  -0.8490 
 22 C       -6.8030   -10.5310    -0.1440 C.3   1 <1>   0.1160 
 23 C       -5.0480   -12.1380    -0.4360 C.3   1 <1>   0.1160 
 24 H        2.4760    -3.0910     0.2830 H     1 <1>   0.1500 
 25 H       -1.3130    -1.1930     0.4760 H     1 <1>   0.1500 
 26 H       -2.4090    -3.3070    -0.1810 H     1 <1>   0.1500 
 27 H        2.7110    -5.2510    -0.6400 H     1 <1>   0.0800 
 28 H        1.3580    -6.0690    -1.3650 H     1 <1>   0.0800 
 29 H        1.6710    -6.2430     0.3480 H     1 <1>   0.0800 
 30 H       -0.6210    -6.7550     0.9450 H     1 <1>   0.3700 
 31 H       -1.8860    -8.2310    -1.2710 H     1 <1>   0.0800 
 32 H       -3.3000    -7.1130     1.0080 H     1 <1>   0.0800 
 33 H       -0.0390    -9.0500     0.5880 H     1 <1>   0.0800 
 34 H       -1.2650   -10.1460    -0.0470 H     1 <1>   0.0800 
 35 H       -3.4750   -10.0770     1.2720 H     1 <1>   0.0800 
 36 H       -3.4820    -8.8300     2.5120 H     1 <1>   0.0800 
 37 H       -4.2570    -7.3850    -1.2150 H     1 <1>   0.0800 
 38 H       -5.2780    -7.9440     0.0510 H     1 <1>   0.0800 
 39 H       -7.2110   -11.1160     0.6620 H     1 <1>   0.0800 
 40 H       -7.2710   -10.8330    -1.0670 H     1 <1>   0.0800 
 41 H       -7.0360    -9.4960     0.0370 H     1 <1>   0.0800 
 42 H       -5.5340   -12.7430     0.3100 H     1 <1>   0.0800 
 43 H       -3.9860   -12.3060    -0.3630 H     1 <1>   0.0800 
 44 H       -5.3790   -12.4460    -1.4140 H     1 <1>   0.0800 
@<TRIPOS>BOND
  1   1   2  1   
  2   2   3  ar  
  3   2   4  ar  
  4   3   5  ar  
  5   3  24  1   
  6   4   6  ar  
  7   4  25  1   
  8   5   7  ar  
  9   5   8  1   
 10   6   7  ar  
 11   6  26  1   
 12   7   9  1   
 13   8  27  1   
 14   8  28  1   
 15   8  29  1   
 16   9  10  2   
 17   9  11  am  
 18  11  12  1   
 19  11  30  1   
 20  12  13  1   
 21  12  14  1   
 22  12  31  1   
 23  13  15  1   
 24  13  16  1   
 25  13  32  1   
 26  14  17  1   
 27  14  33  1   
 28  14  34  1   
 29  15  17  1   
 30  15  35  1   
 31  15  36  1   
 32  16  18  1   
 33  16  37  1   
 34  16  38  1   
 35  18  19  2   
 36  18  20  2   
 37  18  21  am  
 38  21  22  1   
 39  21  23  1   
 40  22  39  1   
 41  22  40  1   
 42  22  41  1   
 43  23  42  1   
 44  23  43  1   
 45  23  44  1   
@<TRIPOS>SUBSTRUCTURE
  1 ****  11 GROUP 4 **** **** 0

# MOE 2024.06 (io_trps.svl 2023.06)
