@<TRIPOS>MOLECULE
NONAME
44 48 1 0 0 
SMALL
USER_CHARGES


@<TRIPOS>ATOM
  1 S       -0.5460     0.2710    -1.0140 S.3   1 <1>  -0.0800 
  2 C       -1.4440    -1.1050    -0.3510 C.2   1 <1>   0.4620 
  3 C        0.9580    -0.5630    -0.7050 C.ar  1 <1>   0.0400 
  4 N       -0.6940    -2.0650     0.0510 N.2   1 <1>  -0.5650 
  5 N       -2.8200    -1.0640    -0.3020 N.pl3 1 <1>  -0.8220 
  6 C        0.6500    -1.7850    -0.1380 C.ar  1 <1>   0.2270 
  7 C        2.2480    -0.1360    -0.9570 C.ar  1 <1>  -0.1500 
  8 C       -3.6640     0.0810    -0.7670 C.3   1 <1>   0.2090 
  9 C       -3.5670    -2.2010     0.3130 C.3   1 <1>   0.2090 
 10 C        1.7000    -2.6290     0.1970 C.ar  1 <1>  -0.1500 
 11 C        3.2820    -0.9920    -0.6150 C.ar  1 <1>  -0.1500 
 12 C       -4.4520     0.6950     0.4130 C.3   1 <1>   0.1430 
 13 C       -4.9880    -1.7920     0.7400 C.3   1 <1>  -0.1600 
 14 C        3.0070    -2.2310    -0.0410 C.ar  1 <1>  -0.1500 
 15 C       -5.5500     1.5600    -0.1820 C.ar  1 <1>   0.1660 
 16 C       -4.9980    -0.3930     1.3790 C.3   1 <1>  -0.1600 
 17 C       -3.5950     1.7410     1.1750 C.3   1 <1>  -0.1600 
 18 N       -6.6600     1.1180    -0.7310 N.ar  1 <1>  -0.6200 
 19 C       -5.2430     2.8860    -0.1010 C.ar  1 <1>  -0.1430 
 20 C       -3.9050     3.1140     0.5550 C.3   1 <1>  -0.0160 
 21 C       -7.4630     2.0690    -1.1880 C.ar  1 <1>   0.4770 
 22 C       -6.1480     3.7860    -0.6080 C.ar  1 <1>   0.1600 
 23 N       -7.2740     3.3820    -1.1580 N.ar  1 <1>  -0.6200 
 24 C       -8.7540     1.6040    -1.8160 C.3   1 <1>  -0.0970 
 25 H        2.4330     0.8250    -1.4010 H     1 <1>   0.1500 
 26 H       -4.3600    -0.2940    -1.4980 H     1 <1>   0.0800 
 27 H       -3.0810     0.8410    -1.2530 H     1 <1>   0.0800 
 28 H       -3.0250    -2.5370     1.1820 H     1 <1>   0.0800 
 29 H       -3.6110    -3.0180    -0.3860 H     1 <1>   0.0800 
 30 H        1.4790    -3.5830     0.6390 H     1 <1>   0.1500 
 31 H        4.3030    -0.7000    -0.7930 H     1 <1>   0.1500 
 32 H       -5.3680    -2.5170     1.4370 H     1 <1>   0.0800 
 33 H       -5.6360    -1.8020    -0.1190 H     1 <1>   0.0800 
 34 H        3.8200    -2.8870     0.2190 H     1 <1>   0.1500 
 35 H       -5.9940    -0.1390     1.6970 H     1 <1>   0.0800 
 36 H       -4.3780    -0.4410     2.2570 H     1 <1>   0.0800 
 37 H       -2.5450     1.5080     1.1430 H     1 <1>   0.0800 
 38 H       -3.9020     1.7740     2.2060 H     1 <1>   0.0800 
 39 H       -3.1730     3.3690    -0.1910 H     1 <1>   0.0800 
 40 H       -3.9520     3.8860     1.3040 H     1 <1>   0.0800 
 41 H       -5.9510     4.8430    -0.5640 H     1 <1>   0.1500 
 42 H       -8.6620     0.5860    -2.1470 H     1 <1>   0.0800 
 43 H       -8.9960     2.2250    -2.6580 H     1 <1>   0.0800 
 44 H       -9.5430     1.6690    -1.0910 H     1 <1>   0.0800 
@<TRIPOS>BOND
  1   1   2  1   
  2   1   3  1   
  3   2   4  2   
  4   2   5  1   
  5   3   6  ar  
  6   3   7  ar  
  7   4   6  1   
  8   5   8  1   
  9   5   9  1   
 10   6  10  ar  
 11   7  11  ar  
 12   7  25  1   
 13   8  12  1   
 14   8  26  1   
 15   8  27  1   
 16   9  13  1   
 17   9  28  1   
 18   9  29  1   
 19  10  14  ar  
 20  10  30  1   
 21  11  14  ar  
 22  11  31  1   
 23  12  15  1   
 24  12  16  1   
 25  12  17  1   
 26  13  16  1   
 27  13  32  1   
 28  13  33  1   
 29  14  34  1   
 30  15  18  ar  
 31  15  19  ar  
 32  16  35  1   
 33  16  36  1   
 34  17  20  1   
 35  17  37  1   
 36  17  38  1   
 37  18  21  ar  
 38  19  20  1   
 39  19  22  ar  
 40  20  39  1   
 41  20  40  1   
 42  21  23  ar  
 43  21  24  1   
 44  22  23  ar  
 45  22  41  1   
 46  24  42  1   
 47  24  43  1   
 48  24  44  1   
@<TRIPOS>SUBSTRUCTURE
  1 ****   8 GROUP 4 **** **** 0

# MOE 2024.06 (io_trps.svl 2023.06)
