@<TRIPOS>MOLECULE
NONAME
50 53 1 0 0 
SMALL
USER_CHARGES


@<TRIPOS>ATOM
  1 O       -2.3070     1.5350     2.1410 O.2   1 <1>  -0.5700 
  2 C       -2.6540     1.5250     0.9750 C.2   1 <1>   0.7160 
  3 N       -3.8910     1.0220     0.6350 N.am  1 <1>  -0.6600 
  4 C       -1.7500     2.0100    -0.0310 C.2   1 <1>  -0.0860 
  5 C       -4.7950     0.4030     1.6420 C.3   1 <1>   0.1400 
  6 C       -4.3140     0.7600    -0.7690 C.3   1 <1>   0.1400 
  7 C       -1.7580     3.1230    -0.7920 C.2   1 <1>  -0.0400 
  8 C       -0.6050     1.3810    -0.4830 C.2   1 <1>   0.1080 
  9 C       -4.7830    -1.1150     1.4460 C.3   1 <1>  -0.1600 
 10 C       -4.2960    -0.7500    -1.0170 C.3   1 <1>  -0.1600 
 11 O       -0.7410     3.1670    -1.6180 O.3   1 <1>  -0.0190 
 12 C       -2.7520     4.2670    -0.8030 C.3   1 <1>  -0.0600 
 13 N       -0.0450     2.0710    -1.4040 N.2   1 <1>  -0.4100 
 14 C       -0.0850     0.0550     0.0290 C.3   1 <1>  -0.0590 
 15 C       -5.1590    -1.5150     0.0030 C.3   1 <1>   0.4240 
 16 O       -6.4590    -1.0160    -0.2260 O.3   1 <1>  -0.5600 
 17 C       -5.0800    -3.0500    -0.2330 C.ar  1 <1>  -0.1430 
 18 C       -7.5360    -1.7930     0.1860 C.3   1 <1>   0.1200 
 19 C       -3.8770    -3.7620    -0.1210 C.ar  1 <1>   0.0830 
 20 C       -6.2330    -3.7610    -0.5650 C.ar  1 <1>  -0.1430 
 21 C       -7.5660    -3.0490    -0.6690 C.3   1 <1>  -0.0170 
 22 O       -2.7430    -3.0970     0.2300 O.3   1 <1>  -0.3630 
 23 C       -3.8490    -5.1340    -0.3640 C.ar  1 <1>  -0.1500 
 24 C       -6.1930    -5.1240    -0.8020 C.ar  1 <1>  -0.1500 
 25 C       -1.5600    -3.7670     0.6100 C.3   1 <1>   0.0400 
 26 C       -5.0020    -5.8120    -0.7040 C.ar  1 <1>  -0.1500 
 27 H       -5.7910     0.7880     1.5070 H     1 <1>   0.0800 
 28 H       -4.4780     0.6460     2.6420 H     1 <1>   0.0800 
 29 H       -3.6650     1.2480    -1.4740 H     1 <1>   0.0800 
 30 H       -5.3090     1.1460    -0.9150 H     1 <1>   0.0800 
 31 H       -5.4500    -1.5820     2.1440 H     1 <1>   0.0800 
 32 H       -3.7970    -1.4600     1.6850 H     1 <1>   0.0800 
 33 H       -3.2760    -1.0750    -0.9780 H     1 <1>   0.0800 
 34 H       -4.6580    -0.9610    -2.0060 H     1 <1>   0.0800 
 35 H       -3.5290     4.0990    -0.0790 H     1 <1>   0.0800 
 36 H       -3.1950     4.3560    -1.7780 H     1 <1>   0.0800 
 37 H       -2.2480     5.1860    -0.5640 H     1 <1>   0.0800 
 38 H        0.0830     0.1160     1.0890 H     1 <1>   0.0800 
 39 H        0.8400    -0.1920    -0.4580 H     1 <1>   0.0800 
 40 H       -0.8040    -0.7180    -0.1700 H     1 <1>   0.0800 
 41 H       -8.4340    -1.2170     0.0450 H     1 <1>   0.0800 
 42 H       -7.4280    -2.0320     1.2290 H     1 <1>   0.0800 
 43 H       -7.7600    -2.7840    -1.6930 H     1 <1>   0.0800 
 44 H       -8.3600    -3.6890    -0.3270 H     1 <1>   0.0800 
 45 H       -2.9390    -5.6980    -0.2980 H     1 <1>   0.1500 
 46 H       -7.0900    -5.6570    -1.0640 H     1 <1>   0.1500 
 47 H       -0.8580    -3.0340     0.9620 H     1 <1>   0.0800 
 48 H       -1.1570    -4.2760    -0.2470 H     1 <1>   0.0800 
 49 H       -1.7900    -4.4600     1.4000 H     1 <1>   0.0800 
 50 H       -4.9730    -6.8710    -0.8910 H     1 <1>   0.1500 
@<TRIPOS>BOND
  1   1   2  2   
  2   2   3  am  
  3   2   4  1   
  4   3   5  1   
  5   3   6  1   
  6   4   7  2   
  7   4   8  1   
  8   5   9  1   
  9   5  27  1   
 10   5  28  1   
 11   6  10  1   
 12   6  29  1   
 13   6  30  1   
 14   7  11  1   
 15   7  12  1   
 16   8  13  2   
 17   8  14  1   
 18   9  15  1   
 19   9  31  1   
 20   9  32  1   
 21  10  15  1   
 22  10  33  1   
 23  10  34  1   
 24  11  13  1   
 25  12  35  1   
 26  12  36  1   
 27  12  37  1   
 28  14  38  1   
 29  14  39  1   
 30  14  40  1   
 31  15  16  1   
 32  15  17  1   
 33  16  18  1   
 34  17  19  ar  
 35  17  20  ar  
 36  18  21  1   
 37  18  41  1   
 38  18  42  1   
 39  19  22  1   
 40  19  23  ar  
 41  20  21  1   
 42  20  24  ar  
 43  21  43  1   
 44  21  44  1   
 45  22  25  1   
 46  23  26  ar  
 47  23  45  1   
 48  24  26  ar  
 49  24  46  1   
 50  25  47  1   
 51  25  48  1   
 52  25  49  1   
 53  26  50  1   
@<TRIPOS>SUBSTRUCTURE
  1 ****  10 GROUP 4 **** **** 0

# MOE 2024.06 (io_trps.svl 2023.06)
