@<TRIPOS>MOLECULE
NONAME
45 46 1 0 0 
SMALL
USER_CHARGES


@<TRIPOS>ATOM
  1 F        1.5730     1.1770     2.3810 F     1 <1>  -0.1900 
  2 C        2.1220     1.5380     1.2530 C.ar  1 <1>   0.1900 
  3 C        2.3610     2.8780     1.0320 C.ar  1 <1>  -0.1500 
  4 C        2.4420     0.5640     0.3280 C.ar  1 <1>  -0.1500 
  5 C        2.9540     3.2810    -0.1620 C.ar  1 <1>   0.0860 
  6 C        3.0240     0.9500    -0.8680 C.ar  1 <1>  -0.1440 
  7 C        3.2390     4.6760    -0.4290 C.2   1 <1>   0.5440 
  8 C        3.2680     2.2960    -1.1010 C.ar  1 <1>  -0.1500 
  9 C        3.3800    -0.0890    -1.9170 C.3   1 <1>  -0.0960 
 10 O        2.6830     5.2260    -1.3600 O.2   1 <1>  -0.5700 
 11 N        4.1440     5.3920     0.3260 N.am  1 <1>  -0.6600 
 12 C        5.1090     4.7780     1.2940 C.3   1 <1>   0.1400 
 13 C        4.3430     6.8520     0.1110 C.3   1 <1>   0.1400 
 14 C        6.4980     4.5560     0.6720 C.3   1 <1>   0.1400 
 15 C        5.2660     7.1300    -1.0850 C.3   1 <1>  -0.1600 
 16 N        7.0540     5.8040     0.0590 N.am  1 <1>  -0.6600 
 17 C        6.4420     6.1600    -1.2530 C.3   1 <1>   0.1400 
 18 C        8.0130     6.5460     0.7030 C.2   1 <1>   0.5690 
 19 O        8.4090     6.2390     1.8070 O.2   1 <1>  -0.5700 
 20 C        8.6020     7.8010     0.0440 C.3   1 <1>   0.2010 
 21 N        9.7070     8.4140     0.8340 N.am  1 <1>  -0.7300 
 22 C       10.6800     9.1650     0.2930 C.2   1 <1>   0.6900 
 23 O       10.6380     9.5260    -0.8630 O.2   1 <1>  -0.5700 
 24 N       11.7120     9.5210     1.0570 N.am  1 <1>  -0.8000 
 25 H        2.0880     3.6050     1.7750 H     1 <1>   0.1500 
 26 H        2.2350    -0.4690     0.5450 H     1 <1>   0.1500 
 27 H        3.7070     2.6070    -2.0330 H     1 <1>   0.1500 
 28 H        3.6390    -1.0220    -1.4500 H     1 <1>   0.0800 
 29 H        4.2180     0.2400    -2.5050 H     1 <1>   0.0800 
 30 H        2.5410    -0.2490    -2.5690 H     1 <1>   0.0800 
 31 H        4.7400     3.8340     1.6490 H     1 <1>   0.0800 
 32 H        5.2110     5.4190     2.1520 H     1 <1>   0.0800 
 33 H        4.7700     7.2850     0.9990 H     1 <1>   0.0800 
 34 H        3.3890     7.3230    -0.0540 H     1 <1>   0.0800 
 35 H        6.4320     3.7870    -0.0770 H     1 <1>   0.0800 
 36 H        7.1640     4.1950     1.4370 H     1 <1>   0.0800 
 37 H        5.6360     8.1350    -1.0040 H     1 <1>   0.0800 
 38 H        4.6740     7.0940    -1.9820 H     1 <1>   0.0800 
 39 H        7.1790     6.5860    -1.9110 H     1 <1>   0.0800 
 40 H        6.0810     5.2610    -1.7260 H     1 <1>   0.0800 
 41 H        7.8230     8.5310    -0.0750 H     1 <1>   0.0800 
 42 H        8.9760     7.5400    -0.9300 H     1 <1>   0.0800 
 43 H        9.8750     7.9350     1.7220 H     1 <1>   0.3700 
 44 H       12.3990    10.1610     0.6630 H     1 <1>   0.3700 
 45 H       11.6960     9.4150     2.0670 H     1 <1>   0.3700 
@<TRIPOS>BOND
  1   1   2  1   
  2   2   3  ar  
  3   2   4  ar  
  4   3   5  ar  
  5   3  25  1   
  6   4   6  ar  
  7   4  26  1   
  8   5   7  1   
  9   5   8  ar  
 10   6   8  ar  
 11   6   9  1   
 12   7  10  2   
 13   7  11  am  
 14   8  27  1   
 15   9  28  1   
 16   9  29  1   
 17   9  30  1   
 18  11  12  1   
 19  11  13  1   
 20  12  14  1   
 21  12  31  1   
 22  12  32  1   
 23  13  15  1   
 24  13  33  1   
 25  13  34  1   
 26  14  16  1   
 27  14  35  1   
 28  14  36  1   
 29  15  17  1   
 30  15  37  1   
 31  15  38  1   
 32  16  17  1   
 33  16  18  am  
 34  17  39  1   
 35  17  40  1   
 36  18  19  2   
 37  18  20  1   
 38  20  21  1   
 39  20  41  1   
 40  20  42  1   
 41  21  22  am  
 42  21  43  1   
 43  22  23  2   
 44  22  24  am  
 45  24  44  1   
 46  24  45  1   
@<TRIPOS>SUBSTRUCTURE
  1 ****  14 GROUP 4 **** **** 0

# MOE 2024.06 (io_trps.svl 2023.06)
