@<TRIPOS>MOLECULE
NONAME
50 51 1 0 0 
SMALL
USER_CHARGES


@<TRIPOS>ATOM
  1 O       -0.8120    -0.5920    -0.4890 O.2   1 <1>  -0.5700 
  2 C       -1.3520     0.2770     0.1720 C.2   1 <1>   0.5440 
  3 N       -2.3260    -0.0720     1.0810 N.am  1 <1>  -0.6600 
  4 C       -0.9500     1.6540    -0.0190 C.ar  1 <1>   0.0860 
  5 C       -2.7600    -1.4970     1.2280 C.3   1 <1>   0.3210 
  6 C       -3.1290     0.9260     1.8620 C.3   1 <1>   0.1400 
  7 C       -0.2720     2.3620     0.9700 C.ar  1 <1>  -0.1500 
  8 C       -1.2370     2.3230    -1.2050 C.ar  1 <1>  -0.1500 
  9 C       -4.1120    -1.7280     0.5580 C.2   1 <1>   0.0460 
 10 C       -3.9980     1.8650     0.9980 C.3   1 <1>   0.1200 
 11 C        0.0920     3.6850     0.8060 C.ar  1 <1>   0.0830 
 12 C       -0.8880     3.6480    -1.3890 C.ar  1 <1>  -0.1500 
 13 N       -5.2660    -1.4420     1.2010 N.2   1 <1>  -0.5650 
 14 C       -4.3630    -2.1940    -0.6880 C.2   1 <1>  -0.3320 
 15 O       -4.6180     1.1820    -0.0370 O.3   1 <1>  -0.6800 
 16 O        0.7480     4.2380     1.8650 O.3   1 <1>  -0.3630 
 17 C       -0.2310     4.3570    -0.3850 C.ar  1 <1>   0.0830 
 18 C       -6.1850    -1.7430     0.3420 C.2   1 <1>   0.0360 
 19 N       -5.7010    -2.2050    -0.8280 N.pl3 1 <1>   0.0330 
 20 C       -3.4130    -2.6190    -1.7950 C.3   1 <1>  -0.0600 
 21 C        1.7950     5.1610     1.6590 C.3   1 <1>   0.0400 
 22 O        0.0850     5.6740    -0.5240 O.3   1 <1>  -0.3630 
 23 C       -0.4000     6.5120    -1.5500 C.3   1 <1>   0.2000 
 24 C        0.4610     7.7740    -1.5350 C.3   1 <1>  -0.2400 
 25 C       -1.8670     6.8460    -1.2690 C.3   1 <1>  -0.2400 
 26 H       -2.8360    -1.7430     2.2710 H     1 <1>   0.0800 
 27 H       -2.0330    -2.1590     0.7950 H     1 <1>   0.0800 
 28 H       -2.4660     1.5220     2.4640 H     1 <1>   0.0800 
 29 H       -3.7790     0.4050     2.5440 H     1 <1>   0.0800 
 30 H       -0.0200     1.8640     1.8890 H     1 <1>   0.1500 
 31 H       -1.7510     1.7860    -1.9840 H     1 <1>   0.1500 
 32 H       -3.4070     2.6540     0.5680 H     1 <1>   0.0800 
 33 H       -4.7640     2.3110     1.6070 H     1 <1>   0.0800 
 34 H       -1.1440     4.1070    -2.3230 H     1 <1>   0.1500 
 35 H       -4.7650     0.2410     0.2390 H     1 <1>   0.4000 
 36 H       -7.2410    -1.6390     0.5210 H     1 <1>   0.1500 
 37 H       -6.2390    -2.4910    -1.6510 H     1 <1>   0.2700 
 38 H       -2.3910    -2.5270    -1.4760 H     1 <1>   0.0800 
 39 H       -3.5500    -1.9910    -2.6580 H     1 <1>   0.0800 
 40 H       -3.5940    -3.6420    -2.0720 H     1 <1>   0.0800 
 41 H        2.4200     5.1600     2.5340 H     1 <1>   0.0800 
 42 H        1.3740     6.1400     1.5160 H     1 <1>   0.0800 
 43 H        2.3660     4.8620     0.7980 H     1 <1>   0.0800 
 44 H       -0.2780     6.0170    -2.4970 H     1 <1>   0.0800 
 45 H        0.3820     8.2700    -0.5840 H     1 <1>   0.0800 
 46 H        0.1370     8.4500    -2.3050 H     1 <1>   0.0800 
 47 H        1.4890     7.5170    -1.7180 H     1 <1>   0.0800 
 48 H       -1.9630     7.3200    -0.3090 H     1 <1>   0.0800 
 49 H       -2.4710     5.9580    -1.2850 H     1 <1>   0.0800 
 50 H       -2.2400     7.5180    -2.0210 H     1 <1>   0.0800 
@<TRIPOS>BOND
  1   1   2  2   
  2   2   3  am  
  3   2   4  1   
  4   3   5  1   
  5   3   6  1   
  6   4   7  ar  
  7   4   8  ar  
  8   5   9  1   
  9   5  26  1   
 10   5  27  1   
 11   6  10  1   
 12   6  28  1   
 13   6  29  1   
 14   7  11  ar  
 15   7  30  1   
 16   8  12  ar  
 17   8  31  1   
 18   9  13  1   
 19   9  14  2   
 20  10  15  1   
 21  10  32  1   
 22  10  33  1   
 23  11  16  1   
 24  11  17  ar  
 25  12  17  ar  
 26  12  34  1   
 27  13  18  2   
 28  14  19  1   
 29  14  20  1   
 30  15  35  1   
 31  16  21  1   
 32  17  22  1   
 33  18  19  1   
 34  18  36  1   
 35  19  37  1   
 36  20  38  1   
 37  20  39  1   
 38  20  40  1   
 39  21  41  1   
 40  21  42  1   
 41  21  43  1   
 42  22  23  1   
 43  23  24  1   
 44  23  25  1   
 45  23  44  1   
 46  24  45  1   
 47  24  46  1   
 48  24  47  1   
 49  25  48  1   
 50  25  49  1   
 51  25  50  1   
@<TRIPOS>SUBSTRUCTURE
  1 ****   4 GROUP 4 **** **** 0

# MOE 2024.06 (io_trps.svl 2023.06)
