@<TRIPOS>MOLECULE
NONAME
56 58 1 0 0 
SMALL
USER_CHARGES


@<TRIPOS>ATOM
  1 O       -0.3920     0.2150    -1.1310 O.2   1 <1>  -0.5700 
  2 C       -1.4110     0.8570    -1.2970 C.2   1 <1>   0.5440 
  3 N       -2.6270     0.2340    -1.1100 N.am  1 <1>  -0.6600 
  4 C       -1.3160     2.2590    -1.6600 C.ar  1 <1>   0.0860 
  5 C       -3.8780     0.9580    -0.7220 C.3   1 <1>   0.1400 
  6 C       -2.7510    -1.2510    -0.9790 C.3   1 <1>   0.1400 
  7 C       -0.4300     3.1050    -0.9980 C.ar  1 <1>  -0.1500 
  8 C       -2.0960     2.8080    -2.6780 C.ar  1 <1>  -0.1500 
  9 C       -4.4110     0.4510     0.6360 C.3   1 <1>   0.2950 
 10 C       -3.3510    -1.6380     0.3890 C.3   1 <1>   0.2000 
 11 C       -0.3260     4.4540    -1.3040 C.ar  1 <1>   0.1170 
 12 C       -2.0070     4.1480    -3.0020 C.ar  1 <1>  -0.1500 
 13 O       -4.5460    -0.9400     0.6020 O.3   1 <1>  -0.5600 
 14 C       -5.7800     1.0230     1.0460 C.3   1 <1>  -0.1950 
 15 C       -3.6870    -3.1300     0.5010 C.3   1 <1>  -0.1600 
 16 N        0.5950     5.2390    -0.5950 N.am  1 <1>  -0.5470 
 17 C       -1.1290     4.9660    -2.3170 C.ar  1 <1>  -0.1500 
 18 C       -6.9330     1.1880     0.1050 C.3   1 <1>  -0.2000 
 19 C       -6.2500     2.3990     0.6780 C.3   1 <1>  -0.2000 
 20 C       -2.4440    -4.0340     0.4350 C.3   1 <1>  -0.1600 
 21 C        0.6110     6.5820    -0.3430 C.2   1 <1>   0.5690 
 22 C       -2.8240    -5.5040     0.6460 C.3   1 <1>  -0.1600 
 23 O       -0.2550     7.3430    -0.6960 O.2   1 <1>  -0.5700 
 24 C        1.7910     7.1350     0.4380 C.3   1 <1>  -0.0990 
 25 C       -1.5890    -6.4070     0.5790 C.3   1 <1>  -0.2400 
 26 C        1.7890     6.7010     1.9120 C.3   1 <1>  -0.2400 
 27 H       -3.6930     2.0130    -0.6440 H     1 <1>   0.0800 
 28 H       -4.6200     0.8010    -1.4830 H     1 <1>   0.0800 
 29 H       -3.3890    -1.6190    -1.7620 H     1 <1>   0.0800 
 30 H       -1.7900    -1.7180    -1.0950 H     1 <1>   0.0800 
 31 H        0.1860     2.6870    -0.2230 H     1 <1>   0.1500 
 32 H       -2.7740     2.1710    -3.2210 H     1 <1>   0.1500 
 33 H       -3.6970     0.6980     1.4030 H     1 <1>   0.0800 
 34 H       -2.6620    -1.3700     1.1730 H     1 <1>   0.0800 
 35 H       -2.6180     4.5590    -3.7880 H     1 <1>   0.1500 
 36 H       -6.0280     0.6970     2.0420 H     1 <1>   0.1000 
 37 H       -4.1810    -3.2910     1.4430 H     1 <1>   0.0800 
 38 H       -4.3690    -3.3990    -0.2870 H     1 <1>   0.0800 
 39 H        1.3530     4.7170    -0.1590 H     1 <1>   0.3700 
 40 H       -1.0660     6.0080    -2.5790 H     1 <1>   0.1500 
 41 H       -6.8040     0.9560    -0.9380 H     1 <1>   0.1000 
 42 H       -7.9150     0.9250     0.4580 H     1 <1>   0.1000 
 43 H       -6.7730     2.9780     1.4200 H     1 <1>   0.1000 
 44 H       -5.6810     3.0200     0.0090 H     1 <1>   0.1000 
 45 H       -1.9640    -3.9320    -0.5230 H     1 <1>   0.0800 
 46 H       -1.7430    -3.7350     1.1960 H     1 <1>   0.0800 
 47 H       -3.2960    -5.6220     1.6070 H     1 <1>   0.0800 
 48 H       -3.5270    -5.8100    -0.1100 H     1 <1>   0.0800 
 49 H        2.7010     6.8180    -0.0370 H     1 <1>   0.0800 
 50 H        1.7560     8.2090     0.3880 H     1 <1>   0.0800 
 51 H       -0.8810    -6.1340     1.3410 H     1 <1>   0.0800 
 52 H       -1.1130    -6.3240    -0.3820 H     1 <1>   0.0800 
 53 H       -1.8750    -7.4330     0.7310 H     1 <1>   0.0800 
 54 H        1.8650     5.6310     1.9990 H     1 <1>   0.0800 
 55 H        0.8790     7.0220     2.3890 H     1 <1>   0.0800 
 56 H        2.6200     7.1470     2.4290 H     1 <1>   0.0800 
@<TRIPOS>BOND
  1   1   2  2   
  2   2   3  am  
  3   2   4  1   
  4   3   5  1   
  5   3   6  1   
  6   4   7  ar  
  7   4   8  ar  
  8   5   9  1   
  9   5  27  1   
 10   5  28  1   
 11   6  10  1   
 12   6  29  1   
 13   6  30  1   
 14   7  11  ar  
 15   7  31  1   
 16   8  12  ar  
 17   8  32  1   
 18   9  13  1   
 19   9  14  1   
 20   9  33  1   
 21  10  13  1   
 22  10  15  1   
 23  10  34  1   
 24  11  16  1   
 25  11  17  ar  
 26  12  17  ar  
 27  12  35  1   
 28  14  18  1   
 29  14  19  1   
 30  14  36  1   
 31  15  20  1   
 32  15  37  1   
 33  15  38  1   
 34  16  21  am  
 35  16  39  1   
 36  17  40  1   
 37  18  19  1   
 38  18  41  1   
 39  18  42  1   
 40  19  43  1   
 41  19  44  1   
 42  20  22  1   
 43  20  45  1   
 44  20  46  1   
 45  21  23  2   
 46  21  24  1   
 47  22  25  1   
 48  22  47  1   
 49  22  48  1   
 50  24  26  1   
 51  24  49  1   
 52  24  50  1   
 53  25  51  1   
 54  25  52  1   
 55  25  53  1   
 56  26  54  1   
 57  26  55  1   
 58  26  56  1   
@<TRIPOS>SUBSTRUCTURE
  1 ****   2 GROUP 4 **** **** 0

# MOE 2024.06 (io_trps.svl 2023.06)
