@<TRIPOS>MOLECULE
NONAME
43 44 1 0 0 
SMALL
USER_CHARGES


@<TRIPOS>ATOM
  1 S        2.5450     0.2960     2.0730 S.3   1 <1>  -0.0800 
  2 C        3.6890     0.0520     0.7490 C.2   1 <1>  -0.0450 
  3 C        1.4950     1.2860     1.0880 C.2   1 <1>  -0.1100 
  4 C        4.8580    -0.7480     0.9830 C.2   1 <1>   0.5940 
  5 C        3.2260     0.7160    -0.3440 C.2   1 <1>  -0.1500 
  6 C        1.9980     1.4170    -0.1540 C.2   1 <1>  -0.1810 
  7 O        5.1480    -1.2350     2.0450 O.2   1 <1>  -0.5700 
  8 C        5.8040    -0.9920    -0.1730 C.3   1 <1>  -0.1790 
  9 C        1.3790     2.2430    -1.2790 C.3   1 <1>   0.0820 
 10 C        2.2190     3.4620    -1.6290 C.2   1 <1>   0.5690 
 11 O        2.0920     3.9510    -2.7250 O.2   1 <1>  -0.5700 
 12 N        3.0850     3.9290    -0.6780 N.am  1 <1>  -0.4940 
 13 C        4.0680     4.9470    -0.6780 C.2   1 <1>  -0.0880 
 14 N        4.0890     6.1120    -1.3830 N.pl3 1 <1>   0.3140 
 15 C        5.1860     4.9420     0.0860 C.2   1 <1>  -0.1810 
 16 N        5.1820     6.8470    -1.0810 N.2   1 <1>  -0.7070 
 17 C        3.0850     6.6550    -2.3060 C.3   1 <1>   0.0160 
 18 C        5.8300     6.1430    -0.2070 C.2   1 <1>   0.1080 
 19 C        5.6440     3.8580     1.0490 C.3   1 <1>   0.0210 
 20 C        7.1360     6.6280     0.3950 C.3   1 <1>   0.0210 
 21 C        5.0040     4.0520     2.4240 C.3   1 <1>  -0.2400 
 22 C        8.3370     6.1500    -0.4280 C.3   1 <1>  -0.2400 
 23 H        0.6050     1.6750     1.5530 H     1 <1>   0.1500 
 24 H        3.7240     0.7370    -1.2990 H     1 <1>   0.1500 
 25 H        5.2770    -1.4590    -0.9830 H     1 <1>   0.0800 
 26 H        6.6040    -1.6390     0.1390 H     1 <1>   0.0800 
 27 H        6.2220    -0.0600    -0.5040 H     1 <1>   0.0800 
 28 H        0.4010     2.5810    -0.9910 H     1 <1>   0.0800 
 29 H        1.2710     1.6310    -2.1570 H     1 <1>   0.0800 
 30 H        3.1140     3.3440     0.1600 H     1 <1>   0.3700 
 31 H        2.1030     6.4450    -1.9280 H     1 <1>   0.0800 
 32 H        3.2130     6.2000    -3.2690 H     1 <1>   0.0800 
 33 H        3.2200     7.7170    -2.3890 H     1 <1>   0.0800 
 34 H        6.7150     3.8770     1.1390 H     1 <1>   0.0800 
 35 H        5.3700     2.8940     0.6580 H     1 <1>   0.0800 
 36 H        7.2200     6.2790     1.4080 H     1 <1>   0.0800 
 37 H        7.1240     7.7030     0.4180 H     1 <1>   0.0800 
 38 H        5.2850     5.0060     2.8310 H     1 <1>   0.0800 
 39 H        5.3280     3.2770     3.0960 H     1 <1>   0.0800 
 40 H        3.9320     4.0150     2.3460 H     1 <1>   0.0800 
 41 H        8.3650     5.0760    -0.4580 H     1 <1>   0.0800 
 42 H        9.2520     6.5140     0.0020 H     1 <1>   0.0800 
 43 H        8.2540     6.5200    -1.4350 H     1 <1>   0.0800 
@<TRIPOS>BOND
  1   1   2  1   
  2   1   3  1   
  3   2   4  1   
  4   2   5  2   
  5   3   6  2   
  6   3  23  1   
  7   4   7  2   
  8   4   8  1   
  9   5   6  1   
 10   5  24  1   
 11   6   9  1   
 12   8  25  1   
 13   8  26  1   
 14   8  27  1   
 15   9  10  1   
 16   9  28  1   
 17   9  29  1   
 18  10  11  2   
 19  10  12  am  
 20  12  13  1   
 21  12  30  1   
 22  13  14  1   
 23  13  15  2   
 24  14  16  1   
 25  14  17  1   
 26  15  18  1   
 27  15  19  1   
 28  16  18  2   
 29  17  31  1   
 30  17  32  1   
 31  17  33  1   
 32  18  20  1   
 33  19  21  1   
 34  19  34  1   
 35  19  35  1   
 36  20  22  1   
 37  20  36  1   
 38  20  37  1   
 39  21  38  1   
 40  21  39  1   
 41  21  40  1   
 42  22  41  1   
 43  22  42  1   
 44  22  43  1   
@<TRIPOS>SUBSTRUCTURE
  1 ****  12 GROUP 4 **** **** 0

# MOE 2024.06 (io_trps.svl 2023.06)
