@<TRIPOS>MOLECULE
NONAME
45 46 1 0 0 
SMALL
USER_CHARGES


@<TRIPOS>ATOM
  1 CL       2.2550     1.1210     2.1620 Cl    1 <1>  -0.1770 
  2 C        1.8850     2.6650     1.4320 C.ar  1 <1>   0.1770 
  3 C        2.7380     3.7410     1.6060 C.ar  1 <1>   0.1600 
  4 C        0.7390     2.8080     0.6810 C.ar  1 <1>  -0.1500 
  5 N        2.5360     4.9460     1.0890 N.ar  1 <1>  -0.6200 
  6 C        0.5210     4.0560     0.1400 C.ar  1 <1>  -0.1500 
  7 C        1.4340     5.0900     0.3630 C.ar  1 <1>   0.4270 
  8 N        1.2840     6.3610    -0.1430 N.am  1 <1>  -0.5470 
  9 C        0.4110     6.9420    -1.0110 C.2   1 <1>   0.5690 
 10 O       -0.5020     6.3590    -1.5440 O.2   1 <1>  -0.5700 
 11 C        0.6230     8.4290    -1.3050 C.3   1 <1>   0.1710 
 12 N        2.0040     8.9130    -0.9940 N.3   1 <1>  -0.8100 
 13 C        2.0280    10.3720    -0.8200 C.3   1 <1>   0.1100 
 14 C        2.9550     8.4680    -2.0320 C.3   1 <1>   0.0300 
 15 C        3.3060    10.8040    -0.0950 C.3   1 <1>  -0.1600 
 16 C        3.2440    12.2780     0.3180 C.3   1 <1>   0.0210 
 17 C        4.5260    12.6740     1.0300 C.2   1 <1>  -0.1810 
 18 C        5.6650    13.2340     0.4520 C.2   1 <1>   0.1080 
 19 C        4.8260    12.5630     2.3420 C.2   1 <1>  -0.3320 
 20 N        6.5970    13.4610     1.3220 N.2   1 <1>  -0.7070 
 21 C        5.8460    13.5620    -1.0130 C.3   1 <1>  -0.0590 
 22 N        6.0780    13.0450     2.4900 N.pl3 1 <1>   0.3000 
 23 C        4.0060    12.0150     3.4980 C.3   1 <1>  -0.0600 
 24 H        3.6240     3.5980     2.1980 H     1 <1>   0.1500 
 25 H        0.0610     1.9870     0.5320 H     1 <1>   0.1500 
 26 H       -0.3570     4.2290    -0.4520 H     1 <1>   0.1500 
 27 H        2.0310     6.9990     0.1460 H     1 <1>   0.3700 
 28 H       -0.0880     8.9630    -0.7010 H     1 <1>   0.0800 
 29 H        0.3880     8.6200    -2.3370 H     1 <1>   0.0800 
 30 H        1.1870    10.6670    -0.2140 H     1 <1>   0.0800 
 31 H        1.9460    10.8670    -1.7730 H     1 <1>   0.0800 
 32 H        2.8890     7.4020    -2.1690 H     1 <1>   0.0800 
 33 H        3.9640     8.6970    -1.7380 H     1 <1>   0.0800 
 34 H        2.7440     8.9510    -2.9710 H     1 <1>   0.0800 
 35 H        4.1600    10.6620    -0.7300 H     1 <1>   0.0800 
 36 H        3.4340    10.2030     0.7880 H     1 <1>   0.0800 
 37 H        2.4110    12.4380     0.9780 H     1 <1>   0.0800 
 38 H        3.1030    12.9020    -0.5460 H     1 <1>   0.0800 
 39 H        5.5150    12.7410    -1.6190 H     1 <1>   0.0800 
 40 H        6.8850    13.7480    -1.2170 H     1 <1>   0.0800 
 41 H        5.2810    14.4420    -1.2570 H     1 <1>   0.0800 
 42 H        6.6040    13.1010     3.3690 H     1 <1>   0.2700 
 43 H        3.0560    11.6520     3.1510 H     1 <1>   0.0800 
 44 H        3.8320    12.7870     4.2270 H     1 <1>   0.0800 
 45 H        4.5280    11.2000     3.9670 H     1 <1>   0.0800 
@<TRIPOS>BOND
  1   1   2  1   
  2   2   3  ar  
  3   2   4  ar  
  4   3   5  ar  
  5   3  24  1   
  6   4   6  ar  
  7   4  25  1   
  8   5   7  ar  
  9   6   7  ar  
 10   6  26  1   
 11   7   8  1   
 12   8   9  am  
 13   8  27  1   
 14   9  10  2   
 15   9  11  1   
 16  11  12  1   
 17  11  28  1   
 18  11  29  1   
 19  12  13  1   
 20  12  14  1   
 21  13  15  1   
 22  13  30  1   
 23  13  31  1   
 24  14  32  1   
 25  14  33  1   
 26  14  34  1   
 27  15  16  1   
 28  15  35  1   
 29  15  36  1   
 30  16  17  1   
 31  16  37  1   
 32  16  38  1   
 33  17  18  1   
 34  17  19  2   
 35  18  20  2   
 36  18  21  1   
 37  19  22  1   
 38  19  23  1   
 39  20  22  1   
 40  21  39  1   
 41  21  40  1   
 42  21  41  1   
 43  22  42  1   
 44  23  43  1   
 45  23  44  1   
 46  23  45  1   
@<TRIPOS>SUBSTRUCTURE
  1 ****  12 GROUP 4 **** **** 0

# MOE 2024.06 (io_trps.svl 2023.06)
