@<TRIPOS>MOLECULE
NONAME
37 38 1 0 0 
SMALL
USER_CHARGES


@<TRIPOS>ATOM
  1 O        0.9440    -0.7910     1.9480 O.2   1 <1>  -0.5700 
  2 C        1.4970    -1.0920     0.9180 C.2   1 <1>   0.5690 
  3 N        2.2280    -0.2190     0.1710 N.am  1 <1>  -0.4930 
  4 C        1.3610    -2.5170     0.4260 C.3   1 <1>  -0.0990 
  5 C        2.4820     1.1550     0.4120 C.2   1 <1>   0.0630 
  6 C       -0.0530    -2.7870    -0.1010 C.3   1 <1>  -0.0160 
  7 C        2.0540     1.9670     1.4640 C.2   1 <1>   0.1390 
  8 C        3.2180     1.9730    -0.3670 C.2   1 <1>  -0.3020 
  9 C       -0.1640    -4.2120    -0.6150 C.ar  1 <1>  -0.1430 
 10 N        2.4850     3.1880     1.3520 N.2   1 <1>  -0.7070 
 11 N        3.2110     3.1960     0.2140 N.pl3 1 <1>   0.3140 
 12 C       -0.3980    -5.2720     0.2370 C.ar  1 <1>  -0.1500 
 13 C       -0.0330    -4.5230    -1.9530 C.ar  1 <1>  -0.1500 
 14 C        3.9020     4.4110    -0.3060 C.3   1 <1>   0.1760 
 15 C       -0.4850    -6.5560    -0.2750 C.ar  1 <1>   0.1600 
 16 C       -0.1380    -5.8420    -2.3620 C.ar  1 <1>   0.1600 
 17 C        4.9560     4.9050     0.6940 C.3   1 <1>  -0.2400 
 18 C        2.8860     5.5190    -0.6210 C.3   1 <1>  -0.2400 
 19 N       -0.3590    -6.8660    -1.5550 N.ar  1 <1>  -0.6200 
 20 H        2.6610    -0.5840    -0.6740 H     1 <1>   0.3700 
 21 H        1.5680    -3.1790     1.2480 H     1 <1>   0.0800 
 22 H        2.0810    -2.7140    -0.3460 H     1 <1>   0.0800 
 23 H       -0.2870    -2.0940    -0.8910 H     1 <1>   0.0800 
 24 H       -0.7690    -2.6320     0.6890 H     1 <1>   0.0800 
 25 H        1.4370     1.6270     2.2790 H     1 <1>   0.1500 
 26 H        3.7380     1.7660    -1.2820 H     1 <1>   0.1500 
 27 H       -0.5130    -5.1110     1.2940 H     1 <1>   0.1500 
 28 H        0.1470    -3.7550    -2.6830 H     1 <1>   0.1500 
 29 H        4.3990     4.1360    -1.2180 H     1 <1>   0.0800 
 30 H       -0.6690    -7.3700     0.4050 H     1 <1>   0.1500 
 31 H       -0.0350    -6.0670    -3.4100 H     1 <1>   0.1500 
 32 H        4.4860     5.1950     1.6180 H     1 <1>   0.0800 
 33 H        5.4800     5.7550     0.2950 H     1 <1>   0.0800 
 34 H        5.6700     4.1260     0.8950 H     1 <1>   0.0800 
 35 H        2.3750     5.8210     0.2770 H     1 <1>   0.0800 
 36 H        2.1630     5.1670    -1.3340 H     1 <1>   0.0800 
 37 H        3.3860     6.3760    -1.0350 H     1 <1>   0.0800 
@<TRIPOS>BOND
  1   1   2  2   
  2   2   3  am  
  3   2   4  1   
  4   3   5  1   
  5   3  20  1   
  6   4   6  1   
  7   4  21  1   
  8   4  22  1   
  9   5   7  1   
 10   5   8  2   
 11   6   9  1   
 12   6  23  1   
 13   6  24  1   
 14   7  10  2   
 15   7  25  1   
 16   8  11  1   
 17   8  26  1   
 18   9  12  ar  
 19   9  13  ar  
 20  10  11  1   
 21  11  14  1   
 22  12  15  ar  
 23  12  27  1   
 24  13  16  ar  
 25  13  28  1   
 26  14  17  1   
 27  14  18  1   
 28  14  29  1   
 29  15  19  ar  
 30  15  30  1   
 31  16  19  ar  
 32  16  31  1   
 33  17  32  1   
 34  17  33  1   
 35  17  34  1   
 36  18  35  1   
 37  18  36  1   
 38  18  37  1   
@<TRIPOS>SUBSTRUCTURE
  1 ****   3 GROUP 4 **** **** 0

# MOE 2024.06 (io_trps.svl 2023.06)
