@<TRIPOS>MOLECULE
NONAME
43 44 1 0 0 
SMALL
USER_CHARGES


@<TRIPOS>ATOM
  1 S       -0.1410    -0.1450    -0.5030 S.3   1 <1>  -0.0800 
  2 C        1.0840    -1.3910    -0.3810 C.2   1 <1>  -0.0450 
  3 C        1.0570     1.0630    -0.1200 C.2   1 <1>   0.1980 
  4 C        2.2490    -0.7710    -0.0830 C.2   1 <1>   0.0460 
  5 C        0.7320    -2.7670    -0.6270 C.2   1 <1>   0.7150 
  6 N        2.2250     0.6000     0.0700 N.2   1 <1>  -0.5650 
  7 C        0.6030     2.5010    -0.0530 C.3   1 <1>  -0.0600 
  8 C        3.5950    -1.4410     0.1010 C.3   1 <1>  -0.0590 
  9 O        1.4100    -3.4140    -1.4050 O.2   1 <1>  -0.5700 
 10 N       -0.3330    -3.3780    -0.0010 N.am  1 <1>  -0.6600 
 11 C       -0.9090    -4.6720    -0.4870 C.3   1 <1>   0.1400 
 12 C       -0.9550    -2.8920     1.2620 C.3   1 <1>   0.1400 
 13 C       -2.4280    -4.5250    -0.6830 C.3   1 <1>   0.2000 
 14 C       -2.4650    -2.7230     1.0490 C.3   1 <1>  -0.1600 
 15 O       -2.9450    -5.7390    -1.1020 O.3   1 <1>  -0.6800 
 16 C       -3.1430    -4.0560     0.6140 C.3   1 <1>  -0.1060 
 17 C       -2.9720    -5.1270     1.7190 C.2   1 <1>   0.9060 
 18 C       -4.6690    -3.8360     0.4020 C.3   1 <1>  -0.1600 
 19 O       -2.9930    -6.3290     1.4100 O.co2 1 <1>  -0.9000 
 20 O       -2.8260    -4.7760     2.8960 O.co2 1 <1>  -0.9000 
 21 C       -5.0790    -2.8580    -0.7140 C.3   1 <1>  -0.1600 
 22 C       -6.6030    -2.7410    -0.8000 C.3   1 <1>  -0.2400 
 23 H        1.4380     3.1330     0.1910 H     1 <1>   0.0800 
 24 H       -0.1520     2.6110     0.7030 H     1 <1>   0.0800 
 25 H        0.2030     2.8010    -1.0040 H     1 <1>   0.0800 
 26 H        3.5160    -2.5060    -0.0240 H     1 <1>   0.0800 
 27 H        3.9690    -1.2330     1.0860 H     1 <1>   0.0800 
 28 H        4.2890    -1.0580    -0.6240 H     1 <1>   0.0800 
 29 H       -0.4630    -4.9550    -1.4240 H     1 <1>   0.0800 
 30 H       -0.7060    -5.4410     0.2380 H     1 <1>   0.0800 
 31 H       -0.7700    -3.6120     2.0430 H     1 <1>   0.0800 
 32 H       -0.5210    -1.9610     1.5780 H     1 <1>   0.0800 
 33 H       -2.5910    -3.8240    -1.4810 H     1 <1>   0.0800 
 34 H       -2.9060    -2.3800     1.9690 H     1 <1>   0.0800 
 35 H       -2.6130    -1.9580     0.3110 H     1 <1>   0.0800 
 36 H       -3.0420    -6.2800    -0.2590 H     1 <1>   0.4000 
 37 H       -5.1160    -4.7940     0.1930 H     1 <1>   0.0800 
 38 H       -5.0890    -3.4990     1.3350 H     1 <1>   0.0800 
 39 H       -4.6700    -1.8820    -0.5280 H     1 <1>   0.0800 
 40 H       -4.7080    -3.2080    -1.6620 H     1 <1>   0.0800 
 41 H       -7.0030    -2.3770     0.1300 H     1 <1>   0.0800 
 42 H       -7.0370    -3.7030    -1.0120 H     1 <1>   0.0800 
 43 H       -6.8770    -2.0600    -1.5850 H     1 <1>   0.0800 
@<TRIPOS>BOND
  1   1   2  1   
  2   1   3  1   
  3   2   4  2   
  4   2   5  1   
  5   3   6  2   
  6   3   7  1   
  7   4   6  1   
  8   4   8  1   
  9   5   9  2   
 10   5  10  am  
 11   7  23  1   
 12   7  24  1   
 13   7  25  1   
 14   8  26  1   
 15   8  27  1   
 16   8  28  1   
 17  10  11  1   
 18  10  12  1   
 19  11  13  1   
 20  11  29  1   
 21  11  30  1   
 22  12  14  1   
 23  12  31  1   
 24  12  32  1   
 25  13  15  1   
 26  13  16  1   
 27  13  33  1   
 28  14  16  1   
 29  14  34  1   
 30  14  35  1   
 31  15  36  1   
 32  16  17  1   
 33  16  18  1   
 34  17  19  ar  
 35  17  20  ar  
 36  18  21  1   
 37  18  37  1   
 38  18  38  1   
 39  21  22  1   
 40  21  39  1   
 41  21  40  1   
 42  22  41  1   
 43  22  42  1   
 44  22  43  1   
@<TRIPOS>SUBSTRUCTURE
  1 ****  10 GROUP 4 **** **** 0

# MOE 2024.06 (io_trps.svl 2023.06)
