@<TRIPOS>MOLECULE
NONAME
49 52 1 0 0 
SMALL
USER_CHARGES


@<TRIPOS>ATOM
  1 O        1.4760    -0.5970     2.2130 O.2   1 <1>  -0.5700 
  2 C        2.1310    -1.0810     1.3090 C.2   1 <1>   0.5440 
  3 N        3.1010    -0.3120     0.7050 N.am  1 <1>  -0.6600 
  4 C        1.8780    -2.4430     0.9060 C.ar  1 <1>   0.0860 
  5 C        3.2140     1.1500     0.9900 C.3   1 <1>   0.3210 
  6 C        4.0560    -0.8310    -0.3250 C.3   1 <1>   0.1400 
  7 C        1.2590    -2.8050    -0.3020 C.ar  1 <1>   0.0820 
  8 C        2.3010    -3.4720     1.7450 C.ar  1 <1>  -0.1500 
  9 C        3.3650     1.9200    -0.3110 C.2   1 <1>  -0.1810 
 10 C        3.7920    -0.1790    -1.6870 C.3   1 <1>   0.0210 
 11 O        0.7630    -1.9210    -1.2030 O.3   1 <1>  -0.3630 
 12 C        1.1300    -4.1390    -0.6550 C.ar  1 <1>  -0.1500 
 13 C        2.1560    -4.8030     1.4080 C.ar  1 <1>   0.0830 
 14 C        3.2930     3.2410    -0.5860 C.2   1 <1>  -0.2370 
 15 C        3.6420     1.3180    -1.5310 C.2   1 <1>   0.1080 
 16 C        0.0580    -0.7650    -0.7940 C.3   1 <1>   0.0400 
 17 C        1.5780    -5.1550     0.1800 C.ar  1 <1>   0.0830 
 18 O        2.6200    -5.7000     2.3230 O.3   1 <1>  -0.3630 
 19 N        3.5290     3.3650    -1.9090 N.pl3 1 <1>   0.3000 
 20 C        3.0240     4.4290     0.3150 C.3   1 <1>  -0.0150 
 21 N        3.7460     2.1730    -2.4990 N.2   1 <1>  -0.7070 
 22 O        1.4860    -6.4670    -0.1690 O.3   1 <1>  -0.3630 
 23 C        1.8060    -6.7980     2.6760 C.3   1 <1>   0.0400 
 24 C        1.9110     4.3860     1.3140 C.3   1 <1>  -0.2000 
 25 C        1.7930     5.2510     0.0980 C.3   1 <1>  -0.2000 
 26 C        0.9840    -6.8820    -1.4210 C.3   1 <1>   0.0400 
 27 H        4.0760     1.3200     1.6100 H     1 <1>   0.0800 
 28 H        2.3460     1.5030     1.5150 H     1 <1>   0.0800 
 29 H        3.9890    -1.9000    -0.4160 H     1 <1>   0.0800 
 30 H        5.0570    -0.5900    -0.0110 H     1 <1>   0.0800 
 31 H        2.7580    -3.2220     2.6850 H     1 <1>   0.1500 
 32 H        2.8930    -0.5780    -2.1170 H     1 <1>   0.0800 
 33 H        4.6040    -0.3900    -2.3570 H     1 <1>   0.0800 
 34 H        0.6670    -4.3530    -1.5980 H     1 <1>   0.1500 
 35 H       -0.6310    -0.5000    -1.5750 H     1 <1>   0.0800 
 36 H        0.7550     0.0410    -0.6470 H     1 <1>   0.0800 
 37 H       -0.4800    -0.9750     0.1140 H     1 <1>   0.0800 
 38 H        3.5430     4.2480    -2.4330 H     1 <1>   0.2700 
 39 H        3.9230     4.9510     0.5960 H     1 <1>   0.1000 
 40 H        2.1010    -7.1310     3.6550 H     1 <1>   0.0800 
 41 H        1.9600    -7.5890     1.9640 H     1 <1>   0.0800 
 42 H        0.7760    -6.4880     2.6850 H     1 <1>   0.0800 
 43 H        2.0610     4.8520     2.2720 H     1 <1>   0.1000 
 44 H        1.2740     3.5210     1.3710 H     1 <1>   0.1000 
 45 H        1.0970     4.9560    -0.6690 H     1 <1>   0.1000 
 46 H        1.8530     6.3190     0.2160 H     1 <1>   0.1000 
 47 H        1.0460    -7.9540    -1.4660 H     1 <1>   0.0800 
 48 H        1.5870    -6.4490    -2.2000 H     1 <1>   0.0800 
 49 H       -0.0420    -6.5710    -1.5070 H     1 <1>   0.0800 
@<TRIPOS>BOND
  1   1   2  2   
  2   2   3  am  
  3   2   4  1   
  4   3   5  1   
  5   3   6  1   
  6   4   7  ar  
  7   4   8  ar  
  8   5   9  1   
  9   5  27  1   
 10   5  28  1   
 11   6  10  1   
 12   6  29  1   
 13   6  30  1   
 14   7  11  1   
 15   7  12  ar  
 16   8  13  ar  
 17   8  31  1   
 18   9  14  2   
 19   9  15  1   
 20  10  15  1   
 21  10  32  1   
 22  10  33  1   
 23  11  16  1   
 24  12  17  ar  
 25  12  34  1   
 26  13  17  ar  
 27  13  18  1   
 28  14  19  1   
 29  14  20  1   
 30  15  21  2   
 31  16  35  1   
 32  16  36  1   
 33  16  37  1   
 34  17  22  1   
 35  18  23  1   
 36  19  21  1   
 37  19  38  1   
 38  20  24  1   
 39  20  25  1   
 40  20  39  1   
 41  22  26  1   
 42  23  40  1   
 43  23  41  1   
 44  23  42  1   
 45  24  25  1   
 46  24  43  1   
 47  24  44  1   
 48  25  45  1   
 49  25  46  1   
 50  26  47  1   
 51  26  48  1   
 52  26  49  1   
@<TRIPOS>SUBSTRUCTURE
  1 ****   2 GROUP 4 **** **** 0

# MOE 2024.06 (io_trps.svl 2023.06)
