@<TRIPOS>MOLECULE
NONAME
39 40 1 0 0 
SMALL
USER_CHARGES


@<TRIPOS>ATOM
  1 O        3.5660    -1.3120     1.0290 O.2   1 <1>  -0.5700 
  2 C        2.4880    -1.3510     0.4810 C.2   1 <1>   0.5690 
  3 N        1.7280    -0.2570     0.2270 N.am  1 <1>  -0.4930 
  4 C        1.9270    -2.7080     0.0460 C.3   1 <1>   0.1710 
  5 C        1.9510     1.0930     0.4670 C.2   1 <1>   0.3520 
  6 N        0.8640    -2.6300    -1.0070 N.3   1 <1>  -0.8100 
  7 N        1.0970     1.9660     0.0370 N.2   1 <1>  -0.7070 
  8 C        3.0170     1.6810     1.1410 C.2   1 <1>  -0.1500 
  9 C        0.1040    -3.8980    -1.1130 C.3   1 <1>   0.1100 
 10 C        1.4550    -2.2950    -2.3140 C.3   1 <1>   0.0300 
 11 N        1.6000     3.1540     0.4290 N.pl3 1 <1>   0.3140 
 12 C        2.7600     3.0050     1.0970 C.2   1 <1>  -0.3020 
 13 C       -0.9010    -4.0940     0.0330 C.3   1 <1>   0.2000 
 14 C        0.9070     4.4110     0.1300 C.3   1 <1>   0.0160 
 15 O       -1.5970    -5.2860    -0.2180 O.3   1 <1>  -0.5600 
 16 C       -1.8940    -2.9170     0.1410 C.3   1 <1>   0.1200 
 17 C       -2.5940    -5.5610     0.7240 C.3   1 <1>   0.1200 
 18 O       -2.8960    -3.2010     1.0780 O.3   1 <1>  -0.5600 
 19 C       -3.5840    -4.3870     0.8070 C.3   1 <1>   0.1200 
 20 H        0.8690    -0.4410    -0.2920 H     1 <1>   0.3700 
 21 H        1.5300    -3.1690     0.9310 H     1 <1>   0.0800 
 22 H        2.7410    -3.3200    -0.3010 H     1 <1>   0.0800 
 23 H        3.8450     1.1580     1.5840 H     1 <1>   0.1500 
 24 H        0.7850    -4.7310    -1.1400 H     1 <1>   0.0800 
 25 H       -0.4570    -3.8940    -2.0320 H     1 <1>   0.0800 
 26 H        1.9980    -1.3670    -2.2590 H     1 <1>   0.0800 
 27 H        0.6780    -2.1820    -3.0500 H     1 <1>   0.0800 
 28 H        2.1290    -3.0720    -2.6350 H     1 <1>   0.0800 
 29 H        3.3260     3.8260     1.4960 H     1 <1>   0.1500 
 30 H       -0.3760    -4.2130     0.9630 H     1 <1>   0.0800 
 31 H        0.7270     4.4650    -0.9280 H     1 <1>   0.0800 
 32 H        1.5140     5.2410     0.4390 H     1 <1>   0.0800 
 33 H       -0.0290     4.4260     0.6550 H     1 <1>   0.0800 
 34 H       -2.3540    -2.7220    -0.8110 H     1 <1>   0.0800 
 35 H       -1.3820    -2.0280     0.4640 H     1 <1>   0.0800 
 36 H       -2.1300    -5.7320     1.6800 H     1 <1>   0.0800 
 37 H       -3.1010    -6.4580     0.4170 H     1 <1>   0.0800 
 38 H       -4.2910    -4.5470     1.6010 H     1 <1>   0.0800 
 39 H       -4.1180    -4.2740    -0.1200 H     1 <1>   0.0800 
@<TRIPOS>BOND
  1   1   2  2   
  2   2   3  am  
  3   2   4  1   
  4   3   5  1   
  5   3  20  1   
  6   4   6  1   
  7   4  21  1   
  8   4  22  1   
  9   5   7  2   
 10   5   8  1   
 11   6   9  1   
 12   6  10  1   
 13   7  11  1   
 14   8  12  2   
 15   8  23  1   
 16   9  13  1   
 17   9  24  1   
 18   9  25  1   
 19  10  26  1   
 20  10  27  1   
 21  10  28  1   
 22  11  12  1   
 23  11  14  1   
 24  12  29  1   
 25  13  15  1   
 26  13  16  1   
 27  13  30  1   
 28  14  31  1   
 29  14  32  1   
 30  14  33  1   
 31  15  17  1   
 32  16  18  1   
 33  16  34  1   
 34  16  35  1   
 35  17  19  1   
 36  17  36  1   
 37  17  37  1   
 38  18  19  1   
 39  19  38  1   
 40  19  39  1   
@<TRIPOS>SUBSTRUCTURE
  1 ****   3 GROUP 4 **** **** 0

# MOE 2024.06 (io_trps.svl 2023.06)
