@<TRIPOS>MOLECULE
NONAME
47 49 1 0 0 
SMALL
USER_CHARGES


@<TRIPOS>ATOM
  1 S        0.3100     0.9940     1.5750 S.o2  1 <1>   1.3330 
  2 O        0.7000     2.1100     2.4080 O.2   1 <1>  -0.6500 
  3 O       -0.4110    -0.1160     2.1540 O.2   1 <1>  -0.6500 
  4 N        1.7190     0.3770     0.8540 N.am  1 <1>  -0.8490 
  5 C       -0.6170     1.6460     0.1830 C.3   1 <1>  -0.0550 
  6 C        2.8380     0.3160     1.7990 C.3   1 <1>   0.1160 
  7 C        1.5230    -0.9430     0.2430 C.3   1 <1>   0.1160 
  8 C        0.1840     2.6250    -0.7050 C.3   1 <1>  -0.0800 
  9 C       -0.5820     3.1660    -1.9150 C.3   1 <1>   0.2000 
 10 C        0.6690     3.8830     0.0230 C.3   1 <1>   0.1400 
 11 O       -1.8510     3.5540    -1.5120 O.3   1 <1>  -0.6800 
 12 C        0.2010     4.4170    -2.3110 C.3   1 <1>   0.1400 
 13 N        0.7770     4.9160    -1.0350 N.am  1 <1>  -0.6600 
 14 C        1.5740     6.0320    -0.9700 C.2   1 <1>   0.5440 
 15 O        1.7540     6.6800    -1.9800 O.2   1 <1>  -0.5700 
 16 C        2.2390     6.4020     0.2590 C.ar  1 <1>   0.0860 
 17 C        3.6310     6.3090     0.4100 C.ar  1 <1>  -0.0230 
 18 C        1.4790     6.8600     1.3350 C.ar  1 <1>  -0.1500 
 19 N        4.4670     5.8250    -0.6380 N.pl3 1 <1>   0.5930 
 20 C        4.2090     6.6870     1.6210 C.ar  1 <1>  -0.1500 
 21 C        2.0660     7.2210     2.5320 C.ar  1 <1>  -0.1500 
 22 N        5.6860     6.3140    -0.8960 N.2   1 <1>  -0.7070 
 23 C        4.3050     4.7510    -1.4360 C.2   1 <1>   0.0360 
 24 C        3.4370     7.1360     2.6740 C.ar  1 <1>  -0.1500 
 25 C        6.1320     5.5320    -1.8190 C.2   1 <1>   0.3660 
 26 N        5.3200     4.5360    -2.1910 N.2   1 <1>  -0.5650 
 27 H       -0.9500     0.8300    -0.4270 H     1 <1>   0.0800 
 28 H       -1.4940     2.1370     0.5590 H     1 <1>   0.0800 
 29 H        3.7190    -0.0670     1.3120 H     1 <1>   0.0800 
 30 H        2.5900    -0.3190     2.6340 H     1 <1>   0.0800 
 31 H        3.0630     1.3020     2.1710 H     1 <1>   0.0800 
 32 H        2.4210    -1.2510    -0.2660 H     1 <1>   0.0800 
 33 H        0.7230    -0.9070    -0.4750 H     1 <1>   0.0800 
 34 H        1.2790    -1.6760     0.9950 H     1 <1>   0.0800 
 35 H        1.0550     2.1150    -1.0780 H     1 <1>   0.0800 
 36 H       -0.6800     2.4540    -2.7180 H     1 <1>   0.0800 
 37 H        1.6160     3.7140     0.5070 H     1 <1>   0.0800 
 38 H       -0.0540     4.2020     0.7560 H     1 <1>   0.0800 
 39 H       -1.7810     4.3930    -1.0120 H     1 <1>   0.4000 
 40 H       -0.4230     5.1580    -2.7810 H     1 <1>   0.0800 
 41 H        1.0060     4.1570    -2.9780 H     1 <1>   0.0800 
 42 H        0.4110     6.9360     1.2250 H     1 <1>   0.1500 
 43 H        5.2790     6.6290     1.7400 H     1 <1>   0.1500 
 44 H        1.4600     7.5710     3.3510 H     1 <1>   0.1500 
 45 H        3.4160     4.1520    -1.4190 H     1 <1>   0.1500 
 46 H        3.9020     7.4200     3.6040 H     1 <1>   0.1500 
 47 H        7.1020     5.6480    -2.2780 H     1 <1>   0.1500 
@<TRIPOS>BOND
  1   1   2  2   
  2   1   3  2   
  3   1   4  am  
  4   1   5  1   
  5   4   6  1   
  6   4   7  1   
  7   5   8  1   
  8   5  27  1   
  9   5  28  1   
 10   6  29  1   
 11   6  30  1   
 12   6  31  1   
 13   7  32  1   
 14   7  33  1   
 15   7  34  1   
 16   8   9  1   
 17   8  10  1   
 18   8  35  1   
 19   9  11  1   
 20   9  12  1   
 21   9  36  1   
 22  10  13  1   
 23  10  37  1   
 24  10  38  1   
 25  11  39  1   
 26  12  13  1   
 27  12  40  1   
 28  12  41  1   
 29  13  14  am  
 30  14  15  2   
 31  14  16  1   
 32  16  17  ar  
 33  16  18  ar  
 34  17  19  1   
 35  17  20  ar  
 36  18  21  ar  
 37  18  42  1   
 38  19  22  1   
 39  19  23  1   
 40  20  24  ar  
 41  20  43  1   
 42  21  24  ar  
 43  21  44  1   
 44  22  25  2   
 45  23  26  2   
 46  23  45  1   
 47  24  46  1   
 48  25  26  1   
 49  25  47  1   
@<TRIPOS>SUBSTRUCTURE
  1 ****  10 GROUP 4 **** **** 0

# MOE 2024.06 (io_trps.svl 2023.06)
