@<TRIPOS>MOLECULE
NONAME
56 58 1 0 0 
SMALL
USER_CHARGES


@<TRIPOS>ATOM
  1 O        0.6140    -1.1980     2.2790 O.2   1 <1>  -0.5700 
  2 C        1.3310    -1.3630     1.3110 C.2   1 <1>   0.5440 
  3 N        1.9140    -0.2680     0.7040 N.am  1 <1>  -0.6600 
  4 C        1.5430    -2.7100     0.8240 C.ar  1 <1>   0.0860 
  5 C        1.8390     1.0930     1.3070 C.3   1 <1>   0.1400 
  6 C        2.4980    -0.2940    -0.6680 C.3   1 <1>   0.1400 
  7 C        0.4960    -3.5280     0.4470 C.ar  1 <1>  -0.1500 
  8 C        2.8050    -3.2760     0.7100 C.ar  1 <1>  -0.1500 
  9 C        1.0190     2.0160     0.4000 C.3   1 <1>  -0.1600 
 10 C        1.6870     0.6210    -1.5910 C.3   1 <1>  -0.1600 
 11 C        0.7290    -4.8120    -0.0250 C.ar  1 <1>   0.4100 
 12 C        2.9440    -4.5620     0.2290 C.ar  1 <1>   0.1600 
 13 C        1.5770     2.0450    -1.0290 C.3   1 <1>  -0.1600 
 14 N        1.9410    -5.3370    -0.1440 N.ar  1 <1>  -0.6200 
 15 N       -0.3350    -5.5910    -0.4000 N.pl3 1 <1>  -0.8690 
 16 C       -0.2230    -7.0590    -0.4800 C.3   1 <1>   0.3530 
 17 C       -1.6110    -7.6410    -0.2810 C.ar  1 <1>  -0.1430 
 18 C       -2.0320    -8.0380     0.9790 C.ar  1 <1>  -0.1500 
 19 C       -2.4760    -7.7730    -1.3580 C.ar  1 <1>  -0.1500 
 20 C       -3.2990    -8.5650     1.1570 C.ar  1 <1>  -0.1500 
 21 C       -3.7430    -8.3020    -1.1820 C.ar  1 <1>  -0.1500 
 22 C       -4.1630    -8.7040     0.0830 C.ar  1 <1>   0.0830 
 23 O       -5.3850    -9.2310     0.3550 O.3   1 <1>  -0.3630 
 24 C       -6.3660    -9.4710    -0.6320 C.3   1 <1>   0.2000 
 25 C       -7.7180    -9.5230     0.0930 C.3   1 <1>  -0.1600 
 26 C       -6.0250   -10.7880    -1.3410 C.3   1 <1>  -0.2400 
 27 C       -8.9170    -9.6270    -0.8610 C.3   1 <1>  -0.2400 
 28 H        2.8360     1.4810     1.4180 H     1 <1>   0.0800 
 29 H        1.3890     1.0540     2.2850 H     1 <1>   0.0800 
 30 H        2.4960    -1.2900    -1.0730 H     1 <1>   0.0800 
 31 H        3.5180     0.0480    -0.6200 H     1 <1>   0.0800 
 32 H       -0.5100    -3.1640     0.5190 H     1 <1>   0.1500 
 33 H        3.6700    -2.7070     0.9990 H     1 <1>   0.1500 
 34 H        1.0200     3.0100     0.8110 H     1 <1>   0.0800 
 35 H        0.0000     1.6680     0.3880 H     1 <1>   0.0800 
 36 H        0.7020     0.2040    -1.7130 H     1 <1>   0.0800 
 37 H        2.1520     0.6510    -2.5610 H     1 <1>   0.0800 
 38 H        3.9330    -4.9810     0.1470 H     1 <1>   0.1500 
 39 H        2.5510     2.5040    -1.0230 H     1 <1>   0.0800 
 40 H        0.9350     2.6370    -1.6590 H     1 <1>   0.0800 
 41 H       -1.2500    -5.3120    -0.0420 H     1 <1>   0.4000 
 42 H        0.4450    -7.4230     0.2830 H     1 <1>   0.0800 
 43 H        0.1720    -7.3360    -1.4420 H     1 <1>   0.0800 
 44 H       -1.3760    -7.9350     1.8260 H     1 <1>   0.1500 
 45 H       -2.1600    -7.4600    -2.3380 H     1 <1>   0.1500 
 46 H       -3.6270    -8.8740     2.1330 H     1 <1>   0.1500 
 47 H       -4.3820    -8.3910    -2.0390 H     1 <1>   0.1500 
 48 H       -6.3710    -8.6440    -1.3180 H     1 <1>   0.0800 
 49 H       -7.8250    -8.6220     0.6720 H     1 <1>   0.0800 
 50 H       -7.7290   -10.3580     0.7710 H     1 <1>   0.0800 
 51 H       -6.0710   -11.6060    -0.6450 H     1 <1>   0.0800 
 52 H       -5.0390   -10.7460    -1.7650 H     1 <1>   0.0800 
 53 H       -6.7210   -10.9740    -2.1370 H     1 <1>   0.0800 
 54 H       -8.9080    -8.8180    -1.5690 H     1 <1>   0.0800 
 55 H       -9.8340    -9.5770    -0.3000 H     1 <1>   0.0800 
 56 H       -8.9040   -10.5600    -1.3960 H     1 <1>   0.0800 
@<TRIPOS>BOND
  1   1   2  2   
  2   2   3  am  
  3   2   4  1   
  4   3   5  1   
  5   3   6  1   
  6   4   7  ar  
  7   4   8  ar  
  8   5   9  1   
  9   5  28  1   
 10   5  29  1   
 11   6  10  1   
 12   6  30  1   
 13   6  31  1   
 14   7  11  ar  
 15   7  32  1   
 16   8  12  ar  
 17   8  33  1   
 18   9  13  1   
 19   9  34  1   
 20   9  35  1   
 21  10  13  1   
 22  10  36  1   
 23  10  37  1   
 24  11  14  ar  
 25  11  15  1   
 26  12  14  ar  
 27  12  38  1   
 28  13  39  1   
 29  13  40  1   
 30  15  16  1   
 31  15  41  1   
 32  16  17  1   
 33  16  42  1   
 34  16  43  1   
 35  17  18  ar  
 36  17  19  ar  
 37  18  20  ar  
 38  18  44  1   
 39  19  21  ar  
 40  19  45  1   
 41  20  22  ar  
 42  20  46  1   
 43  21  22  ar  
 44  21  47  1   
 45  22  23  1   
 46  23  24  1   
 47  24  25  1   
 48  24  26  1   
 49  24  48  1   
 50  25  27  1   
 51  25  49  1   
 52  25  50  1   
 53  26  51  1   
 54  26  52  1   
 55  26  53  1   
 56  27  54  1   
 57  27  55  1   
 58  27  56  1   
@<TRIPOS>SUBSTRUCTURE
  1 ****  15 GROUP 4 **** **** 0

# MOE 2024.06 (io_trps.svl 2023.06)
