@<TRIPOS>MOLECULE
NONAME
58 60 1 0 0 
SMALL
USER_CHARGES


@<TRIPOS>ATOM
  1 O       -0.7940     1.8240     2.6210 O.2   1 <1>  -0.5700 
  2 C       -0.8660     2.1560     1.4480 C.2   1 <1>   0.5440 
  3 N       -0.3860     1.2680     0.4930 N.am  1 <1>  -0.6600 
  4 C       -1.4760     3.4490     1.1190 C.ar  1 <1>   0.3960 
  5 C        0.3840     0.0470     0.8640 C.3   1 <1>   0.0600 
  6 C       -0.6310     1.4230    -0.9670 C.3   1 <1>   0.0600 
  7 N       -0.9130     4.2500     0.1950 N.ar  1 <1>  -0.6200 
  8 C       -2.6370     3.8210     1.7970 C.ar  1 <1>  -0.1500 
  9 C       -1.5140     5.3950    -0.0410 C.ar  1 <1>   0.4100 
 10 C       -3.2650     5.0210     1.5340 C.ar  1 <1>  -0.1500 
 11 N       -0.8740     6.1640    -0.9660 N.pl3 1 <1>  -0.8690 
 12 C       -2.6800     5.8200     0.5840 C.ar  1 <1>  -0.1500 
 13 C       -0.2660     7.4400    -0.5430 C.3   1 <1>   0.2090 
 14 C        1.0180     7.1790     0.2650 C.3   1 <1>  -0.0800 
 15 C        1.6140     8.5040     0.7730 C.3   1 <1>   0.3430 
 16 C        2.0430     6.3270    -0.5200 C.3   1 <1>  -0.1600 
 17 N        2.7150     8.9650    -0.1300 N.4   1 <1>  -0.9590 
 18 C        3.4640     6.5650     0.0100 C.3   1 <1>  -0.1600 
 19 C        3.8940     8.0400    -0.0510 C.3   1 <1>   0.3430 
 20 C        3.1470    10.3730     0.1340 C.3   1 <1>   0.3430 
 21 C        2.0740    11.3900    -0.2620 C.3   1 <1>  -0.0170 
 22 C        2.6390    12.7820    -0.0690 C.ar  1 <1>  -0.1430 
 23 C        3.2910    13.4230    -1.1110 C.ar  1 <1>  -0.1500 
 24 C        2.5190    13.4230     1.1560 C.ar  1 <1>  -0.1500 
 25 C        3.8230    14.6880    -0.9290 C.ar  1 <1>  -0.1500 
 26 C        3.0510    14.6870     1.3370 C.ar  1 <1>  -0.1500 
 27 C        3.7040    15.3200     0.2950 C.ar  1 <1>  -0.1500 
 28 H        0.7050     0.0930     1.8910 H     1 <1>   0.0800 
 29 H        1.2560    -0.0380     0.2400 H     1 <1>   0.0800 
 30 H       -0.2340    -0.8230     0.7350 H     1 <1>   0.0800 
 31 H       -1.5080     2.0210    -1.1440 H     1 <1>   0.0800 
 32 H       -0.7830     0.4580    -1.4200 H     1 <1>   0.0800 
 33 H        0.2170     1.9000    -1.4250 H     1 <1>   0.0800 
 34 H       -3.0440     3.1540     2.5370 H     1 <1>   0.1500 
 35 H       -4.1660     5.3110     2.0470 H     1 <1>   0.1500 
 36 H       -0.2130     5.5720    -1.4770 H     1 <1>   0.4000 
 37 H       -3.1130     6.7630     0.3110 H     1 <1>   0.1500 
 38 H       -0.9760     7.9880     0.0550 H     1 <1>   0.0800 
 39 H       -0.0480     8.0240    -1.4210 H     1 <1>   0.0800 
 40 H        0.7270     6.6300     1.1450 H     1 <1>   0.0800 
 41 H        2.0130     8.3520     1.7630 H     1 <1>   0.0800 
 42 H        0.8350     9.2460     0.8400 H     1 <1>   0.0800 
 43 H        2.0150     6.5770    -1.5670 H     1 <1>   0.0800 
 44 H        1.7900     5.2830    -0.4290 H     1 <1>   0.0800 
 45 H        2.3660     8.9050    -1.0950 H     1 <1>   0.4500 
 46 H        4.1680     5.9700    -0.5460 H     1 <1>   0.0800 
 47 H        3.5180     6.2310     1.0330 H     1 <1>   0.0800 
 48 H        4.4840     8.2650     0.8230 H     1 <1>   0.0800 
 49 H        4.5180     8.1890    -0.9170 H     1 <1>   0.0800 
 50 H        4.0370    10.5880    -0.4360 H     1 <1>   0.0800 
 51 H        3.3890    10.4970     1.1770 H     1 <1>   0.0800 
 52 H        1.1960    11.2810     0.3480 H     1 <1>   0.0800 
 53 H        1.7980    11.2590    -1.2930 H     1 <1>   0.0800 
 54 H        3.3920    12.9540    -2.0740 H     1 <1>   0.1500 
 55 H        2.0110    12.9530     1.9800 H     1 <1>   0.1500 
 56 H        4.3280    15.1850    -1.7410 H     1 <1>   0.1500 
 57 H        2.9560    15.1840     2.2880 H     1 <1>   0.1500 
 58 H        4.1170    16.3040     0.4360 H     1 <1>   0.1500 
@<TRIPOS>BOND
  1   1   2  2   
  2   2   3  am  
  3   2   4  1   
  4   3   5  1   
  5   3   6  1   
  6   4   7  ar  
  7   4   8  ar  
  8   5  28  1   
  9   5  29  1   
 10   5  30  1   
 11   6  31  1   
 12   6  32  1   
 13   6  33  1   
 14   7   9  ar  
 15   8  10  ar  
 16   8  34  1   
 17   9  11  1   
 18   9  12  ar  
 19  10  12  ar  
 20  10  35  1   
 21  11  13  1   
 22  11  36  1   
 23  12  37  1   
 24  13  14  1   
 25  13  38  1   
 26  13  39  1   
 27  14  15  1   
 28  14  16  1   
 29  14  40  1   
 30  15  17  1   
 31  15  41  1   
 32  15  42  1   
 33  16  18  1   
 34  16  43  1   
 35  16  44  1   
 36  17  19  1   
 37  17  20  1   
 38  17  45  1   
 39  18  19  1   
 40  18  46  1   
 41  18  47  1   
 42  19  48  1   
 43  19  49  1   
 44  20  21  1   
 45  20  50  1   
 46  20  51  1   
 47  21  22  1   
 48  21  52  1   
 49  21  53  1   
 50  22  23  ar  
 51  22  24  ar  
 52  23  25  ar  
 53  23  54  1   
 54  24  26  ar  
 55  24  55  1   
 56  25  27  ar  
 57  25  56  1   
 58  26  27  ar  
 59  26  57  1   
 60  27  58  1   
@<TRIPOS>SUBSTRUCTURE
  1 ****  14 GROUP 4 **** **** 0

# MOE 2024.06 (io_trps.svl 2023.06)
