@<TRIPOS>MOLECULE
NONAME
43 45 1 0 0 
SMALL
USER_CHARGES


@<TRIPOS>ATOM
  1 S        0.2310    -0.4480    -0.3510 S.3   1 <1>  -0.0800 
  2 C       -1.3500    -1.0160     0.0830 C.2   1 <1>   0.4420 
  3 C       -0.3420     1.1540    -0.0420 C.2   1 <1>   0.1980 
  4 N       -2.1350    -0.0510     0.4050 N.2   1 <1>  -0.3380 
  5 N       -1.5550    -2.3760     0.0310 N.am  1 <1>  -0.4940 
  6 N       -1.5540     1.1820     0.3310 N.2   1 <1>  -0.3380 
  7 C        0.6030     2.3180    -0.2340 C.3   1 <1>   0.0200 
  8 C       -2.6830    -3.1040     0.2810 C.2   1 <1>   0.7150 
  9 C       -0.1520     3.6190     0.0650 C.3   1 <1>   0.3430 
 10 O       -3.7220    -2.5490     0.5650 O.2   1 <1>  -0.5700 
 11 C       -2.5880    -4.5410     0.1840 C.2   1 <1>  -0.2370 
 12 N        0.6810     4.8490    -0.1580 N.4   1 <1>  -0.9590 
 13 N       -3.6750    -5.3910     0.0650 N.pl3 1 <1>   0.0480 
 14 C       -1.4590    -5.3130     0.1900 C.2   1 <1>  -0.1500 
 15 C        1.7870     4.9850     0.8440 C.3   1 <1>   0.2630 
 16 C       -0.1980     6.0600    -0.1130 C.3   1 <1>   0.2630 
 17 C       -3.2170    -6.6870    -0.0040 C.ar  1 <1>  -0.1520 
 18 C       -5.1010    -4.9950    -0.0020 C.3   1 <1>   0.0160 
 19 C       -1.8270    -6.6610     0.0710 C.ar  1 <1>   0.0000 
 20 C       -3.9050    -7.9050    -0.1240 C.ar  1 <1>  -0.1500 
 21 C       -1.0960    -7.8540     0.0240 C.ar  1 <1>  -0.1500 
 22 C       -3.1890    -9.0780    -0.1720 C.ar  1 <1>  -0.1500 
 23 C       -1.7940    -9.0280    -0.0960 C.ar  1 <1>   0.1900 
 24 F       -1.1370   -10.1590    -0.1440 F     1 <1>  -0.1900 
 25 H       -0.7630    -2.9380    -0.2580 H     1 <1>   0.3700 
 26 H        0.9520     2.3160    -1.2510 H     1 <1>   0.0800 
 27 H        1.4340     2.1960     0.4350 H     1 <1>   0.0800 
 28 H       -0.5050     3.5950     1.0840 H     1 <1>   0.0800 
 29 H       -1.0200     3.6550    -0.5740 H     1 <1>   0.0800 
 30 H        1.0930     4.8000    -1.1040 H     1 <1>   0.4500 
 31 H       -0.4340    -5.0020     0.2810 H     1 <1>   0.1500 
 32 H        1.3840     5.0240     1.8440 H     1 <1>   0.0800 
 33 H        2.3460     5.8890     0.6640 H     1 <1>   0.0800 
 34 H        2.4640     4.1490     0.7780 H     1 <1>   0.0800 
 35 H       -0.6590     6.1530     0.8580 H     1 <1>   0.0800 
 36 H       -0.9760     5.9870    -0.8560 H     1 <1>   0.0800 
 37 H        0.3780     6.9500    -0.3070 H     1 <1>   0.0800 
 38 H       -5.2260    -4.2360    -0.7530 H     1 <1>   0.0800 
 39 H       -5.4030    -4.6020     0.9520 H     1 <1>   0.0800 
 40 H       -5.7150    -5.8390    -0.2520 H     1 <1>   0.0800 
 41 H       -4.9780    -7.9220    -0.1780 H     1 <1>   0.1500 
 42 H       -0.0240    -7.8430     0.0810 H     1 <1>   0.1500 
 43 H       -3.6750   -10.0330    -0.2640 H     1 <1>   0.1500 
@<TRIPOS>BOND
  1   1   2  1   
  2   1   3  1   
  3   2   4  2   
  4   2   5  1   
  5   3   6  2   
  6   3   7  1   
  7   4   6  1   
  8   5   8  am  
  9   5  25  1   
 10   7   9  1   
 11   7  26  1   
 12   7  27  1   
 13   8  10  2   
 14   8  11  1   
 15   9  12  1   
 16   9  28  1   
 17   9  29  1   
 18  11  13  1   
 19  11  14  2   
 20  12  15  1   
 21  12  16  1   
 22  12  30  1   
 23  13  17  1   
 24  13  18  1   
 25  14  19  1   
 26  14  31  1   
 27  15  32  1   
 28  15  33  1   
 29  15  34  1   
 30  16  35  1   
 31  16  36  1   
 32  16  37  1   
 33  17  19  ar  
 34  17  20  ar  
 35  18  38  1   
 36  18  39  1   
 37  18  40  1   
 38  19  21  ar  
 39  20  22  ar  
 40  20  41  1   
 41  21  23  ar  
 42  21  42  1   
 43  22  23  ar  
 44  22  43  1   
 45  23  24  1   
@<TRIPOS>SUBSTRUCTURE
  1 ****   5 GROUP 4 **** **** 0

# MOE 2024.06 (io_trps.svl 2023.06)
