@<TRIPOS>MOLECULE
NONAME
52 54 1 0 0 
SMALL
USER_CHARGES


@<TRIPOS>ATOM
  1 O       -0.9790    -1.6340    -1.5630 O.co2 1 <1>  -0.9000 
  2 C       -0.6620    -2.7720    -1.9360 C.2   1 <1>   1.0330 
  3 O       -1.5800    -3.5460    -2.2750 O.co2 1 <1>  -0.9000 
  4 C        0.7060    -3.2070    -1.9480 C.2   1 <1>  -0.2330 
  5 C        1.1460    -4.4090    -2.5050 C.2   1 <1>   0.3720 
  6 C        1.8560    -2.6510    -1.4720 C.2   1 <1>   0.0870 
  7 N        2.4140    -4.5620    -2.3750 N.2   1 <1>  -0.4100 
  8 N        0.3180    -5.3390    -3.1160 N.pl3 1 <1>  -0.8520 
  9 O        2.8270    -3.4900    -1.7560 O.3   1 <1>  -0.0190 
 10 C        2.1870    -1.4360    -0.7660 C.ar  1 <1>   0.0530 
 11 C        0.1640    -6.6110    -2.3770 C.3   1 <1>   0.2090 
 12 C        1.3440    -0.8710     0.1910 C.ar  1 <1>  -0.1500 
 13 C        3.4000    -0.7870    -1.0040 C.ar  1 <1>  -0.1500 
 14 C       -1.0040    -6.4590    -1.4050 C.3   1 <1>  -0.0990 
 15 C        1.6830     0.2830     0.8720 C.ar  1 <1>  -0.1500 
 16 C        3.7520     0.3640    -0.3250 C.ar  1 <1>  -0.1500 
 17 C       -1.3080    -7.7060    -0.6000 C.2   1 <1>   0.5690 
 18 C        2.8980     0.9130     0.6180 C.ar  1 <1>   0.0830 
 19 O       -0.6470    -8.7000    -0.7990 O.2   1 <1>  -0.5700 
 20 N       -2.3200    -7.6840     0.3290 N.am  1 <1>  -0.6600 
 21 O        3.3090     2.0450     1.2390 O.3   1 <1>  -0.3630 
 22 C       -3.1760    -6.4950     0.6250 C.3   1 <1>   0.1400 
 23 C       -2.6670    -8.8910     1.1280 C.3   1 <1>   0.1400 
 24 C        2.4720     2.7200     2.1510 C.3   1 <1>   0.0400 
 25 C       -4.6470    -6.8480     0.3880 C.3   1 <1>  -0.1600 
 26 C       -4.1350    -9.2610     0.8960 C.3   1 <1>  -0.1600 
 27 C       -5.0730    -8.0820     1.2010 C.3   1 <1>  -0.0800 
 28 C       -6.5280    -8.4540     0.8970 C.3   1 <1>  -0.2400 
 29 H       -0.6180    -4.8800    -3.1460 H     1 <1>   0.4000 
 30 H        1.0690    -6.8480    -1.8420 H     1 <1>   0.0800 
 31 H       -0.0370    -7.4040    -3.0760 H     1 <1>   0.0800 
 32 H        0.4010    -1.3450     0.4000 H     1 <1>   0.1500 
 33 H        4.0740    -1.1960    -1.7360 H     1 <1>   0.1500 
 34 H       -1.8830    -6.1960    -1.9630 H     1 <1>   0.0800 
 35 H       -0.7730    -5.6650    -0.7200 H     1 <1>   0.0800 
 36 H        0.9880     0.6740     1.5890 H     1 <1>   0.1500 
 37 H        4.6900     0.8490    -0.5240 H     1 <1>   0.1500 
 38 H       -2.9160    -5.6480     0.0140 H     1 <1>   0.0800 
 39 H       -3.0320    -6.2110     1.6540 H     1 <1>   0.0800 
 40 H       -2.5010    -8.6800     2.1700 H     1 <1>   0.0800 
 41 H       -2.0400    -9.7220     0.8530 H     1 <1>   0.0800 
 42 H        2.9880     3.6000     2.4900 H     1 <1>   0.0800 
 43 H        2.2680     2.0710     2.9830 H     1 <1>   0.0800 
 44 H        1.5630     2.9990     1.6480 H     1 <1>   0.0800 
 45 H       -4.7900    -7.0300    -0.6630 H     1 <1>   0.0800 
 46 H       -5.2560    -6.0040     0.6600 H     1 <1>   0.0800 
 47 H       -4.3880   -10.0990     1.5200 H     1 <1>   0.0800 
 48 H       -4.2510    -9.5680    -0.1290 H     1 <1>   0.0800 
 49 H       -4.9940    -7.8440     2.2490 H     1 <1>   0.0800 
 50 H       -6.6460    -8.6990    -0.1440 H     1 <1>   0.0800 
 51 H       -7.1810    -7.6320     1.1320 H     1 <1>   0.0800 
 52 H       -6.8270    -9.3030     1.4850 H     1 <1>   0.0800 
@<TRIPOS>BOND
  1   1   2  ar  
  2   2   3  ar  
  3   2   4  1   
  4   4   5  1   
  5   4   6  2   
  6   5   7  2   
  7   5   8  1   
  8   6   9  1   
  9   6  10  1   
 10   7   9  1   
 11   8  11  1   
 12   8  29  1   
 13  10  12  ar  
 14  10  13  ar  
 15  11  14  1   
 16  11  30  1   
 17  11  31  1   
 18  12  15  ar  
 19  12  32  1   
 20  13  16  ar  
 21  13  33  1   
 22  14  17  1   
 23  14  34  1   
 24  14  35  1   
 25  15  18  ar  
 26  15  36  1   
 27  16  18  ar  
 28  16  37  1   
 29  17  19  2   
 30  17  20  am  
 31  18  21  1   
 32  20  22  1   
 33  20  23  1   
 34  21  24  1   
 35  22  25  1   
 36  22  38  1   
 37  22  39  1   
 38  23  26  1   
 39  23  40  1   
 40  23  41  1   
 41  24  42  1   
 42  24  43  1   
 43  24  44  1   
 44  25  27  1   
 45  25  45  1   
 46  25  46  1   
 47  26  27  1   
 48  26  47  1   
 49  26  48  1   
 50  27  28  1   
 51  27  49  1   
 52  28  50  1   
 53  28  51  1   
 54  28  52  1   
@<TRIPOS>SUBSTRUCTURE
  1 ****   4 GROUP 4 **** **** 0

# MOE 2024.06 (io_trps.svl 2023.06)
