@<TRIPOS>MOLECULE
NONAME
45 46 1 0 0 
SMALL
USER_CHARGES


@<TRIPOS>ATOM
  1 S        0.4720     0.2270    -0.1040 S.o2  1 <1>   1.3330 
  2 O        0.3550    -0.8430    -1.0690 O.2   1 <1>  -0.6500 
  3 O        0.3660    -0.0720     1.3070 O.2   1 <1>  -0.6500 
  4 N       -0.6930     1.4060    -0.4700 N.am  1 <1>  -0.8490 
  5 C        2.0210     1.0740    -0.4040 C.3   1 <1>  -0.0550 
  6 C       -1.9710     0.8130    -0.8730 C.3   1 <1>   0.1160 
  7 C       -0.9080     2.3720     0.6130 C.3   1 <1>   0.1160 
  8 C        3.2510     0.1550    -0.2690 C.3   1 <1>  -0.0800 
  9 C        4.5860     0.8130    -0.5860 C.3   1 <1>   0.2200 
 10 C        3.4770    -0.4170     1.1370 C.3   1 <1>   0.1200 
 11 N        4.6680     2.1650     0.0190 N.am  1 <1>  -0.7300 
 12 C        5.5310    -0.1110     0.1660 C.3   1 <1>   0.1200 
 13 O        4.8610    -0.4180     1.3510 O.3   1 <1>  -0.5600 
 14 C        4.4800     3.3440    -0.6420 C.2   1 <1>   0.5440 
 15 O        4.1280     3.2900    -1.8040 O.2   1 <1>  -0.5700 
 16 C        4.6590     4.6220     0.0280 C.ar  1 <1>   0.0860 
 17 C        4.0720     5.7830    -0.4790 C.ar  1 <1>  -0.1500 
 18 C        5.4140     4.7530     1.1970 C.ar  1 <1>  -0.1500 
 19 C        4.2160     7.0100     0.1420 C.ar  1 <1>  -0.1500 
 20 C        5.5640     5.9750     1.8260 C.ar  1 <1>  -0.1500 
 21 C        4.9710     7.1140     1.3070 C.ar  1 <1>   0.0820 
 22 O        5.1760     8.2680     1.9800 O.3   1 <1>  -0.3620 
 23 C        4.8060     9.5130     1.4350 C.3   1 <1>   0.8800 
 24 F        5.3710    10.4640     2.1640 F     1 <1>  -0.3400 
 25 F        3.4960     9.6690     1.5840 F     1 <1>  -0.3400 
 26 H        2.0060     1.4790    -1.3990 H     1 <1>   0.0800 
 27 H        2.1060     1.8960     0.2780 H     1 <1>   0.0800 
 28 H       -2.6800     1.5850    -1.1180 H     1 <1>   0.0800 
 29 H       -2.3680     0.2030    -0.0790 H     1 <1>   0.0800 
 30 H       -1.8320     0.1970    -1.7460 H     1 <1>   0.0800 
 31 H       -1.5910     3.1400     0.2920 H     1 <1>   0.0800 
 32 H        0.0220     2.8390     0.8850 H     1 <1>   0.0800 
 33 H       -1.3160     1.8800     1.4810 H     1 <1>   0.0800 
 34 H        3.1230    -0.6770    -0.9410 H     1 <1>   0.0800 
 35 H        4.7970     0.8510    -1.6420 H     1 <1>   0.0800 
 36 H        3.1080    -1.4250     1.2230 H     1 <1>   0.0800 
 37 H        3.0300     0.1980     1.8990 H     1 <1>   0.0800 
 38 H        4.8440     2.1510     1.0260 H     1 <1>   0.3700 
 39 H        6.4780     0.3480     0.3890 H     1 <1>   0.0800 
 40 H        5.6840    -1.0280    -0.3760 H     1 <1>   0.0800 
 41 H        3.4870     5.7140    -1.3820 H     1 <1>   0.1500 
 42 H        5.8980     3.8920     1.6210 H     1 <1>   0.1500 
 43 H        3.7260     7.8610    -0.2940 H     1 <1>   0.1500 
 44 H        6.1480     6.0550     2.7270 H     1 <1>   0.1500 
 45 H        5.0850     9.6250     0.4020 H     1 <1>   0.0800 
@<TRIPOS>BOND
  1   1   2  2   
  2   1   3  2   
  3   1   4  am  
  4   1   5  1   
  5   4   6  1   
  6   4   7  1   
  7   5   8  1   
  8   5  26  1   
  9   5  27  1   
 10   6  28  1   
 11   6  29  1   
 12   6  30  1   
 13   7  31  1   
 14   7  32  1   
 15   7  33  1   
 16   8   9  1   
 17   8  10  1   
 18   8  34  1   
 19   9  11  1   
 20   9  12  1   
 21   9  35  1   
 22  10  13  1   
 23  10  36  1   
 24  10  37  1   
 25  11  14  am  
 26  11  38  1   
 27  12  13  1   
 28  12  39  1   
 29  12  40  1   
 30  14  15  2   
 31  14  16  1   
 32  16  17  ar  
 33  16  18  ar  
 34  17  19  ar  
 35  17  41  1   
 36  18  20  ar  
 37  18  42  1   
 38  19  21  ar  
 39  19  43  1   
 40  20  21  ar  
 41  20  44  1   
 42  21  22  1   
 43  22  23  1   
 44  23  24  1   
 45  23  25  1   
 46  23  45  1   
@<TRIPOS>SUBSTRUCTURE
  1 ****  14 GROUP 4 **** **** 0

# MOE 2024.06 (io_trps.svl 2023.06)
