@<TRIPOS>MOLECULE
NONAME
56 59 1 0 0 
SMALL
USER_CHARGES


@<TRIPOS>ATOM
  1 O       -1.2320    -0.3380    -0.8150 O.3   1 <1>  -0.3630 
  2 C       -1.9710     0.6320    -0.2120 C.ar  1 <1>   0.0830 
  3 C       -0.1730    -0.0120    -1.6880 C.3   1 <1>   0.1200 
  4 C       -2.8850     0.2260     0.7600 C.ar  1 <1>  -0.1440 
  5 C       -1.8610     1.9830    -0.5390 C.ar  1 <1>  -0.1500 
  6 C        0.4900    -1.3130    -2.1300 C.3   1 <1>  -0.2400 
  7 C       -3.6930     1.1590     1.3940 C.ar  1 <1>  -0.1500 
  8 C       -3.0140    -1.2430     1.1080 C.3   1 <1>   0.4860 
  9 C       -2.6730     2.8970     0.1030 C.ar  1 <1>  -0.1440 
 10 C       -3.5750     2.4910     1.0520 C.ar  1 <1>  -0.1430 
 11 N       -3.4840    -1.9610    -0.1030 N.4   1 <1>  -0.9590 
 12 C       -2.7240     4.3920    -0.0960 C.3   1 <1>  -0.0170 
 13 C       -4.3530     3.6590     1.6080 C.3   1 <1>  -0.0170 
 14 C       -4.8580    -1.5150    -0.4670 C.3   1 <1>   0.4230 
 15 C       -3.2520    -3.4320    -0.0120 C.3   1 <1>   0.2630 
 16 C       -4.0080     4.8070     0.6430 C.3   1 <1>  -0.1600 
 17 C       -5.9760    -2.1070     0.3890 C.3   1 <1>  -0.1600 
 18 C       -5.2390    -1.8760    -1.8910 C.3   1 <1>  -0.1600 
 19 C       -7.2430    -2.0070    -0.4800 C.3   1 <1>  -0.0800 
 20 C       -6.7640    -1.7170    -1.9160 C.3   1 <1>  -0.0800 
 21 C       -8.1490    -0.8290    -0.0920 C.3   1 <1>  -0.1600 
 22 C       -7.2220    -0.2800    -2.2440 C.3   1 <1>  -0.1600 
 23 C       -7.7020     0.3520    -0.9400 C.3   1 <1>   0.2000 
 24 O       -6.6300     0.9590    -0.3120 O.3   1 <1>  -0.6800 
 25 H       -0.5740     0.5160    -2.5370 H     1 <1>   0.0800 
 26 H        0.5280     0.6130    -1.1600 H     1 <1>   0.0800 
 27 H       -1.1680     2.3400    -1.2770 H     1 <1>   0.1500 
 28 H       -0.2140    -1.9330    -2.6540 H     1 <1>   0.0800 
 29 H        0.8790    -1.8410    -1.2780 H     1 <1>   0.0800 
 30 H        1.3070    -1.0930    -2.7940 H     1 <1>   0.0800 
 31 H       -4.4130     0.8690     2.1400 H     1 <1>   0.1500 
 32 H       -3.7090    -1.3780     1.9210 H     1 <1>   0.0800 
 33 H       -2.0480    -1.6140     1.4080 H     1 <1>   0.0800 
 34 H       -2.8620    -1.5720    -0.8330 H     1 <1>   0.4500 
 35 H       -1.8620     4.8440     0.3610 H     1 <1>   0.0800 
 36 H       -2.7660     4.6550    -1.1390 H     1 <1>   0.0800 
 37 H       -5.4100     3.4600     1.6250 H     1 <1>   0.0800 
 38 H       -4.0050     3.8810     2.6010 H     1 <1>   0.0800 
 39 H       -4.9110    -0.4430    -0.3900 H     1 <1>   0.0800 
 40 H       -3.8190    -3.8520     0.8020 H     1 <1>   0.0800 
 41 H       -2.2070    -3.6330     0.1570 H     1 <1>   0.0800 
 42 H       -3.5490    -3.9160    -0.9270 H     1 <1>   0.0800 
 43 H       -3.8860     5.7410     1.1630 H     1 <1>   0.0800 
 44 H       -4.8040     4.9080    -0.0740 H     1 <1>   0.0800 
 45 H       -5.8030    -3.1450     0.6000 H     1 <1>   0.0800 
 46 H       -6.0800    -1.5660     1.3120 H     1 <1>   0.0800 
 47 H       -4.7530    -1.2390    -2.6080 H     1 <1>   0.0800 
 48 H       -5.0020    -2.9030    -2.1010 H     1 <1>   0.0800 
 49 H       -7.7970    -2.9300    -0.4290 H     1 <1>   0.0800 
 50 H       -7.2010    -2.4050    -2.6210 H     1 <1>   0.0800 
 51 H       -8.1440    -0.6020     0.9600 H     1 <1>   0.0800 
 52 H       -9.1590    -1.0730    -0.3730 H     1 <1>   0.0800 
 53 H       -8.0680    -0.3460    -2.9050 H     1 <1>   0.0800 
 54 H       -6.4700     0.3150    -2.7330 H     1 <1>   0.0800 
 55 H       -8.4810     1.0840    -1.0800 H     1 <1>   0.0800 
 56 H       -6.3770     1.7740    -0.7880 H     1 <1>   0.4000 
@<TRIPOS>BOND
  1   1   2  1   
  2   1   3  1   
  3   2   4  ar  
  4   2   5  ar  
  5   3   6  1   
  6   3  25  1   
  7   3  26  1   
  8   4   7  ar  
  9   4   8  1   
 10   5   9  ar  
 11   5  27  1   
 12   6  28  1   
 13   6  29  1   
 14   6  30  1   
 15   7  10  ar  
 16   7  31  1   
 17   8  11  1   
 18   8  32  1   
 19   8  33  1   
 20   9  10  ar  
 21   9  12  1   
 22  10  13  1   
 23  11  14  1   
 24  11  15  1   
 25  11  34  1   
 26  12  16  1   
 27  12  35  1   
 28  12  36  1   
 29  13  16  1   
 30  13  37  1   
 31  13  38  1   
 32  14  17  1   
 33  14  18  1   
 34  14  39  1   
 35  15  40  1   
 36  15  41  1   
 37  15  42  1   
 38  16  43  1   
 39  16  44  1   
 40  17  19  1   
 41  17  45  1   
 42  17  46  1   
 43  18  20  1   
 44  18  47  1   
 45  18  48  1   
 46  19  20  1   
 47  19  21  1   
 48  19  49  1   
 49  20  22  1   
 50  20  50  1   
 51  21  23  1   
 52  21  51  1   
 53  21  52  1   
 54  22  23  1   
 55  22  53  1   
 56  22  54  1   
 57  23  24  1   
 58  23  55  1   
 59  24  56  1   
@<TRIPOS>SUBSTRUCTURE
  1 ****   4 GROUP 4 **** **** 0

# MOE 2024.06 (io_trps.svl 2023.06)
