@<TRIPOS>MOLECULE
NONAME
57 60 1 0 0 
SMALL
USER_CHARGES


@<TRIPOS>ATOM
  1 O       -1.1770    -0.0410    -0.6710 O.2   1 <1>  -0.5700 
  2 C       -1.9850     0.8660    -0.7500 C.2   1 <1>   0.7150 
  3 N       -3.3230     0.5420    -0.7910 N.am  1 <1>  -0.6600 
  4 C       -1.5750     2.2450    -0.7440 C.2   1 <1>  -0.2370 
  5 C       -3.7380    -0.8330    -1.1750 C.3   1 <1>   0.1400 
  6 C       -4.2220     1.1660     0.2250 C.3   1 <1>   0.1400 
  7 N       -2.2360     3.1870    -1.4970 N.pl3 1 <1>   0.0330 
  8 C       -0.5570     2.8850    -0.0910 C.2   1 <1>  -0.1810 
  9 C       -4.2960    -1.4700     0.1150 C.3   1 <1>   0.4230 
 10 C       -5.5720     0.3920     0.3730 C.3   1 <1>  -0.1600 
 11 C       -1.6550     4.4100    -1.3110 C.ar  1 <1>  -0.1520 
 12 C       -0.5930     4.2520    -0.4310 C.ar  1 <1>   0.0000 
 13 C        0.4770     2.2970     0.8530 C.3   1 <1>  -0.0590 
 14 N       -3.5930    -2.7460     0.4960 N.4   1 <1>  -0.9590 
 15 C       -5.8680    -1.2050     0.1790 C.3   1 <1>   0.0000 
 16 C       -1.9690     5.6610    -1.8470 C.ar  1 <1>  -0.1500 
 17 C        0.1790     5.3640    -0.0720 C.ar  1 <1>  -0.1500 
 18 C       -3.9950    -3.8460    -0.3590 C.3   1 <1>   0.3430 
 19 C       -2.1000    -2.5990     0.5750 C.3   1 <1>   0.2630 
 20 C       -6.2720    -2.7570    -0.0720 C.3   1 <1>  -0.1600 
 21 C       -7.4390    -0.8660     0.3130 C.3   1 <1>   0.1200 
 22 C       -1.2050     6.7450    -1.4850 C.ar  1 <1>  -0.1500 
 23 C       -0.1290     6.6050    -0.5980 C.ar  1 <1>   0.0820 
 24 C       -5.4220    -4.0400     0.0520 C.3   1 <1>  -0.1600 
 25 O       -7.7970    -1.0130     1.6510 O.3   1 <1>  -0.6800 
 26 O        0.5560     7.7470    -0.3130 O.3   1 <1>  -0.3630 
 27 C        1.6690     7.7150     0.5530 C.3   1 <1>   0.0400 
 28 H       -4.5060    -0.7700    -1.9260 H     1 <1>   0.0800 
 29 H       -2.9180    -1.3850    -1.5940 H     1 <1>   0.0800 
 30 H       -3.7110     1.1810     1.1760 H     1 <1>   0.0800 
 31 H       -4.4150     2.1920    -0.0440 H     1 <1>   0.0800 
 32 H       -3.0160     2.9980    -2.1340 H     1 <1>   0.2700 
 33 H       -3.9170    -0.8610     0.9130 H     1 <1>   0.0800 
 34 H       -5.9640     0.7230     1.3230 H     1 <1>   0.0800 
 35 H       -6.1100     0.9220    -0.3970 H     1 <1>   0.0800 
 36 H        0.4440     2.8100     1.7970 H     1 <1>   0.0800 
 37 H        1.4590     2.4110     0.4290 H     1 <1>   0.0800 
 38 H        0.2970     1.2520     1.0230 H     1 <1>   0.0800 
 39 H       -3.9350    -2.9710     1.4410 H     1 <1>   0.4500 
 40 H       -2.7940     5.7680    -2.5290 H     1 <1>   0.1500 
 41 H        0.9930     5.2120     0.6070 H     1 <1>   0.1500 
 42 H       -3.9130    -3.5850    -1.4020 H     1 <1>   0.0800 
 43 H       -3.4170    -4.7340    -0.1540 H     1 <1>   0.0800 
 44 H       -1.6780    -2.4360    -0.4030 H     1 <1>   0.0800 
 45 H       -1.6560    -3.4870     0.9950 H     1 <1>   0.0800 
 46 H       -1.8390    -1.7570     1.1950 H     1 <1>   0.0800 
 47 H       -7.1090    -3.0690     0.5380 H     1 <1>   0.0800 
 48 H       -6.6210    -2.7880    -1.0930 H     1 <1>   0.0800 
 49 H       -8.1010    -1.4890    -0.2710 H     1 <1>   0.0800 
 50 H       -7.7840     0.1150     0.0320 H     1 <1>   0.0800 
 51 H       -1.4170     7.7230    -1.8760 H     1 <1>   0.1500 
 52 H       -5.8570    -4.8180    -0.5530 H     1 <1>   0.0800 
 53 H       -5.4470    -4.3950     1.0690 H     1 <1>   0.0800 
 54 H       -8.7520    -0.8370     1.7850 H     1 <1>   0.4000 
 55 H        2.0580     8.7140     0.6320 H     1 <1>   0.0800 
 56 H        2.4160     7.0630     0.1370 H     1 <1>   0.0800 
 57 H        1.3480     7.3700     1.5200 H     1 <1>   0.0800 
@<TRIPOS>BOND
  1   1   2  2   
  2   2   3  am  
  3   2   4  1   
  4   3   5  1   
  5   3   6  1   
  6   4   7  1   
  7   4   8  2   
  8   5   9  1   
  9   5  28  1   
 10   5  29  1   
 11   6  10  1   
 12   6  30  1   
 13   6  31  1   
 14   7  11  1   
 15   7  32  1   
 16   8  12  1   
 17   8  13  1   
 18   9  14  1   
 19   9  15  1   
 20   9  33  1   
 21  10  15  1   
 22  10  34  1   
 23  10  35  1   
 24  11  12  ar  
 25  11  16  ar  
 26  12  17  ar  
 27  13  36  1   
 28  13  37  1   
 29  13  38  1   
 30  14  18  1   
 31  14  19  1   
 32  14  39  1   
 33  15  20  1   
 34  15  21  1   
 35  16  22  ar  
 36  16  40  1   
 37  17  23  ar  
 38  17  41  1   
 39  18  24  1   
 40  18  42  1   
 41  18  43  1   
 42  19  44  1   
 43  19  45  1   
 44  19  46  1   
 45  20  24  1   
 46  20  47  1   
 47  20  48  1   
 48  21  25  1   
 49  21  49  1   
 50  21  50  1   
 51  22  23  ar  
 52  22  51  1   
 53  23  26  1   
 54  24  52  1   
 55  24  53  1   
 56  25  54  1   
 57  26  27  1   
 58  27  55  1   
 59  27  56  1   
 60  27  57  1   
@<TRIPOS>SUBSTRUCTURE
  1 ****   2 GROUP 4 **** **** 0

# MOE 2024.06 (io_trps.svl 2023.06)
