@<TRIPOS>MOLECULE
NONAME
43 45 1 0 0 
SMALL
USER_CHARGES


@<TRIPOS>ATOM
  1 CL       0.3680    -0.1970    -1.6610 Cl    1 <1>  -0.1770 
  2 C        1.2920    -1.3000    -0.6540 C.ar  1 <1>   0.1770 
  3 C        0.7900    -2.5650    -0.3070 C.ar  1 <1>   0.4100 
  4 C        2.5290    -0.8880    -0.2200 C.ar  1 <1>  -0.1500 
  5 N        1.4800    -3.4190     0.4490 N.ar  1 <1>  -0.6200 
  6 N       -0.4640    -2.9990    -0.7260 N.pl3 1 <1>  -0.8380 
  7 C        3.2340    -1.7800     0.5640 C.ar  1 <1>  -0.1500 
  8 C        2.6710    -3.0090     0.8600 C.ar  1 <1>   0.1600 
  9 C       -1.6710    -2.3350    -0.1430 C.3   1 <1>   0.2090 
 10 C       -0.6780    -4.4450    -1.0470 C.3   1 <1>   0.2090 
 11 C       -2.2150    -3.1210     1.0630 C.3   1 <1>   0.1400 
 12 C       -1.2450    -5.2240     0.1560 C.3   1 <1>   0.1400 
 13 N       -2.4650    -4.5520     0.7060 N.am  1 <1>  -0.6600 
 14 C       -3.7380    -5.0120     0.5010 C.2   1 <1>   0.6900 
 15 O       -4.6640    -4.2300     0.3940 O.2   1 <1>  -0.5700 
 16 N       -3.9350    -6.3620     0.4440 N.am  1 <1>  -0.5470 
 17 C       -5.0520    -7.1320     0.0940 C.ar  1 <1>   0.1170 
 18 C       -5.1060    -8.4560     0.5110 C.ar  1 <1>  -0.1500 
 19 C       -6.1050    -6.6380    -0.6740 C.ar  1 <1>  -0.1500 
 20 C       -6.1800    -9.2540     0.1720 C.ar  1 <1>   0.1010 
 21 C       -7.1820    -7.4400    -1.0100 C.ar  1 <1>  -0.1500 
 22 S       -6.1470   -10.9570     0.7620 S.3   1 <1>  -0.3320 
 23 C       -7.2270    -8.7570    -0.5880 C.ar  1 <1>  -0.1500 
 24 C       -7.7060   -11.7540     0.1740 C.3   1 <1>  -0.0100 
 25 H        2.9200     0.0790    -0.4820 H     1 <1>   0.1500 
 26 H        4.2090    -1.5250     0.9380 H     1 <1>   0.1500 
 27 H        3.2320    -3.6960     1.4720 H     1 <1>   0.1500 
 28 H       -2.4370    -2.2680    -0.8960 H     1 <1>   0.0800 
 29 H       -1.4280    -1.3360     0.1710 H     1 <1>   0.0800 
 30 H        0.2530    -4.8900    -1.3540 H     1 <1>   0.0800 
 31 H       -1.3640    -4.5200    -1.8720 H     1 <1>   0.0800 
 32 H       -3.1200    -2.6570     1.4130 H     1 <1>   0.0800 
 33 H       -1.4940    -3.0790     1.8600 H     1 <1>   0.0800 
 34 H       -0.4940    -5.2730     0.9240 H     1 <1>   0.0800 
 35 H       -1.4660    -6.2270    -0.1580 H     1 <1>   0.0800 
 36 H       -3.1590    -6.8750     0.8460 H     1 <1>   0.3700 
 37 H       -4.3140    -8.8720     1.1040 H     1 <1>   0.1500 
 38 H       -6.0850    -5.6190    -1.0150 H     1 <1>   0.1500 
 39 H       -7.9850    -7.0340    -1.6010 H     1 <1>   0.1500 
 40 H       -8.0670    -9.3680    -0.8550 H     1 <1>   0.1500 
 41 H       -7.7040   -12.7700     0.5250 H     1 <1>   0.0800 
 42 H       -7.7120   -11.7210    -0.9000 H     1 <1>   0.0800 
 43 H       -8.5350   -11.2090     0.5900 H     1 <1>   0.0800 
@<TRIPOS>BOND
  1   1   2  1   
  2   2   3  ar  
  3   2   4  ar  
  4   3   5  ar  
  5   3   6  1   
  6   4   7  ar  
  7   4  25  1   
  8   5   8  ar  
  9   6   9  1   
 10   6  10  1   
 11   7   8  ar  
 12   7  26  1   
 13   8  27  1   
 14   9  11  1   
 15   9  28  1   
 16   9  29  1   
 17  10  12  1   
 18  10  30  1   
 19  10  31  1   
 20  11  13  1   
 21  11  32  1   
 22  11  33  1   
 23  12  13  1   
 24  12  34  1   
 25  12  35  1   
 26  13  14  am  
 27  14  15  2   
 28  14  16  am  
 29  16  17  1   
 30  16  36  1   
 31  17  18  ar  
 32  17  19  ar  
 33  18  20  ar  
 34  18  37  1   
 35  19  21  ar  
 36  19  38  1   
 37  20  22  1   
 38  20  23  ar  
 39  21  23  ar  
 40  21  39  1   
 41  22  24  1   
 42  23  40  1   
 43  24  41  1   
 44  24  42  1   
 45  24  43  1   
@<TRIPOS>SUBSTRUCTURE
  1 ****  13 GROUP 4 **** **** 0

# MOE 2024.06 (io_trps.svl 2023.06)
