@<TRIPOS>MOLECULE
NONAME
56 58 1 0 0 
SMALL
USER_CHARGES


@<TRIPOS>ATOM
  1 O       -0.1030     0.6100     0.1450 O.2   1 <1>  -0.5700 
  2 C       -0.1470     1.7900    -0.1100 C.2   1 <1>   0.5690 
  3 N       -0.9710     2.6550     0.5630 N.am  1 <1>  -0.6600 
  4 C        0.7420     2.3120    -1.2450 C.3   1 <1>   0.1810 
  5 C       -0.9760     4.1190     0.2400 C.3   1 <1>   0.3640 
  6 C       -1.8230     2.2180     1.7070 C.3   1 <1>   0.0600 
  7 O        0.9660     3.7000    -1.1830 O.3   1 <1>  -0.5600 
  8 C       -2.3930     4.7130     0.2670 C.ar  1 <1>  -0.1430 
  9 C       -0.2250     4.4580    -1.0690 C.3   1 <1>   0.2610 
 10 C       -3.4440     4.3170    -0.5670 C.ar  1 <1>  -0.1430 
 11 C       -2.6200     5.7240     1.1950 C.ar  1 <1>  -0.1500 
 12 C        0.0240     5.9690    -1.1520 C.2   1 <1>   0.5690 
 13 C       -4.6780     4.9400    -0.4490 C.ar  1 <1>  -0.1500 
 14 C       -3.3290     3.2310    -1.6330 C.3   1 <1>  -0.0960 
 15 C       -3.8540     6.3350     1.3040 C.ar  1 <1>  -0.1500 
 16 O       -0.5690     6.5600    -2.0290 O.2   1 <1>  -0.5700 
 17 N        0.8510     6.6360    -0.2670 N.am  1 <1>  -0.5090 
 18 C       -4.8880     5.9410     0.4800 C.ar  1 <1>  -0.1500 
 19 C        0.8600     8.1170    -0.2100 C.3   1 <1>   0.0490 
 20 C        1.9570     5.9930     0.4970 C.3   1 <1>   0.1400 
 21 C        0.6030     8.7870     1.1050 C.3   1 <1>  -0.2000 
 22 C       -0.4270     8.8460     0.0230 C.3   1 <1>  -0.2000 
 23 C        3.2400     5.9890    -0.3420 C.3   1 <1>  -0.1600 
 24 C        4.3690     5.1640     0.2990 C.3   1 <1>  -0.0800 
 25 C        4.8160     5.7460     1.6470 C.3   1 <1>  -0.2400 
 26 C        5.5670     5.1000    -0.6540 C.3   1 <1>  -0.2400 
 27 H        0.2860     2.0820    -2.1910 H     1 <1>   0.0800 
 28 H        1.6990     1.8250    -1.1970 H     1 <1>   0.0800 
 29 H       -0.4270     4.5880     1.0340 H     1 <1>   0.0800 
 30 H       -1.6390     2.8450     2.5620 H     1 <1>   0.0800 
 31 H       -1.6080     1.1980     1.9760 H     1 <1>   0.0800 
 32 H       -2.8630     2.2890     1.4370 H     1 <1>   0.0800 
 33 H       -0.8400     4.1990    -1.9080 H     1 <1>   0.0800 
 34 H       -1.8310     6.0570     1.8470 H     1 <1>   0.1500 
 35 H       -5.4940     4.6500    -1.0870 H     1 <1>   0.1500 
 36 H       -4.2980     2.8250    -1.8600 H     1 <1>   0.0800 
 37 H       -2.7140     2.4150    -1.3100 H     1 <1>   0.0800 
 38 H       -2.9240     3.6480    -2.5370 H     1 <1>   0.0800 
 39 H       -4.0100     7.1170     2.0270 H     1 <1>   0.1500 
 40 H       -5.8510     6.4130     0.5570 H     1 <1>   0.1500 
 41 H        1.5660     8.5550    -0.8960 H     1 <1>   0.1000 
 42 H        2.1180     6.5350     1.4110 H     1 <1>   0.0800 
 43 H        1.6990     4.9840     0.7600 H     1 <1>   0.0800 
 44 H        0.3870     8.1900     1.9730 H     1 <1>   0.1000 
 45 H        1.1380     9.6890     1.3420 H     1 <1>   0.1000 
 46 H       -0.5830     9.7760    -0.4930 H     1 <1>   0.1000 
 47 H       -1.3300     8.2670     0.1100 H     1 <1>   0.1000 
 48 H        3.0130     5.5660    -1.3060 H     1 <1>   0.0800 
 49 H        3.5720     7.0010    -0.4920 H     1 <1>   0.0800 
 50 H        4.0150     4.1570     0.4570 H     1 <1>   0.0800 
 51 H        5.1260     6.7700     1.5330 H     1 <1>   0.0800 
 52 H        5.6450     5.1820     2.0370 H     1 <1>   0.0800 
 53 H        4.0220     5.7020     2.3690 H     1 <1>   0.0800 
 54 H        5.9560     6.0860    -0.8420 H     1 <1>   0.0800 
 55 H        5.2760     4.6620    -1.5930 H     1 <1>   0.0800 
 56 H        6.3510     4.4970    -0.2320 H     1 <1>   0.0800 
@<TRIPOS>BOND
  1   1   2  2   
  2   2   3  am  
  3   2   4  1   
  4   3   5  1   
  5   3   6  1   
  6   4   7  1   
  7   4  27  1   
  8   4  28  1   
  9   5   8  1   
 10   5   9  1   
 11   5  29  1   
 12   6  30  1   
 13   6  31  1   
 14   6  32  1   
 15   7   9  1   
 16   8  10  ar  
 17   8  11  ar  
 18   9  12  1   
 19   9  33  1   
 20  10  13  ar  
 21  10  14  1   
 22  11  15  ar  
 23  11  34  1   
 24  12  16  2   
 25  12  17  am  
 26  13  18  ar  
 27  13  35  1   
 28  14  36  1   
 29  14  37  1   
 30  14  38  1   
 31  15  18  ar  
 32  15  39  1   
 33  17  19  1   
 34  17  20  1   
 35  18  40  1   
 36  19  21  1   
 37  19  22  1   
 38  19  41  1   
 39  20  23  1   
 40  20  42  1   
 41  20  43  1   
 42  21  22  1   
 43  21  44  1   
 44  21  45  1   
 45  22  46  1   
 46  22  47  1   
 47  23  24  1   
 48  23  48  1   
 49  23  49  1   
 50  24  25  1   
 51  24  26  1   
 52  24  50  1   
 53  25  51  1   
 54  25  52  1   
 55  25  53  1   
 56  26  54  1   
 57  26  55  1   
 58  26  56  1   
@<TRIPOS>SUBSTRUCTURE
  1 ****   9 GROUP 4 **** **** 0

# MOE 2024.06 (io_trps.svl 2023.06)
