@<TRIPOS>MOLECULE
NONAME
52 55 1 0 0 
SMALL
USER_CHARGES


@<TRIPOS>ATOM
  1 O       -4.9240     3.1600     1.7900 O.2   1 <1>  -0.5700 
  2 C       -4.0680     2.4380     1.2780 C.2   1 <1>   0.5440 
  3 N       -4.4230     1.0890     1.1500 N.am  1 <1>  -0.6600 
  4 C       -2.7640     2.9950     0.9810 C.ar  1 <1>   0.0860 
  5 C       -3.6560     0.3270     0.1550 C.3   1 <1>   0.1400 
  6 C       -5.8520     0.6860     1.3150 C.3   1 <1>   0.1400 
  7 C       -1.9950     2.8790    -0.2230 C.ar  1 <1>  -0.1710 
  8 C       -2.1820     3.7440     2.0230 C.ar  1 <1>  -0.1500 
  9 C       -3.8600    -1.1810     0.1420 C.3   1 <1>   0.4230 
 10 C       -6.0180    -0.8450     1.3260 C.3   1 <1>  -0.1600 
 11 O       -2.4070     2.2750    -1.2410 O.3   1 <1>  -0.8290 
 12 C       -0.6870     3.4750    -0.3070 C.ar  1 <1>   0.0000 
 13 C       -0.9440     4.3130     1.9470 C.ar  1 <1>  -0.1500 
 14 N       -3.0110    -1.8570    -0.9320 N.4   1 <1>  -0.9590 
 15 C       -5.3620    -1.5540     0.1100 C.3   1 <1>   0.0000 
 16 C       -0.1580     4.1850     0.7880 C.ar  1 <1>   0.0000 
 17 C        0.1030     3.3770    -1.4620 C.ar  1 <1>  -0.1500 
 18 C       -3.5500    -3.1640    -1.4100 C.3   1 <1>   0.3430 
 19 C       -2.6470    -0.9570    -2.0930 C.3   1 <1>   0.2630 
 20 C       -5.4870    -3.0970     0.2740 C.3   1 <1>  -0.1600 
 21 C       -6.0310    -1.0690    -1.2100 C.3   1 <1>   0.1200 
 22 C        1.1270     4.7480     0.6940 C.ar  1 <1>  -0.1500 
 23 C        1.3570     3.9340    -1.5400 C.ar  1 <1>  -0.1500 
 24 C       -4.2810    -3.8890    -0.2780 C.3   1 <1>  -0.1600 
 25 O       -7.3970    -1.3160    -1.2060 O.3   1 <1>  -0.6800 
 26 C        1.8760     4.6260    -0.4490 C.ar  1 <1>  -0.1500 
 27 H       -3.9570     0.7160    -0.7980 H     1 <1>   0.0800 
 28 H       -2.6080     0.4990     0.3210 H     1 <1>   0.0800 
 29 H       -6.2260     1.0900     2.2410 H     1 <1>   0.0800 
 30 H       -6.4300     1.1220     0.5180 H     1 <1>   0.0800 
 31 H       -2.7570     3.8660     2.9230 H     1 <1>   0.1500 
 32 H       -3.4930    -1.5290     1.0920 H     1 <1>   0.0800 
 33 H       -5.5870    -1.2090     2.2430 H     1 <1>   0.0800 
 34 H       -7.0700    -1.0700     1.3650 H     1 <1>   0.0800 
 35 H       -0.5500     4.8720     2.7740 H     1 <1>   0.1500 
 36 H       -2.1190    -2.0480    -0.4580 H     1 <1>   0.4500 
 37 H       -0.3100     2.8490    -2.3010 H     1 <1>   0.1500 
 38 H       -4.2400    -3.0000    -2.2210 H     1 <1>   0.0800 
 39 H       -2.7440    -3.7780    -1.7790 H     1 <1>   0.0800 
 40 H       -3.5330    -0.6290    -2.6110 H     1 <1>   0.0800 
 41 H       -2.0090    -1.4740    -2.7900 H     1 <1>   0.0800 
 42 H       -2.1220    -0.0760    -1.7480 H     1 <1>   0.0800 
 43 H       -5.5840    -3.3490     1.3170 H     1 <1>   0.0800 
 44 H       -6.3870    -3.4500    -0.1990 H     1 <1>   0.0800 
 45 H       -5.6180    -1.5570    -2.0730 H     1 <1>   0.0800 
 46 H       -5.9110    -0.0070    -1.3440 H     1 <1>   0.0800 
 47 H        1.5170     5.2830     1.5390 H     1 <1>   0.1500 
 48 H        1.9370     3.8410    -2.4400 H     1 <1>   0.1500 
 49 H       -4.6210    -4.8470    -0.6330 H     1 <1>   0.0800 
 50 H       -3.5790    -4.0820     0.5160 H     1 <1>   0.0800 
 51 H       -7.5960    -2.2690    -1.1390 H     1 <1>   0.4000 
 52 H        2.8570     5.0590    -0.5150 H     1 <1>   0.1500 
@<TRIPOS>BOND
  1   1   2  2   
  2   2   3  am  
  3   2   4  1   
  4   3   5  1   
  5   3   6  1   
  6   4   7  ar  
  7   4   8  ar  
  8   5   9  1   
  9   5  27  1   
 10   5  28  1   
 11   6  10  1   
 12   6  29  1   
 13   6  30  1   
 14   7  11  1   
 15   7  12  ar  
 16   8  13  ar  
 17   8  31  1   
 18   9  14  1   
 19   9  15  1   
 20   9  32  1   
 21  10  15  1   
 22  10  33  1   
 23  10  34  1   
 24  12  16  ar  
 25  12  17  ar  
 26  13  16  ar  
 27  13  35  1   
 28  14  18  1   
 29  14  19  1   
 30  14  36  1   
 31  15  20  1   
 32  15  21  1   
 33  16  22  ar  
 34  17  23  ar  
 35  17  37  1   
 36  18  24  1   
 37  18  38  1   
 38  18  39  1   
 39  19  40  1   
 40  19  41  1   
 41  19  42  1   
 42  20  24  1   
 43  20  43  1   
 44  20  44  1   
 45  21  25  1   
 46  21  45  1   
 47  21  46  1   
 48  22  26  ar  
 49  22  47  1   
 50  23  26  ar  
 51  23  48  1   
 52  24  49  1   
 53  24  50  1   
 54  25  51  1   
 55  26  52  1   
@<TRIPOS>SUBSTRUCTURE
  1 ****   5 GROUP 4 **** **** 0

# MOE 2024.06 (io_trps.svl 2023.06)
