@<TRIPOS>MOLECULE
NONAME
39 40 1 0 0 
SMALL
USER_CHARGES


@<TRIPOS>ATOM
  1 CL       0.3660    -4.3750     2.3600 Cl    1 <1>  -0.1240 
  2 C       -0.7580    -3.9310     1.1060 C.2   1 <1>   0.1640 
  3 S       -2.3840    -3.5350     1.6120 S.3   1 <1>  -0.0800 
  4 C       -0.6070    -3.8340    -0.2240 C.2   1 <1>  -0.1500 
  5 C       -2.8700    -3.2350    -0.0600 C.2   1 <1>  -0.0220 
  6 C       -1.8150    -3.4380    -0.8830 C.2   1 <1>  -0.1500 
  7 S       -4.5980    -2.7990    -0.3780 S.o2  1 <1>   1.5000 
  8 O       -4.7910    -2.5870    -1.7960 O.2   1 <1>  -0.6500 
  9 O       -5.0260    -1.7720     0.5470 O.2   1 <1>  -0.6500 
 10 N       -5.4160    -4.2190     0.0370 N.am  1 <1>  -0.8490 
 11 C       -5.0790    -5.3600    -0.8260 C.3   1 <1>   0.1960 
 12 C       -6.8740    -4.0430     0.0830 C.3   1 <1>   0.1960 
 13 C       -5.4200    -6.6940    -0.1160 C.3   1 <1>  -0.1060 
 14 C       -7.6130    -5.3910     0.1970 C.3   1 <1>  -0.1600 
 15 C       -5.6380    -7.7200    -1.2430 C.2   1 <1>   0.9060 
 16 C       -6.6820    -6.4560     0.7730 C.3   1 <1>   0.2000 
 17 C       -4.2650    -7.1340     0.8350 C.3   1 <1>  -0.1600 
 18 O       -6.4270    -8.6630    -1.0870 O.co2 1 <1>  -0.9000 
 19 O       -5.0150    -7.5860    -2.3040 O.co2 1 <1>  -0.9000 
 20 O       -7.4030    -7.6100     0.9970 O.3   1 <1>  -0.6800 
 21 C       -2.9270    -7.4910     0.1610 C.3   1 <1>  -0.1600 
 22 C       -1.8750    -7.8690     1.2060 C.3   1 <1>  -0.2400 
 23 H        0.3000    -4.0280    -0.7680 H     1 <1>   0.1500 
 24 H       -1.8510    -3.3330    -1.9550 H     1 <1>   0.1500 
 25 H       -5.6370    -5.2730    -1.7460 H     1 <1>   0.0800 
 26 H       -4.0430    -5.3490    -1.1040 H     1 <1>   0.0800 
 27 H       -7.1140    -3.4320     0.9370 H     1 <1>   0.0800 
 28 H       -7.2130    -3.5280    -0.8020 H     1 <1>   0.0800 
 29 H       -7.9450    -5.7020    -0.7780 H     1 <1>   0.0800 
 30 H       -8.4770    -5.2730     0.8260 H     1 <1>   0.0800 
 31 H       -6.3690    -6.1080     1.7430 H     1 <1>   0.0800 
 32 H       -4.0910    -6.3500     1.5520 H     1 <1>   0.0800 
 33 H       -4.6020    -8.0000     1.3800 H     1 <1>   0.0800 
 34 H       -7.2020    -8.2200     0.2170 H     1 <1>   0.4000 
 35 H       -3.0720    -8.3220    -0.5110 H     1 <1>   0.0800 
 36 H       -2.5540    -6.6660    -0.4160 H     1 <1>   0.0800 
 37 H       -2.2070    -8.7170     1.7790 H     1 <1>   0.0800 
 38 H       -1.6960    -7.0450     1.8740 H     1 <1>   0.0800 
 39 H       -0.9510    -8.1250     0.7190 H     1 <1>   0.0800 
@<TRIPOS>BOND
  1   1   2  1   
  2   2   3  1   
  3   2   4  2   
  4   3   5  1   
  5   4   6  1   
  6   4  23  1   
  7   5   6  2   
  8   5   7  1   
  9   6  24  1   
 10   7   8  2   
 11   7   9  2   
 12   7  10  am  
 13  10  11  1   
 14  10  12  1   
 15  11  13  1   
 16  11  25  1   
 17  11  26  1   
 18  12  14  1   
 19  12  27  1   
 20  12  28  1   
 21  13  15  1   
 22  13  16  1   
 23  13  17  1   
 24  14  16  1   
 25  14  29  1   
 26  14  30  1   
 27  15  18  ar  
 28  15  19  ar  
 29  16  20  1   
 30  16  31  1   
 31  17  21  1   
 32  17  32  1   
 33  17  33  1   
 34  20  34  1   
 35  21  22  1   
 36  21  35  1   
 37  21  36  1   
 38  22  37  1   
 39  22  38  1   
 40  22  39  1   
@<TRIPOS>SUBSTRUCTURE
  1 ****  11 GROUP 4 **** **** 0

# MOE 2024.06 (io_trps.svl 2023.06)
