@<TRIPOS>MOLECULE
NONAME
52 54 1 0 0 
SMALL
USER_CHARGES


@<TRIPOS>ATOM
  1 F       -4.1100    -0.3280     1.8380 F     1 <1>  -0.1900 
  2 C       -4.1470    -1.3510     1.0290 C.ar  1 <1>   0.1900 
  3 C       -4.2760    -2.6190     1.5630 C.ar  1 <1>  -0.1500 
  4 C       -4.0610    -1.1290    -0.3320 C.ar  1 <1>  -0.1500 
  5 C       -4.3200    -3.7000     0.6990 C.ar  1 <1>  -0.1500 
  6 C       -4.1080    -2.2190    -1.1850 C.ar  1 <1>  -0.1500 
  7 C       -4.2350    -3.5050    -0.6750 C.ar  1 <1>  -0.1430 
  8 C       -4.2840    -4.6950    -1.6270 C.3   1 <1>   0.2640 
  9 O       -5.5680    -4.8180    -2.2050 O.3   1 <1>  -0.3630 
 10 C       -6.5900    -5.1280    -1.3710 C.ar  1 <1>   0.0830 
 11 C       -7.5050    -4.1520    -0.9740 C.ar  1 <1>   0.0830 
 12 C       -6.7210    -6.4320    -0.9230 C.ar  1 <1>  -0.1500 
 13 O       -7.3740    -2.8880    -1.4520 O.3   1 <1>  -0.3620 
 14 C       -8.5310    -4.4970    -0.1030 C.ar  1 <1>  -0.1500 
 15 C       -7.7560    -6.7740    -0.0660 C.ar  1 <1>  -0.1430 
 16 C       -7.5830    -1.8010    -0.5780 C.3   1 <1>   0.0400 
 17 C       -8.6510    -5.7990     0.3510 C.ar  1 <1>  -0.1500 
 18 C       -7.9310    -8.2060     0.4020 C.3   1 <1>   0.4860 
 19 N       -8.5220    -8.9930    -0.7260 N.4   1 <1>  -0.9590 
 20 C       -8.3840   -10.4680    -0.4420 C.3   1 <1>   0.3430 
 21 C       -9.9390    -8.5380    -0.9400 C.3   1 <1>   0.3430 
 22 C       -9.6040   -11.0320     0.2760 C.3   1 <1>  -0.1860 
 23 C      -10.7690    -9.6530    -1.5630 C.3   1 <1>  -0.1600 
 24 C       -9.5770   -10.3590     1.6230 C.2   1 <1>   0.9060 
 25 C      -10.8600   -10.8500    -0.6060 C.3   1 <1>   0.2000 
 26 O       -8.5390   -10.4710     2.2750 O.co2 1 <1>  -0.9000 
 27 O      -10.4470    -9.5340     1.9200 O.co2 1 <1>  -0.9000 
 28 O      -11.9650   -10.6700     0.1880 O.3   1 <1>  -0.6800 
 29 H       -4.3430    -2.7520     2.6270 H     1 <1>   0.1500 
 30 H       -3.9630    -0.1280    -0.7110 H     1 <1>   0.1500 
 31 H       -4.4270    -4.6930     1.1010 H     1 <1>   0.1500 
 32 H       -4.0560    -2.0660    -2.2490 H     1 <1>   0.1500 
 33 H       -4.0470    -5.6110    -1.1160 H     1 <1>   0.0800 
 34 H       -3.5830    -4.5540    -2.4290 H     1 <1>   0.0800 
 35 H       -6.0100    -7.1670    -1.2550 H     1 <1>   0.1500 
 36 H       -9.2440    -3.7600     0.2170 H     1 <1>   0.1500 
 37 H       -7.1830    -0.9190    -1.0430 H     1 <1>   0.0800 
 38 H       -7.0660    -1.9930     0.3460 H     1 <1>   0.0800 
 39 H       -8.6380    -1.6800    -0.4120 H     1 <1>   0.0800 
 40 H       -9.4520    -6.0500     1.0300 H     1 <1>   0.1500 
 41 H       -8.5780    -8.2310     1.2650 H     1 <1>   0.0800 
 42 H       -6.9790    -8.6190     0.6910 H     1 <1>   0.0800 
 43 H       -7.9770    -8.7530    -1.5590 H     1 <1>   0.4500 
 44 H       -8.2630   -10.9990    -1.3710 H     1 <1>   0.0800 
 45 H       -7.5050   -10.6470     0.1590 H     1 <1>   0.0800 
 46 H      -10.3840    -8.2780     0.0090 H     1 <1>   0.0800 
 47 H       -9.9540    -7.6600    -1.5650 H     1 <1>   0.0800 
 48 H       -9.4530   -12.0790     0.4470 H     1 <1>   0.0800 
 49 H      -10.3120    -9.9550    -2.4870 H     1 <1>   0.0800 
 50 H      -11.7570    -9.2940    -1.7950 H     1 <1>   0.0800 
 51 H      -11.0400   -11.7420    -1.1830 H     1 <1>   0.0800 
 52 H      -11.6720   -10.1510     0.9980 H     1 <1>   0.4000 
@<TRIPOS>BOND
  1   1   2  1   
  2   2   3  ar  
  3   2   4  ar  
  4   3   5  ar  
  5   3  29  1   
  6   4   6  ar  
  7   4  30  1   
  8   5   7  ar  
  9   5  31  1   
 10   6   7  ar  
 11   6  32  1   
 12   7   8  1   
 13   8   9  1   
 14   8  33  1   
 15   8  34  1   
 16   9  10  1   
 17  10  11  ar  
 18  10  12  ar  
 19  11  13  1   
 20  11  14  ar  
 21  12  15  ar  
 22  12  35  1   
 23  13  16  1   
 24  14  17  ar  
 25  14  36  1   
 26  15  17  ar  
 27  15  18  1   
 28  16  37  1   
 29  16  38  1   
 30  16  39  1   
 31  17  40  1   
 32  18  19  1   
 33  18  41  1   
 34  18  42  1   
 35  19  20  1   
 36  19  21  1   
 37  19  43  1   
 38  20  22  1   
 39  20  44  1   
 40  20  45  1   
 41  21  23  1   
 42  21  46  1   
 43  21  47  1   
 44  22  24  1   
 45  22  25  1   
 46  22  48  1   
 47  23  25  1   
 48  23  49  1   
 49  23  50  1   
 50  24  26  ar  
 51  24  27  ar  
 52  25  28  1   
 53  25  51  1   
 54  28  52  1   
@<TRIPOS>SUBSTRUCTURE
  1 ****  15 GROUP 4 **** **** 0

# MOE 2024.06 (io_trps.svl 2023.06)
