@<TRIPOS>MOLECULE
NONAME
45 48 1 0 0 
SMALL
USER_CHARGES


@<TRIPOS>ATOM
  1 S        1.8350     2.6060     2.5330 S.3   1 <1>  -0.0800 
  2 C        0.9090     3.1230     1.1190 C.2   1 <1>  -0.0450 
  3 C        0.8260     1.2010     2.7780 C.2   1 <1>  -0.1100 
  4 C        1.3200     4.3230     0.4470 C.2   1 <1>   0.5940 
  5 C       -0.0950     2.2270     0.9140 C.2   1 <1>  -0.1500 
  6 C       -0.1390     1.1490     1.8440 C.2   1 <1>  -0.1500 
  7 O        2.2040     5.0530     0.8340 O.2   1 <1>  -0.5700 
  8 C        0.6170     4.7470    -0.8400 C.3   1 <1>  -0.0190 
  9 C        1.6660     5.3210    -1.8110 C.3   1 <1>   0.3430 
 10 C       -0.5190     5.7610    -0.5390 C.3   1 <1>  -0.1600 
 11 N        1.9800     6.7220    -1.4090 N.4   1 <1>  -0.9590 
 12 C       -0.5250     6.9360    -1.5330 C.3   1 <1>  -0.1600 
 13 C        0.8280     7.6640    -1.6080 C.3   1 <1>   0.3430 
 14 C        3.2640     7.2240    -1.9800 C.3   1 <1>   0.5230 
 15 C        3.6750     8.5070    -1.2850 C.2   1 <1>  -0.0400 
 16 O        3.0690     9.6190    -1.5880 O.3   1 <1>  -0.0190 
 17 C        4.5980     8.7880    -0.3530 C.2   1 <1>  -0.1500 
 18 N        3.5220    10.6230    -0.9090 N.2   1 <1>  -0.4100 
 19 C        4.4630    10.1670    -0.1380 C.2   1 <1>   0.2350 
 20 C        5.2400    10.9730     0.7840 C.ar  1 <1>   0.0540 
 21 C        6.0250    10.4380     1.7970 C.ar  1 <1>  -0.1500 
 22 C        5.2510    12.3590     0.7180 C.ar  1 <1>  -0.1500 
 23 C        6.7440    11.2660     2.6380 C.ar  1 <1>   0.1600 
 24 C        6.0050    13.1010     1.6080 C.ar  1 <1>   0.1600 
 25 N        6.7550    12.5860     2.5670 N.ar  1 <1>  -0.6200 
 26 H        1.0630     0.5540     3.6050 H     1 <1>   0.1500 
 27 H       -0.8310     2.2770     0.1300 H     1 <1>   0.1500 
 28 H       -0.8910     0.3810     1.7760 H     1 <1>   0.1500 
 29 H        0.1990     3.8750    -1.3090 H     1 <1>   0.0800 
 30 H        1.2800     5.3110    -2.8180 H     1 <1>   0.0800 
 31 H        2.5550     4.7110    -1.7780 H     1 <1>   0.0800 
 32 H       -0.3960     6.1640     0.4540 H     1 <1>   0.0800 
 33 H       -1.4720     5.2590    -0.5600 H     1 <1>   0.0800 
 34 H        2.1430     6.6600    -0.3840 H     1 <1>   0.4500 
 35 H       -1.2860     7.6460    -1.2540 H     1 <1>   0.0800 
 36 H       -0.7830     6.5770    -2.5150 H     1 <1>   0.0800 
 37 H        0.9090     8.1550    -2.5650 H     1 <1>   0.0800 
 38 H        0.8660     8.4280    -0.8460 H     1 <1>   0.0800 
 39 H        3.1630     7.4010    -3.0380 H     1 <1>   0.0800 
 40 H        4.0360     6.4880    -1.8280 H     1 <1>   0.0800 
 41 H        5.2980     8.1400     0.1400 H     1 <1>   0.1500 
 42 H        6.0820     9.3770     1.9440 H     1 <1>   0.1500 
 43 H        4.6690    12.8650    -0.0310 H     1 <1>   0.1500 
 44 H        7.3440    10.8210     3.4140 H     1 <1>   0.1500 
 45 H        5.9920    14.1750     1.5270 H     1 <1>   0.1500 
@<TRIPOS>BOND
  1   1   2  1   
  2   1   3  1   
  3   2   4  1   
  4   2   5  2   
  5   3   6  2   
  6   3  26  1   
  7   4   7  2   
  8   4   8  1   
  9   5   6  1   
 10   5  27  1   
 11   6  28  1   
 12   8   9  1   
 13   8  10  1   
 14   8  29  1   
 15   9  11  1   
 16   9  30  1   
 17   9  31  1   
 18  10  12  1   
 19  10  32  1   
 20  10  33  1   
 21  11  13  1   
 22  11  14  1   
 23  11  34  1   
 24  12  13  1   
 25  12  35  1   
 26  12  36  1   
 27  13  37  1   
 28  13  38  1   
 29  14  15  1   
 30  14  39  1   
 31  14  40  1   
 32  15  16  1   
 33  15  17  2   
 34  16  18  1   
 35  17  19  1   
 36  17  41  1   
 37  18  19  2   
 38  19  20  1   
 39  20  21  ar  
 40  20  22  ar  
 41  21  23  ar  
 42  21  42  1   
 43  22  24  ar  
 44  22  43  1   
 45  23  25  ar  
 46  23  44  1   
 47  24  25  ar  
 48  24  45  1   
@<TRIPOS>SUBSTRUCTURE
  1 ****  11 GROUP 4 **** **** 0

# MOE 2024.06 (io_trps.svl 2023.06)
