@<TRIPOS>MOLECULE
NONAME
52 55 1 0 0 
SMALL
USER_CHARGES


@<TRIPOS>ATOM
  1 O        1.2880    -0.3520     0.9430 O.3   1 <1>  -0.5600 
  2 C        2.1640    -1.1310     0.1610 C.3   1 <1>   0.4240 
  3 C       -0.0690    -0.3940     0.6260 C.3   1 <1>   0.1200 
  4 C        1.5480    -2.5040    -0.1890 C.ar  1 <1>  -0.1440 
  5 C        2.5120    -0.3370    -1.1100 C.3   1 <1>  -0.1600 
  6 C        3.4180    -1.3130     1.0290 C.3   1 <1>  -0.1600 
  7 C       -0.5960    -1.7970     0.9110 C.3   1 <1>  -0.0160 
  8 C        0.2410    -2.8210     0.1700 C.ar  1 <1>  -0.1440 
  9 C        2.2910    -3.4530    -0.8830 C.ar  1 <1>  -0.1500 
 10 C        3.2170     0.9770    -0.7770 C.3   1 <1>   0.2090 
 11 C        4.1020     0.0230     1.3160 C.3   1 <1>   0.2090 
 12 C       -0.3010    -4.0570    -0.1440 C.ar  1 <1>  -0.1500 
 13 C        1.7510    -4.6860    -1.2000 C.ar  1 <1>  -0.1500 
 14 N        4.4320     0.6800     0.0270 N.pl3 1 <1>  -0.8380 
 15 C        0.4550    -5.0000    -0.8330 C.ar  1 <1>   0.0820 
 16 C        5.4360     1.6400     0.0680 C.ar  1 <1>   0.4100 
 17 O        0.0010    -6.2300    -1.1790 O.3   1 <1>  -0.3630 
 18 N        5.0580     2.9090     0.0080 N.ar  1 <1>  -0.6200 
 19 C        6.7800     1.2500     0.1790 C.ar  1 <1>   0.1600 
 20 C       -1.2980    -6.6560    -0.8330 C.3   1 <1>   0.0400 
 21 C        6.0790     3.7520     0.0750 C.ar  1 <1>   0.4100 
 22 N        7.8150     2.0710     0.2500 N.ar  1 <1>  -0.6200 
 23 N        5.7740     5.1060     0.0050 N.pl3 1 <1>  -0.8380 
 24 C        7.4110     3.3300     0.1960 C.ar  1 <1>   0.1600 
 25 C        5.8630     5.7150    -1.3460 C.3   1 <1>   0.1290 
 26 C        4.6000     5.5770     0.7890 C.3   1 <1>   0.1290 
 27 H       -0.2010    -0.1320    -0.4080 H     1 <1>   0.0800 
 28 H       -0.5730     0.3300     1.2410 H     1 <1>   0.0800 
 29 H        1.6270    -0.1460    -1.6840 H     1 <1>   0.0800 
 30 H        3.1710    -0.9170    -1.7280 H     1 <1>   0.0800 
 31 H        4.1260    -1.9480     0.5320 H     1 <1>   0.0800 
 32 H        3.1420    -1.7900     1.9510 H     1 <1>   0.0800 
 33 H       -1.6220    -1.8580     0.5990 H     1 <1>   0.0800 
 34 H       -0.5500    -1.9880     1.9680 H     1 <1>   0.0800 
 35 H        3.3020    -3.2420    -1.1850 H     1 <1>   0.1500 
 36 H        2.5630     1.6250    -0.2170 H     1 <1>   0.0800 
 37 H        3.4990     1.4830    -1.6850 H     1 <1>   0.0800 
 38 H        4.9980    -0.1400     1.8900 H     1 <1>   0.0800 
 39 H        3.4480     0.6630     1.8870 H     1 <1>   0.0800 
 40 H       -1.3090    -4.2720     0.1520 H     1 <1>   0.1500 
 41 H        2.3320    -5.4150    -1.7350 H     1 <1>   0.1500 
 42 H        6.9800     0.1970     0.2080 H     1 <1>   0.1500 
 43 H       -1.4290    -7.6580    -1.2010 H     1 <1>   0.0800 
 44 H       -2.0150    -6.0010    -1.2960 H     1 <1>   0.0800 
 45 H       -1.3960    -6.6440     0.2380 H     1 <1>   0.0800 
 46 H        8.1600     4.0960     0.2490 H     1 <1>   0.1500 
 47 H        6.7000     5.3030    -1.8840 H     1 <1>   0.0800 
 48 H        5.9960     6.7790    -1.2590 H     1 <1>   0.0800 
 49 H        4.9620     5.5100    -1.8990 H     1 <1>   0.0800 
 50 H        4.5620     5.0610     1.7330 H     1 <1>   0.0800 
 51 H        3.6910     5.3730     0.2490 H     1 <1>   0.0800 
 52 H        4.6810     6.6340     0.9730 H     1 <1>   0.0800 
@<TRIPOS>BOND
  1   1   2  1   
  2   1   3  1   
  3   2   4  1   
  4   2   5  1   
  5   2   6  1   
  6   3   7  1   
  7   3  27  1   
  8   3  28  1   
  9   4   8  ar  
 10   4   9  ar  
 11   5  10  1   
 12   5  29  1   
 13   5  30  1   
 14   6  11  1   
 15   6  31  1   
 16   6  32  1   
 17   7   8  1   
 18   7  33  1   
 19   7  34  1   
 20   8  12  ar  
 21   9  13  ar  
 22   9  35  1   
 23  10  14  1   
 24  10  36  1   
 25  10  37  1   
 26  11  14  1   
 27  11  38  1   
 28  11  39  1   
 29  12  15  ar  
 30  12  40  1   
 31  13  15  ar  
 32  13  41  1   
 33  14  16  1   
 34  15  17  1   
 35  16  18  ar  
 36  16  19  ar  
 37  17  20  1   
 38  18  21  ar  
 39  19  22  ar  
 40  19  42  1   
 41  20  43  1   
 42  20  44  1   
 43  20  45  1   
 44  21  23  1   
 45  21  24  ar  
 46  22  24  ar  
 47  23  25  1   
 48  23  26  1   
 49  24  46  1   
 50  25  47  1   
 51  25  48  1   
 52  25  49  1   
 53  26  50  1   
 54  26  51  1   
 55  26  52  1   
@<TRIPOS>SUBSTRUCTURE
  1 ****   5 GROUP 4 **** **** 0

# MOE 2024.06 (io_trps.svl 2023.06)
