@<TRIPOS>MOLECULE
NONAME
58 61 1 0 0 
SMALL
USER_CHARGES


@<TRIPOS>ATOM
  1 S       -0.7260     2.2520    -1.3640 S.o2  1 <1>   1.3330 
  2 O        0.1800     3.1670    -2.0140 O.2   1 <1>  -0.6500 
  3 O       -2.0600     2.0790    -1.8910 O.2   1 <1>  -0.6500 
  4 N       -0.9020     2.7590     0.2810 N.am  1 <1>  -0.6930 
  5 C        0.0610     0.6620    -1.2200 C.3   1 <1>  -0.1350 
  6 C        0.1840     3.0630     1.0980 C.ar  1 <1>   0.1990 
  7 C       -2.2790     2.6960     0.8590 C.3   1 <1>   0.2570 
  8 C        1.0360     4.1160     0.7880 C.ar  1 <1>  -0.1500 
  9 C        0.4380     2.3230     2.2480 C.ar  1 <1>  -0.1500 
 10 C       -2.8540     1.2840     1.0860 C.2   1 <1>   0.5690 
 11 C        2.1150     4.4300     1.5970 C.ar  1 <1>  -0.1440 
 12 C        1.5100     2.6300     3.0640 C.ar  1 <1>  -0.1500 
 13 O       -2.0790     0.3580     1.1940 O.2   1 <1>  -0.5700 
 14 N       -4.2120     1.0800     1.2030 N.am  1 <1>  -0.6600 
 15 C        2.3480     3.6820     2.7400 C.ar  1 <1>  -0.1500 
 16 C        3.0360     5.5820     1.2390 C.3   1 <1>  -0.0970 
 17 C       -5.2690     2.1360     1.0700 C.3   1 <1>   0.1400 
 18 C       -4.7760    -0.2780     1.4690 C.3   1 <1>   0.1400 
 19 C       -6.2490     1.7960    -0.0690 C.3   1 <1>   0.1440 
 20 C       -5.7770    -0.6640     0.3720 C.3   1 <1>  -0.1600 
 21 C       -7.2810     2.9050    -0.1480 C.ar  1 <1>   0.1670 
 22 C       -6.8690     0.4060     0.1860 C.3   1 <1>  -0.1600 
 23 C       -5.5750     1.8770    -1.4650 C.3   1 <1>  -0.1600 
 24 N       -8.2610     3.1000     0.7070 N.ar  1 <1>  -0.6200 
 25 C       -7.0610     3.7180    -1.2190 C.ar  1 <1>  -0.1430 
 26 C       -5.8600     3.2810    -2.0210 C.3   1 <1>  -0.0170 
 27 C       -9.0290     4.1450     0.4310 C.ar  1 <1>   0.4770 
 28 C       -7.9160     4.7750    -1.4080 C.ar  1 <1>   0.1600 
 29 N       -8.9150     4.9980    -0.5790 N.ar  1 <1>  -0.6200 
 30 C      -10.1770     4.3940     1.3790 C.3   1 <1>  -0.0970 
 31 H        0.2770     0.2710    -2.1940 H     1 <1>   0.0800 
 32 H       -0.5770    -0.0310    -0.7090 H     1 <1>   0.0800 
 33 H        0.9790     0.7530    -0.6740 H     1 <1>   0.0800 
 34 H       -2.9250     3.2350     0.1930 H     1 <1>   0.0800 
 35 H       -2.2830     3.2090     1.8030 H     1 <1>   0.0800 
 36 H        0.8430     4.6940    -0.0980 H     1 <1>   0.1500 
 37 H       -0.2020     1.4980     2.5020 H     1 <1>   0.1500 
 38 H        1.6960     2.0490     3.9510 H     1 <1>   0.1500 
 39 H        3.1820     3.9170     3.3790 H     1 <1>   0.1500 
 40 H        2.9350     5.8410     0.2000 H     1 <1>   0.0800 
 41 H        4.0600     5.3100     1.4220 H     1 <1>   0.0800 
 42 H        2.7910     6.4420     1.8360 H     1 <1>   0.0800 
 43 H       -4.8470     3.1080     0.8980 H     1 <1>   0.0800 
 44 H       -5.8190     2.1880     1.9940 H     1 <1>   0.0800 
 45 H       -5.2710    -0.2670     2.4250 H     1 <1>   0.0800 
 46 H       -3.9940    -1.0170     1.5130 H     1 <1>   0.0800 
 47 H       -6.2350    -1.6020     0.6290 H     1 <1>   0.0800 
 48 H       -5.2400    -0.8090    -0.5500 H     1 <1>   0.0800 
 49 H       -7.5210     0.1360    -0.6260 H     1 <1>   0.0800 
 50 H       -7.4690     0.4500     1.0780 H     1 <1>   0.0800 
 51 H       -6.0350     1.1640    -2.1260 H     1 <1>   0.0800 
 52 H       -4.5240     1.6640    -1.4330 H     1 <1>   0.0800 
 53 H       -6.0690     3.2530    -3.0770 H     1 <1>   0.0800 
 54 H       -5.0300     3.9400    -1.8310 H     1 <1>   0.0800 
 55 H       -7.7830     5.4430    -2.2420 H     1 <1>   0.1500 
 56 H       -9.9410     4.0140     2.3550 H     1 <1>   0.0800 
 57 H      -11.0540     3.8980     1.0090 H     1 <1>   0.0800 
 58 H      -10.3720     5.4480     1.4520 H     1 <1>   0.0800 
@<TRIPOS>BOND
  1   1   2  2   
  2   1   3  2   
  3   1   4  am  
  4   1   5  1   
  5   4   6  1   
  6   4   7  1   
  7   5  31  1   
  8   5  32  1   
  9   5  33  1   
 10   6   8  ar  
 11   6   9  ar  
 12   7  10  1   
 13   7  34  1   
 14   7  35  1   
 15   8  11  ar  
 16   8  36  1   
 17   9  12  ar  
 18   9  37  1   
 19  10  13  2   
 20  10  14  am  
 21  11  15  ar  
 22  11  16  1   
 23  12  15  ar  
 24  12  38  1   
 25  14  17  1   
 26  14  18  1   
 27  15  39  1   
 28  16  40  1   
 29  16  41  1   
 30  16  42  1   
 31  17  19  1   
 32  17  43  1   
 33  17  44  1   
 34  18  20  1   
 35  18  45  1   
 36  18  46  1   
 37  19  21  1   
 38  19  22  1   
 39  19  23  1   
 40  20  22  1   
 41  20  47  1   
 42  20  48  1   
 43  21  24  ar  
 44  21  25  ar  
 45  22  49  1   
 46  22  50  1   
 47  23  26  1   
 48  23  51  1   
 49  23  52  1   
 50  24  27  ar  
 51  25  26  1   
 52  25  28  ar  
 53  26  53  1   
 54  26  54  1   
 55  27  29  ar  
 56  27  30  1   
 57  28  29  ar  
 58  28  55  1   
 59  30  56  1   
 60  30  57  1   
 61  30  58  1   
@<TRIPOS>SUBSTRUCTURE
  1 ****   7 GROUP 4 **** **** 0

# MOE 2024.06 (io_trps.svl 2023.06)
