@<TRIPOS>MOLECULE
NONAME
48 50 1 0 0 
SMALL
USER_CHARGES


@<TRIPOS>ATOM
  1 CL      -0.0440     1.4070     1.9780 Cl    1 <1>  -0.1770 
  2 C       -1.6450     1.4870     1.2920 C.ar  1 <1>   0.1770 
  3 C       -2.3990     2.6330     1.4530 C.ar  1 <1>  -0.1500 
  4 C       -2.1420     0.4030     0.5930 C.ar  1 <1>  -0.1500 
  5 C       -3.6680     2.6900     0.9060 C.ar  1 <1>  -0.1500 
  6 C       -3.4120     0.4730     0.0490 C.ar  1 <1>  -0.1500 
  7 C       -4.2050     1.6140     0.1950 C.ar  1 <1>   0.0530 
  8 C       -5.5260     1.7040    -0.3760 C.2   1 <1>   0.0870 
  9 O       -5.9070     2.8310    -0.9250 O.3   1 <1>  -0.0190 
 10 C       -6.5630     0.8300    -0.5060 C.2   1 <1>  -0.0860 
 11 N       -7.1130     2.7780    -1.4220 N.2   1 <1>  -0.4100 
 12 C       -7.5300     1.5920    -1.1780 C.2   1 <1>   0.3720 
 13 C       -6.7080    -0.5310    -0.0840 C.2   1 <1>   0.7160 
 14 N       -8.8030     1.2040    -1.5750 N.pl3 1 <1>  -0.8520 
 15 O       -5.9520    -1.0350     0.7240 O.2   1 <1>  -0.5700 
 16 N       -7.7200    -1.2870    -0.5770 N.am  1 <1>  -0.7300 
 17 C       -9.8150     1.1870    -0.4820 C.3   1 <1>   0.2090 
 18 C       -8.1180    -2.6130    -0.1130 C.3   1 <1>   0.3580 
 19 C      -10.9860     0.2820    -0.8660 C.3   1 <1>   0.1200 
 20 C       -8.9540    -3.2390    -1.2140 C.2   1 <1>  -0.2880 
 21 C       -8.9290    -2.4690     1.1840 C.3   1 <1>  -0.1600 
 22 O      -11.8890     0.2540     0.1930 O.3   1 <1>  -0.5600 
 23 C      -10.1270    -3.8490    -1.0120 C.2   1 <1>  -0.2880 
 24 C       -9.7520    -3.7330     1.4810 C.3   1 <1>  -0.1600 
 25 C      -13.0480    -0.4670    -0.0760 C.3   1 <1>   0.0400 
 26 C      -10.7620    -4.0190     0.3590 C.3   1 <1>  -0.0220 
 27 H       -1.9930     3.4650     2.0000 H     1 <1>   0.1500 
 28 H       -1.5410    -0.4800     0.4790 H     1 <1>   0.1500 
 29 H       -4.2580     3.5820     1.0300 H     1 <1>   0.1500 
 30 H       -3.7940    -0.3710    -0.4980 H     1 <1>   0.1500 
 31 H       -9.1080     1.8830    -2.2820 H     1 <1>   0.4000 
 32 H       -8.3890    -0.8110    -1.1910 H     1 <1>   0.3700 
 33 H      -10.1750     2.1880    -0.3130 H     1 <1>   0.0800 
 34 H       -9.3700     0.8210     0.4280 H     1 <1>   0.0800 
 35 H       -7.2410    -3.2150     0.0610 H     1 <1>   0.0800 
 36 H      -10.6440    -0.7220    -1.0480 H     1 <1>   0.0800 
 37 H      -11.4860     0.6710    -1.7360 H     1 <1>   0.0800 
 38 H       -8.4990    -3.1490    -2.1850 H     1 <1>   0.1500 
 39 H       -9.6060    -1.6370     1.1000 H     1 <1>   0.0800 
 40 H       -8.2540    -2.2760     1.9990 H     1 <1>   0.0800 
 41 H      -10.7140    -4.2730    -1.8100 H     1 <1>   0.1500 
 42 H      -10.2730    -3.6210     2.4160 H     1 <1>   0.0800 
 43 H       -9.0820    -4.5710     1.5740 H     1 <1>   0.0800 
 44 H      -13.6520    -0.4750     0.8140 H     1 <1>   0.0800 
 45 H      -12.7890    -1.4750    -0.3490 H     1 <1>   0.0800 
 46 H      -13.5870     0.0130    -0.8750 H     1 <1>   0.0800 
 47 H      -11.1290    -5.0250     0.4660 H     1 <1>   0.0800 
 48 H      -11.5990    -3.3490     0.4440 H     1 <1>   0.0800 
@<TRIPOS>BOND
  1   1   2  1   
  2   2   3  ar  
  3   2   4  ar  
  4   3   5  ar  
  5   3  27  1   
  6   4   6  ar  
  7   4  28  1   
  8   5   7  ar  
  9   5  29  1   
 10   6   7  ar  
 11   6  30  1   
 12   7   8  1   
 13   8   9  1   
 14   8  10  2   
 15   9  11  1   
 16  10  12  1   
 17  10  13  1   
 18  11  12  2   
 19  12  14  1   
 20  13  15  2   
 21  13  16  am  
 22  14  17  1   
 23  14  31  1   
 24  16  18  1   
 25  16  32  1   
 26  17  19  1   
 27  17  33  1   
 28  17  34  1   
 29  18  20  1   
 30  18  21  1   
 31  18  35  1   
 32  19  22  1   
 33  19  36  1   
 34  19  37  1   
 35  20  23  2   
 36  20  38  1   
 37  21  24  1   
 38  21  39  1   
 39  21  40  1   
 40  22  25  1   
 41  23  26  1   
 42  23  41  1   
 43  24  26  1   
 44  24  42  1   
 45  24  43  1   
 46  25  44  1   
 47  25  45  1   
 48  25  46  1   
 49  26  47  1   
 50  26  48  1   
@<TRIPOS>SUBSTRUCTURE
  1 ****  13 GROUP 4 **** **** 0

# MOE 2024.06 (io_trps.svl 2023.06)
