@<TRIPOS>MOLECULE
NONAME
52 54 1 0 0 
SMALL
USER_CHARGES


@<TRIPOS>ATOM
  1 O        3.6200    -2.8320    -0.6440 O.2   1 <1>  -0.5700 
  2 C        2.6690    -2.2810    -1.1520 C.2   1 <1>   0.5690 
  3 N        2.3310    -1.0070    -0.7630 N.am  1 <1>  -0.6600 
  4 C        1.9070    -3.0340    -2.2500 C.3   1 <1>   0.1810 
  5 C        2.7650    -0.5220     0.5730 C.3   1 <1>   0.1400 
  6 C        1.4570    -0.0970    -1.5380 C.3   1 <1>   0.1400 
  7 O        0.5040    -2.9620    -2.1270 O.3   1 <1>  -0.5600 
  8 C        4.1650     0.0910     0.4660 C.3   1 <1>   0.3430 
  9 C        2.0930     1.2960    -1.6520 C.3   1 <1>  -0.1600 
 10 C       -0.0590    -3.7760    -1.1360 C.3   1 <1>   0.2640 
 11 N        4.2380     1.3580    -0.3580 N.4   1 <1>  -0.9590 
 12 C        3.6250     1.2710    -1.7220 C.3   1 <1>   0.3430 
 13 C       -0.0290    -3.0740     0.2150 C.ar  1 <1>  -0.1440 
 14 C        5.6390     1.8220    -0.4520 C.3   1 <1>   0.5230 
 15 C        0.7980    -3.5280     1.2330 C.ar  1 <1>  -0.1500 
 16 C       -0.8460    -1.9770     0.4450 C.ar  1 <1>  -0.1500 
 17 C        6.0800     2.1700     0.9460 C.2   1 <1>  -0.3320 
 18 C        0.8070    -2.8930     2.4630 C.ar  1 <1>  -0.1500 
 19 C       -0.8360    -1.3400     1.6740 C.ar  1 <1>  -0.1500 
 20 N        7.0200     1.4850     1.6380 N.pl3 1 <1>   0.3140 
 21 C        5.6540     3.1730     1.7470 C.2   1 <1>  -0.1500 
 22 C       -0.0100    -1.7980     2.6840 C.ar  1 <1>  -0.1500 
 23 N        7.1810     2.0010     2.8610 N.2   1 <1>  -0.7070 
 24 C        7.8270     0.3280     1.2130 C.3   1 <1>   0.0160 
 25 C        6.3750     3.0140     2.9220 C.2   1 <1>   0.1390 
 26 H        2.2030    -4.0680    -2.2570 H     1 <1>   0.0800 
 27 H        2.1650    -2.6090    -3.2010 H     1 <1>   0.0800 
 28 H        2.8060    -1.3580     1.2500 H     1 <1>   0.0800 
 29 H        2.0580     0.1820     0.9750 H     1 <1>   0.0800 
 30 H        0.4910    -0.0310    -1.0640 H     1 <1>   0.0800 
 31 H        1.3060    -0.4950    -2.5270 H     1 <1>   0.0800 
 32 H        4.8150    -0.6570     0.0430 H     1 <1>   0.0800 
 33 H        4.5150     0.2980     1.4640 H     1 <1>   0.0800 
 34 H        1.7600     1.9210    -0.8430 H     1 <1>   0.0800 
 35 H        1.7180     1.7400    -2.5560 H     1 <1>   0.0800 
 36 H        0.4560    -4.7210    -1.1060 H     1 <1>   0.0800 
 37 H       -1.0810    -3.9590    -1.4170 H     1 <1>   0.0800 
 38 H        3.7450     2.0850     0.1710 H     1 <1>   0.4500 
 39 H        3.9450     2.1200    -2.3040 H     1 <1>   0.0800 
 40 H        3.9570     0.3770    -2.2260 H     1 <1>   0.0800 
 41 H        5.7000     2.7020    -1.0730 H     1 <1>   0.0800 
 42 H        6.2660     1.0540    -0.8760 H     1 <1>   0.0800 
 43 H        1.4400    -4.3770     1.0730 H     1 <1>   0.1500 
 44 H       -1.4940    -1.6220    -0.3370 H     1 <1>   0.1500 
 45 H        1.4460    -3.2570     3.2490 H     1 <1>   0.1500 
 46 H       -1.4790    -0.4930     1.8450 H     1 <1>   0.1500 
 47 H        4.9280     3.9490     1.5730 H     1 <1>   0.1500 
 48 H       -0.0080    -1.3100     3.6430 H     1 <1>   0.1500 
 49 H        8.3980     0.5890     0.3410 H     1 <1>   0.0800 
 50 H        7.1860    -0.5070     1.0050 H     1 <1>   0.0800 
 51 H        8.5040     0.0640     2.0070 H     1 <1>   0.0800 
 52 H        6.2860     3.6470     3.7910 H     1 <1>   0.1500 
@<TRIPOS>BOND
  1   1   2  2   
  2   2   3  am  
  3   2   4  1   
  4   3   5  1   
  5   3   6  1   
  6   4   7  1   
  7   4  26  1   
  8   4  27  1   
  9   5   8  1   
 10   5  28  1   
 11   5  29  1   
 12   6   9  1   
 13   6  30  1   
 14   6  31  1   
 15   7  10  1   
 16   8  11  1   
 17   8  32  1   
 18   8  33  1   
 19   9  12  1   
 20   9  34  1   
 21   9  35  1   
 22  10  13  1   
 23  10  36  1   
 24  10  37  1   
 25  11  12  1   
 26  11  14  1   
 27  11  38  1   
 28  12  39  1   
 29  12  40  1   
 30  13  15  ar  
 31  13  16  ar  
 32  14  17  1   
 33  14  41  1   
 34  14  42  1   
 35  15  18  ar  
 36  15  43  1   
 37  16  19  ar  
 38  16  44  1   
 39  17  20  1   
 40  17  21  2   
 41  18  22  ar  
 42  18  45  1   
 43  19  22  ar  
 44  19  46  1   
 45  20  23  1   
 46  20  24  1   
 47  21  25  1   
 48  21  47  1   
 49  22  48  1   
 50  23  25  2   
 51  24  49  1   
 52  24  50  1   
 53  24  51  1   
 54  25  52  1   
@<TRIPOS>SUBSTRUCTURE
  1 ****   5 GROUP 4 **** **** 0

# MOE 2024.06 (io_trps.svl 2023.06)
