@<TRIPOS>MOLECULE
NONAME
29 29 1 0 0 
SMALL
USER_CHARGES


@<TRIPOS>ATOM
  1 CL      -0.1870     0.1400    -0.4480 Cl    1 <1>  -0.1770 
  2 C       -1.7110     0.9780    -0.5330 C.ar  1 <1>   0.4870 
  3 N       -1.7060     2.2310    -0.1190 N.ar  1 <1>  -0.6200 
  4 C       -2.8030     0.2830    -1.0140 C.ar  1 <1>  -0.1500 
  5 C       -2.8790     2.8690    -0.2000 C.ar  1 <1>   0.4270 
  6 C       -4.0190     0.9290    -1.0790 C.ar  1 <1>  -0.1500 
  7 N       -2.8930     4.2060     0.2500 N.am  1 <1>  -0.1680 
  8 C       -4.0420     2.2390    -0.6580 C.ar  1 <1>  -0.1500 
  9 N       -1.9810     4.4880     1.3900 N.3   1 <1>  -0.7290 
 10 C       -3.5600     5.2150    -0.4400 C.2   1 <1>   0.5690 
 11 O       -4.0970     4.9810    -1.5070 O.2   1 <1>  -0.5700 
 12 C       -3.6700     6.6810     0.1000 C.3   1 <1>   0.0610 
 13 C       -4.6240     7.5270    -0.7770 C.3   1 <1>  -0.2400 
 14 C       -4.2490     6.7320     1.5300 C.3   1 <1>  -0.2400 
 15 C       -2.3050     7.3990     0.0710 C.3   1 <1>  -0.2400 
 16 H       -2.6950    -0.7390    -1.3270 H     1 <1>   0.1500 
 17 H       -4.9050     0.4340    -1.4430 H     1 <1>   0.1500 
 18 H       -4.9650     2.7880    -0.6850 H     1 <1>   0.1500 
 19 H       -1.0890     4.0590     1.0950 H     1 <1>   0.3600 
 20 H       -2.3030     3.8820     2.1530 H     1 <1>   0.3600 
 21 H       -5.6060     7.0870    -0.7950 H     1 <1>   0.0800 
 22 H       -4.2620     7.5740    -1.7890 H     1 <1>   0.0800 
 23 H       -4.7090     8.5320    -0.4040 H     1 <1>   0.0800 
 24 H       -5.1890     6.2100     1.5680 H     1 <1>   0.0800 
 25 H       -4.4120     7.7500     1.8370 H     1 <1>   0.0800 
 26 H       -3.5830     6.2840     2.2420 H     1 <1>   0.0800 
 27 H       -1.8890     7.3620    -0.9210 H     1 <1>   0.0800 
 28 H       -1.6060     6.9420     0.7450 H     1 <1>   0.0800 
 29 H       -2.4110     8.4300     0.3580 H     1 <1>   0.0800 
@<TRIPOS>BOND
  1   1   2  1   
  2   2   3  ar  
  3   2   4  ar  
  4   3   5  ar  
  5   4   6  ar  
  6   4  16  1   
  7   5   7  1   
  8   5   8  ar  
  9   6   8  ar  
 10   6  17  1   
 11   7   9  1   
 12   7  10  am  
 13   8  18  1   
 14   9  19  1   
 15   9  20  1   
 16  10  11  2   
 17  10  12  1   
 18  12  13  1   
 19  12  14  1   
 20  12  15  1   
 21  13  21  1   
 22  13  22  1   
 23  13  23  1   
 24  14  24  1   
 25  14  25  1   
 26  14  26  1   
 27  15  27  1   
 28  15  28  1   
 29  15  29  1   
@<TRIPOS>SUBSTRUCTURE
  1 ****   7 GROUP 4 **** **** 0

# MOE 2024.06 (io_trps.svl 2023.06)
