@<TRIPOS>MOLECULE
NONAME
53 55 1 0 0 
SMALL
USER_CHARGES


@<TRIPOS>ATOM
  1 O       -1.2100    -0.1000     1.4420 O.2   1 <1>  -0.5700 
  2 C       -1.7480     0.5270     0.5590 C.2   1 <1>   0.5690 
  3 N       -2.5860    -0.1030    -0.3390 N.am  1 <1>  -0.6600 
  4 C       -1.4040     2.0260     0.5280 C.3   1 <1>  -0.0190 
  5 C       -2.7220    -1.5950    -0.2740 C.3   1 <1>   0.2840 
  6 C       -3.2350     0.5350    -1.5290 C.3   1 <1>   0.1400 
  7 C       -2.6000     2.9640     0.7980 C.3   1 <1>  -0.1600 
  8 C       -0.5670     2.4500    -0.7050 C.3   1 <1>  -0.1600 
  9 C       -3.9780    -2.0280     0.4740 C.ar  1 <1>  -0.1440 
 10 C       -4.7630     0.3600    -1.5680 C.3   1 <1>   0.0000 
 11 C       -2.1560     4.4270     1.0090 C.3   1 <1>   0.2000 
 12 C       -0.6930     3.9490    -1.0390 C.3   1 <1>  -0.1600 
 13 C       -4.9480    -2.7910    -0.1610 C.ar  1 <1>  -0.1500 
 14 C       -4.1620    -1.6780     1.8040 C.ar  1 <1>  -0.1500 
 15 C       -5.4910     1.4310    -2.4230 C.3   1 <1>   0.0000 
 16 C       -5.5840     0.8830    -0.3560 C.3   1 <1>   0.0000 
 17 O       -3.2010     5.2640     0.5740 O.3   1 <1>  -0.5600 
 18 C       -0.8580     4.7840     0.2340 C.3   1 <1>   0.2000 
 19 C       -6.0880    -3.1870     0.5180 C.ar  1 <1>  -0.1500 
 20 C       -5.3000    -2.0730     2.4850 C.ar  1 <1>  -0.1500 
 21 C       -6.6380     1.3710    -1.3820 C.3   1 <1>   0.0000 
 22 C       -4.2630     5.4030     1.4670 C.3   1 <1>   0.0400 
 23 O       -0.8980     6.1140    -0.1320 O.3   1 <1>  -0.6800 
 24 C       -6.2650    -2.8270     1.8420 C.ar  1 <1>  -0.1500 
 25 H       -0.7530     2.1740     1.3730 H     1 <1>   0.0800 
 26 H       -2.7390    -1.9920    -1.2740 H     1 <1>   0.0800 
 27 H       -1.8670    -2.0270     0.2170 H     1 <1>   0.0800 
 28 H       -3.0080     1.5800    -1.5650 H     1 <1>   0.0800 
 29 H       -2.8190     0.1010    -2.4220 H     1 <1>   0.0800 
 30 H       -3.1270     2.6220     1.6700 H     1 <1>   0.0800 
 31 H       -3.2730     2.9420    -0.0350 H     1 <1>   0.0800 
 32 H        0.4650     2.2230    -0.4970 H     1 <1>   0.0800 
 33 H       -0.8340     1.8800    -1.5750 H     1 <1>   0.0800 
 34 H       -5.0630    -0.6280    -1.8710 H     1 <1>   0.0000 
 35 H       -1.9750     4.6120     2.0550 H     1 <1>   0.0800 
 36 H       -1.5550     4.1030    -1.6650 H     1 <1>   0.0800 
 37 H        0.1810     4.2730    -1.5780 H     1 <1>   0.0800 
 38 H       -4.8240    -3.0810    -1.1890 H     1 <1>   0.1500 
 39 H       -3.4150    -1.0950     2.3140 H     1 <1>   0.1500 
 40 H       -4.9960     2.3880    -2.4280 H     1 <1>   0.0000 
 41 H       -5.7740     1.0890    -3.4020 H     1 <1>   0.0000 
 42 H       -5.9530     0.1120     0.2940 H     1 <1>   0.0000 
 43 H       -5.1220     1.6980     0.1690 H     1 <1>   0.0000 
 44 H        0.0030     4.6420     0.8650 H     1 <1>   0.0800 
 45 H       -6.8360    -3.7750     0.0170 H     1 <1>   0.1500 
 46 H       -5.4320    -1.7940     3.5160 H     1 <1>   0.1500 
 47 H       -7.3710     0.6170    -1.6150 H     1 <1>   0.0000 
 48 H       -7.0650     2.3300    -1.1470 H     1 <1>   0.0000 
 49 H       -4.9750     6.0840     1.0350 H     1 <1>   0.0800 
 50 H       -3.8970     5.8060     2.3960 H     1 <1>   0.0800 
 51 H       -4.7300     4.4470     1.6250 H     1 <1>   0.0800 
 52 H       -1.8550     6.3400    -0.1980 H     1 <1>   0.4000 
 53 H       -7.1500    -3.1340     2.3710 H     1 <1>   0.1500 
@<TRIPOS>BOND
  1   1   2  2   
  2   2   3  am  
  3   2   4  1   
  4   3   5  1   
  5   3   6  1   
  6   4   7  1   
  7   4   8  1   
  8   4  25  1   
  9   5   9  1   
 10   5  26  1   
 11   5  27  1   
 12   6  10  1   
 13   6  28  1   
 14   6  29  1   
 15   7  11  1   
 16   7  30  1   
 17   7  31  1   
 18   8  12  1   
 19   8  32  1   
 20   8  33  1   
 21   9  13  ar  
 22   9  14  ar  
 23  10  15  1   
 24  10  16  1   
 25  10  34  1   
 26  11  17  1   
 27  11  18  1   
 28  11  35  1   
 29  12  18  1   
 30  12  36  1   
 31  12  37  1   
 32  13  19  ar  
 33  13  38  1   
 34  14  20  ar  
 35  14  39  1   
 36  15  21  1   
 37  15  40  1   
 38  15  41  1   
 39  16  21  1   
 40  16  42  1   
 41  16  43  1   
 42  17  22  1   
 43  18  23  1   
 44  18  44  1   
 45  19  24  ar  
 46  19  45  1   
 47  20  24  ar  
 48  20  46  1   
 49  21  47  1   
 50  21  48  1   
 51  22  49  1   
 52  22  50  1   
 53  22  51  1   
 54  23  52  1   
 55  24  53  1   
@<TRIPOS>SUBSTRUCTURE
  1 ****   3 GROUP 4 **** **** 0

# MOE 2024.06 (io_trps.svl 2023.06)
