@<TRIPOS>MOLECULE
NONAME
58 61 1 0 0 
SMALL
USER_CHARGES


@<TRIPOS>ATOM
  1 O       -4.2520     2.3790     0.3590 O.2   1 <1>  -0.5700 
  2 C       -3.3860     1.5800     0.0690 C.2   1 <1>   0.5690 
  3 N       -3.5660     0.2650     0.4490 N.am  1 <1>  -0.6600 
  4 C       -2.0940     2.0660    -0.7000 C.3   1 <1>   0.3310 
  5 C       -4.8520    -0.2320     1.0050 C.3   1 <1>   0.1400 
  6 C       -2.5340    -0.8020     0.5200 C.3   1 <1>   0.1400 
  7 N       -0.8450     1.6360     0.0500 N.3   1 <1>  -0.8100 
  8 C       -2.0740     3.6150    -0.8910 C.3   1 <1>  -0.1600 
  9 C       -2.1000     1.4300    -2.1200 C.3   1 <1>  -0.1600 
 10 C       -4.5070    -1.5710     1.6600 C.3   1 <1>   0.2000 
 11 C       -3.3000    -2.0830     0.8720 C.3   1 <1>  -0.0800 
 12 C       -0.7810     2.1810     1.4300 C.3   1 <1>   0.1100 
 13 C        0.4780     1.8150    -0.6000 C.3   1 <1>   0.1100 
 14 C       -3.1440     4.1730    -1.8550 C.3   1 <1>  -0.1600 
 15 C       -3.2620     1.9250    -2.9950 C.3   1 <1>  -0.1600 
 16 O       -4.0950    -1.3270     2.9600 O.3   1 <1>  -0.6800 
 17 C       -3.7420    -2.8320    -0.3990 C.3   1 <1>   0.0200 
 18 C        0.3830     1.5620     2.2220 C.3   1 <1>   0.1200 
 19 C        1.6060     1.2170     0.2620 C.3   1 <1>   0.1200 
 20 C       -3.1570     3.4390    -3.1980 C.3   1 <1>  -0.1600 
 21 C       -2.5760    -3.4110    -1.1840 C.2   1 <1>  -0.0400 
 22 O        1.5920     1.7590     1.5500 O.3   1 <1>  -0.5600 
 23 O       -2.7960    -3.8790    -2.3830 O.3   1 <1>  -0.0190 
 24 C       -1.2700    -3.5700    -0.9170 C.2   1 <1>  -0.1500 
 25 N       -1.7090    -4.3370    -2.9340 N.2   1 <1>  -0.4100 
 26 C       -0.7730    -4.1660    -2.0720 C.2   1 <1>   0.1080 
 27 C        0.6690    -4.5630    -2.2940 C.3   1 <1>  -0.0590 
 28 H       -5.2780     0.4620     1.7100 H     1 <1>   0.0800 
 29 H       -5.5430    -0.3810     0.1940 H     1 <1>   0.0800 
 30 H       -1.9870    -0.8960    -0.3980 H     1 <1>   0.0800 
 31 H       -1.8420    -0.5640     1.3090 H     1 <1>   0.0800 
 32 H       -2.2090     4.0980     0.0590 H     1 <1>   0.0800 
 33 H       -1.1210     3.9150    -1.2820 H     1 <1>   0.0800 
 34 H       -1.2030     1.6840    -2.6470 H     1 <1>   0.0800 
 35 H       -2.1540     0.3620    -2.0570 H     1 <1>   0.0800 
 36 H       -5.3350    -2.2580     1.6910 H     1 <1>   0.0800 
 37 H       -2.7040    -2.7460     1.4750 H     1 <1>   0.0800 
 38 H       -0.6400     3.2470     1.4040 H     1 <1>   0.0800 
 39 H       -1.6970     1.9790     1.9560 H     1 <1>   0.0800 
 40 H        0.5050     1.3120    -1.5480 H     1 <1>   0.0800 
 41 H        0.6860     2.8580    -0.7590 H     1 <1>   0.0800 
 42 H       -4.1190     4.0950    -1.4070 H     1 <1>   0.0800 
 43 H       -2.9600     5.2200    -2.0220 H     1 <1>   0.0800 
 44 H       -3.2230     1.4340    -3.9530 H     1 <1>   0.0800 
 45 H       -4.2060     1.6810    -2.5390 H     1 <1>   0.0800 
 46 H       -3.5410    -0.5210     2.9670 H     1 <1>   0.4000 
 47 H       -4.2870    -2.1660    -1.0460 H     1 <1>   0.0800 
 48 H       -4.3990    -3.6420    -0.1330 H     1 <1>   0.0800 
 49 H        0.2310     0.5060     2.3580 H     1 <1>   0.0800 
 50 H        0.4660     2.0300     3.1870 H     1 <1>   0.0800 
 51 H        2.5630     1.4370    -0.1750 H     1 <1>   0.0800 
 52 H        1.4950     0.1500     0.3370 H     1 <1>   0.0800 
 53 H       -2.2550     3.6670    -3.7390 H     1 <1>   0.0800 
 54 H       -3.9900     3.7830    -3.7870 H     1 <1>   0.0800 
 55 H       -0.7030    -3.3170    -0.0410 H     1 <1>   0.1500 
 56 H        1.3060    -3.7040    -2.1880 H     1 <1>   0.0800 
 57 H        0.7910    -4.9670    -3.2830 H     1 <1>   0.0800 
 58 H        0.9560    -5.3100    -1.5770 H     1 <1>   0.0800 
@<TRIPOS>BOND
  1   1   2  2   
  2   2   3  am  
  3   2   4  1   
  4   3   5  1   
  5   3   6  1   
  6   4   7  1   
  7   4   8  1   
  8   4   9  1   
  9   5  10  1   
 10   5  28  1   
 11   5  29  1   
 12   6  11  1   
 13   6  30  1   
 14   6  31  1   
 15   7  12  1   
 16   7  13  1   
 17   8  14  1   
 18   8  32  1   
 19   8  33  1   
 20   9  15  1   
 21   9  34  1   
 22   9  35  1   
 23  10  11  1   
 24  10  16  1   
 25  10  36  1   
 26  11  17  1   
 27  11  37  1   
 28  12  18  1   
 29  12  38  1   
 30  12  39  1   
 31  13  19  1   
 32  13  40  1   
 33  13  41  1   
 34  14  20  1   
 35  14  42  1   
 36  14  43  1   
 37  15  20  1   
 38  15  44  1   
 39  15  45  1   
 40  16  46  1   
 41  17  21  1   
 42  17  47  1   
 43  17  48  1   
 44  18  22  1   
 45  18  49  1   
 46  18  50  1   
 47  19  22  1   
 48  19  51  1   
 49  19  52  1   
 50  20  53  1   
 51  20  54  1   
 52  21  23  1   
 53  21  24  2   
 54  23  25  1   
 55  24  26  1   
 56  24  55  1   
 57  25  26  2   
 58  26  27  1   
 59  27  56  1   
 60  27  57  1   
 61  27  58  1   
@<TRIPOS>SUBSTRUCTURE
  1 ****   6 GROUP 4 **** **** 0

# MOE 2024.06 (io_trps.svl 2023.06)
