@<TRIPOS>MOLECULE
NONAME
45 47 1 0 0 
SMALL
USER_CHARGES


@<TRIPOS>ATOM
  1 S       -0.4020    -0.4090     1.6710 S.3   1 <1>  -0.0800 
  2 C       -1.6540    -1.0840     0.6610 C.2   1 <1>  -0.1400 
  3 C       -0.8490     1.1880     1.1360 C.2   1 <1>   0.2280 
  4 C       -2.2780    -0.0650     0.0300 C.2   1 <1>   0.0460 
  5 C       -1.7300    -2.6070     0.7370 C.3   1 <1>   0.0200 
  6 N       -1.8110     1.2100     0.3080 N.2   1 <1>  -0.5650 
  7 C       -3.4340    -0.0790    -0.9540 C.3   1 <1>  -0.0590 
  8 C       -2.7750    -3.2490    -0.1730 C.3   1 <1>   0.2090 
  9 N       -2.7710    -4.7350    -0.0230 N.pl3 1 <1>  -0.8380 
 10 C       -3.9670    -5.4020     0.1220 C.ar  1 <1>   0.4100 
 11 C       -1.6300    -5.4470    -0.6610 C.3   1 <1>   0.1290 
 12 N       -5.0260    -4.9110    -0.5150 N.ar  1 <1>  -0.6200 
 13 C       -4.0330    -6.5500     0.9090 C.ar  1 <1>  -0.1500 
 14 C       -6.1580    -5.5760    -0.3640 C.ar  1 <1>   0.1600 
 15 C       -5.2180    -7.2310     1.0470 C.ar  1 <1>  -0.1500 
 16 C       -6.3350    -6.7410     0.3770 C.ar  1 <1>   0.0860 
 17 C       -7.6310    -7.3750     0.4350 C.2   1 <1>   0.5440 
 18 O       -8.6260    -6.6880     0.5820 O.2   1 <1>  -0.5700 
 19 N       -7.7860    -8.7380     0.3120 N.am  1 <1>  -0.6600 
 20 C       -6.7980    -9.6520    -0.3080 C.3   1 <1>   0.1400 
 21 C       -9.1150    -9.3840     0.3970 C.3   1 <1>   0.1400 
 22 C       -7.6320   -10.7850    -0.8920 C.3   1 <1>  -0.1600 
 23 C       -8.8790   -10.8330    -0.0150 C.3   1 <1>  -0.1600 
 24 H       -0.2910     2.0150     1.5370 H     1 <1>   0.1500 
 25 H       -1.9520    -2.8860     1.7520 H     1 <1>   0.0800 
 26 H       -0.7630    -3.0000     0.4850 H     1 <1>   0.0800 
 27 H       -3.7960    -1.0620    -1.1640 H     1 <1>   0.0800 
 28 H       -3.1180     0.3720    -1.8770 H     1 <1>   0.0800 
 29 H       -4.2450     0.5020    -0.5530 H     1 <1>   0.0800 
 30 H       -2.5830    -2.9940    -1.2000 H     1 <1>   0.0800 
 31 H       -3.7410    -2.8630     0.1040 H     1 <1>   0.0800 
 32 H       -0.7670    -5.4010    -0.0210 H     1 <1>   0.0800 
 33 H       -1.3950    -4.9940    -1.6080 H     1 <1>   0.0800 
 34 H       -1.8810    -6.4800    -0.8320 H     1 <1>   0.0800 
 35 H       -3.1430    -6.8800     1.4090 H     1 <1>   0.1500 
 36 H       -7.0230    -5.1760    -0.8670 H     1 <1>   0.1500 
 37 H       -5.2920    -8.1110     1.6600 H     1 <1>   0.1500 
 38 H       -6.1430   -10.0320     0.4570 H     1 <1>   0.0800 
 39 H       -6.2240    -9.1520    -1.0700 H     1 <1>   0.0800 
 40 H       -9.7870    -8.8990    -0.2920 H     1 <1>   0.0800 
 41 H       -9.5100    -9.3100     1.3960 H     1 <1>   0.0800 
 42 H       -7.0960   -11.7170    -0.8970 H     1 <1>   0.0800 
 43 H       -7.9060   -10.5320    -1.9020 H     1 <1>   0.0800 
 44 H       -9.7300   -11.2450    -0.5300 H     1 <1>   0.0800 
 45 H       -8.6860   -11.4190     0.8670 H     1 <1>   0.0800 
@<TRIPOS>BOND
  1   1   2  1   
  2   1   3  1   
  3   2   4  2   
  4   2   5  1   
  5   3   6  2   
  6   3  24  1   
  7   4   6  1   
  8   4   7  1   
  9   5   8  1   
 10   5  25  1   
 11   5  26  1   
 12   7  27  1   
 13   7  28  1   
 14   7  29  1   
 15   8   9  1   
 16   8  30  1   
 17   8  31  1   
 18   9  10  1   
 19   9  11  1   
 20  10  12  ar  
 21  10  13  ar  
 22  11  32  1   
 23  11  33  1   
 24  11  34  1   
 25  12  14  ar  
 26  13  15  ar  
 27  13  35  1   
 28  14  16  ar  
 29  14  36  1   
 30  15  16  ar  
 31  15  37  1   
 32  16  17  1   
 33  17  18  2   
 34  17  19  am  
 35  19  20  1   
 36  19  21  1   
 37  20  22  1   
 38  20  38  1   
 39  20  39  1   
 40  21  23  1   
 41  21  40  1   
 42  21  41  1   
 43  22  23  1   
 44  22  42  1   
 45  22  43  1   
 46  23  44  1   
 47  23  45  1   
@<TRIPOS>SUBSTRUCTURE
  1 ****  10 GROUP 4 **** **** 0

# MOE 2024.06 (io_trps.svl 2023.06)
