@<TRIPOS>MOLECULE
NONAME
47 48 1 0 0 
SMALL
USER_CHARGES


@<TRIPOS>ATOM
  1 O       -0.3290    -0.7350    -0.1970 O.3   1 <1>  -0.2800 
  2 C       -1.3620    -1.4700     0.1650 C.2   1 <1>  -0.0400 
  3 C       -0.1540     0.1990     0.7140 C.2   1 <1>  -0.0400 
  4 C       -1.8740    -1.0110     1.3290 C.2   1 <1>  -0.1500 
  5 C       -1.7570    -2.6210    -0.7470 C.3   1 <1>   0.1000 
  6 C       -1.0790     0.0850     1.6890 C.2   1 <1>  -0.1500 
  7 C        0.9790     1.1840     0.5350 C.3   1 <1>  -0.0600 
  8 C       -3.1390    -3.1730    -0.3610 C.3   1 <1>  -0.1600 
  9 C       -0.6700    -3.7060    -0.6930 C.3   1 <1>  -0.2400 
 10 C       -3.6260    -4.2340    -1.3470 C.3   1 <1>   0.3430 
 11 N       -4.9020    -4.8260    -0.8670 N.4   1 <1>  -0.9590 
 12 C       -5.1030    -6.1850    -1.4100 C.3   1 <1>   0.5230 
 13 C       -6.0740    -3.9210    -1.1280 C.3   1 <1>   0.3430 
 14 C       -5.2060    -7.0660    -0.1950 C.2   1 <1>  -0.3320 
 15 C       -7.3390    -4.3360    -0.3620 C.3   1 <1>   0.1200 
 16 N       -4.1720    -7.4980     0.5650 N.pl3 1 <1>   0.0480 
 17 C       -6.3280    -7.5840     0.3520 C.2   1 <1>   0.0770 
 18 O       -8.3100    -3.3860    -0.6190 O.3   1 <1>  -0.6800 
 19 C       -4.7550    -8.2320     1.5390 C.2   1 <1>   0.0360 
 20 C       -2.7180    -7.2980     0.3980 C.3   1 <1>   0.0160 
 21 N       -6.0420    -8.2970     1.4490 N.2   1 <1>  -0.5650 
 22 H       -2.7080    -1.3690     1.9040 H     1 <1>   0.1500 
 23 H       -1.8040    -2.2270    -1.7490 H     1 <1>   0.0800 
 24 H       -1.2080     0.6890     2.5690 H     1 <1>   0.1500 
 25 H        0.8480     1.7220    -0.3860 H     1 <1>   0.0800 
 26 H        1.9150     0.6560     0.5010 H     1 <1>   0.0800 
 27 H        0.9980     1.8820     1.3510 H     1 <1>   0.0800 
 28 H       -3.8320    -2.3510    -0.3450 H     1 <1>   0.0800 
 29 H       -3.0790    -3.5920     0.6290 H     1 <1>   0.0800 
 30 H       -0.6050    -4.1270     0.2950 H     1 <1>   0.0800 
 31 H        0.2850    -3.2660    -0.9250 H     1 <1>   0.0800 
 32 H       -0.8470    -4.4890    -1.4070 H     1 <1>   0.0800 
 33 H       -2.8790    -5.0070    -1.4200 H     1 <1>   0.0800 
 34 H       -3.7580    -3.8000    -2.3260 H     1 <1>   0.0800 
 35 H       -4.8370    -4.9690     0.1510 H     1 <1>   0.4500 
 36 H       -4.2750    -6.4920    -2.0290 H     1 <1>   0.0800 
 37 H       -6.0120    -6.2370    -1.9890 H     1 <1>   0.0800 
 38 H       -6.2940    -3.9040    -2.1830 H     1 <1>   0.0800 
 39 H       -5.8260    -2.9180    -0.8230 H     1 <1>   0.0800 
 40 H       -7.1620    -4.3540     0.7000 H     1 <1>   0.0800 
 41 H       -7.7130    -5.2860    -0.6990 H     1 <1>   0.0800 
 42 H       -7.3520    -7.4890     0.0250 H     1 <1>   0.1500 
 43 H       -9.1410    -3.5740    -0.1300 H     1 <1>   0.4000 
 44 H       -4.1850    -8.7180     2.3140 H     1 <1>   0.1500 
 45 H       -2.4450    -7.4610    -0.6290 H     1 <1>   0.0800 
 46 H       -2.1880    -8.0040     1.0130 H     1 <1>   0.0800 
 47 H       -2.4520    -6.3020     0.6990 H     1 <1>   0.0800 
@<TRIPOS>BOND
  1   1   2  1   
  2   1   3  1   
  3   2   4  2   
  4   2   5  1   
  5   3   6  2   
  6   3   7  1   
  7   4   6  1   
  8   4  22  1   
  9   5   8  1   
 10   5   9  1   
 11   5  23  1   
 12   6  24  1   
 13   7  25  1   
 14   7  26  1   
 15   7  27  1   
 16   8  10  1   
 17   8  28  1   
 18   8  29  1   
 19   9  30  1   
 20   9  31  1   
 21   9  32  1   
 22  10  11  1   
 23  10  33  1   
 24  10  34  1   
 25  11  12  1   
 26  11  13  1   
 27  11  35  1   
 28  12  14  1   
 29  12  36  1   
 30  12  37  1   
 31  13  15  1   
 32  13  38  1   
 33  13  39  1   
 34  14  16  1   
 35  14  17  2   
 36  15  18  1   
 37  15  40  1   
 38  15  41  1   
 39  16  19  1   
 40  16  20  1   
 41  17  21  1   
 42  17  42  1   
 43  18  43  1   
 44  19  21  2   
 45  19  44  1   
 46  20  45  1   
 47  20  46  1   
 48  20  47  1   
@<TRIPOS>SUBSTRUCTURE
  1 ****   8 GROUP 4 **** **** 0

# MOE 2024.06 (io_trps.svl 2023.06)
