@<TRIPOS>MOLECULE
NONAME
48 50 1 0 0 
SMALL
USER_CHARGES


@<TRIPOS>ATOM
  1 O        1.4950     0.4480    -1.2590 O.3   1 <1>  -0.6800 
  2 C        1.5200     0.2210     0.1030 C.3   1 <1>   0.2800 
  3 C        2.9950     0.2190     0.5790 C.3   1 <1>  -0.0800 
  4 C        0.8890    -1.1600     0.3580 C.3   1 <1>  -0.1600 
  5 C        0.6610     1.3200     0.7680 C.3   1 <1>  -0.1600 
  6 C        3.7430    -1.1240     0.4360 C.3   1 <1>  -0.0800 
  7 C        3.8770     1.2160    -0.1620 C.3   1 <1>   0.3430 
  8 C        1.6250    -2.3370    -0.3150 C.3   1 <1>  -0.1600 
  9 C        1.1150     2.7740     0.5470 C.3   1 <1>  -0.2400 
 10 C        3.1070    -2.0560    -0.6090 C.3   1 <1>  -0.1600 
 11 C        5.1780    -0.7670     0.0320 C.3   1 <1>   0.3430 
 12 N        5.2600     0.7160     0.0400 N.4   1 <1>  -0.9590 
 13 C        6.2110     1.2770    -0.9520 C.3   1 <1>   0.4860 
 14 C        6.2960     2.7730    -0.7240 C.ar  1 <1>  -0.1440 
 15 C        5.5910     3.6460    -1.5390 C.ar  1 <1>  -0.1500 
 16 C        7.0700     3.2810     0.3090 C.ar  1 <1>  -0.1500 
 17 C        5.6500     5.0100    -1.3150 C.ar  1 <1>  -0.1500 
 18 C        7.1270     4.6460     0.5290 C.ar  1 <1>  -0.1500 
 19 C        6.4150     5.5160    -0.2790 C.ar  1 <1>  -0.1440 
 20 C        6.4830     7.0130    -0.0330 C.3   1 <1>  -0.0970 
 21 H        0.5750     0.3720    -1.5810 H     1 <1>   0.4000 
 22 H        3.0070     0.4810     1.6220 H     1 <1>   0.0800 
 23 H        0.8980    -1.3300     1.4210 H     1 <1>   0.0800 
 24 H       -0.1440    -1.1630     0.0570 H     1 <1>   0.0800 
 25 H       -0.3510     1.2270     0.4110 H     1 <1>   0.0800 
 26 H        0.6260     1.1380     1.8280 H     1 <1>   0.0800 
 27 H        3.7540    -1.6350     1.3840 H     1 <1>   0.0800 
 28 H        3.7590     2.2200     0.2120 H     1 <1>   0.0800 
 29 H        3.6360     1.2000    -1.2120 H     1 <1>   0.0800 
 30 H        1.5400    -3.2030     0.3190 H     1 <1>   0.0800 
 31 H        1.1350    -2.5760    -1.2440 H     1 <1>   0.0800 
 32 H        1.2410     2.9850    -0.5010 H     1 <1>   0.0800 
 33 H        2.0320     2.9800     1.0660 H     1 <1>   0.0800 
 34 H        0.3660     3.4450     0.9320 H     1 <1>   0.0800 
 35 H        3.1770    -1.5970    -1.5810 H     1 <1>   0.0800 
 36 H        3.6410    -2.9910    -0.6560 H     1 <1>   0.0800 
 37 H        5.3700    -1.1400    -0.9610 H     1 <1>   0.0800 
 38 H        5.8930    -1.1980     0.7150 H     1 <1>   0.0800 
 39 H        5.5580     1.0380     0.9680 H     1 <1>   0.4500 
 40 H        7.1870     0.8390    -0.8230 H     1 <1>   0.0800 
 41 H        5.8710     1.0740    -1.9540 H     1 <1>   0.0800 
 42 H        4.9900     3.2810    -2.3550 H     1 <1>   0.1500 
 43 H        7.6400     2.6300     0.9500 H     1 <1>   0.1500 
 44 H        5.1000     5.6800    -1.9540 H     1 <1>   0.1500 
 45 H        7.7320     5.0330     1.3320 H     1 <1>   0.1500 
 46 H        5.6030     7.5010    -0.4120 H     1 <1>   0.0800 
 47 H        7.3460     7.4240    -0.5270 H     1 <1>   0.0800 
 48 H        6.5560     7.2180     1.0200 H     1 <1>   0.0800 
@<TRIPOS>BOND
  1   1   2  1   
  2   1  21  1   
  3   2   3  1   
  4   2   4  1   
  5   2   5  1   
  6   3   6  1   
  7   3   7  1   
  8   3  22  1   
  9   4   8  1   
 10   4  23  1   
 11   4  24  1   
 12   5   9  1   
 13   5  25  1   
 14   5  26  1   
 15   6  10  1   
 16   6  11  1   
 17   6  27  1   
 18   7  12  1   
 19   7  28  1   
 20   7  29  1   
 21   8  10  1   
 22   8  30  1   
 23   8  31  1   
 24   9  32  1   
 25   9  33  1   
 26   9  34  1   
 27  10  35  1   
 28  10  36  1   
 29  11  12  1   
 30  11  37  1   
 31  11  38  1   
 32  12  13  1   
 33  12  39  1   
 34  13  14  1   
 35  13  40  1   
 36  13  41  1   
 37  14  15  ar  
 38  14  16  ar  
 39  15  17  ar  
 40  15  42  1   
 41  16  18  ar  
 42  16  43  1   
 43  17  19  ar  
 44  17  44  1   
 45  18  19  ar  
 46  18  45  1   
 47  19  20  1   
 48  20  46  1   
 49  20  47  1   
 50  20  48  1   
@<TRIPOS>SUBSTRUCTURE
  1 ****   7 GROUP 4 **** **** 0

# MOE 2024.06 (io_trps.svl 2023.06)
