@<TRIPOS>MOLECULE
NONAME
49 53 1 0 0 
SMALL
USER_CHARGES


@<TRIPOS>ATOM
  1 O       -4.3540    -1.3740    -2.6100 O.co2 1 <1>  -0.9000 
  2 C       -3.7050    -1.0480    -1.5990 C.2   1 <1>   1.0330 
  3 O       -2.5670    -1.5490    -1.4750 O.co2 1 <1>  -0.9000 
  4 C       -4.3570    -0.4490    -0.4250 C.2   1 <1>   0.0560 
  5 N       -5.0440     0.6780    -0.3120 N.2   1 <1>  -0.7070 
  6 C       -4.3390    -1.1140     0.8120 C.2   1 <1>  -0.1810 
  7 N       -5.4470     0.7340     0.9620 N.pl3 1 <1>   0.3000 
  8 C       -5.0390    -0.3380     1.6660 C.2   1 <1>  -0.3020 
  9 C       -3.6330    -2.4380     1.0430 C.3   1 <1>   0.5240 
 10 N       -4.5500    -3.5630     0.7090 N.4   1 <1>  -0.9590 
 11 C       -4.0660    -4.8610     1.2250 C.3   1 <1>   0.3430 
 12 C       -4.8630    -3.6240    -0.7570 C.3   1 <1>   0.3430 
 13 C       -5.1510    -5.9360     1.0890 C.3   1 <1>  -0.1600 
 14 C       -5.6420    -4.8880    -1.1260 C.3   1 <1>  -0.1600 
 15 C       -6.2610    -5.5650     0.0980 C.3   1 <1>   0.4600 
 16 O       -7.0860    -4.6370     0.7760 O.3   1 <1>  -0.5600 
 17 C       -7.0860    -6.7870    -0.2850 C.2   1 <1>  -0.3320 
 18 C       -8.3900    -4.4340     0.2820 C.3   1 <1>   0.1200 
 19 N       -6.6260    -7.9560    -0.8310 N.pl3 1 <1>   0.0330 
 20 C       -8.4240    -6.8640    -0.1390 C.2   1 <1>  -0.1810 
 21 C       -9.2310    -5.7150     0.4110 C.3   1 <1>   0.0210 
 22 C       -7.7020    -8.7890    -1.0170 C.ar  1 <1>  -0.1520 
 23 C       -8.8500    -8.1310    -0.5870 C.ar  1 <1>   0.0000 
 24 C       -7.7700   -10.0850    -1.5340 C.ar  1 <1>  -0.1500 
 25 C      -10.0890    -8.7740    -0.6700 C.ar  1 <1>  -0.1500 
 26 C       -8.9960   -10.7060    -1.6120 C.ar  1 <1>  -0.1500 
 27 C      -10.1550   -10.0500    -1.1790 C.ar  1 <1>  -0.1500 
 28 H       -6.0010     1.5230     1.3180 H     1 <1>   0.2700 
 29 H       -5.2660    -0.4690     2.7080 H     1 <1>   0.1500 
 30 H       -3.3540    -2.4950     2.0800 H     1 <1>   0.0800 
 31 H       -2.7320    -2.4970     0.4550 H     1 <1>   0.0800 
 32 H       -5.4610    -3.3690     1.1550 H     1 <1>   0.4500 
 33 H       -3.7820    -4.7690     2.2600 H     1 <1>   0.0800 
 34 H       -3.1960    -5.1570     0.6610 H     1 <1>   0.0800 
 35 H       -3.9560    -3.5740    -1.3420 H     1 <1>   0.0800 
 36 H       -5.4620    -2.7670    -1.0230 H     1 <1>   0.0800 
 37 H       -5.5940    -6.1380     2.0480 H     1 <1>   0.0800 
 38 H       -4.6700    -6.8430     0.7740 H     1 <1>   0.0800 
 39 H       -4.9690    -5.5710    -1.6070 H     1 <1>   0.0800 
 40 H       -6.3970    -4.6450    -1.8510 H     1 <1>   0.0800 
 41 H       -8.3250    -4.1320    -0.7490 H     1 <1>   0.0800 
 42 H       -8.8400    -3.6370     0.8470 H     1 <1>   0.0800 
 43 H       -5.6630    -8.1940    -1.0810 H     1 <1>   0.2700 
 44 H      -10.1450    -5.6050    -0.1440 H     1 <1>   0.0800 
 45 H       -9.4720    -5.8980     1.4420 H     1 <1>   0.0800 
 46 H       -6.8770   -10.5840    -1.8640 H     1 <1>   0.1500 
 47 H      -10.9710    -8.2610    -0.3350 H     1 <1>   0.1500 
 48 H       -9.0750   -11.7040    -2.0060 H     1 <1>   0.1500 
 49 H      -11.1010   -10.5590    -1.2500 H     1 <1>   0.1500 
@<TRIPOS>BOND
  1   1   2  ar  
  2   2   3  ar  
  3   2   4  1   
  4   4   5  2   
  5   4   6  1   
  6   5   7  1   
  7   6   8  2   
  8   6   9  1   
  9   7   8  1   
 10   7  28  1   
 11   8  29  1   
 12   9  10  1   
 13   9  30  1   
 14   9  31  1   
 15  10  11  1   
 16  10  12  1   
 17  10  32  1   
 18  11  13  1   
 19  11  33  1   
 20  11  34  1   
 21  12  14  1   
 22  12  35  1   
 23  12  36  1   
 24  13  15  1   
 25  13  37  1   
 26  13  38  1   
 27  14  15  1   
 28  14  39  1   
 29  14  40  1   
 30  15  16  1   
 31  15  17  1   
 32  16  18  1   
 33  17  19  1   
 34  17  20  2   
 35  18  21  1   
 36  18  41  1   
 37  18  42  1   
 38  19  22  1   
 39  19  43  1   
 40  20  21  1   
 41  20  23  1   
 42  21  44  1   
 43  21  45  1   
 44  22  23  ar  
 45  22  24  ar  
 46  23  25  ar  
 47  24  26  ar  
 48  24  46  1   
 49  25  27  ar  
 50  25  47  1   
 51  26  27  ar  
 52  26  48  1   
 53  27  49  1   
@<TRIPOS>SUBSTRUCTURE
  1 ****  15 GROUP 4 **** **** 0

# MOE 2024.06 (io_trps.svl 2023.06)
