@<TRIPOS>MOLECULE
NONAME
44 46 1 0 0 
SMALL
USER_CHARGES


@<TRIPOS>ATOM
  1 O       -0.2400     0.8640     0.8610 O.2   1 <1>  -0.5700 
  2 C       -0.1890     2.0560     0.6140 C.2   1 <1>   0.7160 
  3 N       -1.3260     2.8210     0.7790 N.am  1 <1>  -0.6600 
  4 C        1.0510     2.6340     0.1480 C.2   1 <1>  -0.0860 
  5 C       -2.5000     2.3300     1.5530 C.3   1 <1>   0.1400 
  6 C       -1.5640     4.1070     0.0690 C.3   1 <1>   0.1400 
  7 C        1.9370     2.1670    -0.7750 C.2   1 <1>  -0.0400 
  8 C        1.6260     3.8450     0.5890 C.2   1 <1>  -0.1500 
  9 C       -3.6970     2.1630     0.6160 C.3   1 <1>  -0.1600 
 10 C       -2.7540     3.9470    -0.8800 C.3   1 <1>  -0.1600 
 11 O        2.9480     2.9880    -0.9200 O.3   1 <1>  -0.2800 
 12 C        1.9170     0.9040    -1.6110 C.3   1 <1>  -0.0600 
 13 C        2.7730     4.0010    -0.1020 C.2   1 <1>  -0.0400 
 14 C       -4.0080     3.4560    -0.1420 C.3   1 <1>   0.4180 
 15 C        3.8180     5.0940    -0.0670 C.3   1 <1>  -0.0600 
 16 O       -4.3770     4.4050     0.8310 O.3   1 <1>  -0.5600 
 17 C       -5.1580     3.2170    -1.1160 C.2   1 <1>  -0.2880 
 18 C       -5.1120     5.5170     0.4030 C.3   1 <1>   0.1200 
 19 C       -6.2860     3.9300    -1.1350 C.2   1 <1>  -0.2760 
 20 C       -6.4700     5.0820    -0.1650 C.3   1 <1>  -0.0220 
 21 C       -7.4520     3.6740    -2.0730 C.3   1 <1>  -0.1020 
 22 H       -2.7360     3.0460     2.3230 H     1 <1>   0.0800 
 23 H       -2.2780     1.3910     2.0320 H     1 <1>   0.0800 
 24 H       -0.7010     4.4020    -0.5010 H     1 <1>   0.0800 
 25 H       -1.7720     4.8770     0.7940 H     1 <1>   0.0800 
 26 H        1.2010     4.4870     1.3390 H     1 <1>   0.1500 
 27 H       -4.5630     1.8670     1.1790 H     1 <1>   0.0800 
 28 H       -3.4770     1.3760    -0.0820 H     1 <1>   0.0800 
 29 H       -2.4910     3.2310    -1.6370 H     1 <1>   0.0800 
 30 H       -2.9570     4.8740    -1.3790 H     1 <1>   0.0800 
 31 H        1.0310     0.3290    -1.4120 H     1 <1>   0.0800 
 32 H        2.7780     0.3050    -1.3770 H     1 <1>   0.0800 
 33 H        1.9410     1.1590    -2.6540 H     1 <1>   0.0800 
 34 H        3.5450     5.8480     0.6480 H     1 <1>   0.0800 
 35 H        3.9030     5.5440    -1.0400 H     1 <1>   0.0800 
 36 H        4.7680     4.6750     0.2080 H     1 <1>   0.0800 
 37 H       -4.9690     2.3990    -1.7880 H     1 <1>   0.1500 
 38 H       -4.5420     6.0400    -0.3440 H     1 <1>   0.0800 
 39 H       -5.2520     6.1650     1.2500 H     1 <1>   0.0800 
 40 H       -6.9170     5.9230    -0.6640 H     1 <1>   0.0800 
 41 H       -7.1200     4.7830     0.6380 H     1 <1>   0.0800 
 42 H       -7.6310     4.5360    -2.6900 H     1 <1>   0.0800 
 43 H       -8.3410     3.4590    -1.5070 H     1 <1>   0.0800 
 44 H       -7.2440     2.8350    -2.7120 H     1 <1>   0.0800 
@<TRIPOS>BOND
  1   1   2  2   
  2   2   3  am  
  3   2   4  1   
  4   3   5  1   
  5   3   6  1   
  6   4   7  2   
  7   4   8  1   
  8   5   9  1   
  9   5  22  1   
 10   5  23  1   
 11   6  10  1   
 12   6  24  1   
 13   6  25  1   
 14   7  11  1   
 15   7  12  1   
 16   8  13  2   
 17   8  26  1   
 18   9  14  1   
 19   9  27  1   
 20   9  28  1   
 21  10  14  1   
 22  10  29  1   
 23  10  30  1   
 24  11  13  1   
 25  12  31  1   
 26  12  32  1   
 27  12  33  1   
 28  13  15  1   
 29  14  16  1   
 30  14  17  1   
 31  15  34  1   
 32  15  35  1   
 33  15  36  1   
 34  16  18  1   
 35  17  19  2   
 36  17  37  1   
 37  18  20  1   
 38  18  38  1   
 39  18  39  1   
 40  19  20  1   
 41  19  21  1   
 42  20  40  1   
 43  20  41  1   
 44  21  42  1   
 45  21  43  1   
 46  21  44  1   
@<TRIPOS>SUBSTRUCTURE
  1 ****   6 GROUP 4 **** **** 0

# MOE 2024.06 (io_trps.svl 2023.06)
