@<TRIPOS>MOLECULE
NONAME
37 38 1 0 0 
SMALL
USER_CHARGES


@<TRIPOS>ATOM
  1 O       -2.2240    -3.6460    -0.5740 O.3   1 <1>  -0.5600 
  2 C       -1.4210    -4.0930     0.4630 C.3   1 <1>   0.1200 
  3 C       -3.5890    -3.7510    -0.3230 C.3   1 <1>   0.0400 
  4 C        0.0040    -4.1630    -0.0790 C.3   1 <1>  -0.1600 
  5 C        0.9190    -4.9390     0.8780 C.3   1 <1>   0.0960 
  6 N        2.0760    -5.5180     0.1560 N.pl3 1 <1>   0.0480 
  7 C        2.1390    -6.5210    -0.7350 C.2   1 <1>   0.0060 
  8 C        3.3540    -5.1570     0.2770 C.2   1 <1>   0.0360 
  9 N        3.3540    -6.7360    -1.1120 N.2   1 <1>  -0.3380 
 10 C        0.9530    -7.3120    -1.2740 C.3   1 <1>   0.3890 
 11 N        4.1290    -5.8660    -0.4670 N.2   1 <1>  -0.3380 
 12 N        0.0370    -7.7240    -0.1810 N.pl3 1 <1>  -0.8690 
 13 C       -1.2800    -8.0090    -0.4220 C.ar  1 <1>   0.4100 
 14 N       -1.6560    -9.1530     0.1140 N.ar  1 <1>  -0.6200 
 15 C       -2.1580    -7.1790    -1.1430 C.ar  1 <1>   0.1600 
 16 C       -2.9300    -9.4290    -0.1080 C.ar  1 <1>   0.1670 
 17 N       -3.4300    -7.4450    -1.3670 N.ar  1 <1>  -0.6200 
 18 C       -3.7880    -8.6010    -0.8260 C.ar  1 <1>   0.1600 
 19 C       -3.4310   -10.7340     0.4770 C.3   1 <1>  -0.0970 
 20 H       -1.7620    -5.0690     0.7650 H     1 <1>   0.0800 
 21 H       -1.4980    -3.4040     1.2870 H     1 <1>   0.0800 
 22 H       -4.1170    -3.3570    -1.1730 H     1 <1>   0.0800 
 23 H       -3.8360    -3.1790     0.5550 H     1 <1>   0.0800 
 24 H       -3.8490    -4.7870    -0.1880 H     1 <1>   0.0800 
 25 H        0.3850    -3.1670    -0.2220 H     1 <1>   0.0800 
 26 H       -0.0290    -4.6560    -1.0320 H     1 <1>   0.0800 
 27 H        0.3810    -5.7430     1.3460 H     1 <1>   0.0800 
 28 H        1.2750    -4.2870     1.6550 H     1 <1>   0.0800 
 29 H        3.6840    -4.3660     0.9240 H     1 <1>   0.1500 
 30 H        1.3190    -8.1930    -1.7740 H     1 <1>   0.0800 
 31 H        0.4310    -6.7150    -1.9990 H     1 <1>   0.0800 
 32 H        0.4530    -8.4760     0.3770 H     1 <1>   0.4000 
 33 H       -1.7760    -6.2560    -1.5370 H     1 <1>   0.1500 
 34 H       -4.8120    -8.9010    -0.9620 H     1 <1>   0.1500 
 35 H       -2.8640   -11.5510     0.0690 H     1 <1>   0.0800 
 36 H       -4.4710   -10.8870     0.2570 H     1 <1>   0.0800 
 37 H       -3.2990   -10.7230     1.5440 H     1 <1>   0.0800 
@<TRIPOS>BOND
  1   1   2  1   
  2   1   3  1   
  3   2   4  1   
  4   2  20  1   
  5   2  21  1   
  6   3  22  1   
  7   3  23  1   
  8   3  24  1   
  9   4   5  1   
 10   4  25  1   
 11   4  26  1   
 12   5   6  1   
 13   5  27  1   
 14   5  28  1   
 15   6   7  1   
 16   6   8  1   
 17   7   9  2   
 18   7  10  1   
 19   8  11  2   
 20   8  29  1   
 21   9  11  1   
 22  10  12  1   
 23  10  30  1   
 24  10  31  1   
 25  12  13  1   
 26  12  32  1   
 27  13  14  ar  
 28  13  15  ar  
 29  14  16  ar  
 30  15  17  ar  
 31  15  33  1   
 32  16  18  ar  
 33  16  19  1   
 34  17  18  ar  
 35  18  34  1   
 36  19  35  1   
 37  19  36  1   
 38  19  37  1   
@<TRIPOS>SUBSTRUCTURE
  1 ****  12 GROUP 4 **** **** 0

# MOE 2024.06 (io_trps.svl 2023.06)
