@<TRIPOS>MOLECULE
NONAME
48 50 1 0 0 
SMALL
USER_CHARGES


@<TRIPOS>ATOM
  1 CL      -1.3540    -0.7000    -2.3420 Cl    1 <1>  -0.1770 
  2 C       -2.6930    -0.0490    -1.4360 C.ar  1 <1>   0.1770 
  3 C       -3.8870    -0.7430    -1.3930 C.ar  1 <1>  -0.1500 
  4 C       -2.5470     1.1530    -0.7720 C.ar  1 <1>  -0.1500 
  5 C       -4.9470    -0.2230    -0.6720 C.ar  1 <1>  -0.1500 
  6 C       -3.6140     1.6630    -0.0550 C.ar  1 <1>  -0.1500 
  7 C       -4.8390     0.9920     0.0120 C.ar  1 <1>   0.0530 
  8 C       -5.9350     1.5420     0.7720 C.2   1 <1>   0.0870 
  9 O       -5.6960     2.3180     1.8000 O.3   1 <1>  -0.0190 
 10 C       -7.2880     1.4300     0.6740 C.2   1 <1>  -0.0860 
 11 N       -6.7820     2.7320     2.3950 N.2   1 <1>  -0.4100 
 12 C       -7.7500     2.2210     1.7310 C.2   1 <1>   0.3720 
 13 C       -8.0880     0.7130    -0.2700 C.2   1 <1>   0.7160 
 14 N       -9.0630     2.4740     2.0930 N.pl3 1 <1>  -0.8520 
 15 O       -7.8740     0.8590    -1.4590 O.2   1 <1>  -0.5700 
 16 N       -9.0790    -0.1620     0.1140 N.am  1 <1>  -0.6600 
 17 C       -9.9000     3.1790     1.0810 C.3   1 <1>   0.2090 
 18 C       -9.1930    -0.7090     1.5160 C.3   1 <1>   0.2010 
 19 C      -10.0010    -0.8090    -0.8710 C.3   1 <1>   0.1400 
 20 C      -11.3020     2.5720     1.0530 C.3   1 <1>   0.1200 
 21 C       -9.4440    -2.2210     1.5680 C.2   1 <1>   0.5690 
 22 C       -9.7740    -2.3350    -0.9250 C.3   1 <1>   0.2200 
 23 O      -12.0700     3.2670     0.1220 O.3   1 <1>  -0.5600 
 24 O       -9.3890    -2.7950     2.6260 O.2   1 <1>  -0.5700 
 25 N       -9.7310    -2.9120     0.4360 N.am  1 <1>  -0.7300 
 26 C      -10.8840    -3.0380    -1.7020 C.3   1 <1>  -0.2400 
 27 C      -13.3820     2.8140     0.0210 C.3   1 <1>   0.0400 
 28 H       -3.9790    -1.6760    -1.9180 H     1 <1>   0.1500 
 29 H       -1.6090     1.6770    -0.8190 H     1 <1>   0.1500 
 30 H       -5.8700    -0.7740    -0.6420 H     1 <1>   0.1500 
 31 H       -3.4990     2.6010     0.4610 H     1 <1>   0.1500 
 32 H       -9.0420     3.0250     2.9590 H     1 <1>   0.4000 
 33 H       -9.9680     4.2210     1.3420 H     1 <1>   0.0800 
 34 H       -9.4590     3.0970     0.1020 H     1 <1>   0.0800 
 35 H       -8.2940    -0.5100     2.0700 H     1 <1>   0.0800 
 36 H      -10.0040    -0.2170     2.0190 H     1 <1>   0.0800 
 37 H      -11.0170    -0.6100    -0.5770 H     1 <1>   0.0800 
 38 H       -9.8650    -0.3940    -1.8550 H     1 <1>   0.0800 
 39 H      -11.7660     2.6640     2.0200 H     1 <1>   0.0800 
 40 H      -11.2530     1.5400     0.7560 H     1 <1>   0.0800 
 41 H       -8.8310    -2.5240    -1.4100 H     1 <1>   0.0800 
 42 H       -9.8530    -3.9220     0.5250 H     1 <1>   0.3700 
 43 H      -11.8360    -2.8870    -1.2230 H     1 <1>   0.0800 
 44 H      -10.6820    -4.0920    -1.7670 H     1 <1>   0.0800 
 45 H      -10.9370    -2.6450    -2.7010 H     1 <1>   0.0800 
 46 H      -13.8850     3.4100    -0.7200 H     1 <1>   0.0800 
 47 H      -13.8730     2.9290     0.9720 H     1 <1>   0.0800 
 48 H      -13.3800     1.7820    -0.2840 H     1 <1>   0.0800 
@<TRIPOS>BOND
  1   1   2  1   
  2   2   3  ar  
  3   2   4  ar  
  4   3   5  ar  
  5   3  28  1   
  6   4   6  ar  
  7   4  29  1   
  8   5   7  ar  
  9   5  30  1   
 10   6   7  ar  
 11   6  31  1   
 12   7   8  1   
 13   8   9  1   
 14   8  10  2   
 15   9  11  1   
 16  10  12  1   
 17  10  13  1   
 18  11  12  2   
 19  12  14  1   
 20  13  15  2   
 21  13  16  am  
 22  14  17  1   
 23  14  32  1   
 24  16  18  1   
 25  16  19  1   
 26  17  20  1   
 27  17  33  1   
 28  17  34  1   
 29  18  21  1   
 30  18  35  1   
 31  18  36  1   
 32  19  22  1   
 33  19  37  1   
 34  19  38  1   
 35  20  23  1   
 36  20  39  1   
 37  20  40  1   
 38  21  24  2   
 39  21  25  am  
 40  22  25  1   
 41  22  26  1   
 42  22  41  1   
 43  23  27  1   
 44  25  42  1   
 45  26  43  1   
 46  26  44  1   
 47  26  45  1   
 48  27  46  1   
 49  27  47  1   
 50  27  48  1   
@<TRIPOS>SUBSTRUCTURE
  1 ****  13 GROUP 4 **** **** 0

# MOE 2024.06 (io_trps.svl 2023.06)
