@<TRIPOS>MOLECULE
NONAME
47 50 1 0 0 
SMALL
USER_CHARGES


@<TRIPOS>ATOM
  1 F        1.6730     1.0190    -0.2130 F     1 <1>  -0.1900 
  2 C        2.5450     0.1000     0.1060 C.ar  1 <1>   0.1900 
  3 C        3.8540     0.2420    -0.3350 C.ar  1 <1>  -0.1440 
  4 C        2.1250    -0.9620     0.8820 C.ar  1 <1>  -0.1500 
  5 C        4.7860    -0.7250     0.0280 C.ar  1 <1>  -0.1500 
  6 C        4.2410     1.4340    -1.1890 C.3   1 <1>   0.4870 
  7 C        3.0780    -1.9020     1.2210 C.ar  1 <1>   0.1900 
  8 C        4.3970    -1.8030     0.8110 C.ar  1 <1>  -0.1500 
  9 N        5.1000     2.3570    -0.4060 N.4   1 <1>  -0.9590 
 10 F        2.7230    -2.9190     1.9560 F     1 <1>  -0.1900 
 11 C        4.4940     2.8150     0.9030 C.3   1 <1>   0.4230 
 12 C        5.7380     3.4070    -1.2800 C.3   1 <1>   0.3430 
 13 C        3.5360     4.0170     0.7530 C.3   1 <1>   0.1200 
 14 C        5.6130     3.0730     1.9510 C.3   1 <1>   0.1400 
 15 C        6.1320     4.7370    -0.6030 C.3   1 <1>  -0.0800 
 16 O        4.2110     5.2390     0.7850 O.3   1 <1>  -0.5600 
 17 N        6.9490     3.3140     1.3030 N.am  1 <1>  -0.6600 
 18 C        4.8980     5.6210    -0.3590 C.3   1 <1>   0.1200 
 19 C        7.0580     4.6400     0.6350 C.3   1 <1>   0.1400 
 20 C        7.7720     2.2530     0.9570 C.2   1 <1>   0.7160 
 21 O        7.3320     1.1320     1.1580 O.2   1 <1>  -0.5700 
 22 C        9.0060     2.4130     0.2060 C.2   1 <1>   0.1410 
 23 N        9.0420     2.9220    -1.0650 N.2   1 <1>  -0.5650 
 24 C       10.2730     2.0730     0.5770 C.2   1 <1>  -0.3020 
 25 C       10.2880     2.8780    -1.4000 C.2   1 <1>   0.0360 
 26 N       11.0900     2.3710    -0.4410 N.pl3 1 <1>   0.0330 
 27 H        1.1070    -1.0580     1.2110 H     1 <1>   0.1500 
 28 H        5.8160    -0.6570    -0.2860 H     1 <1>   0.1500 
 29 H        3.3580     1.9510    -1.5270 H     1 <1>   0.0800 
 30 H        4.7780     1.0830    -2.0560 H     1 <1>   0.0800 
 31 H        5.1050    -2.5600     1.1030 H     1 <1>   0.1500 
 32 H        5.8890     1.7750    -0.0670 H     1 <1>   0.4500 
 33 H        3.8970     2.0110     1.2980 H     1 <1>   0.0800 
 34 H        6.6260     2.9840    -1.7230 H     1 <1>   0.0800 
 35 H        5.0660     3.6420    -2.0890 H     1 <1>   0.0800 
 36 H        2.8670     4.0260     1.5960 H     1 <1>   0.0800 
 37 H        2.9420     3.9520    -0.1410 H     1 <1>   0.0800 
 38 H        5.6810     2.2150     2.5980 H     1 <1>   0.0800 
 39 H        5.3580     3.9080     2.5810 H     1 <1>   0.0800 
 40 H        6.7000     5.2710    -1.3450 H     1 <1>   0.0800 
 41 H        4.2200     5.6090    -1.1960 H     1 <1>   0.0800 
 42 H        5.2120     6.6390    -0.2020 H     1 <1>   0.0800 
 43 H        6.8110     5.4130     1.3440 H     1 <1>   0.0800 
 44 H        8.0770     4.8180     0.3390 H     1 <1>   0.0800 
 45 H       10.6090     1.6360     1.5010 H     1 <1>   0.1500 
 46 H       10.6790     3.2060    -2.3500 H     1 <1>   0.1500 
 47 H       12.1060     2.2380    -0.4940 H     1 <1>   0.2700 
@<TRIPOS>BOND
  1   1   2  1   
  2   2   3  ar  
  3   2   4  ar  
  4   3   5  ar  
  5   3   6  1   
  6   4   7  ar  
  7   4  27  1   
  8   5   8  ar  
  9   5  28  1   
 10   6   9  1   
 11   6  29  1   
 12   6  30  1   
 13   7   8  ar  
 14   7  10  1   
 15   8  31  1   
 16   9  11  1   
 17   9  12  1   
 18   9  32  1   
 19  11  13  1   
 20  11  14  1   
 21  11  33  1   
 22  12  15  1   
 23  12  34  1   
 24  12  35  1   
 25  13  16  1   
 26  13  36  1   
 27  13  37  1   
 28  14  17  1   
 29  14  38  1   
 30  14  39  1   
 31  15  18  1   
 32  15  19  1   
 33  15  40  1   
 34  16  18  1   
 35  17  19  1   
 36  17  20  am  
 37  18  41  1   
 38  18  42  1   
 39  19  43  1   
 40  19  44  1   
 41  20  21  2   
 42  20  22  1   
 43  22  23  1   
 44  22  24  2   
 45  23  25  2   
 46  24  26  1   
 47  24  45  1   
 48  25  26  1   
 49  25  46  1   
 50  26  47  1   
@<TRIPOS>SUBSTRUCTURE
  1 ****   9 GROUP 4 **** **** 0

# MOE 2024.06 (io_trps.svl 2023.06)
