@<TRIPOS>MOLECULE
NONAME
47 48 1 0 0 
SMALL
USER_CHARGES


@<TRIPOS>ATOM
  1 O       -0.3510     0.0630    -0.9660 O.2   1 <1>  -0.5700 
  2 C        0.7350    -0.3640    -1.2790 C.2   1 <1>   0.5690 
  3 N        1.8850     0.3780    -1.1650 N.am  1 <1>  -0.4940 
  4 C        0.7920    -1.8440    -1.7520 C.3   1 <1>   0.4840 
  5 C        2.1160     1.5980    -0.4850 C.2   1 <1>  -0.0880 
  6 N        0.4290    -2.8430    -0.6780 N.4   1 <1>  -0.9590 
  7 C        2.1440    -2.2660    -2.3420 C.3   1 <1>  -0.2400 
  8 N        1.3010     2.6900    -0.4010 N.pl3 1 <1>   0.3140 
  9 C        3.2330     1.9040     0.2200 C.2   1 <1>  -0.1810 
 10 C       -1.0460    -2.8110    -0.4310 C.3   1 <1>   0.3430 
 11 C        1.1700    -2.6080     0.6020 C.3   1 <1>   0.3430 
 12 N        1.8640     3.6610     0.3450 N.2   1 <1>  -0.7070 
 13 C        0.0210     2.9540    -1.0720 C.3   1 <1>   0.0160 
 14 C        3.0080     3.1860     0.7130 C.2   1 <1>   0.1080 
 15 C        4.4740     1.0570     0.4510 C.3   1 <1>   0.0210 
 16 C       -1.4310    -3.9330     0.5340 C.3   1 <1>  -0.1600 
 17 C        0.8460    -3.7250     1.5960 C.3   1 <1>  -0.1600 
 18 C        3.9560     3.9860     1.5790 C.3   1 <1>  -0.0590 
 19 C        4.2930     0.1660     1.6810 C.3   1 <1>  -0.2400 
 20 C       -0.6620    -3.8290     1.8570 C.3   1 <1>  -0.1600 
 21 H        2.7490    -0.0530    -1.4950 H     1 <1>   0.3700 
 22 H        0.0640    -1.9290    -2.5420 H     1 <1>   0.0800 
 23 H        0.6610    -3.7850    -1.0120 H     1 <1>   0.4500 
 24 H        2.9340    -2.2080    -1.6150 H     1 <1>   0.0800 
 25 H        2.3940    -1.6240    -3.1680 H     1 <1>   0.0800 
 26 H        2.0870    -3.2710    -2.7220 H     1 <1>   0.0800 
 27 H       -1.5830    -2.9350    -1.3580 H     1 <1>   0.0800 
 28 H       -1.3270    -1.8600    -0.0050 H     1 <1>   0.0800 
 29 H        0.8780    -1.6580     1.0250 H     1 <1>   0.0800 
 30 H        2.2320    -2.5890     0.4240 H     1 <1>   0.0800 
 31 H        0.0110     2.4730    -2.0300 H     1 <1>   0.0800 
 32 H       -0.0960     4.0140    -1.2000 H     1 <1>   0.0800 
 33 H       -0.7780     2.5780    -0.4610 H     1 <1>   0.0800 
 34 H        5.3280     1.6970     0.5890 H     1 <1>   0.0800 
 35 H        4.6650     0.4490    -0.4150 H     1 <1>   0.0800 
 36 H       -1.2440    -4.8870     0.0720 H     1 <1>   0.0800 
 37 H       -2.4880    -3.8750     0.7340 H     1 <1>   0.0800 
 38 H        1.3520    -3.5250     2.5250 H     1 <1>   0.0800 
 39 H        1.2210    -4.6610     1.2210 H     1 <1>   0.0800 
 40 H        4.3360     3.3760     2.3760 H     1 <1>   0.0800 
 41 H        3.4360     4.8250     2.0040 H     1 <1>   0.0800 
 42 H        4.7710     4.3490     0.9820 H     1 <1>   0.0800 
 43 H        4.1310     0.7750     2.5530 H     1 <1>   0.0800 
 44 H        5.1710    -0.4340     1.8380 H     1 <1>   0.0800 
 45 H        3.4430    -0.4780     1.5530 H     1 <1>   0.0800 
 46 H       -0.8710    -4.6880     2.4730 H     1 <1>   0.0800 
 47 H       -0.9930    -2.9540     2.3940 H     1 <1>   0.0800 
@<TRIPOS>BOND
  1   1   2  2   
  2   2   3  am  
  3   2   4  1   
  4   3   5  1   
  5   3  21  1   
  6   4   6  1   
  7   4   7  1   
  8   4  22  1   
  9   5   8  1   
 10   5   9  2   
 11   6  10  1   
 12   6  11  1   
 13   6  23  1   
 14   7  24  1   
 15   7  25  1   
 16   7  26  1   
 17   8  12  1   
 18   8  13  1   
 19   9  14  1   
 20   9  15  1   
 21  10  16  1   
 22  10  27  1   
 23  10  28  1   
 24  11  17  1   
 25  11  29  1   
 26  11  30  1   
 27  12  14  2   
 28  13  31  1   
 29  13  32  1   
 30  13  33  1   
 31  14  18  1   
 32  15  19  1   
 33  15  34  1   
 34  15  35  1   
 35  16  20  1   
 36  16  36  1   
 37  16  37  1   
 38  17  20  1   
 39  17  38  1   
 40  17  39  1   
 41  18  40  1   
 42  18  41  1   
 43  18  42  1   
 44  19  43  1   
 45  19  44  1   
 46  19  45  1   
 47  20  46  1   
 48  20  47  1   
@<TRIPOS>SUBSTRUCTURE
  1 ****   3 GROUP 4 **** **** 0

# MOE 2024.06 (io_trps.svl 2023.06)
