@<TRIPOS>MOLECULE
NONAME
51 54 1 0 0 
SMALL
USER_CHARGES


@<TRIPOS>ATOM
  1 O       -0.0600    -0.1400     0.6440 O.3   1 <1>  -0.3630 
  2 C        1.0700     0.4170     0.1190 C.ar  1 <1>   0.0820 
  3 C        0.0070    -1.3750     1.3310 C.3   1 <1>   0.2580 
  4 C        1.1370     1.7990    -0.0560 C.ar  1 <1>   0.0820 
  5 C        2.1370    -0.4030    -0.2570 C.ar  1 <1>   0.0280 
  6 C        0.9840    -2.3220     0.6360 C.2   1 <1>  -0.2760 
  7 O        0.0590     2.5430     0.3230 O.3   1 <1>  -0.3620 
  8 C        2.2880     2.3600    -0.6010 C.ar  1 <1>  -0.1500 
  9 C        2.0000    -1.8240    -0.0840 C.2   1 <1>  -0.1780 
 10 C        3.2760     0.1820    -0.7990 C.ar  1 <1>  -0.1500 
 11 C        0.6990    -3.7880     0.8500 C.3   1 <1>   0.4810 
 12 C        0.0290     3.9420     0.1510 C.3   1 <1>   0.0400 
 13 C        3.3510     1.5520    -0.9690 C.ar  1 <1>  -0.1500 
 14 N        0.2390    -4.3500    -0.4470 N.4   1 <1>  -0.9590 
 15 C       -1.0510    -3.7260    -0.8930 C.3   1 <1>   0.3430 
 16 C       -0.0210    -5.8180    -0.3220 C.3   1 <1>   0.3430 
 17 C       -2.1510    -4.6670    -0.3990 C.3   1 <1>   0.2000 
 18 C       -1.5110    -6.0390    -0.6170 C.3   1 <1>  -0.0800 
 19 O       -2.3460    -4.4450     0.9630 O.3   1 <1>  -0.6800 
 20 C       -2.1150    -7.2120     0.1780 C.3   1 <1>  -0.0170 
 21 C       -1.2980    -8.4740    -0.0510 C.ar  1 <1>  -0.1430 
 22 C       -0.4770    -9.0010     0.9270 C.ar  1 <1>  -0.1500 
 23 C       -1.3320    -9.1550    -1.2510 C.ar  1 <1>  -0.1500 
 24 C        0.2650   -10.1390     0.6580 C.ar  1 <1>   0.1600 
 25 C       -0.5490   -10.2860    -1.4190 C.ar  1 <1>   0.1600 
 26 N        0.2560   -10.7840    -0.4960 N.ar  1 <1>  -0.6200 
 27 H        0.3260    -1.1720     2.3390 H     1 <1>   0.0800 
 28 H       -0.9920    -1.7740     1.3550 H     1 <1>   0.0800 
 29 H        2.3780     3.4200    -0.7470 H     1 <1>   0.1500 
 30 H        2.7450    -2.4320    -0.5670 H     1 <1>   0.1500 
 31 H        4.1080    -0.4340    -1.0900 H     1 <1>   0.1500 
 32 H       -0.0540    -3.9230     1.6100 H     1 <1>   0.0800 
 33 H        1.6020    -4.2860     1.1650 H     1 <1>   0.0800 
 34 H       -0.9200     4.3000     0.5070 H     1 <1>   0.0800 
 35 H        0.1360     4.1670    -0.8950 H     1 <1>   0.0800 
 36 H        0.8240     4.3820     0.7260 H     1 <1>   0.0800 
 37 H        4.2380     1.9940    -1.3890 H     1 <1>   0.1500 
 38 H        0.9700    -4.1460    -1.1390 H     1 <1>   0.4500 
 39 H       -1.1860    -2.7260    -0.5170 H     1 <1>   0.0800 
 40 H       -1.0770    -3.6950    -1.9700 H     1 <1>   0.0800 
 41 H        0.5860    -6.3850    -1.0110 H     1 <1>   0.0800 
 42 H        0.1970    -6.1480     0.6810 H     1 <1>   0.0800 
 43 H       -3.0840    -4.5260    -0.9200 H     1 <1>   0.0800 
 44 H       -1.5910    -6.2750    -1.6640 H     1 <1>   0.0800 
 45 H       -3.2140    -4.7970     1.2570 H     1 <1>   0.4000 
 46 H       -3.1310    -7.3850    -0.1350 H     1 <1>   0.0800 
 47 H       -2.1320    -6.9930     1.2320 H     1 <1>   0.0800 
 48 H       -0.4060    -8.5490     1.9000 H     1 <1>   0.1500 
 49 H       -1.9590    -8.8280    -2.0610 H     1 <1>   0.1500 
 50 H        0.8990   -10.5410     1.4300 H     1 <1>   0.1500 
 51 H       -0.5850   -10.8080    -2.3610 H     1 <1>   0.1500 
@<TRIPOS>BOND
  1   1   2  1   
  2   1   3  1   
  3   2   4  ar  
  4   2   5  ar  
  5   3   6  1   
  6   3  27  1   
  7   3  28  1   
  8   4   7  1   
  9   4   8  ar  
 10   5   9  1   
 11   5  10  ar  
 12   6   9  2   
 13   6  11  1   
 14   7  12  1   
 15   8  13  ar  
 16   8  29  1   
 17   9  30  1   
 18  10  13  ar  
 19  10  31  1   
 20  11  14  1   
 21  11  32  1   
 22  11  33  1   
 23  12  34  1   
 24  12  35  1   
 25  12  36  1   
 26  13  37  1   
 27  14  15  1   
 28  14  16  1   
 29  14  38  1   
 30  15  17  1   
 31  15  39  1   
 32  15  40  1   
 33  16  18  1   
 34  16  41  1   
 35  16  42  1   
 36  17  18  1   
 37  17  19  1   
 38  17  43  1   
 39  18  20  1   
 40  18  44  1   
 41  19  45  1   
 42  20  21  1   
 43  20  46  1   
 44  20  47  1   
 45  21  22  ar  
 46  21  23  ar  
 47  22  24  ar  
 48  22  48  1   
 49  23  25  ar  
 50  23  49  1   
 51  24  26  ar  
 52  24  50  1   
 53  25  26  ar  
 54  25  51  1   
@<TRIPOS>SUBSTRUCTURE
  1 ****  14 GROUP 4 **** **** 0

# MOE 2024.06 (io_trps.svl 2023.06)
