@<TRIPOS>MOLECULE
NONAME
52 54 1 0 0 
SMALL
USER_CHARGES


@<TRIPOS>ATOM
  1 S        0.8440    -0.4690    -1.7940 S.3   1 <1>  -0.0800 
  2 C        1.6420    -0.4620    -0.2280 C.2   1 <1>  -0.1400 
  3 C       -0.5830    -1.2300    -1.1130 C.2   1 <1>  -0.1100 
  4 C        0.8450    -1.0090     0.7080 C.2   1 <1>  -0.1500 
  5 C        3.0430     0.1170    -0.1540 C.3   1 <1>   0.0200 
  6 C       -0.4230    -1.4450     0.2050 C.2   1 <1>  -0.1500 
  7 C        3.0280     1.6410    -0.3290 C.3   1 <1>  -0.1600 
  8 C        4.4450     2.2400    -0.2400 C.3   1 <1>  -0.0990 
  9 C        4.5110     3.7570    -0.4060 C.2   1 <1>   0.5690 
 10 O        3.4710     4.3680    -0.4900 O.2   1 <1>  -0.5700 
 11 N        5.7260     4.4000    -0.4480 N.am  1 <1>  -0.6600 
 12 C        7.0540     3.7390    -0.2440 C.3   1 <1>   0.1400 
 13 C        5.7860     5.8700    -0.6910 C.3   1 <1>   0.1400 
 14 C        7.7860     4.2890     0.9890 C.3   1 <1>   0.1400 
 15 C        6.0140     6.6110     0.6310 C.3   1 <1>  -0.1600 
 16 N        8.3600     5.6400     0.7170 N.am  1 <1>  -0.6600 
 17 C        7.4940     6.8250     0.9790 C.3   1 <1>   0.1400 
 18 C        9.6540     5.7580     0.2250 C.2   1 <1>   0.7160 
 19 O       10.1400     4.7600    -0.2900 O.2   1 <1>  -0.5700 
 20 C       10.4480     6.9870     0.2820 C.2   1 <1>   0.2030 
 21 N       10.2420     8.0610     1.0310 N.2   1 <1>  -0.7070 
 22 C       11.6050     7.1720    -0.4890 C.2   1 <1>  -0.1500 
 23 N       11.2440     8.9010     0.7410 N.pl3 1 <1>   0.3000 
 24 C       12.0860     8.3930    -0.1790 C.2   1 <1>  -0.3320 
 25 C       13.3080     9.1450    -0.6850 C.3   1 <1>   0.0200 
 26 C       14.0820     8.3390    -1.7300 C.3   1 <1>  -0.2400 
 27 H       -1.4000    -1.4360    -1.7810 H     1 <1>   0.1500 
 28 H        1.0920    -1.1280     1.7480 H     1 <1>   0.1500 
 29 H        3.6500    -0.3380    -0.9170 H     1 <1>   0.0800 
 30 H        3.4680    -0.1290     0.8030 H     1 <1>   0.0800 
 31 H       -1.1490    -1.8980     0.8580 H     1 <1>   0.1500 
 32 H        2.4040     2.0790     0.4320 H     1 <1>   0.0800 
 33 H        2.5990     1.8890    -1.2850 H     1 <1>   0.0800 
 34 H        5.0510     1.7960    -1.0080 H     1 <1>   0.0800 
 35 H        4.8670     1.9940     0.7170 H     1 <1>   0.0800 
 36 H        7.6670     3.8840    -1.1170 H     1 <1>   0.0800 
 37 H        6.9340     2.6810    -0.1110 H     1 <1>   0.0800 
 38 H        4.8580     6.2030    -1.1250 H     1 <1>   0.0800 
 39 H        6.5690     6.0960    -1.3950 H     1 <1>   0.0800 
 40 H        8.5880     3.6150     1.2400 H     1 <1>   0.0800 
 41 H        7.1210     4.3250     1.8330 H     1 <1>   0.0800 
 42 H        5.5070     6.1010     1.4300 H     1 <1>   0.0800 
 43 H        5.5620     7.5830     0.5530 H     1 <1>   0.0800 
 44 H        7.5890     7.1100     2.0130 H     1 <1>   0.0800 
 45 H        7.8450     7.6490     0.3820 H     1 <1>   0.0800 
 46 H       11.9950     6.4450    -1.1800 H     1 <1>   0.1500 
 47 H       11.3350     9.8210     1.1890 H     1 <1>   0.2700 
 48 H       13.9590     9.3640     0.1430 H     1 <1>   0.0800 
 49 H       12.9960    10.0780    -1.1230 H     1 <1>   0.0800 
 50 H       14.4230     7.4110    -1.3050 H     1 <1>   0.0800 
 51 H       14.9370     8.8970    -2.0680 H     1 <1>   0.0800 
 52 H       13.4530     8.1250    -2.5760 H     1 <1>   0.0800 
@<TRIPOS>BOND
  1   1   2  1   
  2   1   3  1   
  3   2   4  2   
  4   2   5  1   
  5   3   6  2   
  6   3  27  1   
  7   4   6  1   
  8   4  28  1   
  9   5   7  1   
 10   5  29  1   
 11   5  30  1   
 12   6  31  1   
 13   7   8  1   
 14   7  32  1   
 15   7  33  1   
 16   8   9  1   
 17   8  34  1   
 18   8  35  1   
 19   9  10  2   
 20   9  11  am  
 21  11  12  1   
 22  11  13  1   
 23  12  14  1   
 24  12  36  1   
 25  12  37  1   
 26  13  15  1   
 27  13  38  1   
 28  13  39  1   
 29  14  16  1   
 30  14  40  1   
 31  14  41  1   
 32  15  17  1   
 33  15  42  1   
 34  15  43  1   
 35  16  17  1   
 36  16  18  am  
 37  17  44  1   
 38  17  45  1   
 39  18  19  2   
 40  18  20  1   
 41  20  21  2   
 42  20  22  1   
 43  21  23  1   
 44  22  24  2   
 45  22  46  1   
 46  23  24  1   
 47  23  47  1   
 48  24  25  1   
 49  25  26  1   
 50  25  48  1   
 51  25  49  1   
 52  26  50  1   
 53  26  51  1   
 54  26  52  1   
@<TRIPOS>SUBSTRUCTURE
  1 ****  12 GROUP 4 **** **** 0

# MOE 2024.06 (io_trps.svl 2023.06)
