@<TRIPOS>MOLECULE
NONAME
42 44 1 0 0 
SMALL
USER_CHARGES


@<TRIPOS>ATOM
  1 O        3.7160    -1.8400    -1.6300 O.2   1 <1>  -0.5700 
  2 C        2.9630    -1.5090    -0.7320 C.2   1 <1>   0.5440 
  3 N        3.0670    -0.2150    -0.2890 N.am  1 <1>  -0.6600 
  4 C        2.0660    -2.4630    -0.0990 C.ar  1 <1>   0.0860 
  5 C        3.7600    -0.0150     1.0350 C.3   1 <1>   0.2200 
  6 C        3.1320     0.8880    -1.3040 C.3   1 <1>   0.1400 
  7 C        2.2820    -3.8370    -0.2090 C.ar  1 <1>  -0.1500 
  8 C        0.9600    -2.0470     0.6460 C.ar  1 <1>  -0.1500 
  9 C        3.3980     1.3260     1.6950 C.3   1 <1>   0.1200 
 10 C        5.2960    -0.1850     0.8990 C.3   1 <1>   0.3430 
 11 C        4.2830     1.8950    -1.1160 C.3   1 <1>  -0.0800 
 12 C        1.4460    -4.7520     0.4040 C.ar  1 <1>  -0.1500 
 13 C        0.1200    -2.9570     1.2620 C.ar  1 <1>  -0.1500 
 14 O        4.2490     2.3450     1.2700 O.3   1 <1>  -0.5600 
 15 N        5.7600    -0.1040    -0.5280 N.4   1 <1>  -0.9590 
 16 C        3.9990     2.8920     0.0190 C.3   1 <1>   0.1200 
 17 C        5.7040     1.2980    -1.0410 C.3   1 <1>   0.3430 
 18 C        0.3630    -4.3120     1.1440 C.ar  1 <1>  -0.1500 
 19 C        7.1910    -0.6070    -0.6090 C.3   1 <1>   0.2370 
 20 C        8.1870     0.1760     0.2530 C.2   1 <1>   0.9060 
 21 O        8.7070     1.1830    -0.2370 O.co2 1 <1>  -0.9000 
 22 O        8.3200    -0.1630     1.4320 O.co2 1 <1>  -0.9000 
 23 H        3.4120    -0.7810     1.7070 H     1 <1>   0.0800 
 24 H        3.2150     0.4580    -2.2880 H     1 <1>   0.0800 
 25 H        2.1950     1.4180    -1.2810 H     1 <1>   0.0800 
 26 H        3.1180    -4.1930    -0.7860 H     1 <1>   0.1500 
 27 H        0.7490    -0.9970     0.7410 H     1 <1>   0.1500 
 28 H        3.5420     1.2400     2.7580 H     1 <1>   0.0800 
 29 H        2.3730     1.6000     1.5130 H     1 <1>   0.0800 
 30 H        5.5670    -1.1470     1.3000 H     1 <1>   0.0800 
 31 H        5.8060     0.5550     1.4960 H     1 <1>   0.0800 
 32 H        4.2780     2.5020    -2.0040 H     1 <1>   0.0800 
 33 H        1.6350    -5.8080     0.3050 H     1 <1>   0.1500 
 34 H       -0.7270    -2.6140     1.8320 H     1 <1>   0.1500 
 35 H        5.1230    -0.7030    -1.0920 H     1 <1>   0.4500 
 36 H        2.9830     3.2480    -0.0080 H     1 <1>   0.0800 
 37 H        4.6540     3.7420    -0.0780 H     1 <1>   0.0800 
 38 H        6.3250     1.9300    -0.4230 H     1 <1>   0.0800 
 39 H        6.1310     1.3090    -2.0300 H     1 <1>   0.0800 
 40 H       -0.2890    -5.0230     1.6220 H     1 <1>   0.1500 
 41 H        7.2330    -1.6320    -0.2880 H     1 <1>   0.0800 
 42 H        7.5380    -0.5560    -1.6240 H     1 <1>   0.0800 
@<TRIPOS>BOND
  1   1   2  2   
  2   2   3  am  
  3   2   4  1   
  4   3   5  1   
  5   3   6  1   
  6   4   7  ar  
  7   4   8  ar  
  8   5   9  1   
  9   5  10  1   
 10   5  23  1   
 11   6  11  1   
 12   6  24  1   
 13   6  25  1   
 14   7  12  ar  
 15   7  26  1   
 16   8  13  ar  
 17   8  27  1   
 18   9  14  1   
 19   9  28  1   
 20   9  29  1   
 21  10  15  1   
 22  10  30  1   
 23  10  31  1   
 24  11  16  1   
 25  11  17  1   
 26  11  32  1   
 27  12  18  ar  
 28  12  33  1   
 29  13  18  ar  
 30  13  34  1   
 31  14  16  1   
 32  15  17  1   
 33  15  19  1   
 34  15  35  1   
 35  16  36  1   
 36  16  37  1   
 37  17  38  1   
 38  17  39  1   
 39  18  40  1   
 40  19  20  1   
 41  19  41  1   
 42  19  42  1   
 43  20  21  ar  
 44  20  22  ar  
@<TRIPOS>SUBSTRUCTURE
  1 ****   3 GROUP 4 **** **** 0

# MOE 2024.06 (io_trps.svl 2023.06)
