@<TRIPOS>MOLECULE
NONAME
40 42 1 0 0 
SMALL
USER_CHARGES


@<TRIPOS>ATOM
  1 CL       1.9740    -2.1070     3.8370 Cl    1 <1>  -0.1230 
  2 C        1.8000    -2.7200     2.2030 C.2   1 <1>   0.1230 
  3 C        1.8220    -1.9960     1.0600 C.2   1 <1>  -0.3020 
  4 C        1.6150    -4.0550     1.8780 C.2   1 <1>  -0.1500 
  5 N        1.6540    -2.8430     0.0130 N.pl3 1 <1>   0.0480 
  6 C        1.5230    -4.1290     0.5060 C.2   1 <1>  -0.2370 
  7 C        1.6280    -2.4100    -1.3990 C.3   1 <1>   0.0160 
  8 C        1.3260    -5.3060    -0.3000 C.2   1 <1>   0.7150 
  9 O        1.2250    -5.2620    -1.5120 O.2   1 <1>  -0.5700 
 10 N        1.2320    -6.5150     0.3090 N.am  1 <1>  -0.7300 
 11 C        1.0570    -7.8220    -0.3650 C.3   1 <1>   0.2200 
 12 C       -0.3670    -8.3380    -0.2090 C.3   1 <1>  -0.0800 
 13 C        1.8220    -8.8800     0.4180 C.3   1 <1>   0.1200 
 14 C       -0.3400    -9.0210     1.1630 C.3   1 <1>   0.1200 
 15 C       -1.4860    -7.2920    -0.3740 C.3   1 <1>  -0.0160 
 16 O        1.0070    -9.1800     1.5090 O.3   1 <1>  -0.5600 
 17 C       -2.8560    -7.9460    -0.2820 C.ar  1 <1>  -0.1430 
 18 C       -3.4180    -8.6070    -1.3560 C.ar  1 <1>  -0.1500 
 19 C       -3.6080    -7.9170     0.8760 C.ar  1 <1>  -0.1500 
 20 C       -4.6650    -9.1940    -1.2230 C.ar  1 <1>   0.1600 
 21 C       -4.8460    -8.5370     0.9040 C.ar  1 <1>   0.1600 
 22 N       -5.3920    -9.1780    -0.1170 N.ar  1 <1>  -0.6200 
 23 H        1.9470    -0.9340     0.9510 H     1 <1>   0.1500 
 24 H        1.5610    -4.8470     2.6020 H     1 <1>   0.1500 
 25 H        1.7720    -1.3470    -1.4580 H     1 <1>   0.0800 
 26 H        0.6790    -2.6670    -1.8320 H     1 <1>   0.0800 
 27 H        2.4120    -2.9080    -1.9390 H     1 <1>   0.0800 
 28 H        1.2950    -6.5680     1.3250 H     1 <1>   0.3700 
 29 H        1.3710    -7.7680    -1.3940 H     1 <1>   0.0800 
 30 H       -0.5190    -9.1070    -0.9450 H     1 <1>   0.0800 
 31 H        2.7810    -8.5350     0.7620 H     1 <1>   0.0800 
 32 H        1.9400    -9.7770    -0.1650 H     1 <1>   0.0800 
 33 H       -0.8120    -9.9880     1.1370 H     1 <1>   0.0800 
 34 H       -0.7990    -8.4120     1.9220 H     1 <1>   0.0800 
 35 H       -1.3850    -6.8090    -1.3310 H     1 <1>   0.0800 
 36 H       -1.4060    -6.5300     0.3810 H     1 <1>   0.0800 
 37 H       -2.8980    -8.6690    -2.2950 H     1 <1>   0.1500 
 38 H       -3.2450    -7.4180     1.7550 H     1 <1>   0.1500 
 39 H       -5.0870    -9.7050    -2.0710 H     1 <1>   0.1500 
 40 H       -5.4180    -8.5040     1.8150 H     1 <1>   0.1500 
@<TRIPOS>BOND
  1   1   2  1   
  2   2   3  2   
  3   2   4  1   
  4   3   5  1   
  5   3  23  1   
  6   4   6  2   
  7   4  24  1   
  8   5   6  1   
  9   5   7  1   
 10   6   8  1   
 11   7  25  1   
 12   7  26  1   
 13   7  27  1   
 14   8   9  2   
 15   8  10  am  
 16  10  11  1   
 17  10  28  1   
 18  11  12  1   
 19  11  13  1   
 20  11  29  1   
 21  12  14  1   
 22  12  15  1   
 23  12  30  1   
 24  13  16  1   
 25  13  31  1   
 26  13  32  1   
 27  14  16  1   
 28  14  33  1   
 29  14  34  1   
 30  15  17  1   
 31  15  35  1   
 32  15  36  1   
 33  17  18  ar  
 34  17  19  ar  
 35  18  20  ar  
 36  18  37  1   
 37  19  21  ar  
 38  19  38  1   
 39  20  22  ar  
 40  20  39  1   
 41  21  22  ar  
 42  21  40  1   
@<TRIPOS>SUBSTRUCTURE
  1 ****  10 GROUP 4 **** **** 0

# MOE 2024.06 (io_trps.svl 2023.06)
