@<TRIPOS>MOLECULE
NONAME
45 48 1 0 0 
SMALL
USER_CHARGES


@<TRIPOS>ATOM
  1 O        4.5200    -1.7780    -1.7210 O.2   1 <1>  -0.5700 
  2 C        3.4850    -1.6420    -1.0920 C.2   1 <1>   0.5440 
  3 N        3.2750    -0.3980    -0.5540 N.am  1 <1>  -0.6600 
  4 C        2.5720    -2.7480    -0.8580 C.ar  1 <1>   0.0860 
  5 C        3.6870    -0.2010     0.8800 C.3   1 <1>   0.2200 
  6 C        3.2680     0.7780    -1.4790 C.3   1 <1>   0.1400 
  7 C        1.2820    -2.5380    -0.3500 C.ar  1 <1>  -0.1500 
  8 C        2.9570    -4.0690    -1.1320 C.ar  1 <1>  -0.1500 
  9 C        2.9980     1.0020     1.5440 C.3   1 <1>   0.1200 
 10 C        5.2300    -0.0940     1.0110 C.3   1 <1>   0.3430 
 11 C        4.1610     1.9580    -1.0480 C.3   1 <1>  -0.0800 
 12 C        0.4420    -3.6090    -0.1230 C.ar  1 <1>  -0.1440 
 13 C        2.1100    -5.1400    -0.9020 C.ar  1 <1>  -0.1500 
 14 O        3.7270     2.1720     1.3210 O.3   1 <1>  -0.5600 
 15 N        5.9090     0.2360    -0.2910 N.4   1 <1>  -0.9590 
 16 C        3.5320     2.7790     0.0880 C.3   1 <1>   0.1200 
 17 C        5.6450     1.6240    -0.7820 C.3   1 <1>   0.3430 
 18 C        0.8520    -4.8870    -0.3930 C.ar  1 <1>   0.0830 
 19 C       -0.9620    -3.6640     0.4040 C.3   1 <1>  -0.0170 
 20 C        7.3650    -0.0710    -0.2480 C.3   1 <1>   0.2630 
 21 O       -0.0800    -5.8070    -0.1190 O.3   1 <1>  -0.3630 
 22 C       -1.2560    -5.1760     0.3670 C.3   1 <1>   0.1200 
 23 H        3.3720    -1.0700     1.4310 H     1 <1>   0.0800 
 24 H        3.5800     0.4530    -2.4590 H     1 <1>   0.0800 
 25 H        2.2520     1.1220    -1.5780 H     1 <1>   0.0800 
 26 H        0.9370    -1.5420    -0.1390 H     1 <1>   0.1500 
 27 H        3.9370    -4.2570    -1.5340 H     1 <1>   0.1500 
 28 H        2.9820     0.8550     2.6100 H     1 <1>   0.0800 
 29 H        1.9830     1.1230     1.2050 H     1 <1>   0.0800 
 30 H        5.5940    -1.0450     1.3610 H     1 <1>   0.0800 
 31 H        5.4800     0.6420     1.7580 H     1 <1>   0.0800 
 32 H        4.1630     2.6310    -1.8870 H     1 <1>   0.0800 
 33 H        2.4070    -6.1520    -1.1120 H     1 <1>   0.1500 
 34 H        5.4600    -0.4140    -0.9790 H     1 <1>   0.4500 
 35 H        2.4760     2.9340    -0.0660 H     1 <1>   0.0800 
 36 H        4.0030     3.7460     0.1420 H     1 <1>   0.0800 
 37 H        6.0400     2.3360    -0.0760 H     1 <1>   0.0800 
 38 H        6.1800     1.7570    -1.7080 H     1 <1>   0.0800 
 39 H       -1.6420    -3.1250    -0.2310 H     1 <1>   0.0800 
 40 H       -1.0210    -3.2870     1.4090 H     1 <1>   0.0800 
 41 H        7.8610     0.5610     0.4710 H     1 <1>   0.0800 
 42 H        7.8080     0.0910    -1.2180 H     1 <1>   0.0800 
 43 H        7.5190    -1.1020     0.0270 H     1 <1>   0.0800 
 44 H       -2.0620    -5.4070    -0.3070 H     1 <1>   0.0800 
 45 H       -1.4650    -5.5650     1.3480 H     1 <1>   0.0800 
@<TRIPOS>BOND
  1   1   2  2   
  2   2   3  am  
  3   2   4  1   
  4   3   5  1   
  5   3   6  1   
  6   4   7  ar  
  7   4   8  ar  
  8   5   9  1   
  9   5  10  1   
 10   5  23  1   
 11   6  11  1   
 12   6  24  1   
 13   6  25  1   
 14   7  12  ar  
 15   7  26  1   
 16   8  13  ar  
 17   8  27  1   
 18   9  14  1   
 19   9  28  1   
 20   9  29  1   
 21  10  15  1   
 22  10  30  1   
 23  10  31  1   
 24  11  16  1   
 25  11  17  1   
 26  11  32  1   
 27  12  18  ar  
 28  12  19  1   
 29  13  18  ar  
 30  13  33  1   
 31  14  16  1   
 32  15  17  1   
 33  15  20  1   
 34  15  34  1   
 35  16  35  1   
 36  16  36  1   
 37  17  37  1   
 38  17  38  1   
 39  18  21  1   
 40  19  22  1   
 41  19  39  1   
 42  19  40  1   
 43  20  41  1   
 44  20  42  1   
 45  20  43  1   
 46  21  22  1   
 47  22  44  1   
 48  22  45  1   
@<TRIPOS>SUBSTRUCTURE
  1 ****   2 GROUP 4 **** **** 0

# MOE 2024.06 (io_trps.svl 2023.06)
