@<TRIPOS>MOLECULE
NONAME
42 45 1 0 0 
SMALL
USER_CHARGES


@<TRIPOS>ATOM
  1 CL      -0.9570    -1.6020     1.7650 Cl    1 <1>  -0.1770 
  2 C       -2.1430    -0.7180     0.8390 C.ar  1 <1>   0.1770 
  3 C       -1.8600    -0.3320    -0.4600 C.ar  1 <1>   0.1600 
  4 C       -3.3590    -0.4120     1.4050 C.ar  1 <1>  -0.1500 
  5 N       -2.7030     0.3430    -1.2310 N.ar  1 <1>  -0.6200 
  6 C       -4.2670     0.2870     0.6220 C.ar  1 <1>   0.0860 
  7 C       -3.8670     0.6390    -0.6680 C.ar  1 <1>   0.1600 
  8 C       -5.5760     0.6470     1.1190 C.2   1 <1>   0.5440 
  9 O       -5.6540     1.2810     2.1520 O.2   1 <1>  -0.5700 
 10 N       -6.7340     0.2910     0.4600 N.am  1 <1>  -0.6600 
 11 C       -8.0660     0.7830     0.9610 C.3   1 <1>   0.1400 
 12 C       -6.7640    -0.7010    -0.6600 C.3   1 <1>   0.1400 
 13 C       -9.1220     0.8460    -0.1600 C.3   1 <1>   0.1430 
 14 C       -8.0870    -1.4730    -0.6750 C.3   1 <1>  -0.1600 
 15 C      -10.4100     1.4110     0.4240 C.ar  1 <1>   0.1670 
 16 C       -9.3220    -0.5570    -0.7950 C.3   1 <1>  -0.1600 
 17 C       -8.7420     1.9290    -1.2130 C.3   1 <1>  -0.1600 
 18 N      -11.2410     0.7670     1.2100 N.ar  1 <1>  -0.6200 
 19 C      -10.6070     2.7080     0.0470 C.ar  1 <1>  -0.1440 
 20 C       -9.4950     3.2150    -0.8330 C.3   1 <1>  -0.0170 
 21 C      -12.2850     1.4830     1.5990 C.ar  1 <1>   0.7200 
 22 C      -11.7340     3.3460     0.5050 C.ar  1 <1>   0.1600 
 23 N      -12.5950     2.7330     1.2860 N.ar  1 <1>  -0.6200 
 24 N      -13.1550     0.8530     2.3890 N.pl3 1 <1>  -0.9000 
 25 H       -0.9010    -0.5890    -0.8760 H     1 <1>   0.1500 
 26 H       -3.5970    -0.6970     2.4150 H     1 <1>   0.1500 
 27 H       -4.5610     1.2040    -1.2670 H     1 <1>   0.1500 
 28 H       -7.9520     1.7600     1.3990 H     1 <1>   0.0800 
 29 H       -8.4120     0.1200     1.7360 H     1 <1>   0.0800 
 30 H       -5.9530    -1.4010    -0.5520 H     1 <1>   0.0800 
 31 H       -6.6430    -0.1830    -1.5960 H     1 <1>   0.0800 
 32 H       -8.1520    -2.0370     0.2400 H     1 <1>   0.0800 
 33 H       -8.0840    -2.1800    -1.4850 H     1 <1>   0.0800 
 34 H       -9.6030    -0.4620    -1.8280 H     1 <1>   0.0800 
 35 H      -10.1380    -1.0600    -0.3060 H     1 <1>   0.0800 
 36 H       -9.0820     1.6300    -2.1890 H     1 <1>   0.0800 
 37 H       -7.6830     2.1040    -1.2680 H     1 <1>   0.0800 
 38 H       -9.8720     3.7270    -1.7010 H     1 <1>   0.0800 
 39 H       -8.8590     3.8740    -0.2660 H     1 <1>   0.0800 
 40 H      -11.9320     4.3680     0.2300 H     1 <1>   0.1500 
 41 H      -14.0800     1.2680     2.4270 H     1 <1>   0.4000 
 42 H      -13.1000    -0.1600     2.3710 H     1 <1>   0.4000 
@<TRIPOS>BOND
  1   1   2  1   
  2   2   3  ar  
  3   2   4  ar  
  4   3   5  ar  
  5   3  25  1   
  6   4   6  ar  
  7   4  26  1   
  8   5   7  ar  
  9   6   7  ar  
 10   6   8  1   
 11   7  27  1   
 12   8   9  2   
 13   8  10  am  
 14  10  11  1   
 15  10  12  1   
 16  11  13  1   
 17  11  28  1   
 18  11  29  1   
 19  12  14  1   
 20  12  30  1   
 21  12  31  1   
 22  13  15  1   
 23  13  16  1   
 24  13  17  1   
 25  14  16  1   
 26  14  32  1   
 27  14  33  1   
 28  15  18  ar  
 29  15  19  ar  
 30  16  34  1   
 31  16  35  1   
 32  17  20  1   
 33  17  36  1   
 34  17  37  1   
 35  18  21  ar  
 36  19  20  1   
 37  19  22  ar  
 38  20  38  1   
 39  20  39  1   
 40  21  23  ar  
 41  21  24  1   
 42  22  23  ar  
 43  22  40  1   
 44  24  41  1   
 45  24  42  1   
@<TRIPOS>SUBSTRUCTURE
  1 ****  11 GROUP 4 **** **** 0

# MOE 2024.06 (io_trps.svl 2023.06)
