@<TRIPOS>MOLECULE
NONAME
54 57 1 0 0 
SMALL
USER_CHARGES


@<TRIPOS>ATOM
  1 O        0.9520     0.4830    -0.5160 O.3   1 <1>  -0.3630 
  2 C        1.5610    -0.6920    -0.3380 C.ar  1 <1>   0.0820 
  3 C        1.5930     1.4110     0.3580 C.3   1 <1>   0.4000 
  4 C        2.5380    -0.5800     0.6020 C.ar  1 <1>   0.0820 
  5 C        1.2990    -1.8910    -0.9650 C.ar  1 <1>  -0.1500 
  6 O        2.5920     0.6740     1.0610 O.3   1 <1>  -0.3630 
  7 C        3.3140    -1.6610     0.9620 C.ar  1 <1>  -0.1500 
  8 C        2.0560    -3.0050    -0.6050 C.ar  1 <1>  -0.1440 
  9 C        3.0760    -2.8880     0.3500 C.ar  1 <1>  -0.1440 
 10 C        1.7290    -4.3300    -1.2610 C.3   1 <1>   0.4870 
 11 C        3.9660    -4.0600     0.7470 C.3   1 <1>  -0.0960 
 12 N        0.8960    -5.1160    -0.3000 N.4   1 <1>  -0.9590 
 13 C        0.8230    -6.5790    -0.6670 C.3   1 <1>   0.3430 
 14 C       -0.4480    -4.4740    -0.1360 C.3   1 <1>   0.3430 
 15 C       -0.1330    -7.4280     0.2400 C.3   1 <1>   0.4230 
 16 C       -1.2680    -5.2850     0.8650 C.3   1 <1>  -0.1600 
 17 N       -0.2280    -8.9140    -0.1220 N.4   1 <1>  -0.9590 
 18 C       -1.5200    -6.7410     0.3820 C.3   1 <1>   0.0000 
 19 C       -1.4530    -9.6030     0.4190 C.3   1 <1>   0.3430 
 20 C       -0.0890    -9.2700    -1.5770 C.3   1 <1>   0.2630 
 21 C       -2.3620    -7.4670     1.4680 C.3   1 <1>  -0.1600 
 22 C       -2.2690    -6.7720    -0.9860 C.3   1 <1>   0.1200 
 23 C       -1.9420    -8.9300     1.7000 C.3   1 <1>  -0.1600 
 24 O       -3.1500    -5.7150    -1.1030 O.3   1 <1>  -0.6800 
 25 H        2.0590     2.1900    -0.2190 H     1 <1>   0.0800 
 26 H        0.8770     1.8070     1.0570 H     1 <1>   0.0800 
 27 H        0.5210    -1.9250    -1.7070 H     1 <1>   0.1500 
 28 H        4.0840    -1.5270     1.7020 H     1 <1>   0.1500 
 29 H        2.6460    -4.8500    -1.4840 H     1 <1>   0.0800 
 30 H        1.1940    -4.1660    -2.1830 H     1 <1>   0.0800 
 31 H        4.8050    -3.7140     1.3260 H     1 <1>   0.0800 
 32 H        4.3610    -4.5520    -0.1230 H     1 <1>   0.0800 
 33 H        3.4230    -4.7650     1.3490 H     1 <1>   0.0800 
 34 H        1.3800    -4.9850     0.6010 H     1 <1>   0.4500 
 35 H        0.4790    -6.6530    -1.6850 H     1 <1>   0.0800 
 36 H        1.8130    -7.0020    -0.6180 H     1 <1>   0.0800 
 37 H       -0.3360    -3.4650     0.2320 H     1 <1>   0.0800 
 38 H       -0.9670    -4.4300    -1.0810 H     1 <1>   0.0800 
 39 H        0.2990    -7.3910     1.2260 H     1 <1>   0.0800 
 40 H       -0.7610    -5.2780     1.8150 H     1 <1>   0.0800 
 41 H       -2.2050    -4.7770     1.0220 H     1 <1>   0.0800 
 42 H        0.5550    -9.3790     0.3660 H     1 <1>   0.4500 
 43 H       -2.2480    -9.5680    -0.3090 H     1 <1>   0.0800 
 44 H       -1.2350   -10.6420     0.6150 H     1 <1>   0.0800 
 45 H       -0.8880    -8.8320    -2.1550 H     1 <1>   0.0800 
 46 H       -0.1330   -10.3410    -1.7030 H     1 <1>   0.0800 
 47 H        0.8550    -8.9290    -1.9690 H     1 <1>   0.0800 
 48 H       -2.2880    -6.9590     2.4170 H     1 <1>   0.0800 
 49 H       -3.4050    -7.4340     1.1980 H     1 <1>   0.0800 
 50 H       -2.8250    -7.6840    -1.1240 H     1 <1>   0.0800 
 51 H       -1.5860    -6.6720    -1.8100 H     1 <1>   0.0800 
 52 H       -2.7850    -9.4790     2.0860 H     1 <1>   0.0800 
 53 H       -1.1680    -8.9850     2.4460 H     1 <1>   0.0800 
 54 H       -4.0160    -5.9020    -0.6800 H     1 <1>   0.4000 
@<TRIPOS>BOND
  1   1   2  1   
  2   1   3  1   
  3   2   4  ar  
  4   2   5  ar  
  5   3   6  1   
  6   3  25  1   
  7   3  26  1   
  8   4   6  1   
  9   4   7  ar  
 10   5   8  ar  
 11   5  27  1   
 12   7   9  ar  
 13   7  28  1   
 14   8   9  ar  
 15   8  10  1   
 16   9  11  1   
 17  10  12  1   
 18  10  29  1   
 19  10  30  1   
 20  11  31  1   
 21  11  32  1   
 22  11  33  1   
 23  12  13  1   
 24  12  14  1   
 25  12  34  1   
 26  13  15  1   
 27  13  35  1   
 28  13  36  1   
 29  14  16  1   
 30  14  37  1   
 31  14  38  1   
 32  15  17  1   
 33  15  18  1   
 34  15  39  1   
 35  16  18  1   
 36  16  40  1   
 37  16  41  1   
 38  17  19  1   
 39  17  20  1   
 40  17  42  1   
 41  18  21  1   
 42  18  22  1   
 43  19  23  1   
 44  19  43  1   
 45  19  44  1   
 46  20  45  1   
 47  20  46  1   
 48  20  47  1   
 49  21  23  1   
 50  21  48  1   
 51  21  49  1   
 52  22  24  1   
 53  22  50  1   
 54  22  51  1   
 55  23  52  1   
 56  23  53  1   
 57  24  54  1   
@<TRIPOS>SUBSTRUCTURE
  1 ****  12 GROUP 4 **** **** 0

# MOE 2024.06 (io_trps.svl 2023.06)
