@<TRIPOS>MOLECULE
NONAME
46 47 1 0 0 
SMALL
USER_CHARGES


@<TRIPOS>ATOM
  1 O       -1.0690    -0.0220     3.0040 O.co2 1 <1>  -0.9000 
  2 C       -1.6220    -0.5100     2.0020 C.2   1 <1>   0.9790 
  3 O       -1.3590    -1.6880     1.6940 O.co2 1 <1>  -0.9000 
  4 C       -2.5680     0.2670     1.2110 C.ar  1 <1>  -0.1790 
  5 C       -2.7520     1.6350     1.4190 C.ar  1 <1>  -0.1500 
  6 C       -3.3370    -0.3250     0.2090 C.ar  1 <1>  -0.1500 
  7 C       -3.6560     2.3830     0.6830 C.ar  1 <1>  -0.1440 
  8 C       -4.2420     0.4020    -0.5390 C.ar  1 <1>  -0.1500 
  9 C       -4.4140     1.7650    -0.3080 C.ar  1 <1>   0.0830 
 10 C       -3.8030     3.8690     0.9910 C.3   1 <1>   0.2540 
 11 O       -5.2950     2.5220    -1.0140 O.3   1 <1>  -0.3630 
 12 N       -2.5730     4.6200     0.6720 N.3   1 <1>  -0.8100 
 13 C       -6.0700     1.9760    -2.0580 C.3   1 <1>   0.0400 
 14 C       -2.6470     6.0070     1.1820 C.3   1 <1>   0.2900 
 15 C       -2.2300     4.5560    -0.7580 C.3   1 <1>   0.1100 
 16 C       -1.3520     6.7970     1.0200 C.2   1 <1>   0.2980 
 17 C       -0.8330     3.9620    -0.8870 C.3   1 <1>  -0.2400 
 18 O       -0.3070     6.4510     1.7290 O.3   1 <1>  -0.0190 
 19 N       -1.1850     7.8000     0.2500 N.2   1 <1>  -0.5650 
 20 N        0.6080     7.3050     1.3780 N.2   1 <1>  -0.4100 
 21 C        0.0870     8.0810     0.5130 C.2   1 <1>   0.3350 
 22 C        0.8250     9.2290    -0.1740 C.3   1 <1>   0.1010 
 23 C        0.1670    10.5820     0.1360 C.3   1 <1>  -0.2400 
 24 C        0.9040     9.0100    -1.6910 C.3   1 <1>  -0.2400 
 25 H       -2.1570     2.1150     2.1800 H     1 <1>   0.1500 
 26 H       -3.2080    -1.3800     0.0270 H     1 <1>   0.1500 
 27 H       -4.8010    -0.1150    -1.2920 H     1 <1>   0.1500 
 28 H       -4.0080     3.9620     2.0430 H     1 <1>   0.0800 
 29 H       -4.6340     4.2940     0.4570 H     1 <1>   0.0800 
 30 H       -6.6730     2.7630    -2.4730 H     1 <1>   0.0800 
 31 H       -6.7000     1.2040    -1.6550 H     1 <1>   0.0800 
 32 H       -5.4110     1.5830    -2.8110 H     1 <1>   0.0800 
 33 H       -2.8860     5.9830     2.2300 H     1 <1>   0.0800 
 34 H       -3.4350     6.5320     0.6710 H     1 <1>   0.0800 
 35 H       -2.2550     5.5340    -1.2090 H     1 <1>   0.0800 
 36 H       -2.9250     3.9310    -1.2950 H     1 <1>   0.0800 
 37 H       -0.1110     4.5820    -0.3880 H     1 <1>   0.0800 
 38 H       -0.5640     3.8840    -1.9230 H     1 <1>   0.0800 
 39 H       -0.8140     2.9780    -0.4520 H     1 <1>   0.0800 
 40 H        1.8290     9.2480     0.2140 H     1 <1>   0.0800 
 41 H       -0.8380    10.6050    -0.2470 H     1 <1>   0.0800 
 42 H        0.7280    11.3840    -0.3090 H     1 <1>   0.0800 
 43 H        0.1310    10.7350     1.2000 H     1 <1>   0.0800 
 44 H       -0.0830     8.9960    -2.1190 H     1 <1>   0.0800 
 45 H        1.3790     8.0670    -1.9000 H     1 <1>   0.0800 
 46 H        1.4740     9.7940    -2.1560 H     1 <1>   0.0800 
@<TRIPOS>BOND
  1   1   2  ar  
  2   2   3  ar  
  3   2   4  1   
  4   4   5  ar  
  5   4   6  ar  
  6   5   7  ar  
  7   5  25  1   
  8   6   8  ar  
  9   6  26  1   
 10   7   9  ar  
 11   7  10  1   
 12   8   9  ar  
 13   8  27  1   
 14   9  11  1   
 15  10  12  1   
 16  10  28  1   
 17  10  29  1   
 18  11  13  1   
 19  12  14  1   
 20  12  15  1   
 21  13  30  1   
 22  13  31  1   
 23  13  32  1   
 24  14  16  1   
 25  14  33  1   
 26  14  34  1   
 27  15  17  1   
 28  15  35  1   
 29  15  36  1   
 30  16  18  1   
 31  16  19  2   
 32  17  37  1   
 33  17  38  1   
 34  17  39  1   
 35  18  20  1   
 36  19  21  1   
 37  20  21  2   
 38  21  22  1   
 39  22  23  1   
 40  22  24  1   
 41  22  40  1   
 42  23  41  1   
 43  23  42  1   
 44  23  43  1   
 45  24  44  1   
 46  24  45  1   
 47  24  46  1   
@<TRIPOS>SUBSTRUCTURE
  1 ****  12 GROUP 4 **** **** 0

# MOE 2024.06 (io_trps.svl 2023.06)
