@<TRIPOS>MOLECULE
NONAME
46 48 1 0 0 
SMALL
USER_CHARGES


@<TRIPOS>ATOM
  1 O       -1.0130     0.6230     2.5230 O.3   1 <1>  -0.5600 
  2 C        0.1340     0.8070     1.7460 C.3   1 <1>   0.1200 
  3 C       -2.1630     0.7610     1.7390 C.3   1 <1>   0.1200 
  4 C       -0.2910     1.6980     0.5870 C.3   1 <1>   0.2890 
  5 C       -1.7020     1.1840     0.3410 C.3   1 <1>  -0.0800 
  6 N       -0.3230     3.1120     1.0490 N.pl3 1 <1>  -0.8690 
  7 C       -2.6550     2.1620    -0.3710 C.3   1 <1>  -0.0170 
  8 C        0.6360     4.0590     0.7420 C.ar  1 <1>   0.4100 
  9 C       -4.0080     1.5140    -0.6230 C.ar  1 <1>  -0.1430 
 10 N        1.5650     3.6830    -0.1290 N.ar  1 <1>  -0.6200 
 11 C        0.6050     5.3300     1.3320 C.ar  1 <1>   0.0730 
 12 C       -4.2140     0.6500    -1.6780 C.ar  1 <1>  -0.1500 
 13 C       -5.0970     1.7540     0.1910 C.ar  1 <1>  -0.1500 
 14 C        2.5000     4.5650    -0.4410 C.ar  1 <1>   0.1670 
 15 C       -0.4280     5.6780     2.2570 C.1   1 <1>   0.4840 
 16 C        1.5880     6.2400     0.9980 C.ar  1 <1>  -0.1500 
 17 C       -5.4630     0.0790    -1.8610 C.ar  1 <1>   0.1600 
 18 C       -6.3040     1.1310    -0.0800 C.ar  1 <1>   0.1600 
 19 C        2.5500     5.8420     0.0950 C.ar  1 <1>  -0.1500 
 20 C        3.5580     4.1060    -1.4470 C.3   1 <1>   0.0640 
 21 N       -1.2490     5.9480     3.0010 N.1   1 <1>  -0.5570 
 22 N       -6.5130     0.2960    -1.0860 N.ar  1 <1>  -0.6200 
 23 C        4.9590     4.0910    -0.8210 C.3   1 <1>  -0.2400 
 24 C        3.5410     4.9660    -2.7170 C.3   1 <1>  -0.2400 
 25 H        0.9130     1.2490     2.3420 H     1 <1>   0.0800 
 26 H        0.4470    -0.1580     1.3880 H     1 <1>   0.0800 
 27 H       -2.6910    -0.1770     1.7200 H     1 <1>   0.0800 
 28 H       -2.7780     1.5150     2.1970 H     1 <1>   0.0800 
 29 H        0.3400     1.5720    -0.2760 H     1 <1>   0.0800 
 30 H       -1.6260     0.2930    -0.2560 H     1 <1>   0.0800 
 31 H       -0.7870     3.1890     1.9610 H     1 <1>   0.4000 
 32 H       -2.2220     2.4630    -1.3090 H     1 <1>   0.0800 
 33 H       -2.7920     3.0520     0.2190 H     1 <1>   0.0800 
 34 H       -3.4170     0.4160    -2.3600 H     1 <1>   0.1500 
 35 H       -5.0200     2.4190     1.0310 H     1 <1>   0.1500 
 36 H        1.6060     7.2280     1.4260 H     1 <1>   0.1500 
 37 H       -5.6060    -0.5940    -2.6900 H     1 <1>   0.1500 
 38 H       -7.1420     1.3300     0.5650 H     1 <1>   0.1500 
 39 H        3.3320     6.5220    -0.1910 H     1 <1>   0.1500 
 40 H        3.3220     3.0950    -1.7370 H     1 <1>   0.0800 
 41 H        5.2730     5.0830    -0.5510 H     1 <1>   0.0800 
 42 H        5.6710     3.6810    -1.5140 H     1 <1>   0.0800 
 43 H        4.9550     3.4790     0.0640 H     1 <1>   0.0800 
 44 H        3.8200     5.9820    -2.5010 H     1 <1>   0.0800 
 45 H        2.5540     4.9640    -3.1450 H     1 <1>   0.0800 
 46 H        4.2270     4.5690    -3.4440 H     1 <1>   0.0800 
@<TRIPOS>BOND
  1   1   2  1   
  2   1   3  1   
  3   2   4  1   
  4   2  25  1   
  5   2  26  1   
  6   3   5  1   
  7   3  27  1   
  8   3  28  1   
  9   4   5  1   
 10   4   6  1   
 11   4  29  1   
 12   5   7  1   
 13   5  30  1   
 14   6   8  1   
 15   6  31  1   
 16   7   9  1   
 17   7  32  1   
 18   7  33  1   
 19   8  10  ar  
 20   8  11  ar  
 21   9  12  ar  
 22   9  13  ar  
 23  10  14  ar  
 24  11  15  1   
 25  11  16  ar  
 26  12  17  ar  
 27  12  34  1   
 28  13  18  ar  
 29  13  35  1   
 30  14  19  ar  
 31  14  20  1   
 32  15  21  3   
 33  16  19  ar  
 34  16  36  1   
 35  17  22  ar  
 36  17  37  1   
 37  18  22  ar  
 38  18  38  1   
 39  19  39  1   
 40  20  23  1   
 41  20  24  1   
 42  20  40  1   
 43  23  41  1   
 44  23  42  1   
 45  23  43  1   
 46  24  44  1   
 47  24  45  1   
 48  24  46  1   
@<TRIPOS>SUBSTRUCTURE
  1 ****   6 GROUP 4 **** **** 0

# MOE 2024.06 (io_trps.svl 2023.06)
