@<TRIPOS>MOLECULE
NONAME
44 46 1 0 0 
SMALL
USER_CHARGES


@<TRIPOS>ATOM
  1 O        1.1190     0.0580     2.3760 O.2   1 <1>  -0.5700 
  2 C        1.9630     0.0230     1.5100 C.2   1 <1>   0.7150 
  3 N        2.3480    -1.2250     1.1390 N.am  1 <1>  -0.7300 
  4 C        2.4700     1.2460     0.9570 C.2   1 <1>  -0.2370 
  5 C        3.5300    -1.7650     0.4110 C.3   1 <1>   0.1400 
  6 N        3.1900     1.3840    -0.1810 N.pl3 1 <1>   0.3140 
  7 C        2.3200     2.5100     1.4320 C.2   1 <1>  -0.1500 
  8 C        4.4220    -0.7260    -0.2840 C.3   1 <1>   0.2000 
  9 N        3.5040     2.6570    -0.4400 N.2   1 <1>  -0.7070 
 10 C        3.6420     0.3150    -1.0830 C.3   1 <1>   0.0960 
 11 C        2.9730     3.3600     0.5460 C.2   1 <1>   0.2030 
 12 O        5.2720    -1.4010    -1.1510 O.3   1 <1>  -0.6800 
 13 C        3.0600     4.8050     0.6860 C.2   1 <1>   0.7160 
 14 O        2.5610     5.3920     1.6320 O.2   1 <1>  -0.5700 
 15 N        3.7320     5.5090    -0.2750 N.am  1 <1>  -0.5790 
 16 C        3.9280     6.9620    -0.3620 C.3   1 <1>   0.0540 
 17 C        3.8040     7.5380    -1.7380 C.3   1 <1>  -0.2000 
 18 C        2.7080     7.7400    -0.7360 C.3   1 <1>  -0.2000 
 19 C        4.9770     7.4450     0.6650 C.3   1 <1>  -0.0650 
 20 C        5.7690     8.7450     0.3830 C.3   1 <1>  -0.0800 
 21 C        6.9370     8.8480     1.3760 C.3   1 <1>  -0.2400 
 22 C        4.9240    10.0220     0.4950 C.3   1 <1>  -0.2400 
 23 H        1.8180    -1.9360     1.6500 H     1 <1>   0.3700 
 24 H        3.1630    -2.4560    -0.3280 H     1 <1>   0.0800 
 25 H        4.1350    -2.3180     1.1100 H     1 <1>   0.0800 
 26 H        1.7970     2.8210     2.3210 H     1 <1>   0.1500 
 27 H        5.0520    -0.2360     0.4400 H     1 <1>   0.0800 
 28 H        4.2800     0.7600    -1.8240 H     1 <1>   0.0800 
 29 H        2.7850    -0.1210    -1.5610 H     1 <1>   0.0800 
 30 H        4.7830    -1.8530    -1.8670 H     1 <1>   0.4000 
 31 H        4.1340     4.9440    -1.0250 H     1 <1>   0.3700 
 32 H        3.6220     6.8760    -2.5650 H     1 <1>   0.1000 
 33 H        4.3620     8.4080    -2.0320 H     1 <1>   0.1000 
 34 H        2.5530     8.7050    -0.2940 H     1 <1>   0.1000 
 35 H        1.7840     7.2020    -0.8530 H     1 <1>   0.1000 
 36 H        5.7030     6.6570     0.7500 H     1 <1>   0.0800 
 37 H        4.4930     7.5260     1.6220 H     1 <1>   0.0800 
 38 H        6.1920     8.6890    -0.6060 H     1 <1>   0.0800 
 39 H        6.5700     8.9060     2.3860 H     1 <1>   0.0800 
 40 H        7.5260     9.7250     1.1740 H     1 <1>   0.0800 
 41 H        7.5800     7.9900     1.2930 H     1 <1>   0.0800 
 42 H        4.3680    10.0300     1.4160 H     1 <1>   0.0800 
 43 H        4.2410    10.1060    -0.3280 H     1 <1>   0.0800 
 44 H        5.5560    10.8930     0.4710 H     1 <1>   0.0800 
@<TRIPOS>BOND
  1   1   2  2   
  2   2   3  am  
  3   2   4  1   
  4   3   5  1   
  5   3  23  1   
  6   4   6  1   
  7   4   7  2   
  8   5   8  1   
  9   5  24  1   
 10   5  25  1   
 11   6   9  1   
 12   6  10  1   
 13   7  11  1   
 14   7  26  1   
 15   8  10  1   
 16   8  12  1   
 17   8  27  1   
 18   9  11  2   
 19  10  28  1   
 20  10  29  1   
 21  11  13  1   
 22  12  30  1   
 23  13  14  2   
 24  13  15  am  
 25  15  16  1   
 26  15  31  1   
 27  16  17  1   
 28  16  18  1   
 29  16  19  1   
 30  17  18  1   
 31  17  32  1   
 32  17  33  1   
 33  18  34  1   
 34  18  35  1   
 35  19  20  1   
 36  19  36  1   
 37  19  37  1   
 38  20  21  1   
 39  20  22  1   
 40  20  38  1   
 41  21  39  1   
 42  21  40  1   
 43  21  41  1   
 44  22  42  1   
 45  22  43  1   
 46  22  44  1   
@<TRIPOS>SUBSTRUCTURE
  1 ****  11 GROUP 4 **** **** 0

# MOE 2024.06 (io_trps.svl 2023.06)
