@<TRIPOS>MOLECULE
NONAME
43 44 1 0 0 
SMALL
USER_CHARGES


@<TRIPOS>ATOM
  1 S        0.4450     0.0330     0.1910 S.3   1 <1>  -0.4600 
  2 C       -1.1140    -0.7860    -0.2450 C.3   1 <1>   0.2140 
  3 C        0.2270     1.7090    -0.4600 C.3   1 <1>   0.0700 
  4 C       -1.0840    -2.2040     0.2990 C.ar  1 <1>  -0.1440 
  5 C        1.5340     2.4680    -0.2440 C.3   1 <1>  -0.0990 
  6 C       -0.3190    -3.1760    -0.3290 C.ar  1 <1>  -0.1500 
  7 C       -1.8230    -2.5430     1.4230 C.ar  1 <1>  -0.1500 
  8 C        1.4000     3.9080    -0.6850 C.2   1 <1>   0.5690 
  9 C       -0.2980    -4.4720     0.1560 C.ar  1 <1>  -0.1500 
 10 C       -1.8020    -3.8390     1.9090 C.ar  1 <1>  -0.1500 
 11 O        0.8870     4.1510    -1.7500 O.2   1 <1>  -0.5700 
 12 N        1.8640     4.8840     0.1360 N.am  1 <1>  -0.7300 
 13 C       -1.0410    -4.8050     1.2750 C.ar  1 <1>  -0.1500 
 14 C        1.8240     6.3310    -0.1590 C.3   1 <1>   0.1400 
 15 C        3.2370     6.9020    -0.0260 C.3   1 <1>  -0.1600 
 16 C        3.3090     8.3950    -0.4040 C.3   1 <1>  -0.0800 
 17 C        4.7480     8.8950    -0.3510 C.3   1 <1>   0.1200 
 18 C        2.6470     9.3020     0.6280 C.3   1 <1>  -0.1600 
 19 O        4.9630     9.2310     0.9790 O.3   1 <1>  -0.5600 
 20 C        3.7920     9.7180     1.5520 C.3   1 <1>   0.1200 
 21 H       -1.1930    -0.7800    -1.3170 H     1 <1>   0.0800 
 22 H       -1.9120    -0.2110     0.1890 H     1 <1>   0.0800 
 23 H       -0.5890     2.1630     0.0750 H     1 <1>   0.0800 
 24 H       -0.0130     1.6280    -1.5070 H     1 <1>   0.0800 
 25 H        2.3160     2.0060    -0.8180 H     1 <1>   0.0800 
 26 H        1.8010     2.4290     0.7950 H     1 <1>   0.0800 
 27 H        0.2670    -2.9210    -1.1950 H     1 <1>   0.1500 
 28 H       -2.4150    -1.7990     1.9270 H     1 <1>   0.1500 
 29 H        0.2990    -5.2200    -0.3360 H     1 <1>   0.1500 
 30 H       -2.3770    -4.0950     2.7810 H     1 <1>   0.1500 
 31 H        2.3020     4.6300     1.0230 H     1 <1>   0.3700 
 32 H       -1.0240    -5.8120     1.6520 H     1 <1>   0.1500 
 33 H        1.1500     6.8100     0.5290 H     1 <1>   0.0800 
 34 H        1.4570     6.4910    -1.1600 H     1 <1>   0.0800 
 35 H        3.8840     6.3510    -0.6860 H     1 <1>   0.0800 
 36 H        3.5910     6.7680     0.9820 H     1 <1>   0.0800 
 37 H        2.8990     8.5430    -1.3880 H     1 <1>   0.0800 
 38 H        4.8700     9.7870    -0.9400 H     1 <1>   0.0800 
 39 H        5.4690     8.1540    -0.6520 H     1 <1>   0.0800 
 40 H        1.8540     8.8320     1.1790 H     1 <1>   0.0800 
 41 H        2.2540    10.1810     0.1490 H     1 <1>   0.0800 
 42 H        3.6950     9.2810     2.5310 H     1 <1>   0.0800 
 43 H        3.8690    10.7890     1.6330 H     1 <1>   0.0800 
@<TRIPOS>BOND
  1   1   2  1   
  2   1   3  1   
  3   2   4  1   
  4   2  21  1   
  5   2  22  1   
  6   3   5  1   
  7   3  23  1   
  8   3  24  1   
  9   4   6  ar  
 10   4   7  ar  
 11   5   8  1   
 12   5  25  1   
 13   5  26  1   
 14   6   9  ar  
 15   6  27  1   
 16   7  10  ar  
 17   7  28  1   
 18   8  11  2   
 19   8  12  am  
 20   9  13  ar  
 21   9  29  1   
 22  10  13  ar  
 23  10  30  1   
 24  12  14  1   
 25  12  31  1   
 26  13  32  1   
 27  14  15  1   
 28  14  33  1   
 29  14  34  1   
 30  15  16  1   
 31  15  35  1   
 32  15  36  1   
 33  16  17  1   
 34  16  18  1   
 35  16  37  1   
 36  17  19  1   
 37  17  38  1   
 38  17  39  1   
 39  18  20  1   
 40  18  40  1   
 41  18  41  1   
 42  19  20  1   
 43  20  42  1   
 44  20  43  1   
@<TRIPOS>SUBSTRUCTURE
  1 ****   5 GROUP 4 **** **** 0

# MOE 2024.06 (io_trps.svl 2023.06)
