@<TRIPOS>MOLECULE
NONAME
47 50 1 0 0 
SMALL
USER_CHARGES


@<TRIPOS>ATOM
  1 CL      -0.3430    -0.2540    -0.4220 Cl    1 <1>  -0.1230 
  2 C       -1.1250    -1.6880     0.2040 C.2   1 <1>   0.4120 
  3 N       -2.2360    -1.6760     0.8440 N.2   1 <1>  -0.4100 
  4 C       -0.6060    -2.9670     0.0600 C.2   1 <1>  -0.1500 
  5 O       -2.4690    -2.9270     1.1330 O.3   1 <1>  -0.0190 
  6 C       -1.5270    -3.7210     0.6830 C.2   1 <1>  -0.0400 
  7 C       -1.6160    -5.2180     0.9150 C.3   1 <1>   0.0200 
  8 C       -2.8810    -5.8020     0.2650 C.3   1 <1>  -0.0990 
  9 C       -2.9970    -7.3100     0.4180 C.2   1 <1>   0.5690 
 10 O       -2.1280    -7.9130     1.0020 O.2   1 <1>  -0.5700 
 11 N       -4.0750    -7.9600    -0.1110 N.am  1 <1>  -0.6600 
 12 C       -5.2170    -7.3560    -0.8440 C.3   1 <1>   0.1400 
 13 C       -4.2380    -9.4330    -0.0240 C.3   1 <1>   0.1400 
 14 C       -6.2910    -8.4430    -0.8290 C.3   1 <1>   0.2000 
 15 C       -5.4880    -9.7500    -0.8570 C.3   1 <1>  -0.0800 
 16 O       -6.9850    -8.3450     0.3680 O.3   1 <1>  -0.6800 
 17 C       -6.2690   -10.9930    -0.3780 C.3   1 <1>  -0.0170 
 18 C       -5.5690   -12.3500    -0.5270 C.ar  1 <1>  -0.1430 
 19 C       -6.1460   -13.5040     0.0610 C.ar  1 <1>   0.0000 
 20 C       -4.4010   -12.5290    -1.2170 C.ar  1 <1>  -0.1500 
 21 C       -5.4660   -14.7380    -0.0850 C.ar  1 <1>   0.3100 
 22 C       -7.3650   -13.5070     0.7810 C.ar  1 <1>  -0.1500 
 23 C       -3.8130   -13.7960    -1.3040 C.ar  1 <1>   0.1600 
 24 N       -4.3030   -14.8670    -0.7680 N.ar  1 <1>  -0.6200 
 25 C       -6.0140   -15.8930     0.4960 C.ar  1 <1>  -0.1500 
 26 C       -7.8730   -14.6520     1.3340 C.ar  1 <1>  -0.1500 
 27 C       -7.1910   -15.8610     1.1930 C.ar  1 <1>  -0.1500 
 28 H        0.3080    -3.2320    -0.4360 H     1 <1>   0.1500 
 29 H       -0.7440    -5.6930     0.5010 H     1 <1>   0.0800 
 30 H       -1.6300    -5.4120     1.9730 H     1 <1>   0.0800 
 31 H       -2.8770    -5.5650    -0.7820 H     1 <1>   0.0800 
 32 H       -3.7440    -5.3460     0.7140 H     1 <1>   0.0800 
 33 H       -5.5660    -6.4500    -0.3810 H     1 <1>   0.0800 
 34 H       -4.9150    -7.1550    -1.8570 H     1 <1>   0.0800 
 35 H       -3.3620    -9.9310    -0.4020 H     1 <1>   0.0800 
 36 H       -4.3800    -9.7100     1.0070 H     1 <1>   0.0800 
 37 H       -6.9940    -8.3540    -1.6400 H     1 <1>   0.0800 
 38 H       -5.1830    -9.9040    -1.8770 H     1 <1>   0.0800 
 39 H       -6.3420    -8.2950     1.1040 H     1 <1>   0.4000 
 40 H       -7.1990   -11.0380    -0.9180 H     1 <1>   0.0800 
 41 H       -6.5080   -10.8550     0.6620 H     1 <1>   0.0800 
 42 H       -3.8900   -11.7300    -1.7150 H     1 <1>   0.1500 
 43 H       -7.9150   -12.5930     0.9010 H     1 <1>   0.1500 
 44 H       -2.8920   -13.8840    -1.8540 H     1 <1>   0.1500 
 45 H       -5.4720   -16.8120     0.3720 H     1 <1>   0.1500 
 46 H       -8.8010   -14.6360     1.8800 H     1 <1>   0.1500 
 47 H       -7.5990   -16.7550     1.6330 H     1 <1>   0.1500 
@<TRIPOS>BOND
  1   1   2  1   
  2   2   3  2   
  3   2   4  1   
  4   3   5  1   
  5   4   6  2   
  6   4  28  1   
  7   5   6  1   
  8   6   7  1   
  9   7   8  1   
 10   7  29  1   
 11   7  30  1   
 12   8   9  1   
 13   8  31  1   
 14   8  32  1   
 15   9  10  2   
 16   9  11  am  
 17  11  12  1   
 18  11  13  1   
 19  12  14  1   
 20  12  33  1   
 21  12  34  1   
 22  13  15  1   
 23  13  35  1   
 24  13  36  1   
 25  14  15  1   
 26  14  16  1   
 27  14  37  1   
 28  15  17  1   
 29  15  38  1   
 30  16  39  1   
 31  17  18  1   
 32  17  40  1   
 33  17  41  1   
 34  18  19  ar  
 35  18  20  ar  
 36  19  21  ar  
 37  19  22  ar  
 38  20  23  ar  
 39  20  42  1   
 40  21  24  ar  
 41  21  25  ar  
 42  22  26  ar  
 43  22  43  1   
 44  23  24  ar  
 45  23  44  1   
 46  25  27  ar  
 47  25  45  1   
 48  26  27  ar  
 49  26  46  1   
 50  27  47  1   
@<TRIPOS>SUBSTRUCTURE
  1 ****  13 GROUP 4 **** **** 0

# MOE 2024.06 (io_trps.svl 2023.06)
