@<TRIPOS>MOLECULE
NONAME
51 54 1 0 0 
SMALL
USER_CHARGES


@<TRIPOS>ATOM
  1 O       -0.8810     0.1740    -0.1350 O.2   1 <1>  -0.5700 
  2 C       -1.7340     0.9590    -0.5270 C.2   1 <1>   0.7160 
  3 N       -2.9470     0.4000    -0.8980 N.am  1 <1>  -0.6600 
  4 C       -1.4610     2.3950    -0.5700 C.2   1 <1>   0.2030 
  5 C       -3.0460    -1.0310    -1.2840 C.3   1 <1>   0.1400 
  6 C       -4.2510     1.0560    -0.6130 C.3   1 <1>   0.1400 
  7 N       -2.1570     3.3090    -1.2330 N.2   1 <1>  -0.7070 
  8 C       -0.3880     3.0180     0.0880 C.2   1 <1>  -0.1810 
  9 C       -3.7260    -1.8220    -0.1460 C.3   1 <1>   0.4230 
 10 C       -4.9460     0.2830     0.5160 C.3   1 <1>  -0.1600 
 11 N       -1.5420     4.4810    -1.0030 N.pl3 1 <1>   0.3000 
 12 C       -0.4680     4.3210    -0.2120 C.2   1 <1>  -0.3320 
 13 C        0.7080     2.4520     0.9790 C.3   1 <1>   0.3010 
 14 N       -3.7220    -3.3310    -0.3570 N.4   1 <1>  -0.9590 
 15 C       -5.1230    -1.2370     0.2250 C.3   1 <1>   0.0000 
 16 C        0.5230     5.3400     0.3110 C.3   1 <1>   0.0200 
 17 O        1.3430     3.5030     1.6710 O.3   1 <1>  -0.5600 
 18 C       -4.7100    -4.0710     0.4940 C.3   1 <1>   0.3430 
 19 C       -3.8350    -3.7860    -1.7820 C.3   1 <1>   0.2630 
 20 C       -5.6430    -1.9350     1.5180 C.3   1 <1>  -0.1600 
 21 C       -6.1230    -1.4460    -0.9480 C.3   1 <1>   0.1200 
 22 C        1.7460     4.5910     0.8770 C.3   1 <1>   0.1200 
 23 C       -4.9990    -3.3090     1.7860 C.3   1 <1>  -0.1600 
 24 O       -7.3180    -0.7810    -0.7280 O.3   1 <1>  -0.6800 
 25 H       -3.6070    -1.0960    -2.1980 H     1 <1>   0.0800 
 26 H       -2.0620    -1.4280    -1.4660 H     1 <1>   0.0800 
 27 H       -4.1100     2.0760    -0.2980 H     1 <1>   0.0800 
 28 H       -4.8570     1.0690    -1.5030 H     1 <1>   0.0800 
 29 H       -3.1090    -1.6390     0.7190 H     1 <1>   0.0800 
 30 H       -4.3520     0.4190     1.4040 H     1 <1>   0.0800 
 31 H       -5.8980     0.7450     0.7130 H     1 <1>   0.0800 
 32 H       -1.8750     5.3680    -1.4000 H     1 <1>   0.2700 
 33 H        1.4450     1.9310     0.3920 H     1 <1>   0.0800 
 34 H        0.2970     1.7800     1.7110 H     1 <1>   0.0800 
 35 H       -2.7900    -3.6260    -0.0270 H     1 <1>   0.4500 
 36 H        0.0690     5.9260     1.0910 H     1 <1>   0.0800 
 37 H        0.8410     6.0020    -0.4750 H     1 <1>   0.0800 
 38 H       -5.6370    -4.1910    -0.0440 H     1 <1>   0.0800 
 39 H       -4.3320    -5.0540     0.7260 H     1 <1>   0.0800 
 40 H       -4.7740    -3.4710    -2.2070 H     1 <1>   0.0800 
 41 H       -3.7780    -4.8620    -1.8360 H     1 <1>   0.0800 
 42 H       -3.0320    -3.3780    -2.3750 H     1 <1>   0.0800 
 43 H       -5.4550    -1.3200     2.3820 H     1 <1>   0.0800 
 44 H       -6.7110    -2.0550     1.4690 H     1 <1>   0.0800 
 45 H       -6.3570    -2.4850    -1.0880 H     1 <1>   0.0800 
 46 H       -5.7300    -1.0590    -1.8710 H     1 <1>   0.0800 
 47 H        2.3370     5.2470     1.4920 H     1 <1>   0.0800 
 48 H        2.3610     4.2120     0.0790 H     1 <1>   0.0800 
 49 H       -5.6610    -3.8930     2.4030 H     1 <1>   0.0800 
 50 H       -4.0810    -3.1880     2.3370 H     1 <1>   0.0800 
 51 H       -7.7790    -1.0990     0.0720 H     1 <1>   0.4000 
@<TRIPOS>BOND
  1   1   2  2   
  2   2   3  am  
  3   2   4  1   
  4   3   5  1   
  5   3   6  1   
  6   4   7  2   
  7   4   8  1   
  8   5   9  1   
  9   5  25  1   
 10   5  26  1   
 11   6  10  1   
 12   6  27  1   
 13   6  28  1   
 14   7  11  1   
 15   8  12  2   
 16   8  13  1   
 17   9  14  1   
 18   9  15  1   
 19   9  29  1   
 20  10  15  1   
 21  10  30  1   
 22  10  31  1   
 23  11  12  1   
 24  11  32  1   
 25  12  16  1   
 26  13  17  1   
 27  13  33  1   
 28  13  34  1   
 29  14  18  1   
 30  14  19  1   
 31  14  35  1   
 32  15  20  1   
 33  15  21  1   
 34  16  22  1   
 35  16  36  1   
 36  16  37  1   
 37  17  22  1   
 38  18  23  1   
 39  18  38  1   
 40  18  39  1   
 41  19  40  1   
 42  19  41  1   
 43  19  42  1   
 44  20  23  1   
 45  20  43  1   
 46  20  44  1   
 47  21  24  1   
 48  21  45  1   
 49  21  46  1   
 50  22  47  1   
 51  22  48  1   
 52  23  49  1   
 53  23  50  1   
 54  24  51  1   
@<TRIPOS>SUBSTRUCTURE
  1 ****   3 GROUP 4 **** **** 0

# MOE 2024.06 (io_trps.svl 2023.06)
