@<TRIPOS>MOLECULE
NONAME
53 57 1 0 0 
SMALL
USER_CHARGES


@<TRIPOS>ATOM
  1 O       -1.3840     0.4400    -1.6750 O.2   1 <1>  -0.5700 
  2 C       -1.3410     0.5050    -0.4610 C.2   1 <1>   0.5440 
  3 N       -1.5190    -0.6530     0.2410 N.am  1 <1>  -0.7300 
  4 C       -1.1110     1.7690     0.2170 C.ar  1 <1>   0.0860 
  5 C       -1.7210    -1.9970    -0.3510 C.3   1 <1>   0.2200 
  6 C       -0.5630     2.8490    -0.4610 C.ar  1 <1>  -0.1500 
  7 C       -1.4360     1.9490     1.5820 C.ar  1 <1>  -0.1500 
  8 C       -3.1790    -2.4260    -0.2640 C.3   1 <1>  -0.0800 
  9 C       -1.0730    -3.0330     0.5560 C.3   1 <1>   0.1200 
 10 C       -0.3300     4.0630     0.1850 C.ar  1 <1>   0.0000 
 11 C       -1.2140     3.1370     2.2370 C.ar  1 <1>  -0.1500 
 12 C       -3.2840    -3.0060     1.1510 C.3   1 <1>   0.1200 
 13 C       -4.2210    -1.3380    -0.5850 C.3   1 <1>  -0.0160 
 14 O       -1.9760    -3.2100     1.6040 O.3   1 <1>  -0.5600 
 15 C       -0.6540     4.2020     1.5310 C.ar  1 <1>  -0.1520 
 16 C        0.2040     5.3050    -0.2190 C.2   1 <1>  -0.1810 
 17 C       -5.6290    -1.9130    -0.5600 C.ar  1 <1>  -0.1440 
 18 N       -0.3320     5.4760     1.9270 N.pl3 1 <1>   0.0330 
 19 C        0.1840     6.1330     0.8470 C.2   1 <1>  -0.3320 
 20 C        0.7170     5.6960    -1.5910 C.3   1 <1>   0.0210 
 21 C       -6.1480    -2.6040    -1.6360 C.ar  1 <1>  -0.1500 
 22 C       -6.4590    -1.7760     0.5340 C.ar  1 <1>  -0.1500 
 23 C        0.6690     7.5700     0.8400 C.3   1 <1>   0.0200 
 24 C        1.5380     6.9970    -1.4980 C.3   1 <1>  -0.1600 
 25 C       -7.4330    -3.1160    -1.5660 C.ar  1 <1>   0.1600 
 26 C       -7.7290    -2.3280     0.5030 C.ar  1 <1>   0.1600 
 27 C        0.8490     8.0540    -0.6120 C.3   1 <1>  -0.1600 
 28 N       -8.2360    -2.9970    -0.5200 N.ar  1 <1>  -0.6200 
 29 H       -1.4550    -0.6600     1.2600 H     1 <1>   0.3700 
 30 H       -1.3340    -2.0340    -1.3560 H     1 <1>   0.0800 
 31 H       -0.3080     2.7610    -1.5010 H     1 <1>   0.1500 
 32 H       -1.8760     1.1340     2.1260 H     1 <1>   0.1500 
 33 H       -3.3220    -3.2380    -0.9550 H     1 <1>   0.0800 
 34 H       -0.1210    -2.7140     0.9430 H     1 <1>   0.0800 
 35 H       -0.9670    -3.9750     0.0470 H     1 <1>   0.0800 
 36 H       -1.4650     3.2590     3.2750 H     1 <1>   0.1500 
 37 H       -3.8090    -3.9460     1.1580 H     1 <1>   0.0800 
 38 H       -3.7600    -2.3190     1.8290 H     1 <1>   0.0800 
 39 H       -4.0200    -0.9280    -1.5600 H     1 <1>   0.0800 
 40 H       -4.1530    -0.5300     0.1220 H     1 <1>   0.0800 
 41 H       -0.4620     5.8600     2.8670 H     1 <1>   0.2700 
 42 H        1.3270     4.9070    -1.9920 H     1 <1>   0.0800 
 43 H       -0.1260     5.8400    -2.2430 H     1 <1>   0.0800 
 44 H       -5.5660    -2.7470    -2.5270 H     1 <1>   0.1500 
 45 H       -6.1330    -1.2470     1.4100 H     1 <1>   0.1500 
 46 H       -0.0360     8.2050     1.3460 H     1 <1>   0.0800 
 47 H        1.6110     7.6220     1.3590 H     1 <1>   0.0800 
 48 H        2.5020     6.7670    -1.0760 H     1 <1>   0.0800 
 49 H        1.6950     7.3910    -2.4870 H     1 <1>   0.0800 
 50 H       -7.8210    -3.6520    -2.4150 H     1 <1>   0.1500 
 51 H       -8.3630    -2.2120     1.3650 H     1 <1>   0.1500 
 52 H       -0.1210     8.2700    -1.0250 H     1 <1>   0.0800 
 53 H        1.4200     8.9660    -0.6160 H     1 <1>   0.0800 
@<TRIPOS>BOND
  1   1   2  2   
  2   2   3  am  
  3   2   4  1   
  4   3   5  1   
  5   3  29  1   
  6   4   6  ar  
  7   4   7  ar  
  8   5   8  1   
  9   5   9  1   
 10   5  30  1   
 11   6  10  ar  
 12   6  31  1   
 13   7  11  ar  
 14   7  32  1   
 15   8  12  1   
 16   8  13  1   
 17   8  33  1   
 18   9  14  1   
 19   9  34  1   
 20   9  35  1   
 21  10  15  ar  
 22  10  16  1   
 23  11  15  ar  
 24  11  36  1   
 25  12  14  1   
 26  12  37  1   
 27  12  38  1   
 28  13  17  1   
 29  13  39  1   
 30  13  40  1   
 31  15  18  1   
 32  16  19  2   
 33  16  20  1   
 34  17  21  ar  
 35  17  22  ar  
 36  18  19  1   
 37  18  41  1   
 38  19  23  1   
 39  20  24  1   
 40  20  42  1   
 41  20  43  1   
 42  21  25  ar  
 43  21  44  1   
 44  22  26  ar  
 45  22  45  1   
 46  23  27  1   
 47  23  46  1   
 48  23  47  1   
 49  24  27  1   
 50  24  48  1   
 51  24  49  1   
 52  25  28  ar  
 53  25  50  1   
 54  26  28  ar  
 55  26  51  1   
 56  27  52  1   
 57  27  53  1   
@<TRIPOS>SUBSTRUCTURE
  1 ****   2 GROUP 4 **** **** 0

# MOE 2024.06 (io_trps.svl 2023.06)
