@<TRIPOS>MOLECULE
NONAME
48 50 1 0 0 
SMALL
USER_CHARGES


@<TRIPOS>ATOM
  1 O       -0.4530    -0.0190     0.3290 O.2   1 <1>  -0.5700 
  2 C       -1.4670     0.6680     0.3230 C.2   1 <1>   0.5440 
  3 N       -2.6830     0.0110     0.2690 N.am  1 <1>  -0.6600 
  4 C       -1.3870     2.1020     0.3430 C.ar  1 <1>   0.0860 
  5 C       -3.8910     0.6020    -0.3650 C.3   1 <1>   0.1400 
  6 C       -2.7770    -1.4700     0.2820 C.3   1 <1>   0.1400 
  7 C       -2.2670     2.8800     1.1010 C.ar  1 <1>  -0.1500 
  8 C       -0.4310     2.7940    -0.4030 C.ar  1 <1>  -0.1500 
  9 C       -4.6410    -0.5880    -0.9620 C.3   1 <1>   0.2000 
 10 C       -4.2170    -1.7870    -0.1200 C.3   1 <1>  -0.0800 
 11 C       -2.2590     4.2520     1.0810 C.ar  1 <1>   0.0820 
 12 C       -0.3770     4.1660    -0.4540 C.ar  1 <1>   0.0820 
 13 O       -6.0150    -0.4190    -0.8970 O.3   1 <1>  -0.6800 
 14 C       -4.3700    -3.1290    -0.8510 C.3   1 <1>   0.0210 
 15 O       -3.2100     4.8230     1.8950 O.3   1 <1>  -0.3630 
 16 C       -1.3240     4.9560     0.2650 C.ar  1 <1>  -0.1710 
 17 O        0.6390     4.6560    -1.2400 O.3   1 <1>  -0.3630 
 18 C       -3.8360    -4.2690    -0.0070 C.2   1 <1>   0.1080 
 19 C       -3.0800     6.1740     2.2730 C.3   1 <1>   0.0400 
 20 O       -1.3520     6.2180     0.1600 O.3   1 <1>  -0.8290 
 21 C        1.1010     5.9700    -1.0290 C.3   1 <1>   0.0400 
 22 N       -4.3430    -4.5910     1.1430 N.2   1 <1>  -0.7070 
 23 C       -2.7560    -5.0760    -0.3500 C.2   1 <1>  -0.1500 
 24 N       -3.5930    -5.6260     1.5660 N.pl3 1 <1>   0.3000 
 25 C       -2.6240    -5.9380     0.6800 C.2   1 <1>  -0.3320 
 26 C       -1.6160    -7.0550     0.8750 C.3   1 <1>  -0.0600 
 27 H       -4.4830     1.0880     0.3900 H     1 <1>   0.0800 
 28 H       -3.6160     1.3080    -1.1310 H     1 <1>   0.0800 
 29 H       -2.0790    -1.8740    -0.4320 H     1 <1>   0.0800 
 30 H       -2.5470    -1.8570     1.2600 H     1 <1>   0.0800 
 31 H       -2.9810     2.3850     1.7290 H     1 <1>   0.1500 
 32 H        0.2880     2.2270    -0.9630 H     1 <1>   0.1500 
 33 H       -4.3600    -0.7120    -1.9940 H     1 <1>   0.0800 
 34 H       -4.7970    -1.8140     0.7870 H     1 <1>   0.0800 
 35 H       -6.3000    -0.3600     0.0360 H     1 <1>   0.4000 
 36 H       -3.8440    -3.1020    -1.7880 H     1 <1>   0.0800 
 37 H       -5.4100    -3.3090    -1.0550 H     1 <1>   0.0800 
 38 H       -3.7600     6.3700     3.0790 H     1 <1>   0.0800 
 39 H       -3.3200     6.7880     1.4240 H     1 <1>   0.0800 
 40 H       -2.0650     6.3500     2.5810 H     1 <1>   0.0800 
 41 H        2.0500     6.0810    -1.5170 H     1 <1>   0.0800 
 42 H        1.1960     6.1370     0.0300 H     1 <1>   0.0800 
 43 H        0.3840     6.6530    -1.4470 H     1 <1>   0.0800 
 44 H       -2.1700    -5.0060    -1.2490 H     1 <1>   0.1500 
 45 H       -3.7680    -6.0970     2.4620 H     1 <1>   0.2700 
 46 H       -0.9490    -7.1020     0.0330 H     1 <1>   0.0800 
 47 H       -2.1210    -8.0000     0.9670 H     1 <1>   0.0800 
 48 H       -1.0340    -6.8790     1.7620 H     1 <1>   0.0800 
@<TRIPOS>BOND
  1   1   2  2   
  2   2   3  am  
  3   2   4  1   
  4   3   5  1   
  5   3   6  1   
  6   4   7  ar  
  7   4   8  ar  
  8   5   9  1   
  9   5  27  1   
 10   5  28  1   
 11   6  10  1   
 12   6  29  1   
 13   6  30  1   
 14   7  11  ar  
 15   7  31  1   
 16   8  12  ar  
 17   8  32  1   
 18   9  10  1   
 19   9  13  1   
 20   9  33  1   
 21  10  14  1   
 22  10  34  1   
 23  11  15  1   
 24  11  16  ar  
 25  12  16  ar  
 26  12  17  1   
 27  13  35  1   
 28  14  18  1   
 29  14  36  1   
 30  14  37  1   
 31  15  19  1   
 32  16  20  1   
 33  17  21  1   
 34  18  22  2   
 35  18  23  1   
 36  19  38  1   
 37  19  39  1   
 38  19  40  1   
 39  21  41  1   
 40  21  42  1   
 41  21  43  1   
 42  22  24  1   
 43  23  25  2   
 44  23  44  1   
 45  24  25  1   
 46  24  45  1   
 47  25  26  1   
 48  26  46  1   
 49  26  47  1   
 50  26  48  1   
@<TRIPOS>SUBSTRUCTURE
  1 ****   3 GROUP 4 **** **** 0

# MOE 2024.06 (io_trps.svl 2023.06)
