@<TRIPOS>MOLECULE
NONAME
37 39 1 0 0 
SMALL
USER_CHARGES


@<TRIPOS>ATOM
  1 S       -0.6150     0.4800    -0.1020 S.3   1 <1>  -0.0800 
  2 C        1.0060    -0.0860    -0.5220 C.ar  1 <1>   0.0400 
  3 C       -1.0350    -1.0740     0.6160 C.2   1 <1>  -0.1400 
  4 C        1.1760    -1.4000    -0.1090 C.ar  1 <1>   0.0000 
  5 C        1.9840     0.6470    -1.1660 C.ar  1 <1>  -0.1500 
  6 C       -0.0020    -1.9350     0.5300 C.2   1 <1>  -0.1810 
  7 C       -2.4380    -1.1810     1.1830 C.3   1 <1>  -0.0600 
  8 C        2.4130    -1.9970    -0.3600 C.ar  1 <1>  -0.1500 
  9 C        3.1990     0.0320    -1.4090 C.ar  1 <1>  -0.1500 
 10 C       -0.0140    -3.3620     1.0300 C.3   1 <1>   0.5240 
 11 C        3.4070    -1.2840    -1.0060 C.ar  1 <1>  -0.1500 
 12 N       -0.0400    -4.2710    -0.1280 N.4   1 <1>  -0.9590 
 13 C        0.0030    -5.7180     0.3020 C.3   1 <1>   0.3170 
 14 C       -1.1880    -4.0900    -1.0570 C.3   1 <1>   0.3430 
 15 C        1.4220    -6.2960     0.1490 C.2   1 <1>   0.9060 
 16 C       -1.0520    -6.4230    -0.5550 C.3   1 <1>  -0.1600 
 17 C       -2.0620    -5.3330    -0.8730 C.3   1 <1>   0.2000 
 18 O        2.2550    -5.5340    -0.3700 O.co2 1 <1>  -0.9000 
 19 O        1.6760    -7.4340     0.5420 O.co2 1 <1>  -0.9000 
 20 O       -2.8690    -5.1520     0.2450 O.3   1 <1>  -0.6800 
 21 H        1.7970     1.6630    -1.4650 H     1 <1>   0.1500 
 22 H       -2.6290    -2.1670     1.5650 H     1 <1>   0.0800 
 23 H       -3.1590    -0.9640     0.4150 H     1 <1>   0.0800 
 24 H       -2.5630    -0.4700     1.9810 H     1 <1>   0.0800 
 25 H        2.6120    -3.0120    -0.0570 H     1 <1>   0.1500 
 26 H        3.9860     0.5680    -1.9100 H     1 <1>   0.1500 
 27 H       -0.8870    -3.5300     1.6390 H     1 <1>   0.0800 
 28 H        0.8660    -3.5470     1.6250 H     1 <1>   0.0800 
 29 H        4.3570    -1.7550    -1.1990 H     1 <1>   0.1500 
 30 H        0.8750    -4.1690    -0.6200 H     1 <1>   0.4500 
 31 H       -0.2800    -5.7990     1.3360 H     1 <1>   0.0800 
 32 H       -1.7420    -3.1900    -0.8530 H     1 <1>   0.0800 
 33 H       -0.8190    -4.0590    -2.0690 H     1 <1>   0.0800 
 34 H       -1.4770    -7.2710    -0.0490 H     1 <1>   0.0800 
 35 H       -0.5880    -6.7680    -1.4630 H     1 <1>   0.0800 
 36 H       -2.6830    -5.5420    -1.7280 H     1 <1>   0.0800 
 37 H       -3.4320    -5.9400     0.3910 H     1 <1>   0.4000 
@<TRIPOS>BOND
  1   1   2  1   
  2   1   3  1   
  3   2   4  ar  
  4   2   5  ar  
  5   3   6  2   
  6   3   7  1   
  7   4   6  1   
  8   4   8  ar  
  9   5   9  ar  
 10   5  21  1   
 11   6  10  1   
 12   7  22  1   
 13   7  23  1   
 14   7  24  1   
 15   8  11  ar  
 16   8  25  1   
 17   9  11  ar  
 18   9  26  1   
 19  10  12  1   
 20  10  27  1   
 21  10  28  1   
 22  11  29  1   
 23  12  13  1   
 24  12  14  1   
 25  12  30  1   
 26  13  15  1   
 27  13  16  1   
 28  13  31  1   
 29  14  17  1   
 30  14  32  1   
 31  14  33  1   
 32  15  18  ar  
 33  15  19  ar  
 34  16  17  1   
 35  16  34  1   
 36  16  35  1   
 37  17  20  1   
 38  17  36  1   
 39  20  37  1   
@<TRIPOS>SUBSTRUCTURE
  1 ****  12 GROUP 4 **** **** 0

# MOE 2024.06 (io_trps.svl 2023.06)
