@<TRIPOS>MOLECULE
NONAME
41 42 1 0 0 
SMALL
USER_CHARGES


@<TRIPOS>ATOM
  1 O        0.3830    -0.7670     0.7290 O.3   1 <1>  -0.5600 
  2 C       -0.1320    -1.9000     0.0940 C.3   1 <1>   0.2000 
  3 C        0.1600     0.4320     0.0600 C.3   1 <1>   0.1200 
  4 C       -0.4860    -2.9370     1.1740 C.3   1 <1>   0.2090 
  5 C        0.9250    -2.4410    -0.8810 C.3   1 <1>  -0.1600 
  6 C        0.7910     1.5510     0.8840 C.3   1 <1>  -0.1600 
  7 N       -0.8420    -4.2670     0.5790 N.pl3 1 <1>  -0.8380 
  8 C        0.4800    -3.7920    -1.4610 C.3   1 <1>  -0.1600 
  9 C        0.5890     2.9180     0.2210 C.3   1 <1>  -0.2400 
 10 C       -2.1790    -4.5490     0.3240 C.ar  1 <1>   0.4100 
 11 C        0.1660    -4.8140    -0.3630 C.3   1 <1>   0.2090 
 12 N       -2.8590    -3.5880    -0.2900 N.ar  1 <1>  -0.6200 
 13 C       -2.7680    -5.7880     0.6760 C.ar  1 <1>   0.1670 
 14 C       -4.1110    -3.9160    -0.5390 C.ar  1 <1>   0.1670 
 15 N       -4.0190    -6.1150     0.4160 N.ar  1 <1>  -0.6200 
 16 C       -1.9660    -6.8540     1.4040 C.3   1 <1>  -0.0970 
 17 C       -4.6710    -5.1420    -0.2000 C.ar  1 <1>   0.1600 
 18 C       -4.9380    -2.8580    -1.2400 C.3   1 <1>  -0.0970 
 19 H       -1.0350    -1.6360    -0.4300 H     1 <1>   0.0800 
 20 H       -0.9030     0.5830    -0.0330 H     1 <1>   0.0800 
 21 H        0.6110     0.3800    -0.9160 H     1 <1>   0.0800 
 22 H       -1.3160    -2.5710     1.7530 H     1 <1>   0.0800 
 23 H        0.3570    -3.0680     1.8280 H     1 <1>   0.0800 
 24 H        1.8550    -2.5700    -0.3550 H     1 <1>   0.0800 
 25 H        1.0750    -1.7440    -1.6850 H     1 <1>   0.0800 
 26 H        1.8450     1.3590     0.9900 H     1 <1>   0.0800 
 27 H        0.3440     1.5610     1.8630 H     1 <1>   0.0800 
 28 H        1.2520    -4.1840    -2.0980 H     1 <1>   0.0800 
 29 H       -0.4030    -3.6540    -2.0620 H     1 <1>   0.0800 
 30 H        1.0430     2.9340    -0.7550 H     1 <1>   0.0800 
 31 H        1.0410     3.6870     0.8210 H     1 <1>   0.0800 
 32 H       -0.4600     3.1360     0.1200 H     1 <1>   0.0800 
 33 H       -0.2070    -5.7200    -0.8100 H     1 <1>   0.0800 
 34 H        1.0620    -5.0530     0.1840 H     1 <1>   0.0800 
 35 H       -1.1950    -6.4120     2.0060 H     1 <1>   0.0800 
 36 H       -1.5210    -7.5180     0.6880 H     1 <1>   0.0800 
 37 H       -2.6120    -7.4210     2.0490 H     1 <1>   0.0800 
 38 H       -5.7000    -5.3320    -0.4430 H     1 <1>   0.1500 
 39 H       -4.4870    -2.6190    -2.1850 H     1 <1>   0.0800 
 40 H       -4.9680    -1.9700    -0.6360 H     1 <1>   0.0800 
 41 H       -5.9430    -3.1980    -1.4090 H     1 <1>   0.0800 
@<TRIPOS>BOND
  1   1   2  1   
  2   1   3  1   
  3   2   4  1   
  4   2   5  1   
  5   2  19  1   
  6   3   6  1   
  7   3  20  1   
  8   3  21  1   
  9   4   7  1   
 10   4  22  1   
 11   4  23  1   
 12   5   8  1   
 13   5  24  1   
 14   5  25  1   
 15   6   9  1   
 16   6  26  1   
 17   6  27  1   
 18   7  10  1   
 19   7  11  1   
 20   8  11  1   
 21   8  28  1   
 22   8  29  1   
 23   9  30  1   
 24   9  31  1   
 25   9  32  1   
 26  10  12  ar  
 27  10  13  ar  
 28  11  33  1   
 29  11  34  1   
 30  12  14  ar  
 31  13  15  ar  
 32  13  16  1   
 33  14  17  ar  
 34  14  18  1   
 35  15  17  ar  
 36  16  35  1   
 37  16  36  1   
 38  16  37  1   
 39  17  38  1   
 40  18  39  1   
 41  18  40  1   
 42  18  41  1   
@<TRIPOS>SUBSTRUCTURE
  1 ****   4 GROUP 4 **** **** 0

# MOE 2024.06 (io_trps.svl 2023.06)
