@<TRIPOS>MOLECULE
NONAME
55 58 1 0 0 
SMALL
USER_CHARGES


@<TRIPOS>ATOM
  1 O       -3.1010     2.0260     2.0280 O.2   1 <1>  -0.5700 
  2 C       -2.6220     1.8680     0.9180 C.2   1 <1>   0.6900 
  3 N       -1.4060     2.4320     0.6210 N.am  1 <1>  -0.6600 
  4 N       -3.3010     1.1290    -0.0180 N.am  1 <1>  -0.6600 
  5 C       -1.1800     3.1550    -0.6580 C.3   1 <1>   0.1400 
  6 C       -0.4230     2.7050     1.7020 C.3   1 <1>   0.1400 
  7 C       -2.6160     0.2770    -1.0160 C.3   1 <1>   0.1400 
  8 C       -4.6620     0.6140     0.2560 C.3   1 <1>   0.1400 
  9 C       -1.0810     4.6600    -0.3950 C.3   1 <1>  -0.1600 
 10 C       -0.3460     4.2090     1.9680 C.3   1 <1>  -0.1600 
 11 C       -3.4990    -0.9580    -1.1520 C.3   1 <1>  -0.1600 
 12 C       -4.8970    -0.4670    -0.7930 C.3   1 <1>  -0.1600 
 13 C       -0.0360     4.9630     0.6770 C.3   1 <1>   0.2890 
 14 N       -0.0440     6.4040     0.9590 N.pl3 1 <1>  -0.8190 
 15 C        0.8300     7.3680     0.6140 C.2   1 <1>   0.4860 
 16 N        0.5770     8.5450     1.1540 N.2   1 <1>  -0.6210 
 17 C        1.9190     7.1510    -0.2520 C.2   1 <1>  -0.1360 
 18 C        1.3940     9.5650     0.8760 C.2   1 <1>   0.2710 
 19 C        2.7470     8.1840    -0.5350 C.2   1 <1>  -0.0380 
 20 N        2.4560     9.3660     0.0440 N.pl3 1 <1>  -0.6000 
 21 C        1.1560    10.8550     1.4470 C.2   1 <1>   0.0140 
 22 C        3.9560     8.1080    -1.4430 C.3   1 <1>  -0.1020 
 23 C        1.9810    11.9920     1.1960 C.2   1 <1>   0.5410 
 24 C        0.0590    11.0640     2.3110 C.2   1 <1>  -0.1500 
 25 O        2.9900    11.9670     0.4530 O.2   1 <1>  -0.5700 
 26 C        1.6730    13.2290     1.8010 C.2   1 <1>  -0.1360 
 27 C       -0.2200    12.2780     2.8880 C.2   1 <1>  -0.1500 
 28 C        0.5980    13.3790     2.6310 C.2   1 <1>  -0.1500 
 29 H       -1.9930     2.9730    -1.3390 H     1 <1>   0.0800 
 30 H       -0.2720     2.7950    -1.1090 H     1 <1>   0.0800 
 31 H        0.5410     2.3320     1.4010 H     1 <1>   0.0800 
 32 H       -0.7110     2.1910     2.6040 H     1 <1>   0.0800 
 33 H       -1.6230     0.0190    -0.6910 H     1 <1>   0.0800 
 34 H       -2.5690     0.8030    -1.9540 H     1 <1>   0.0800 
 35 H       -5.3880     1.4060     0.1860 H     1 <1>   0.0800 
 36 H       -4.6880     0.1880     1.2450 H     1 <1>   0.0800 
 37 H       -2.0450     5.0160    -0.0750 H     1 <1>   0.0800 
 38 H       -0.8190     5.1640    -1.3070 H     1 <1>   0.0800 
 39 H        0.4230     4.4020     2.6940 H     1 <1>   0.0800 
 40 H       -1.2890     4.5320     2.3730 H     1 <1>   0.0800 
 41 H       -3.1770    -1.6960    -0.4390 H     1 <1>   0.0800 
 42 H       -3.4510    -1.3790    -2.1410 H     1 <1>   0.0800 
 43 H       -5.3630    -0.0210    -1.6550 H     1 <1>   0.0800 
 44 H       -5.5270    -1.2540    -0.4200 H     1 <1>   0.0800 
 45 H        0.9350     4.6610     0.3260 H     1 <1>   0.0800 
 46 H       -0.8120     6.7240     1.5500 H     1 <1>   0.4000 
 47 H        2.0750     6.1820    -0.6750 H     1 <1>   0.1500 
 48 H        3.0460    10.1970    -0.1280 H     1 <1>   0.4000 
 49 H        3.8390     8.7940    -2.2630 H     1 <1>   0.0800 
 50 H        4.0730     7.1150    -1.8370 H     1 <1>   0.0800 
 51 H        4.8410     8.3690    -0.8930 H     1 <1>   0.0800 
 52 H       -0.5920    10.2350     2.5300 H     1 <1>   0.1500 
 53 H        2.3250    14.0530     1.5800 H     1 <1>   0.1500 
 54 H       -1.0680    12.3930     3.5420 H     1 <1>   0.1500 
 55 H        0.3710    14.3270     3.0880 H     1 <1>   0.1500 
@<TRIPOS>BOND
  1   1   2  2   
  2   2   3  am  
  3   2   4  am  
  4   3   5  1   
  5   3   6  1   
  6   4   7  1   
  7   4   8  1   
  8   5   9  1   
  9   5  29  1   
 10   5  30  1   
 11   6  10  1   
 12   6  31  1   
 13   6  32  1   
 14   7  11  1   
 15   7  33  1   
 16   7  34  1   
 17   8  12  1   
 18   8  35  1   
 19   8  36  1   
 20   9  13  1   
 21   9  37  1   
 22   9  38  1   
 23  10  13  1   
 24  10  39  1   
 25  10  40  1   
 26  11  12  1   
 27  11  41  1   
 28  11  42  1   
 29  12  43  1   
 30  12  44  1   
 31  13  14  1   
 32  13  45  1   
 33  14  15  1   
 34  14  46  1   
 35  15  16  2   
 36  15  17  1   
 37  16  18  1   
 38  17  19  2   
 39  17  47  1   
 40  18  20  1   
 41  18  21  2   
 42  19  20  1   
 43  19  22  1   
 44  20  48  1   
 45  21  23  1   
 46  21  24  1   
 47  22  49  1   
 48  22  50  1   
 49  22  51  1   
 50  23  25  2   
 51  23  26  1   
 52  24  27  2   
 53  24  52  1   
 54  26  28  2   
 55  26  53  1   
 56  27  28  1   
 57  27  54  1   
 58  28  55  1   
@<TRIPOS>SUBSTRUCTURE
  1 ****  14 GROUP 4 **** **** 0

# MOE 2024.06 (io_trps.svl 2023.06)
