@<TRIPOS>MOLECULE
NONAME
55 57 1 0 0 
SMALL
USER_CHARGES


@<TRIPOS>ATOM
  1 O       -1.0120     2.6830     3.6110 O.2   1 <1>  -0.5700 
  2 C       -1.6260     3.1590     2.6830 C.2   1 <1>   0.5690 
  3 N       -2.9480     2.8270     2.4520 N.am  1 <1>  -0.6600 
  4 C       -0.8740     4.1750     1.8230 C.3   1 <1>   0.1810 
  5 C       -3.7440     3.4260     1.3370 C.3   1 <1>   0.2200 
  6 C       -3.6110     1.8110     3.3280 C.3   1 <1>   0.0600 
  7 O       -0.8210     3.7800     0.4590 O.3   1 <1>  -0.3620 
  8 C       -5.1640     3.8460     1.7100 C.3   1 <1>  -0.1600 
  9 C       -3.9480     2.4590     0.1800 C.3   1 <1>  -0.1600 
 10 C       -0.2090     4.5500    -0.4800 C.ar  1 <1>   0.0820 
 11 C       -5.8860     3.9610     0.3590 C.3   1 <1>  -0.0800 
 12 C       -5.1060     3.0690    -0.6230 C.3   1 <1>  -0.0800 
 13 C       -0.0540     4.0160    -1.7580 C.ar  1 <1>  -0.1440 
 14 C        0.2590     5.8350    -0.2100 C.ar  1 <1>  -0.1500 
 15 C       -7.3280     3.4360     0.3760 C.3   1 <1>  -0.1600 
 16 C       -6.1000     2.0320    -1.1620 C.3   1 <1>  -0.1600 
 17 C        0.5510     4.7750    -2.7480 C.ar  1 <1>  -0.1500 
 18 C       -0.5340     2.6120    -2.0970 C.3   1 <1>  -0.0970 
 19 C        0.8640     6.5800    -1.2060 C.ar  1 <1>  -0.1500 
 20 C       -7.2160     1.9950    -0.1220 C.3   1 <1>   0.4230 
 21 C        1.0080     6.0520    -2.4750 C.ar  1 <1>  -0.1500 
 22 N       -8.4890     1.4160    -0.6530 N.4   1 <1>  -0.9590 
 23 C       -9.1340     2.1880    -1.7670 C.3   1 <1>   0.2630 
 24 C       -9.4730     1.2000     0.4530 C.3   1 <1>   0.2630 
 25 H        0.1360     4.2650     2.1800 H     1 <1>   0.0800 
 26 H       -1.3680     5.1250     1.8900 H     1 <1>   0.0800 
 27 H       -3.2500     4.3010     0.9520 H     1 <1>   0.0800 
 28 H       -4.2460     1.1660     2.7510 H     1 <1>   0.0800 
 29 H       -4.1940     2.3100     4.0810 H     1 <1>   0.0800 
 30 H       -2.8770     1.1960     3.8210 H     1 <1>   0.0800 
 31 H       -5.6360     3.0950     2.3140 H     1 <1>   0.0800 
 32 H       -5.1640     4.7830     2.2390 H     1 <1>   0.0800 
 33 H       -3.0560     2.3790    -0.4140 H     1 <1>   0.0800 
 34 H       -4.2120     1.4870     0.5530 H     1 <1>   0.0800 
 35 H       -5.8580     4.9870     0.0260 H     1 <1>   0.0800 
 36 H       -4.7040     3.6660    -1.4260 H     1 <1>   0.0800 
 37 H        0.1660     6.2770     0.7620 H     1 <1>   0.1500 
 38 H       -7.9030     4.0380    -0.3020 H     1 <1>   0.0800 
 39 H       -7.7620     3.4930     1.3590 H     1 <1>   0.0800 
 40 H       -5.6410     1.0680    -1.2950 H     1 <1>   0.0800 
 41 H       -6.4620     2.3860    -2.1090 H     1 <1>   0.0800 
 42 H        0.6710     4.3750    -3.7390 H     1 <1>   0.1500 
 43 H       -0.0140     2.2290    -2.9550 H     1 <1>   0.0800 
 44 H       -1.5860     2.6310    -2.3110 H     1 <1>   0.0800 
 45 H       -0.3550     1.9440    -1.2730 H     1 <1>   0.0800 
 46 H        1.2230     7.5730    -0.9950 H     1 <1>   0.1500 
 47 H       -6.8670     1.3910     0.7010 H     1 <1>   0.0800 
 48 H        1.4780     6.6320    -3.2510 H     1 <1>   0.1500 
 49 H       -8.2410     0.4890    -1.0300 H     1 <1>   0.4500 
 50 H       -9.4370     3.1640    -1.4250 H     1 <1>   0.0800 
 51 H      -10.0070     1.6670    -2.1240 H     1 <1>   0.0800 
 52 H       -8.4520     2.3080    -2.5920 H     1 <1>   0.0800 
 53 H       -9.7710     2.1450     0.8780 H     1 <1>   0.0800 
 54 H       -9.0360     0.5950     1.2310 H     1 <1>   0.0800 
 55 H      -10.3520     0.6980     0.0820 H     1 <1>   0.0800 
@<TRIPOS>BOND
  1   1   2  2   
  2   2   3  am  
  3   2   4  1   
  4   3   5  1   
  5   3   6  1   
  6   4   7  1   
  7   4  25  1   
  8   4  26  1   
  9   5   8  1   
 10   5   9  1   
 11   5  27  1   
 12   6  28  1   
 13   6  29  1   
 14   6  30  1   
 15   7  10  1   
 16   8  11  1   
 17   8  31  1   
 18   8  32  1   
 19   9  12  1   
 20   9  33  1   
 21   9  34  1   
 22  10  13  ar  
 23  10  14  ar  
 24  11  12  1   
 25  11  15  1   
 26  11  35  1   
 27  12  16  1   
 28  12  36  1   
 29  13  17  ar  
 30  13  18  1   
 31  14  19  ar  
 32  14  37  1   
 33  15  20  1   
 34  15  38  1   
 35  15  39  1   
 36  16  20  1   
 37  16  40  1   
 38  16  41  1   
 39  17  21  ar  
 40  17  42  1   
 41  18  43  1   
 42  18  44  1   
 43  18  45  1   
 44  19  21  ar  
 45  19  46  1   
 46  20  22  1   
 47  20  47  1   
 48  21  48  1   
 49  22  23  1   
 50  22  24  1   
 51  22  49  1   
 52  23  50  1   
 53  23  51  1   
 54  23  52  1   
 55  24  53  1   
 56  24  54  1   
 57  24  55  1   
@<TRIPOS>SUBSTRUCTURE
  1 ****   9 GROUP 4 **** **** 0

# MOE 2024.06 (io_trps.svl 2023.06)
