@<TRIPOS>MOLECULE
NONAME
43 45 1 0 0 
SMALL
USER_CHARGES


@<TRIPOS>ATOM
  1 F        1.5410     0.9300     1.7020 F     1 <1>  -0.1900 
  2 C        2.1090    -0.0660     1.0740 C.ar  1 <1>   0.1900 
  3 C        2.8310     0.1800    -0.0850 C.ar  1 <1>  -0.1440 
  4 C        1.9700    -1.3320     1.6100 C.ar  1 <1>  -0.1500 
  5 C        3.4310    -0.9010    -0.7150 C.ar  1 <1>  -0.1500 
  6 C        2.9730     1.5810    -0.6620 C.3   1 <1>   0.2540 
  7 C        2.5750    -2.3980     0.9660 C.ar  1 <1>  -0.1500 
  8 C        3.3030    -2.1800    -0.1930 C.ar  1 <1>  -0.1500 
  9 N        4.3710     2.0430    -0.5600 N.3   1 <1>  -0.8100 
 10 C        4.8380     2.2020     0.8650 C.3   1 <1>   0.1900 
 11 C        4.6270     3.1860    -1.4640 C.3   1 <1>   0.1100 
 12 C        4.4870     3.5660     1.4890 C.3   1 <1>   0.1200 
 13 C        6.3550     1.9120     0.9880 C.3   1 <1>   0.3430 
 14 C        5.8530     4.0570    -1.1160 C.3   1 <1>  -0.0800 
 15 O        5.4900     4.5070     1.2480 O.3   1 <1>  -0.5600 
 16 N        6.9950     1.9180    -0.3630 N.4   1 <1>  -0.9590 
 17 C        5.5250     5.0810    -0.0150 C.3   1 <1>   0.1200 
 18 C        7.1800     3.3140    -0.8510 C.3   1 <1>   0.3430 
 19 C        8.3330     1.2030    -0.3010 C.3   1 <1>   0.2370 
 20 C        9.3620     1.8610     0.6240 C.2   1 <1>   0.9060 
 21 O        9.3840     1.5110     1.8060 O.co2 1 <1>  -0.9000 
 22 O       10.0370     2.7890     0.1670 O.co2 1 <1>  -0.9000 
 23 H        1.4000    -1.4790     2.5100 H     1 <1>   0.1500 
 24 H        4.0000    -0.7480    -1.6160 H     1 <1>   0.1500 
 25 H        2.3180     2.2760    -0.1640 H     1 <1>   0.0800 
 26 H        2.6830     1.5450    -1.6980 H     1 <1>   0.0800 
 27 H        2.4790    -3.3940     1.3640 H     1 <1>   0.1500 
 28 H        3.7730    -3.0110    -0.6920 H     1 <1>   0.1500 
 29 H        4.3500     1.4640     1.4740 H     1 <1>   0.0800 
 30 H        4.7540     2.7940    -2.4600 H     1 <1>   0.0800 
 31 H        3.7570     3.8230    -1.4870 H     1 <1>   0.0800 
 32 H        4.4320     3.4540     2.5570 H     1 <1>   0.0800 
 33 H        3.5400     3.9390     1.1410 H     1 <1>   0.0800 
 34 H        6.4820     0.9420     1.4380 H     1 <1>   0.0800 
 35 H        6.8340     2.6290     1.6360 H     1 <1>   0.0800 
 36 H        6.0340     4.6610    -1.9860 H     1 <1>   0.0800 
 37 H        6.2960     1.4560    -0.9650 H     1 <1>   0.4500 
 38 H        4.5810     5.5670    -0.1970 H     1 <1>   0.0800 
 39 H        6.2900     5.8380     0.0130 H     1 <1>   0.0800 
 40 H        7.7730     3.8690    -0.1390 H     1 <1>   0.0800 
 41 H        7.7430     3.2780    -1.7690 H     1 <1>   0.0800 
 42 H        8.1920     0.1970     0.0490 H     1 <1>   0.0800 
 43 H        8.7700     1.1640    -1.2820 H     1 <1>   0.0800 
@<TRIPOS>BOND
  1   1   2  1   
  2   2   3  ar  
  3   2   4  ar  
  4   3   5  ar  
  5   3   6  1   
  6   4   7  ar  
  7   4  23  1   
  8   5   8  ar  
  9   5  24  1   
 10   6   9  1   
 11   6  25  1   
 12   6  26  1   
 13   7   8  ar  
 14   7  27  1   
 15   8  28  1   
 16   9  10  1   
 17   9  11  1   
 18  10  12  1   
 19  10  13  1   
 20  10  29  1   
 21  11  14  1   
 22  11  30  1   
 23  11  31  1   
 24  12  15  1   
 25  12  32  1   
 26  12  33  1   
 27  13  16  1   
 28  13  34  1   
 29  13  35  1   
 30  14  17  1   
 31  14  18  1   
 32  14  36  1   
 33  15  17  1   
 34  16  18  1   
 35  16  19  1   
 36  16  37  1   
 37  17  38  1   
 38  17  39  1   
 39  18  40  1   
 40  18  41  1   
 41  19  20  1   
 42  19  42  1   
 43  19  43  1   
 44  20  21  ar  
 45  20  22  ar  
@<TRIPOS>SUBSTRUCTURE
  1 ****  10 GROUP 4 **** **** 0

# MOE 2024.06 (io_trps.svl 2023.06)
