@<TRIPOS>MOLECULE
NONAME
50 52 1 0 0 
SMALL
USER_CHARGES


@<TRIPOS>ATOM
  1 S        0.5290     0.6130     1.3360 S.o2  1 <1>   1.3330 
  2 O       -0.1180     1.7370     1.9680 O.2   1 <1>  -0.6500 
  3 O        1.4710    -0.1900     2.0800 O.2   1 <1>  -0.6500 
  4 N        1.3710     1.2300    -0.0050 N.am  1 <1>  -0.8490 
  5 C       -0.6830    -0.4710     0.6100 C.3   1 <1>  -0.1350 
  6 C        2.8180     1.3260     0.2610 C.3   1 <1>   0.1960 
  7 C        0.6840     2.3210    -0.7070 C.3   1 <1>   0.1960 
  8 C        3.6380     2.1880    -0.7140 C.3   1 <1>   0.3430 
  9 C        1.0510     3.7150    -0.1940 C.3   1 <1>  -0.1600 
 10 N        3.5480     3.6590    -0.4040 N.4   1 <1>  -0.9590 
 11 C        2.2830     4.2960    -0.8800 C.3   1 <1>   0.3430 
 12 C        4.7570     4.3720    -0.9220 C.3   1 <1>   0.4860 
 13 C        4.7180     5.8250    -0.5110 C.ar  1 <1>  -0.1430 
 14 C        4.4220     6.8140    -1.4180 C.ar  1 <1>   0.1600 
 15 C        4.9640     6.2240     0.7820 C.ar  1 <1>   0.1600 
 16 N        4.3400     8.0710    -1.0740 N.ar  1 <1>  -0.6200 
 17 N        4.8910     7.4760     1.1470 N.ar  1 <1>  -0.6200 
 18 C        4.5780     8.3640     0.2040 C.ar  1 <1>   0.7200 
 19 N        4.4890     9.6850     0.5800 N.pl3 1 <1>  -0.8380 
 20 C        4.3520    10.8000    -0.4110 C.3   1 <1>   0.2090 
 21 C        4.8680    10.1640     1.9470 C.3   1 <1>   0.2090 
 22 C        3.5190    11.9580     0.1670 C.3   1 <1>   0.1200 
 23 C        4.0030    11.3630     2.3770 C.3   1 <1>   0.1200 
 24 O        4.0190    12.3720     1.4070 O.3   1 <1>  -0.5600 
 25 H       -1.2600    -0.9410     1.3820 H     1 <1>   0.0800 
 26 H       -0.1990    -1.2340     0.0330 H     1 <1>   0.0800 
 27 H       -1.3490     0.0780    -0.0260 H     1 <1>   0.0800 
 28 H        3.2150     0.3240     0.2330 H     1 <1>   0.0800 
 29 H        2.9790     1.6950     1.2610 H     1 <1>   0.0800 
 30 H       -0.3820     2.1870    -0.6040 H     1 <1>   0.0800 
 31 H        0.8980     2.2530    -1.7610 H     1 <1>   0.0800 
 32 H        3.3270     1.9860    -1.7260 H     1 <1>   0.0800 
 33 H        4.6660     1.8780    -0.6190 H     1 <1>   0.0800 
 34 H        1.1440     3.7370     0.8780 H     1 <1>   0.0800 
 35 H        0.2290     4.3630    -0.4400 H     1 <1>   0.0800 
 36 H        3.5460     3.7640     0.6210 H     1 <1>   0.4500 
 37 H        2.3110     5.3530    -0.6610 H     1 <1>   0.0800 
 38 H        2.1890     4.1840    -1.9480 H     1 <1>   0.0800 
 39 H        4.7930     4.3020    -1.9970 H     1 <1>   0.0800 
 40 H        5.6510     3.9180    -0.5260 H     1 <1>   0.0800 
 41 H        4.2390     6.5810    -2.4550 H     1 <1>   0.1500 
 42 H        5.2250     5.5100     1.5450 H     1 <1>   0.1500 
 43 H        3.8770    10.4600    -1.3130 H     1 <1>   0.0800 
 44 H        5.3310    11.1640    -0.6690 H     1 <1>   0.0800 
 45 H        5.9030    10.4580     1.9440 H     1 <1>   0.0800 
 46 H        4.7480     9.3830     2.6770 H     1 <1>   0.0800 
 47 H        2.4940    11.6540     0.2920 H     1 <1>   0.0800 
 48 H        3.5490    12.8020    -0.4980 H     1 <1>   0.0800 
 49 H        4.3810    11.7810     3.2920 H     1 <1>   0.0800 
 50 H        2.9850    11.0510     2.5330 H     1 <1>   0.0800 
@<TRIPOS>BOND
  1   1   2  2   
  2   1   3  2   
  3   1   4  am  
  4   1   5  1   
  5   4   6  1   
  6   4   7  1   
  7   5  25  1   
  8   5  26  1   
  9   5  27  1   
 10   6   8  1   
 11   6  28  1   
 12   6  29  1   
 13   7   9  1   
 14   7  30  1   
 15   7  31  1   
 16   8  10  1   
 17   8  32  1   
 18   8  33  1   
 19   9  11  1   
 20   9  34  1   
 21   9  35  1   
 22  10  11  1   
 23  10  12  1   
 24  10  36  1   
 25  11  37  1   
 26  11  38  1   
 27  12  13  1   
 28  12  39  1   
 29  12  40  1   
 30  13  14  ar  
 31  13  15  ar  
 32  14  16  ar  
 33  14  41  1   
 34  15  17  ar  
 35  15  42  1   
 36  16  18  ar  
 37  17  18  ar  
 38  18  19  1   
 39  19  20  1   
 40  19  21  1   
 41  20  22  1   
 42  20  43  1   
 43  20  44  1   
 44  21  23  1   
 45  21  45  1   
 46  21  46  1   
 47  22  24  1   
 48  22  47  1   
 49  22  48  1   
 50  23  24  1   
 51  23  49  1   
 52  23  50  1   
@<TRIPOS>SUBSTRUCTURE
  1 ****  13 GROUP 4 **** **** 0

# MOE 2024.06 (io_trps.svl 2023.06)
