@<TRIPOS>MOLECULE
NONAME
49 53 1 0 0 
SMALL
USER_CHARGES


@<TRIPOS>ATOM
  1 O       -0.8770     0.2330     0.7310 O.2   1 <1>  -0.5700 
  2 C       -1.8980     0.8840     0.5840 C.2   1 <1>   0.7150 
  3 N       -3.1040     0.2700     0.8640 N.am  1 <1>  -0.6600 
  4 C       -1.8330     2.2610     0.1350 C.2   1 <1>   0.0550 
  5 C       -4.3590     0.5560     0.1190 C.3   1 <1>   0.1400 
  6 C       -3.1840    -0.9250     1.7500 C.3   1 <1>   0.1400 
  7 O       -0.8470     2.6820    -0.6550 O.3   1 <1>  -0.2800 
  8 C       -2.6480     3.3230     0.3920 C.2   1 <1>  -0.1500 
  9 C       -4.7210    -0.6620    -0.7340 C.3   1 <1>  -0.1600 
 10 C       -3.5390    -2.1540     0.9130 C.3   1 <1>  -0.1600 
 11 C       -1.0050     3.9620    -0.9060 C.2   1 <1>  -0.0400 
 12 C       -2.1130     4.4210    -0.2830 C.2   1 <1>  -0.1500 
 13 C       -4.8250    -1.9380     0.1120 C.3   1 <1>   0.4600 
 14 C        0.0200     4.6590    -1.7840 C.3   1 <1>   0.3000 
 15 O       -5.8620    -1.7780     1.0580 O.3   1 <1>  -0.5600 
 16 C       -5.1180    -3.1550    -0.7570 C.2   1 <1>  -0.3320 
 17 O       -0.4580     5.9050    -2.1610 O.3   1 <1>  -0.6800 
 18 C       -7.1860    -2.0090     0.6380 C.3   1 <1>   0.1200 
 19 N       -4.2790    -3.7120    -1.6830 N.pl3 1 <1>   0.0330 
 20 C       -6.2670    -3.8570    -0.7190 C.2   1 <1>  -0.1810 
 21 C       -7.3900    -3.4730     0.2120 C.3   1 <1>   0.0210 
 22 C       -4.9200    -4.7940    -2.2380 C.ar  1 <1>  -0.1520 
 23 C       -6.1750    -4.9130    -1.6480 C.ar  1 <1>   0.0000 
 24 C       -4.5010    -5.6950    -3.2200 C.ar  1 <1>  -0.1500 
 25 C       -7.0290    -5.9490    -2.0410 C.ar  1 <1>  -0.1500 
 26 C       -5.3510    -6.7080    -3.5990 C.ar  1 <1>  -0.1500 
 27 C       -6.6160    -6.8350    -3.0090 C.ar  1 <1>  -0.1500 
 28 H       -4.2390     1.4110    -0.5230 H     1 <1>   0.0800 
 29 H       -5.1490     0.7630     0.8210 H     1 <1>   0.0800 
 30 H       -3.9410    -0.7600     2.4970 H     1 <1>   0.0800 
 31 H       -2.2470    -1.0850     2.2560 H     1 <1>   0.0800 
 32 H       -3.5310     3.3400     1.0050 H     1 <1>   0.1500 
 33 H       -3.9570    -0.7950    -1.4780 H     1 <1>   0.0800 
 34 H       -5.6420    -0.4890    -1.2560 H     1 <1>   0.0800 
 35 H       -3.6600    -3.0100     1.5510 H     1 <1>   0.0800 
 36 H       -2.7210    -2.3570     0.2470 H     1 <1>   0.0800 
 37 H       -2.5130     5.4200    -0.2800 H     1 <1>   0.1500 
 38 H        0.2020     4.0850    -2.6760 H     1 <1>   0.0800 
 39 H        0.9450     4.7950    -1.2520 H     1 <1>   0.0800 
 40 H       -1.3340     5.7980    -2.5770 H     1 <1>   0.4000 
 41 H       -7.4050    -1.3490    -0.1820 H     1 <1>   0.0800 
 42 H       -7.8370    -1.7680     1.4590 H     1 <1>   0.0800 
 43 H       -3.3320    -3.4020    -1.9200 H     1 <1>   0.2700 
 44 H       -8.3370    -3.5780    -0.2840 H     1 <1>   0.0800 
 45 H       -7.3800    -4.1120     1.0760 H     1 <1>   0.0800 
 46 H       -3.5290    -5.5910    -3.6670 H     1 <1>   0.1500 
 47 H       -7.9950    -6.0340    -1.5800 H     1 <1>   0.1500 
 48 H       -5.0530    -7.4150    -4.3530 H     1 <1>   0.1500 
 49 H       -7.2610    -7.6370    -3.3220 H     1 <1>   0.1500 
@<TRIPOS>BOND
  1   1   2  2   
  2   2   3  am  
  3   2   4  1   
  4   3   5  1   
  5   3   6  1   
  6   4   7  1   
  7   4   8  2   
  8   5   9  1   
  9   5  28  1   
 10   5  29  1   
 11   6  10  1   
 12   6  30  1   
 13   6  31  1   
 14   7  11  1   
 15   8  12  1   
 16   8  32  1   
 17   9  13  1   
 18   9  33  1   
 19   9  34  1   
 20  10  13  1   
 21  10  35  1   
 22  10  36  1   
 23  11  12  2   
 24  11  14  1   
 25  12  37  1   
 26  13  15  1   
 27  13  16  1   
 28  14  17  1   
 29  14  38  1   
 30  14  39  1   
 31  15  18  1   
 32  16  19  1   
 33  16  20  2   
 34  17  40  1   
 35  18  21  1   
 36  18  41  1   
 37  18  42  1   
 38  19  22  1   
 39  19  43  1   
 40  20  21  1   
 41  20  23  1   
 42  21  44  1   
 43  21  45  1   
 44  22  23  ar  
 45  22  24  ar  
 46  23  25  ar  
 47  24  26  ar  
 48  24  46  1   
 49  25  27  ar  
 50  25  47  1   
 51  26  27  ar  
 52  26  48  1   
 53  27  49  1   
@<TRIPOS>SUBSTRUCTURE
  1 ****   9 GROUP 4 **** **** 0

# MOE 2024.06 (io_trps.svl 2023.06)
