@<TRIPOS>MOLECULE
NONAME
44 46 1 0 0 
SMALL
USER_CHARGES


@<TRIPOS>ATOM
  1 CL      -0.4630     0.9720    -1.6970 Cl    1 <1>  -0.1770 
  2 C        0.0190     2.5400    -1.0980 C.ar  1 <1>   0.1770 
  3 C       -0.6090     3.6730    -1.5800 C.ar  1 <1>  -0.1500 
  4 C        1.0220     2.6230    -0.1490 C.ar  1 <1>  -0.1500 
  5 C       -0.2210     4.9130    -1.1030 C.ar  1 <1>  -0.1500 
  6 C        1.4080     3.8650     0.3270 C.ar  1 <1>  -0.1500 
  7 C        0.7860     5.0170    -0.1540 C.ar  1 <1>   0.0830 
  8 O        1.1080     6.2700     0.2500 O.3   1 <1>  -0.3630 
  9 C        2.1470     6.4950     1.1940 C.3   1 <1>   0.1810 
 10 C        2.3890     7.9860     1.4180 C.2   1 <1>   0.5690 
 11 O        2.3810     8.3710     2.5660 O.2   1 <1>  -0.5700 
 12 N        2.6540     8.8650     0.3840 N.am  1 <1>  -0.6600 
 13 C        2.9330    10.3000     0.7150 C.3   1 <1>   0.1400 
 14 C        2.9030     8.4140    -1.0240 C.3   1 <1>   0.1400 
 15 C        4.4390    10.6720     0.6620 C.3   1 <1>   0.4230 
 16 C        4.2560     8.8670    -1.6160 C.3   1 <1>  -0.0800 
 17 N        4.8880    11.1420    -0.7000 N.4   1 <1>  -0.9590 
 18 C        5.3960     9.5670     1.1900 C.3   1 <1>   0.1200 
 19 C        5.5100     8.3170    -0.9010 C.3   1 <1>   0.1200 
 20 C        4.2950    10.3810    -1.8400 C.3   1 <1>   0.3430 
 21 C        4.6610    12.6100    -0.8770 C.3   1 <1>   0.2630 
 22 O        5.3910     8.3480     0.4860 O.3   1 <1>  -0.5600 
 23 H       -1.3880     3.5810    -2.3150 H     1 <1>   0.1500 
 24 H        1.4900     1.7240     0.2090 H     1 <1>   0.1500 
 25 H       -0.7000     5.8060    -1.4630 H     1 <1>   0.1500 
 26 H        2.1850     3.9090     1.0670 H     1 <1>   0.1500 
 27 H        1.8570     6.0370     2.1230 H     1 <1>   0.0800 
 28 H        3.0500     6.0420     0.8310 H     1 <1>   0.0800 
 29 H        2.3620    10.9360     0.0640 H     1 <1>   0.0800 
 30 H        2.5850    10.5100     1.7120 H     1 <1>   0.0800 
 31 H        2.8740     7.3410    -1.0820 H     1 <1>   0.0800 
 32 H        2.0970     8.7770    -1.6390 H     1 <1>   0.0800 
 33 H        4.5590    11.5040     1.3350 H     1 <1>   0.0800 
 34 H        4.2790     8.4470    -2.6060 H     1 <1>   0.0800 
 35 H        5.9020    10.9690    -0.7250 H     1 <1>   0.4500 
 36 H        5.1170     9.3300     2.2020 H     1 <1>   0.0800 
 37 H        6.4080     9.9300     1.2110 H     1 <1>   0.0800 
 38 H        6.4080     8.8350    -1.1890 H     1 <1>   0.0800 
 39 H        5.6330     7.2790    -1.1640 H     1 <1>   0.0800 
 40 H        3.2900    10.7260    -2.0260 H     1 <1>   0.0800 
 41 H        4.8740    10.5820    -2.7270 H     1 <1>   0.0800 
 42 H        3.6060    12.8340    -0.8490 H     1 <1>   0.0800 
 43 H        5.0570    12.9400    -1.8240 H     1 <1>   0.0800 
 44 H        5.1500    13.1630    -0.0910 H     1 <1>   0.0800 
@<TRIPOS>BOND
  1   1   2  1   
  2   2   3  ar  
  3   2   4  ar  
  4   3   5  ar  
  5   3  23  1   
  6   4   6  ar  
  7   4  24  1   
  8   5   7  ar  
  9   5  25  1   
 10   6   7  ar  
 11   6  26  1   
 12   7   8  1   
 13   8   9  1   
 14   9  10  1   
 15   9  27  1   
 16   9  28  1   
 17  10  11  2   
 18  10  12  am  
 19  12  13  1   
 20  12  14  1   
 21  13  15  1   
 22  13  29  1   
 23  13  30  1   
 24  14  16  1   
 25  14  31  1   
 26  14  32  1   
 27  15  17  1   
 28  15  18  1   
 29  15  33  1   
 30  16  19  1   
 31  16  20  1   
 32  16  34  1   
 33  17  20  1   
 34  17  21  1   
 35  17  35  1   
 36  18  22  1   
 37  18  36  1   
 38  18  37  1   
 39  19  22  1   
 40  19  38  1   
 41  19  39  1   
 42  20  40  1   
 43  20  41  1   
 44  21  42  1   
 45  21  43  1   
 46  21  44  1   
@<TRIPOS>SUBSTRUCTURE
  1 ****  14 GROUP 4 **** **** 0

# MOE 2024.06 (io_trps.svl 2023.06)
