@<TRIPOS>MOLECULE
NONAME
51 52 1 0 0 
SMALL
USER_CHARGES


@<TRIPOS>ATOM
  1 O       -1.2860    -0.1520    -0.4040 O.2   1 <1>  -0.5700 
  2 C       -2.1250     0.5480     0.1140 C.2   1 <1>   0.5690 
  3 N       -3.0220     0.0130     1.0130 N.am  1 <1>  -0.6600 
  4 C       -2.1930     2.0100    -0.4010 C.3   1 <1>   0.4840 
  5 C       -3.3990    -1.4180     0.8660 C.3   1 <1>   0.3200 
  6 C       -3.5000     0.6640     2.2740 C.3   1 <1>   0.1400 
  7 N       -3.5320     2.3440    -1.0440 N.4   1 <1>  -0.9590 
  8 C       -1.7410     3.0220     0.6710 C.3   1 <1>  -0.0170 
  9 C       -4.1820    -1.5480    -0.4260 C.2   1 <1>  -0.3320 
 10 C       -4.9790     1.0860     2.2330 C.3   1 <1>   0.1200 
 11 C       -3.8220     1.4120    -2.1790 C.3   1 <1>   0.2630 
 12 C       -3.6900     3.7580    -1.4970 C.3   1 <1>   0.2630 
 13 C       -1.2060     4.3180     0.0770 C.ar  1 <1>  -0.1440 
 14 N       -3.7620    -2.2170    -1.5210 N.pl3 1 <1>   0.0480 
 15 C       -5.3830    -1.0150    -0.7390 C.2   1 <1>   0.0770 
 16 O       -5.2230     1.9910     1.2020 O.3   1 <1>  -0.6800 
 17 C       -1.7450     5.5380     0.4630 C.ar  1 <1>  -0.1500 
 18 C       -0.1750     4.2960    -0.8520 C.ar  1 <1>  -0.1500 
 19 C       -4.7380    -2.0180    -2.4350 C.2   1 <1>   0.0360 
 20 C       -2.5250    -3.0010    -1.7070 C.3   1 <1>   0.0160 
 21 N       -5.7190    -1.2890    -2.0110 N.2   1 <1>  -0.5650 
 22 C       -1.2790     6.7160    -0.0930 C.ar  1 <1>  -0.1500 
 23 C        0.2900     5.4740    -1.4080 C.ar  1 <1>  -0.1500 
 24 C       -0.2640     6.6840    -1.0320 C.ar  1 <1>  -0.1500 
 25 H       -1.4520     2.0540    -1.1800 H     1 <1>   0.0800 
 26 H       -2.5130    -2.0290     0.8510 H     1 <1>   0.0800 
 27 H       -4.0140    -1.7370     1.6900 H     1 <1>   0.0800 
 28 H       -3.3750    -0.0350     3.0840 H     1 <1>   0.0800 
 29 H       -2.8890     1.5090     2.5240 H     1 <1>   0.0800 
 30 H       -4.2380     2.1480    -0.3000 H     1 <1>   0.4500 
 31 H       -2.5560     3.2350     1.3370 H     1 <1>   0.0800 
 32 H       -0.9470     2.5830     1.2500 H     1 <1>   0.0800 
 33 H       -5.2450     1.5610     3.1620 H     1 <1>   0.0800 
 34 H       -5.6110     0.2260     2.0930 H     1 <1>   0.0800 
 35 H       -3.1770     1.6250    -3.0150 H     1 <1>   0.0800 
 36 H       -4.8470     1.5120    -2.4960 H     1 <1>   0.0800 
 37 H       -3.6630     0.3910    -1.8810 H     1 <1>   0.0800 
 38 H       -2.8850     4.0330    -2.1590 H     1 <1>   0.0800 
 39 H       -3.6840     4.4240    -0.6520 H     1 <1>   0.0800 
 40 H       -4.6260     3.8800    -2.0170 H     1 <1>   0.0800 
 41 H       -6.0310    -0.4250    -0.1140 H     1 <1>   0.1500 
 42 H       -6.1610     2.2840     1.2480 H     1 <1>   0.4000 
 43 H       -2.5290     5.5870     1.2000 H     1 <1>   0.1500 
 44 H        0.2850     3.3690    -1.1510 H     1 <1>   0.1500 
 45 H       -4.6860    -2.4400    -3.4240 H     1 <1>   0.1500 
 46 H       -2.4680    -3.7640    -0.9520 H     1 <1>   0.0800 
 47 H       -1.6710    -2.3530    -1.6280 H     1 <1>   0.0800 
 48 H       -2.5310    -3.4630    -2.6770 H     1 <1>   0.0800 
 49 H       -1.7000     7.6600     0.2070 H     1 <1>   0.1500 
 50 H        1.0890     5.4530    -2.1300 H     1 <1>   0.1500 
 51 H        0.1000     7.6010    -1.4630 H     1 <1>   0.1500 
@<TRIPOS>BOND
  1   1   2  2   
  2   2   3  am  
  3   2   4  1   
  4   3   5  1   
  5   3   6  1   
  6   4   7  1   
  7   4   8  1   
  8   4  25  1   
  9   5   9  1   
 10   5  26  1   
 11   5  27  1   
 12   6  10  1   
 13   6  28  1   
 14   6  29  1   
 15   7  11  1   
 16   7  12  1   
 17   7  30  1   
 18   8  13  1   
 19   8  31  1   
 20   8  32  1   
 21   9  14  1   
 22   9  15  2   
 23  10  16  1   
 24  10  33  1   
 25  10  34  1   
 26  11  35  1   
 27  11  36  1   
 28  11  37  1   
 29  12  38  1   
 30  12  39  1   
 31  12  40  1   
 32  13  17  ar  
 33  13  18  ar  
 34  14  19  1   
 35  14  20  1   
 36  15  21  1   
 37  15  41  1   
 38  16  42  1   
 39  17  22  ar  
 40  17  43  1   
 41  18  23  ar  
 42  18  44  1   
 43  19  21  2   
 44  19  45  1   
 45  20  46  1   
 46  20  47  1   
 47  20  48  1   
 48  22  24  ar  
 49  22  49  1   
 50  23  24  ar  
 51  23  50  1   
 52  24  51  1   
@<TRIPOS>SUBSTRUCTURE
  1 ****   4 GROUP 4 **** **** 0

# MOE 2024.06 (io_trps.svl 2023.06)
