@<TRIPOS>MOLECULE
NONAME
71 73 1 0 0 
SMALL
USER_CHARGES


@<TRIPOS>ATOM
  1 O        0.2230     0.5040     0.5880 O.2   1 <1>  -0.5700 
  2 C        1.0800    -0.3150     0.3680 C.2   1 <1>   0.5690 
  3 N        0.8120    -1.6270     0.1770 N.am  1 <1>  -0.7300 
  4 C        2.5150     0.1520     0.3050 C.3   1 <1>  -0.0990 
  5 C       -0.5350    -2.2280     0.2170 C.3   1 <1>   0.2200 
  6 C        2.5300     1.6700     0.1110 C.3   1 <1>   0.3430 
  7 C       -0.5580    -3.2620     1.3510 C.3   1 <1>  -0.1600 
  8 C       -0.8330    -2.7930    -1.1770 C.3   1 <1>  -0.1600 
  9 N        3.9200     2.2230     0.0340 N.4   1 <1>  -0.9590 
 10 C       -1.9840    -3.7100     1.7040 C.3   1 <1>  -0.1600 
 11 C       -2.1740    -3.5340    -1.3050 C.3   1 <1>  -0.1600 
 12 C        4.5990     2.1820     1.3630 C.3   1 <1>   0.3430 
 13 C        3.8590     3.6100    -0.5090 C.3   1 <1>   0.3430 
 14 C       -2.5180    -4.8890     0.8750 C.3   1 <1>  -0.1600 
 15 C       -2.1550    -4.9060    -0.6180 C.3   1 <1>  -0.1600 
 16 C        6.0290     2.7150     1.2290 C.3   1 <1>  -0.1600 
 17 C        5.2730     4.1810    -0.6690 C.3   1 <1>  -0.1600 
 18 C        6.0660     4.1490     0.6580 C.3   1 <1>  -0.0800 
 19 C        7.5150     4.7140     0.5980 C.3   1 <1>   0.4230 
 20 N        7.4970     6.1570     0.2340 N.4   1 <1>  -0.9590 
 21 C        8.4770     3.9390    -0.3100 C.3   1 <1>  -0.2400 
 22 C        7.6450     6.5480    -1.2140 C.3   1 <1>   0.3430 
 23 C        8.4430     6.9860     1.0540 C.3   1 <1>   0.3430 
 24 C        7.3360     8.0550    -1.3960 C.3   1 <1>   0.1100 
 25 C        8.1360     8.4930     0.8610 C.3   1 <1>   0.1100 
 26 N        7.0270     8.7110    -0.1020 N.3   1 <1>  -0.8100 
 27 C        6.7540    10.1440    -0.2820 C.3   1 <1>   0.0300 
 28 H        1.5570    -2.3040     0.0100 H     1 <1>   0.3700 
 29 H        3.0030    -0.3340    -0.5190 H     1 <1>   0.0800 
 30 H        2.9880    -0.1250     1.2270 H     1 <1>   0.0800 
 31 H       -1.2580    -1.4590     0.4370 H     1 <1>   0.0800 
 32 H        1.9910     2.1370     0.9210 H     1 <1>   0.0800 
 33 H        1.9980     1.8950    -0.8000 H     1 <1>   0.0800 
 34 H       -0.1460    -2.7940     2.2280 H     1 <1>   0.0800 
 35 H        0.0540    -4.1130     1.1100 H     1 <1>   0.0800 
 36 H       -0.0390    -3.4530    -1.4780 H     1 <1>   0.0800 
 37 H       -0.8480    -1.9660    -1.8660 H     1 <1>   0.0800 
 38 H        4.4560     1.6470    -0.6280 H     1 <1>   0.4500 
 39 H       -2.6550    -2.8730     1.6090 H     1 <1>   0.0800 
 40 H       -2.0060    -4.0040     2.7400 H     1 <1>   0.0800 
 41 H       -2.3560    -3.6940    -2.3540 H     1 <1>   0.0800 
 42 H       -2.9830    -2.9300    -0.9310 H     1 <1>   0.0800 
 43 H        4.6300     1.1700     1.7350 H     1 <1>   0.0800 
 44 H        4.0510     2.7830     2.0720 H     1 <1>   0.0800 
 45 H        3.2910     4.2360     0.1610 H     1 <1>   0.0800 
 46 H        3.3620     3.6080    -1.4660 H     1 <1>   0.0800 
 47 H       -3.5910    -4.8960     0.9680 H     1 <1>   0.0800 
 48 H       -2.1630    -5.8070     1.3110 H     1 <1>   0.0800 
 49 H       -1.1860    -5.3580    -0.7450 H     1 <1>   0.0800 
 50 H       -2.8600    -5.5490    -1.1160 H     1 <1>   0.0800 
 51 H        6.5840     2.0370     0.6050 H     1 <1>   0.0800 
 52 H        6.4860     2.7020     2.2040 H     1 <1>   0.0800 
 53 H        5.1710     5.1950    -1.0120 H     1 <1>   0.0800 
 54 H        5.7850     3.6260    -1.4350 H     1 <1>   0.0800 
 55 H        5.5350     4.7680     1.3640 H     1 <1>   0.0800 
 56 H        7.9070     4.6410     1.6000 H     1 <1>   0.0800 
 57 H        6.5890     6.5800     0.4880 H     1 <1>   0.4500 
 58 H        8.1100     3.8580    -1.3160 H     1 <1>   0.0800 
 59 H        8.6220     2.9440     0.0700 H     1 <1>   0.0800 
 60 H        9.4420     4.4110    -0.3200 H     1 <1>   0.0800 
 61 H        6.9750     5.9760    -1.8310 H     1 <1>   0.0800 
 62 H        8.6500     6.3500    -1.5500 H     1 <1>   0.0800 
 63 H        9.4610     6.7850     0.7650 H     1 <1>   0.0800 
 64 H        8.3420     6.7430     2.0990 H     1 <1>   0.0800 
 65 H        6.4940     8.1640    -2.0590 H     1 <1>   0.0800 
 66 H        8.1790     8.5370    -1.8630 H     1 <1>   0.0800 
 67 H        9.0260     8.9950     0.5200 H     1 <1>   0.0800 
 68 H        7.8700     8.9200     1.8130 H     1 <1>   0.0800 
 69 H        5.9250    10.2800    -0.9560 H     1 <1>   0.0800 
 70 H        7.6160    10.6510    -0.6830 H     1 <1>   0.0800 
 71 H        6.4950    10.5920     0.6630 H     1 <1>   0.0800 
@<TRIPOS>BOND
  1   1   2  2   
  2   2   3  am  
  3   2   4  1   
  4   3   5  1   
  5   3  28  1   
  6   4   6  1   
  7   4  29  1   
  8   4  30  1   
  9   5   7  1   
 10   5   8  1   
 11   5  31  1   
 12   6   9  1   
 13   6  32  1   
 14   6  33  1   
 15   7  10  1   
 16   7  34  1   
 17   7  35  1   
 18   8  11  1   
 19   8  36  1   
 20   8  37  1   
 21   9  12  1   
 22   9  13  1   
 23   9  38  1   
 24  10  14  1   
 25  10  39  1   
 26  10  40  1   
 27  11  15  1   
 28  11  41  1   
 29  11  42  1   
 30  12  16  1   
 31  12  43  1   
 32  12  44  1   
 33  13  17  1   
 34  13  45  1   
 35  13  46  1   
 36  14  15  1   
 37  14  47  1   
 38  14  48  1   
 39  15  49  1   
 40  15  50  1   
 41  16  18  1   
 42  16  51  1   
 43  16  52  1   
 44  17  18  1   
 45  17  53  1   
 46  17  54  1   
 47  18  19  1   
 48  18  55  1   
 49  19  20  1   
 50  19  21  1   
 51  19  56  1   
 52  20  22  1   
 53  20  23  1   
 54  20  57  1   
 55  21  58  1   
 56  21  59  1   
 57  21  60  1   
 58  22  24  1   
 59  22  61  1   
 60  22  62  1   
 61  23  25  1   
 62  23  63  1   
 63  23  64  1   
 64  24  26  1   
 65  24  65  1   
 66  24  66  1   
 67  25  26  1   
 68  25  67  1   
 69  25  68  1   
 70  26  27  1   
 71  27  69  1   
 72  27  70  1   
 73  27  71  1   
@<TRIPOS>SUBSTRUCTURE
  1 ****   9 GROUP 4 **** **** 0

# MOE 2024.06 (io_trps.svl 2023.06)
