@<TRIPOS>MOLECULE
NONAME
56 59 1 0 0 
SMALL
USER_CHARGES


@<TRIPOS>ATOM
  1 F       -4.2900    -0.0070    -1.7180 F     1 <1>  -0.1900 
  2 C       -3.4200     0.6390    -0.9880 C.ar  1 <1>   0.1900 
  3 C       -2.6250    -0.0630    -0.0820 C.ar  1 <1>   0.0860 
  4 C       -3.3520     2.0100    -1.1520 C.ar  1 <1>  -0.1500 
  5 C       -2.6810    -1.5010     0.0810 C.2   1 <1>   0.5440 
  6 C       -1.7290     0.6970     0.6700 C.ar  1 <1>  -0.1500 
  7 C       -2.4580     2.7330    -0.3820 C.ar  1 <1>  -0.1500 
  8 O       -1.6770    -2.1410    -0.1530 O.2   1 <1>  -0.5700 
  9 N       -3.8100    -2.1800     0.5140 N.am  1 <1>  -0.6600 
 10 C       -1.6480     2.0720     0.5280 C.ar  1 <1>  -0.1500 
 11 C       -5.1110    -1.5330     0.8360 C.3   1 <1>   0.1400 
 12 C       -3.8280    -3.6720     0.6090 C.3   1 <1>   0.1400 
 13 C       -6.1610    -2.0340    -0.1820 C.3   1 <1>   0.4230 
 14 C       -4.9550    -4.2360    -0.2740 C.3   1 <1>  -0.1600 
 15 N       -7.4940    -1.3460    -0.1190 N.4   1 <1>  -0.9590 
 16 C       -6.3380    -3.5730    -0.0370 C.3   1 <1>   0.0000 
 17 C       -8.3620    -1.7620    -1.2620 C.3   1 <1>   0.3430 
 18 C       -7.4390     0.1340     0.0410 C.3   1 <1>   0.4860 
 19 C       -7.2980    -4.0720    -1.1450 C.3   1 <1>  -0.1600 
 20 C       -6.8500    -4.0160     1.3720 C.3   1 <1>   0.1200 
 21 C       -8.6080    -3.2700    -1.2060 C.3   1 <1>  -0.1600 
 22 C       -8.8350     0.6710     0.2450 C.ar  1 <1>  -0.1440 
 23 O       -7.8660    -3.1980     1.8660 O.3   1 <1>  -0.6800 
 24 C       -9.5660     0.3710     1.3730 C.ar  1 <1>   0.1600 
 25 C       -9.4400     1.4730    -0.6970 C.ar  1 <1>   0.1600 
 26 N      -10.7900     0.7980     1.5410 N.ar  1 <1>  -0.6200 
 27 N      -10.6640     1.9120    -0.5510 N.ar  1 <1>  -0.6200 
 28 C      -11.2750     1.5370     0.5590 C.ar  1 <1>   0.7200 
 29 N      -12.5270     1.9660     0.7120 N.pl3 1 <1>  -0.9000 
 30 H       -3.9790     2.5070    -1.8710 H     1 <1>   0.1500 
 31 H       -1.0810     0.1940     1.3700 H     1 <1>   0.1500 
 32 H       -2.3840     3.8020    -0.4920 H     1 <1>   0.1500 
 33 H       -0.9450     2.6320     1.1230 H     1 <1>   0.1500 
 34 H       -5.3950    -1.7950     1.8390 H     1 <1>   0.0800 
 35 H       -5.0040    -0.4680     0.7900 H     1 <1>   0.0800 
 36 H       -2.8900    -4.0920     0.2860 H     1 <1>   0.0800 
 37 H       -3.9620    -3.9570     1.6370 H     1 <1>   0.0800 
 38 H       -5.7470    -1.8480    -1.1600 H     1 <1>   0.0800 
 39 H       -4.6510    -4.0960    -1.2980 H     1 <1>   0.0800 
 40 H       -5.0210    -5.2990    -0.1140 H     1 <1>   0.0800 
 41 H       -7.9350    -1.7660     0.7240 H     1 <1>   0.4500 
 42 H       -9.3140    -1.2560    -1.2160 H     1 <1>   0.0800 
 43 H       -7.8860    -1.5070    -2.1950 H     1 <1>   0.0800 
 44 H       -6.8430     0.3940     0.9000 H     1 <1>   0.0800 
 45 H       -6.9930     0.5820    -0.8320 H     1 <1>   0.0800 
 46 H       -6.8150    -3.9810    -2.1040 H     1 <1>   0.0800 
 47 H       -7.5230    -5.1160    -1.0050 H     1 <1>   0.0800 
 48 H       -6.0580    -3.9970     2.1000 H     1 <1>   0.0800 
 49 H       -7.2280    -5.0240     1.3270 H     1 <1>   0.0800 
 50 H       -9.2280    -3.4990    -0.3570 H     1 <1>   0.0800 
 51 H       -9.1610    -3.5630    -2.0820 H     1 <1>   0.0800 
 52 H       -8.2600    -3.6070     2.6710 H     1 <1>   0.4000 
 53 H       -9.1470    -0.2390     2.1580 H     1 <1>   0.1500 
 54 H       -8.9200     1.7630    -1.5960 H     1 <1>   0.1500 
 55 H      -12.8050     2.7530     0.1310 H     1 <1>   0.4000 
 56 H      -12.8970     1.9400     1.6580 H     1 <1>   0.4000 
@<TRIPOS>BOND
  1   1   2  1   
  2   2   3  ar  
  3   2   4  ar  
  4   3   5  1   
  5   3   6  ar  
  6   4   7  ar  
  7   4  30  1   
  8   5   8  2   
  9   5   9  am  
 10   6  10  ar  
 11   6  31  1   
 12   7  10  ar  
 13   7  32  1   
 14   9  11  1   
 15   9  12  1   
 16  10  33  1   
 17  11  13  1   
 18  11  34  1   
 19  11  35  1   
 20  12  14  1   
 21  12  36  1   
 22  12  37  1   
 23  13  15  1   
 24  13  16  1   
 25  13  38  1   
 26  14  16  1   
 27  14  39  1   
 28  14  40  1   
 29  15  17  1   
 30  15  18  1   
 31  15  41  1   
 32  16  19  1   
 33  16  20  1   
 34  17  21  1   
 35  17  42  1   
 36  17  43  1   
 37  18  22  1   
 38  18  44  1   
 39  18  45  1   
 40  19  21  1   
 41  19  46  1   
 42  19  47  1   
 43  20  23  1   
 44  20  48  1   
 45  20  49  1   
 46  21  50  1   
 47  21  51  1   
 48  22  24  ar  
 49  22  25  ar  
 50  23  52  1   
 51  24  26  ar  
 52  24  53  1   
 53  25  27  ar  
 54  25  54  1   
 55  26  28  ar  
 56  27  28  ar  
 57  28  29  1   
 58  29  55  1   
 59  29  56  1   
@<TRIPOS>SUBSTRUCTURE
  1 ****  13 GROUP 4 **** **** 0

# MOE 2024.06 (io_trps.svl 2023.06)
