@<TRIPOS>MOLECULE
NONAME
44 45 1 0 0 
SMALL
USER_CHARGES


@<TRIPOS>ATOM
  1 S        0.7140     0.8860    -0.2930 S.o2  1 <1>   1.3330 
  2 O        0.5120    -0.4310    -0.8560 O.2   1 <1>  -0.6500 
  3 O       -0.3950     1.8100    -0.2230 O.2   1 <1>  -0.6500 
  4 N        1.3020     0.6890     1.2890 N.am  1 <1>  -0.8490 
  5 C        2.0820     1.6570    -1.1610 C.3   1 <1>  -0.0550 
  6 C        0.6190    -0.3990     1.9960 C.3   1 <1>   0.1160 
  7 C        1.2320     1.9180     2.0880 C.3   1 <1>   0.1160 
  8 C        3.2830     0.7190    -1.4120 C.3   1 <1>  -0.0800 
  9 C        4.4030     1.3160    -2.2500 C.3   1 <1>   0.2200 
 10 C        4.0240     0.2480    -0.1540 C.3   1 <1>   0.1200 
 11 N        4.7160     2.6910    -1.8010 N.am  1 <1>  -0.7300 
 12 C        5.5560     0.4050    -1.8550 C.3   1 <1>   0.1200 
 13 O        5.3810     0.1750    -0.4890 O.3   1 <1>  -0.5600 
 14 C        4.2650     3.8360    -2.3720 C.2   1 <1>   0.5690 
 15 O        3.5450     3.8110    -3.3390 O.2   1 <1>  -0.5700 
 16 C        4.6460     5.1800    -1.7750 C.3   1 <1>   0.0440 
 17 C        5.2640     5.0660    -0.3780 C.ar  1 <1>  -0.1440 
 18 C        6.6340     5.1220    -0.1650 C.ar  1 <1>   0.1900 
 19 C        4.4810     4.8830     0.7530 C.ar  1 <1>   0.1900 
 20 F        7.4360     5.2760    -1.1850 F     1 <1>  -0.1900 
 21 C        7.2060     5.0100     1.0910 C.ar  1 <1>  -0.1500 
 22 F        3.1830     4.8040     0.6260 F     1 <1>  -0.1900 
 23 C        5.0130     4.7680     2.0270 C.ar  1 <1>  -0.1500 
 24 C        6.3870     4.8320     2.1960 C.ar  1 <1>  -0.1500 
 25 H        1.7260     1.9980    -2.1150 H     1 <1>   0.0800 
 26 H        2.4010     2.5220    -0.6160 H     1 <1>   0.0800 
 27 H        1.0190    -0.5080     2.9900 H     1 <1>   0.0800 
 28 H        0.7650    -1.3290     1.4720 H     1 <1>   0.0800 
 29 H       -0.4380    -0.2000     2.0580 H     1 <1>   0.0800 
 30 H        1.6940     1.7610     3.0480 H     1 <1>   0.0800 
 31 H        0.2070     2.2140     2.2370 H     1 <1>   0.0800 
 32 H        1.7520     2.7170     1.5890 H     1 <1>   0.0800 
 33 H        2.9240    -0.1590    -1.9220 H     1 <1>   0.0800 
 34 H        4.1980     1.2950    -3.3080 H     1 <1>   0.0800 
 35 H        3.6870    -0.7220     0.1710 H     1 <1>   0.0800 
 36 H        3.9280     0.9550     0.6520 H     1 <1>   0.0800 
 37 H        5.2990     2.7270    -0.9600 H     1 <1>   0.3700 
 38 H        6.5200     0.8480    -2.0310 H     1 <1>   0.0800 
 39 H        5.4870    -0.5420    -2.3610 H     1 <1>   0.0800 
 40 H        5.3230     5.6650    -2.4530 H     1 <1>   0.0800 
 41 H        3.7620     5.7880    -1.7280 H     1 <1>   0.0800 
 42 H        8.2750     5.0610     1.2000 H     1 <1>   0.1500 
 43 H        4.3610     4.6300     2.8710 H     1 <1>   0.1500 
 44 H        6.8180     4.7450     3.1800 H     1 <1>   0.1500 
@<TRIPOS>BOND
  1   1   2  2   
  2   1   3  2   
  3   1   4  am  
  4   1   5  1   
  5   4   6  1   
  6   4   7  1   
  7   5   8  1   
  8   5  25  1   
  9   5  26  1   
 10   6  27  1   
 11   6  28  1   
 12   6  29  1   
 13   7  30  1   
 14   7  31  1   
 15   7  32  1   
 16   8   9  1   
 17   8  10  1   
 18   8  33  1   
 19   9  11  1   
 20   9  12  1   
 21   9  34  1   
 22  10  13  1   
 23  10  35  1   
 24  10  36  1   
 25  11  14  am  
 26  11  37  1   
 27  12  13  1   
 28  12  38  1   
 29  12  39  1   
 30  14  15  2   
 31  14  16  1   
 32  16  17  1   
 33  16  40  1   
 34  16  41  1   
 35  17  18  ar  
 36  17  19  ar  
 37  18  20  1   
 38  18  21  ar  
 39  19  22  1   
 40  19  23  ar  
 41  21  24  ar  
 42  21  42  1   
 43  23  24  ar  
 44  23  43  1   
 45  24  44  1   
@<TRIPOS>SUBSTRUCTURE
  1 ****  11 GROUP 4 **** **** 0

# MOE 2024.06 (io_trps.svl 2023.06)
