@<TRIPOS>MOLECULE
NONAME
45 47 1 0 0 
SMALL
USER_CHARGES


@<TRIPOS>ATOM
  1 O       -0.6920     0.4560     1.7300 O.2   1 <1>  -0.5700 
  2 C       -1.6010     1.0420     1.1720 C.2   1 <1>   0.7150 
  3 N       -2.6640     0.3070     0.7040 N.am  1 <1>  -0.6600 
  4 C       -1.5470     2.4630     0.9900 C.2   1 <1>  -0.2370 
  5 C       -3.5970     0.7720    -0.3560 C.3   1 <1>   0.1400 
  6 C       -2.7370    -1.1710     0.8380 C.3   1 <1>   0.1400 
  7 N       -0.4400     3.1410     0.5880 N.pl3 1 <1>   0.3140 
  8 C       -2.5070     3.4150     1.1590 C.2   1 <1>  -0.1500 
  9 C       -4.5280    -0.4150    -0.5970 C.3   1 <1>   0.2000 
 10 C       -3.6470    -1.6340    -0.3060 C.3   1 <1>  -0.0800 
 11 N       -0.6710     4.4600     0.4760 N.2   1 <1>  -0.7070 
 12 C        0.8990     2.5920     0.2660 C.3   1 <1>   0.0960 
 13 C       -1.9080     4.6140     0.8260 C.2   1 <1>   0.1080 
 14 O       -5.5540    -0.3520     0.3330 O.3   1 <1>  -0.6800 
 15 C       -4.4160    -2.9350    -0.0050 C.3   1 <1>   0.0200 
 16 C        0.9000     1.8670    -1.0870 C.3   1 <1>  -0.2400 
 17 C       -2.5710     5.9700     0.8510 C.3   1 <1>  -0.0590 
 18 C       -3.5100    -4.1460     0.1380 C.2   1 <1>  -0.0400 
 19 O       -4.0350    -5.2760     0.5300 O.3   1 <1>  -0.0190 
 20 C       -2.1970    -4.3550    -0.0600 C.2   1 <1>  -0.1500 
 21 N       -3.1480    -6.2260     0.6090 N.2   1 <1>  -0.4100 
 22 C       -2.0310    -5.6990     0.2590 C.2   1 <1>   0.1080 
 23 C       -0.7180    -6.4480     0.2060 C.3   1 <1>  -0.0590 
 24 H       -4.1490     1.6460    -0.0580 H     1 <1>   0.0800 
 25 H       -3.0350     0.9890    -1.2480 H     1 <1>   0.0800 
 26 H       -1.7590    -1.6140     0.7700 H     1 <1>   0.0800 
 27 H       -3.1680    -1.4120     1.7960 H     1 <1>   0.0800 
 28 H       -3.5210     3.2850     1.4900 H     1 <1>   0.1500 
 29 H       -4.9600    -0.4220    -1.5830 H     1 <1>   0.0800 
 30 H       -3.0280    -1.7980    -1.1710 H     1 <1>   0.0800 
 31 H        1.5940     3.4110     0.2370 H     1 <1>   0.0800 
 32 H        1.2020     1.9260     1.0530 H     1 <1>   0.0800 
 33 H       -5.1710    -0.1860     1.2190 H     1 <1>   0.4000 
 34 H       -5.1160    -3.1270    -0.7990 H     1 <1>   0.0800 
 35 H       -4.9810    -2.8260     0.9040 H     1 <1>   0.0800 
 36 H        0.5880     2.5410    -1.8650 H     1 <1>   0.0800 
 37 H        0.2430     1.0170    -1.0610 H     1 <1>   0.0800 
 38 H        1.8930     1.5230    -1.3100 H     1 <1>   0.0800 
 39 H       -3.5930     5.8850     1.1690 H     1 <1>   0.0800 
 40 H       -2.5390     6.4030    -0.1320 H     1 <1>   0.0800 
 41 H       -2.0420     6.6130     1.5310 H     1 <1>   0.0800 
 42 H       -1.4240    -3.6860    -0.3860 H     1 <1>   0.1500 
 43 H       -0.3100    -6.3990    -0.7870 H     1 <1>   0.0800 
 44 H       -0.8730    -7.4790     0.4680 H     1 <1>   0.0800 
 45 H       -0.0220    -6.0130     0.8990 H     1 <1>   0.0800 
@<TRIPOS>BOND
  1   1   2  2   
  2   2   3  am  
  3   2   4  1   
  4   3   5  1   
  5   3   6  1   
  6   4   7  1   
  7   4   8  2   
  8   5   9  1   
  9   5  24  1   
 10   5  25  1   
 11   6  10  1   
 12   6  26  1   
 13   6  27  1   
 14   7  11  1   
 15   7  12  1   
 16   8  13  1   
 17   8  28  1   
 18   9  10  1   
 19   9  14  1   
 20   9  29  1   
 21  10  15  1   
 22  10  30  1   
 23  11  13  2   
 24  12  16  1   
 25  12  31  1   
 26  12  32  1   
 27  13  17  1   
 28  14  33  1   
 29  15  18  1   
 30  15  34  1   
 31  15  35  1   
 32  16  36  1   
 33  16  37  1   
 34  16  38  1   
 35  17  39  1   
 36  17  40  1   
 37  17  41  1   
 38  18  19  1   
 39  18  20  2   
 40  19  21  1   
 41  20  22  1   
 42  20  42  1   
 43  21  22  2   
 44  22  23  1   
 45  23  43  1   
 46  23  44  1   
 47  23  45  1   
@<TRIPOS>SUBSTRUCTURE
  1 ****   3 GROUP 4 **** **** 0

# MOE 2024.06 (io_trps.svl 2023.06)
