@<TRIPOS>MOLECULE
NONAME
40 41 1 0 0 
SMALL
USER_CHARGES


@<TRIPOS>ATOM
  1 N        0.2980     0.7730    -0.0620 N.ar  1 <1>  -0.6200 
  2 C        0.5880     2.0600     0.0730 C.ar  1 <1>   0.7200 
  3 C       -0.9510     0.4850    -0.3280 C.ar  1 <1>   0.1660 
  4 N       -0.2430     3.0900    -0.0570 N.ar  1 <1>  -0.6200 
  5 N        1.8890     2.3890     0.3600 N.pl3 1 <1>  -0.8380 
  6 C       -1.9010     1.4690    -0.4650 C.ar  1 <1>  -0.1500 
  7 C       -1.3040    -0.9790    -0.4770 C.3   1 <1>  -0.0970 
  8 C       -1.4910     2.7720    -0.3180 C.ar  1 <1>   0.1600 
  9 C        2.7060     2.9580    -0.7600 C.3   1 <1>   0.2090 
 10 C        2.6210     1.5160     1.3200 C.3   1 <1>   0.2090 
 11 C        3.0560     4.4330    -0.4810 C.3   1 <1>   0.3430 
 12 C        3.5060     2.3670     2.2260 C.3   1 <1>  -0.2400 
 13 N        1.8560     5.1410     0.0440 N.4   1 <1>  -0.9590 
 14 C        1.0480     5.8600    -0.9600 C.3   1 <1>   0.3430 
 15 C        2.0900     6.0570     1.1730 C.3   1 <1>   0.3430 
 16 C        0.1670     6.7920    -0.1360 C.3   1 <1>  -0.1600 
 17 C        0.8010     6.8610     1.2580 C.3   1 <1>  -0.1600 
 18 H       -2.9270     1.2330    -0.6780 H     1 <1>   0.1500 
 19 H       -0.7260    -1.4100    -1.2740 H     1 <1>   0.0800 
 20 H       -2.3480    -1.1070    -0.6950 H     1 <1>   0.0800 
 21 H       -1.0740    -1.4990     0.4360 H     1 <1>   0.0800 
 22 H       -2.2110     3.5670    -0.4180 H     1 <1>   0.1500 
 23 H        2.1480     2.8970    -1.6790 H     1 <1>   0.0800 
 24 H        3.6090     2.3870    -0.8920 H     1 <1>   0.0800 
 25 H        3.2100     0.7900     0.7840 H     1 <1>   0.0800 
 26 H        1.9150     0.9790     1.9340 H     1 <1>   0.0800 
 27 H        3.4240     4.9090    -1.3740 H     1 <1>   0.0800 
 28 H        3.8370     4.4560     0.2590 H     1 <1>   0.0800 
 29 H        4.3010     2.8250     1.6710 H     1 <1>   0.0800 
 30 H        3.9470     1.7370     2.9780 H     1 <1>   0.0800 
 31 H        2.9160     3.1170     2.7200 H     1 <1>   0.0800 
 32 H        1.2490     4.3600     0.3930 H     1 <1>   0.4500 
 33 H        0.4580     5.1760    -1.5500 H     1 <1>   0.0800 
 34 H        1.6890     6.4400    -1.6030 H     1 <1>   0.0800 
 35 H        2.9150     6.7140     0.9480 H     1 <1>   0.0800 
 36 H        2.2880     5.5190     2.0860 H     1 <1>   0.0800 
 37 H       -0.8290     6.3890    -0.0750 H     1 <1>   0.0800 
 38 H        0.1170     7.7610    -0.6000 H     1 <1>   0.0800 
 39 H        1.0010     7.8740     1.5620 H     1 <1>   0.0800 
 40 H        0.1480     6.4080     1.9840 H     1 <1>   0.0800 
@<TRIPOS>BOND
  1   1   2  ar  
  2   1   3  ar  
  3   2   4  ar  
  4   2   5  1   
  5   3   6  ar  
  6   3   7  1   
  7   4   8  ar  
  8   5   9  1   
  9   5  10  1   
 10   6   8  ar  
 11   6  18  1   
 12   7  19  1   
 13   7  20  1   
 14   7  21  1   
 15   8  22  1   
 16   9  11  1   
 17   9  23  1   
 18   9  24  1   
 19  10  12  1   
 20  10  25  1   
 21  10  26  1   
 22  11  13  1   
 23  11  27  1   
 24  11  28  1   
 25  12  29  1   
 26  12  30  1   
 27  12  31  1   
 28  13  14  1   
 29  13  15  1   
 30  13  32  1   
 31  14  16  1   
 32  14  33  1   
 33  14  34  1   
 34  15  17  1   
 35  15  35  1   
 36  15  36  1   
 37  16  17  1   
 38  16  37  1   
 39  16  38  1   
 40  17  39  1   
 41  17  40  1   
@<TRIPOS>SUBSTRUCTURE
  1 ****   4 GROUP 4 **** **** 0

# MOE 2024.06 (io_trps.svl 2023.06)
