@<TRIPOS>MOLECULE
NONAME
48 51 1 0 0 
SMALL
USER_CHARGES


@<TRIPOS>ATOM
  1 F        1.6990     0.7460     0.4730 F     1 <1>  -0.1900 
  2 C        2.6990    -0.0940     0.4610 C.ar  1 <1>   0.1900 
  3 C        3.7920     0.1830    -0.3500 C.ar  1 <1>  -0.1440 
  4 C        2.6300    -1.2090     1.2720 C.ar  1 <1>  -0.1500 
  5 C        4.8660    -0.7010    -0.3400 C.ar  1 <1>  -0.1500 
  6 C        3.7940     1.4260    -1.2200 C.3   1 <1>   0.4870 
  7 C        3.7150    -2.0620     1.2540 C.ar  1 <1>   0.1900 
  8 C        4.8290    -1.8290     0.4670 C.ar  1 <1>  -0.1500 
  9 N        4.7260     2.4410    -0.6630 N.4   1 <1>  -0.9590 
 10 F        3.6900    -3.1250     2.0090 F     1 <1>  -0.1900 
 11 C        4.4690     2.7920     0.7840 C.3   1 <1>   0.4230 
 12 C        4.9500     3.5790    -1.6140 C.3   1 <1>   0.3430 
 13 C        3.4330     3.9190     0.9820 C.3   1 <1>   0.1200 
 14 C        5.8140     3.0970     1.4950 C.3   1 <1>   0.1400 
 15 C        5.4640     4.8990    -1.0040 C.3   1 <1>  -0.0800 
 16 O        4.0210     5.1840     0.9230 O.3   1 <1>  -0.5600 
 17 N        6.9060     3.5010     0.5450 N.am  1 <1>  -0.6600 
 18 C        4.3260     5.6860    -0.3330 C.3   1 <1>   0.1200 
 19 C        6.7450     4.8140    -0.1380 C.3   1 <1>   0.1400 
 20 C        7.7960     2.5680     0.0670 C.2   1 <1>   0.7160 
 21 O        7.3340     1.4700    -0.1990 O.2   1 <1>  -0.5700 
 22 C        9.1790     2.8910    -0.1970 C.2   1 <1>  -0.0860 
 23 C        9.9300     3.9620     0.2230 C.2   1 <1>  -0.3020 
 24 C       10.0620     2.1130    -0.9750 C.2   1 <1>  -0.1500 
 25 N       11.1910     3.8740    -0.2570 N.pl3 1 <1>   0.0330 
 26 C       11.2660     2.7360    -0.9930 C.2   1 <1>  -0.3020 
 27 H        1.7740    -1.4090     1.8910 H     1 <1>   0.1500 
 28 H        5.7380    -0.5270    -0.9510 H     1 <1>   0.1500 
 29 H        2.7990     1.8350    -1.2800 H     1 <1>   0.0800 
 30 H        4.1060     1.1530    -2.2150 H     1 <1>   0.0800 
 31 H        5.6530    -2.5220     0.4880 H     1 <1>   0.1500 
 32 H        5.6510     1.9670    -0.5950 H     1 <1>   0.4500 
 33 H        4.0610     1.9270     1.2760 H     1 <1>   0.0800 
 34 H        5.6580     3.2580    -2.3610 H     1 <1>   0.0800 
 35 H        4.0260     3.7950    -2.1250 H     1 <1>   0.0800 
 36 H        3.0190     3.8300     1.9710 H     1 <1>   0.0800 
 37 H        2.6240     3.8560     0.2760 H     1 <1>   0.0800 
 38 H        6.1250     2.2080     2.0160 H     1 <1>   0.0800 
 39 H        5.6850     3.8610     2.2430 H     1 <1>   0.0800 
 40 H        5.7330     5.5090    -1.8480 H     1 <1>   0.0800 
 41 H        3.4310     5.6900    -0.9340 H     1 <1>   0.0800 
 42 H        4.6320     6.7080    -0.1890 H     1 <1>   0.0800 
 43 H        6.7470     5.5990     0.6020 H     1 <1>   0.0800 
 44 H        7.5960     4.9810    -0.7760 H     1 <1>   0.0800 
 45 H        9.6140     4.7760     0.8520 H     1 <1>   0.1500 
 46 H        9.7950     1.1860    -1.4540 H     1 <1>   0.1500 
 47 H       11.9610     4.5340    -0.0900 H     1 <1>   0.2700 
 48 H       12.1720     2.4280    -1.4870 H     1 <1>   0.1500 
@<TRIPOS>BOND
  1   1   2  1   
  2   2   3  ar  
  3   2   4  ar  
  4   3   5  ar  
  5   3   6  1   
  6   4   7  ar  
  7   4  27  1   
  8   5   8  ar  
  9   5  28  1   
 10   6   9  1   
 11   6  29  1   
 12   6  30  1   
 13   7   8  ar  
 14   7  10  1   
 15   8  31  1   
 16   9  11  1   
 17   9  12  1   
 18   9  32  1   
 19  11  13  1   
 20  11  14  1   
 21  11  33  1   
 22  12  15  1   
 23  12  34  1   
 24  12  35  1   
 25  13  16  1   
 26  13  36  1   
 27  13  37  1   
 28  14  17  1   
 29  14  38  1   
 30  14  39  1   
 31  15  18  1   
 32  15  19  1   
 33  15  40  1   
 34  16  18  1   
 35  17  19  1   
 36  17  20  am  
 37  18  41  1   
 38  18  42  1   
 39  19  43  1   
 40  19  44  1   
 41  20  21  2   
 42  20  22  1   
 43  22  23  2   
 44  22  24  1   
 45  23  25  1   
 46  23  45  1   
 47  24  26  2   
 48  24  46  1   
 49  25  26  1   
 50  25  47  1   
 51  26  48  1   
@<TRIPOS>SUBSTRUCTURE
  1 ****   9 GROUP 4 **** **** 0

# MOE 2024.06 (io_trps.svl 2023.06)
