@<TRIPOS>MOLECULE
NONAME
54 57 1 0 0 
SMALL
USER_CHARGES


@<TRIPOS>ATOM
  1 O       -2.5480    -0.0320    -2.7180 O.2   1 <1>  -0.5700 
  2 C       -2.1580     0.2880    -1.6120 C.2   1 <1>   0.7160 
  3 N       -1.8230    -0.6940    -0.7340 N.am  1 <1>  -0.7300 
  4 C       -2.1150     1.6680    -1.2010 C.2   1 <1>  -0.0860 
  5 C       -1.9470    -2.1510    -0.9620 C.3   1 <1>   0.2200 
  6 C       -1.4780     2.3400    -0.1920 C.2   1 <1>  -0.3320 
  7 C       -2.8410     2.6710    -1.8440 C.2   1 <1>   0.1390 
  8 C       -3.2120    -2.7080    -0.3140 C.3   1 <1>  -0.0800 
  9 C       -0.8810    -2.8580    -0.1390 C.3   1 <1>   0.1200 
 10 N       -1.8550     3.6350    -0.2740 N.pl3 1 <1>   0.3140 
 11 C       -0.5020     1.8180     0.8570 C.3   1 <1>  -0.0600 
 12 N       -2.7010     3.8340    -1.2970 N.2   1 <1>  -0.7070 
 13 C       -2.7780    -2.9240     1.1430 C.3   1 <1>   0.1200 
 14 C       -4.4760    -1.8350    -0.4780 C.3   1 <1>  -0.0170 
 15 O       -1.3810    -2.8630     1.1630 O.3   1 <1>  -0.5600 
 16 C       -1.4470     4.7630     0.5900 C.3   1 <1>   0.0960 
 17 C       -5.7870    -2.4070     0.0730 C.ar  1 <1>  -0.1440 
 18 C       -0.2090     5.4710     0.0220 C.3   1 <1>  -0.1600 
 19 C       -6.9320    -1.5750     0.1490 C.ar  1 <1>   0.0000 
 20 C       -5.9310    -3.6980     0.4980 C.ar  1 <1>  -0.1500 
 21 C        0.2370     6.6270     0.9240 C.3   1 <1>  -0.2400 
 22 C       -8.1210    -2.1270     0.6860 C.ar  1 <1>   0.3100 
 23 C       -6.9710    -0.2270    -0.2830 C.ar  1 <1>  -0.1500 
 24 C       -7.1560    -4.1470     1.0050 C.ar  1 <1>   0.1600 
 25 N       -8.2160    -3.4120     1.1100 N.ar  1 <1>  -0.6200 
 26 C       -9.2650    -1.3190     0.7870 C.ar  1 <1>  -0.1500 
 27 C       -8.1040     0.5330    -0.1730 C.ar  1 <1>  -0.1500 
 28 C       -9.2660    -0.0160     0.3710 C.ar  1 <1>  -0.1500 
 29 H       -1.6090    -0.4330     0.2290 H     1 <1>   0.3700 
 30 H       -1.8770    -2.3810    -2.0130 H     1 <1>   0.0800 
 31 H       -3.4600     2.4930    -2.7080 H     1 <1>   0.1500 
 32 H       -3.3970    -3.6690    -0.7590 H     1 <1>   0.0800 
 33 H        0.0700    -2.3550    -0.1640 H     1 <1>   0.0800 
 34 H       -0.7660    -3.8800    -0.4550 H     1 <1>   0.0800 
 35 H       -0.1260     0.8480     0.5920 H     1 <1>   0.0800 
 36 H       -0.9870     1.7540     1.8150 H     1 <1>   0.0800 
 37 H        0.3430     2.4770     0.9410 H     1 <1>   0.0800 
 38 H       -3.0860    -3.8840     1.5180 H     1 <1>   0.0800 
 39 H       -3.1490    -2.1470     1.7890 H     1 <1>   0.0800 
 40 H       -4.6150    -1.6290    -1.5260 H     1 <1>   0.0800 
 41 H       -4.2990    -0.8980     0.0180 H     1 <1>   0.0800 
 42 H       -2.2700     5.4530     0.6450 H     1 <1>   0.0800 
 43 H       -1.2490     4.3910     1.5770 H     1 <1>   0.0800 
 44 H        0.5990     4.7670    -0.0770 H     1 <1>   0.0800 
 45 H       -0.4440     5.8560    -0.9570 H     1 <1>   0.0800 
 46 H       -5.1340    -4.4140     0.4650 H     1 <1>   0.1500 
 47 H        0.4950     6.2660     1.9040 H     1 <1>   0.0800 
 48 H       -0.5480     7.3570     1.0170 H     1 <1>   0.0800 
 49 H        1.1010     7.1100     0.5000 H     1 <1>   0.0800 
 50 H       -6.0950     0.2200    -0.7140 H     1 <1>   0.1500 
 51 H       -7.2200    -5.1710     1.3310 H     1 <1>   0.1500 
 52 H      -10.1480    -1.7660     1.2060 H     1 <1>   0.1500 
 53 H       -8.1140     1.5570    -0.5050 H     1 <1>   0.1500 
 54 H      -10.1500     0.5920     0.4540 H     1 <1>   0.1500 
@<TRIPOS>BOND
  1   1   2  2   
  2   2   3  am  
  3   2   4  1   
  4   3   5  1   
  5   3  29  1   
  6   4   6  2   
  7   4   7  1   
  8   5   8  1   
  9   5   9  1   
 10   5  30  1   
 11   6  10  1   
 12   6  11  1   
 13   7  12  2   
 14   7  31  1   
 15   8  13  1   
 16   8  14  1   
 17   8  32  1   
 18   9  15  1   
 19   9  33  1   
 20   9  34  1   
 21  10  12  1   
 22  10  16  1   
 23  11  35  1   
 24  11  36  1   
 25  11  37  1   
 26  13  15  1   
 27  13  38  1   
 28  13  39  1   
 29  14  17  1   
 30  14  40  1   
 31  14  41  1   
 32  16  18  1   
 33  16  42  1   
 34  16  43  1   
 35  17  19  ar  
 36  17  20  ar  
 37  18  21  1   
 38  18  44  1   
 39  18  45  1   
 40  19  22  ar  
 41  19  23  ar  
 42  20  24  ar  
 43  20  46  1   
 44  21  47  1   
 45  21  48  1   
 46  21  49  1   
 47  22  25  ar  
 48  22  26  ar  
 49  23  27  ar  
 50  23  50  1   
 51  24  25  ar  
 52  24  51  1   
 53  26  28  ar  
 54  26  52  1   
 55  27  28  ar  
 56  27  53  1   
 57  28  54  1   
@<TRIPOS>SUBSTRUCTURE
  1 ****  14 GROUP 4 **** **** 0

# MOE 2024.06 (io_trps.svl 2023.06)
