@<TRIPOS>MOLECULE
NONAME
46 49 1 0 0 
SMALL
USER_CHARGES


@<TRIPOS>ATOM
  1 O       -1.6560    -2.2030    -0.4150 O.2   1 <1>  -0.5700 
  2 C       -0.4630    -2.3680    -0.5270 C.2   1 <1>   0.6900 
  3 N        0.3860    -2.6870     0.4840 N.am  1 <1>  -0.6600 
  4 N        0.1890    -2.3050    -1.7060 N.am  1 <1>  -0.4900 
  5 C        1.7380    -2.9550    -0.0950 C.3   1 <1>   0.2010 
  6 C       -0.0220    -3.2750     1.7970 C.3   1 <1>   0.2010 
  7 C        1.4870    -2.6430    -1.5620 C.2   1 <1>   0.5690 
  8 C       -0.2320    -4.7920     1.7210 C.2   1 <1>   0.5690 
  9 O        2.3000    -2.6900    -2.4480 O.2   1 <1>  -0.5700 
 10 O        0.7640    -5.4760     1.7900 O.2   1 <1>  -0.5700 
 11 N       -1.4730    -5.3610     1.5570 N.am  1 <1>  -0.6600 
 12 C       -1.6320    -6.8370     1.3570 C.3   1 <1>   0.1400 
 13 C       -2.7720    -4.6340     1.3780 C.3   1 <1>   0.1400 
 14 C       -2.3600    -7.1350     0.0330 C.3   1 <1>   0.3430 
 15 C       -3.4620    -5.0480     0.0610 C.3   1 <1>   0.2950 
 16 O       -3.5790    -6.4410    -0.0140 O.3   1 <1>  -0.5600 
 17 C       -2.6160    -8.6330    -0.1130 C.ar  1 <1>  -0.1440 
 18 C       -4.8770    -4.4710    -0.0370 C.3   1 <1>  -0.1950 
 19 C       -1.6720    -9.4300    -0.7450 C.ar  1 <1>  -0.1500 
 20 C       -3.7680    -9.2240     0.3870 C.ar  1 <1>  -0.1500 
 21 C       -5.5550    -4.3050    -1.3600 C.3   1 <1>  -0.2000 
 22 C       -5.1180    -3.0970    -0.5800 C.3   1 <1>  -0.2000 
 23 C       -1.8750   -10.7930    -0.8750 C.ar  1 <1>  -0.1500 
 24 C       -3.9740   -10.5870     0.2590 C.ar  1 <1>  -0.1500 
 25 C       -3.0260   -11.3730    -0.3730 C.ar  1 <1>  -0.1500 
 26 H       -0.2590    -2.0700    -2.5840 H     1 <1>   0.3700 
 27 H        2.4760    -2.2930     0.3200 H     1 <1>   0.0800 
 28 H        2.0250    -3.9840     0.0300 H     1 <1>   0.0800 
 29 H        0.7540    -3.0820     2.5160 H     1 <1>   0.0800 
 30 H       -0.9090    -2.7870     2.1510 H     1 <1>   0.0800 
 31 H       -0.6760    -7.3300     1.3470 H     1 <1>   0.0800 
 32 H       -2.2010    -7.2490     2.1720 H     1 <1>   0.0800 
 33 H       -3.4230    -4.8760     2.1990 H     1 <1>   0.0800 
 34 H       -2.6390    -3.5710     1.3750 H     1 <1>   0.0800 
 35 H       -1.7570    -6.7990    -0.7930 H     1 <1>   0.0800 
 36 H       -2.8770    -4.7120    -0.7780 H     1 <1>   0.0800 
 37 H       -5.4940    -4.7820     0.7890 H     1 <1>   0.1000 
 38 H       -0.7710    -8.9950    -1.1410 H     1 <1>   0.1500 
 39 H       -4.5140    -8.6210     0.8770 H     1 <1>   0.1500 
 40 H       -5.0170    -4.5750    -2.2520 H     1 <1>   0.1000 
 41 H       -6.6050    -4.5340    -1.4280 H     1 <1>   0.1000 
 42 H       -5.8700    -2.4810    -0.1190 H     1 <1>   0.1000 
 43 H       -4.2870    -2.5220    -0.9520 H     1 <1>   0.1000 
 44 H       -1.1380   -11.4030    -1.3670 H     1 <1>   0.1500 
 45 H       -4.8710   -11.0330     0.6490 H     1 <1>   0.1500 
 46 H       -3.1850   -12.4320    -0.4730 H     1 <1>   0.1500 
@<TRIPOS>BOND
  1   1   2  2   
  2   2   3  am  
  3   2   4  am  
  4   3   5  1   
  5   3   6  1   
  6   4   7  am  
  7   4  26  1   
  8   5   7  1   
  9   5  27  1   
 10   5  28  1   
 11   6   8  1   
 12   6  29  1   
 13   6  30  1   
 14   7   9  2   
 15   8  10  2   
 16   8  11  am  
 17  11  12  1   
 18  11  13  1   
 19  12  14  1   
 20  12  31  1   
 21  12  32  1   
 22  13  15  1   
 23  13  33  1   
 24  13  34  1   
 25  14  16  1   
 26  14  17  1   
 27  14  35  1   
 28  15  16  1   
 29  15  18  1   
 30  15  36  1   
 31  17  19  ar  
 32  17  20  ar  
 33  18  21  1   
 34  18  22  1   
 35  18  37  1   
 36  19  23  ar  
 37  19  38  1   
 38  20  24  ar  
 39  20  39  1   
 40  21  22  1   
 41  21  40  1   
 42  21  41  1   
 43  22  42  1   
 44  22  43  1   
 45  23  25  ar  
 46  23  44  1   
 47  24  25  ar  
 48  24  45  1   
 49  25  46  1   
@<TRIPOS>SUBSTRUCTURE
  1 ****  11 GROUP 4 **** **** 0

# MOE 2024.06 (io_trps.svl 2023.06)
