@<TRIPOS>MOLECULE
NONAME
52 54 1 0 0 
SMALL
USER_CHARGES


@<TRIPOS>ATOM
  1 O        0.4780    -1.7300    -1.8650 O.co2 1 <1>  -0.9000 
  2 C       -0.3200    -2.6770    -1.7980 C.2   1 <1>   0.9790 
  3 O       -0.2740    -3.5840    -2.6510 O.co2 1 <1>  -0.9000 
  4 C       -1.3340    -2.7370    -0.7540 C.ar  1 <1>  -0.1790 
  5 C       -2.0920    -3.8910    -0.5910 C.ar  1 <1>  -0.1500 
  6 C       -1.6080    -1.6700     0.0990 C.ar  1 <1>  -0.1500 
  7 C       -3.1240    -3.9730     0.3270 C.ar  1 <1>  -0.1440 
  8 C       -2.6100    -1.7480     1.0500 C.ar  1 <1>  -0.1500 
  9 C       -3.3750    -2.8960     1.1640 C.ar  1 <1>  -0.1500 
 10 C       -3.9640    -5.2280     0.3620 C.3   1 <1>   0.4870 
 11 N       -4.4170    -5.4570    -1.0410 N.4   1 <1>  -0.9590 
 12 C       -5.8420    -5.1760    -1.3580 C.3   1 <1>   0.4230 
 13 C       -3.9640    -6.7860    -1.5500 C.3   1 <1>   0.2630 
 14 C       -6.2550    -3.7320    -1.0810 C.3   1 <1>  -0.1600 
 15 C       -6.8440    -6.0150    -0.5650 C.3   1 <1>  -0.1600 
 16 C       -7.7890    -3.7840    -1.0150 C.3   1 <1>  -0.0800 
 17 C       -8.1620    -5.2290    -0.6680 C.3   1 <1>  -0.0800 
 18 C       -8.4370    -2.9070     0.0690 C.3   1 <1>  -0.1600 
 19 C       -8.9950    -5.1470     0.6210 C.3   1 <1>  -0.1600 
 20 C       -9.5960    -3.7350     0.6380 C.3   1 <1>   0.4230 
 21 N      -10.8050    -3.6500    -0.2450 N.4   1 <1>  -0.9590 
 22 C      -11.3510    -2.2560    -0.3410 C.3   1 <1>   0.2630 
 23 C      -11.9170    -4.5500     0.2070 C.3   1 <1>   0.2630 
 24 H       -1.8430    -4.7260    -1.2250 H     1 <1>   0.1500 
 25 H       -1.0170    -0.7730     0.0000 H     1 <1>   0.1500 
 26 H       -2.7900    -0.9070     1.6970 H     1 <1>   0.1500 
 27 H       -4.1550    -2.9320     1.9040 H     1 <1>   0.1500 
 28 H       -4.8020    -5.0980     1.0250 H     1 <1>   0.0800 
 29 H       -3.3610    -6.0500     0.7090 H     1 <1>   0.0800 
 30 H       -3.8700    -4.7440    -1.5600 H     1 <1>   0.4500 
 31 H       -6.0090    -5.3630    -2.4070 H     1 <1>   0.0800 
 32 H       -4.4650    -7.5820    -1.0240 H     1 <1>   0.0800 
 33 H       -2.8990    -6.8940    -1.4120 H     1 <1>   0.0800 
 34 H       -4.1770    -6.8750    -2.6030 H     1 <1>   0.0800 
 35 H       -5.8600    -3.3950    -0.1420 H     1 <1>   0.0800 
 36 H       -5.9190    -3.0720    -1.8620 H     1 <1>   0.0800 
 37 H       -6.9520    -6.9990    -0.9870 H     1 <1>   0.0800 
 38 H       -6.5420    -6.1010     0.4620 H     1 <1>   0.0800 
 39 H       -8.2000    -3.5400    -1.9820 H     1 <1>   0.0800 
 40 H       -8.7630    -5.6340    -1.4670 H     1 <1>   0.0800 
 41 H       -8.7150    -1.9390    -0.3030 H     1 <1>   0.0800 
 42 H       -7.7390    -2.7480     0.8720 H     1 <1>   0.0800 
 43 H       -8.3460    -5.2230     1.4770 H     1 <1>   0.0800 
 44 H       -9.7120    -5.9430     0.6970 H     1 <1>   0.0800 
 45 H       -9.8460    -3.4260     1.6410 H     1 <1>   0.0800 
 46 H      -10.5120    -3.9460    -1.1870 H     1 <1>   0.4500 
 47 H      -11.5980    -1.8820     0.6400 H     1 <1>   0.0800 
 48 H      -12.2440    -2.2460    -0.9460 H     1 <1>   0.0800 
 49 H      -10.6340    -1.5920    -0.7940 H     1 <1>   0.0800 
 50 H      -12.1990    -4.3190     1.2210 H     1 <1>   0.0800 
 51 H      -11.6190    -5.5840     0.1580 H     1 <1>   0.0800 
 52 H      -12.7810    -4.4220    -0.4260 H     1 <1>   0.0800 
@<TRIPOS>BOND
  1   1   2  ar  
  2   2   3  ar  
  3   2   4  1   
  4   4   5  ar  
  5   4   6  ar  
  6   5   7  ar  
  7   5  24  1   
  8   6   8  ar  
  9   6  25  1   
 10   7   9  ar  
 11   7  10  1   
 12   8   9  ar  
 13   8  26  1   
 14   9  27  1   
 15  10  11  1   
 16  10  28  1   
 17  10  29  1   
 18  11  12  1   
 19  11  13  1   
 20  11  30  1   
 21  12  14  1   
 22  12  15  1   
 23  12  31  1   
 24  13  32  1   
 25  13  33  1   
 26  13  34  1   
 27  14  16  1   
 28  14  35  1   
 29  14  36  1   
 30  15  17  1   
 31  15  37  1   
 32  15  38  1   
 33  16  17  1   
 34  16  18  1   
 35  16  39  1   
 36  17  19  1   
 37  17  40  1   
 38  18  20  1   
 39  18  41  1   
 40  18  42  1   
 41  19  20  1   
 42  19  43  1   
 43  19  44  1   
 44  20  21  1   
 45  20  45  1   
 46  21  22  1   
 47  21  23  1   
 48  21  46  1   
 49  22  47  1   
 50  22  48  1   
 51  22  49  1   
 52  23  50  1   
 53  23  51  1   
 54  23  52  1   
@<TRIPOS>SUBSTRUCTURE
  1 ****  14 GROUP 4 **** **** 0

# MOE 2024.06 (io_trps.svl 2023.06)
