@<TRIPOS>MOLECULE
Untitled Document
31 32 1 0 0 
SMALL
USER_CHARGES


@<TRIPOS>ATOM
  1 O       -0.8760    -0.6000     1.5810 O.2   1 <1>  -0.5700 
  2 C       -0.8280    -1.5170     0.8000 C.2   1 <1>   0.6590 
  3 O        0.2910    -2.2130     0.6070 O.3   1 <1>  -0.4300 
  4 C       -2.0450    -1.9780    -0.0280 C.3   1 <1>   0.2610 
  5 C        1.4840    -1.9060     1.3010 C.3   1 <1>   0.0400 
  6 O       -1.6820    -2.2820    -1.3460 O.3   1 <1>  -0.6800 
  7 C       -3.1880    -0.9510    -0.0820 C.3   1 <1>  -0.1600 
  8 C       -4.3620    -1.4290    -0.9490 C.3   1 <1>   0.0960 
  9 N       -5.4920    -0.4870    -0.8560 N.pl3 1 <1>   0.0480 
 10 C       -6.4440    -0.4650     0.1030 C.ar  1 <1>   0.1050 
 11 C       -5.8220     0.5250    -1.7050 C.2   1 <1>   0.0360 
 12 N       -6.5850    -1.2450     1.1840 N.ar  1 <1>  -0.5670 
 13 C       -7.2990     0.5550    -0.2210 C.ar  1 <1>   0.2270 
 14 N       -6.8860     1.1760    -1.3740 N.2   1 <1>  -0.5650 
 15 C       -7.6310    -0.9410     1.9190 C.ar  1 <1>   0.4700 
 16 C       -8.3800     0.7600     0.6540 C.ar  1 <1>   0.4100 
 17 N       -8.5450     0.0220     1.7260 N.ar  1 <1>  -0.6200 
 18 N       -9.3120     1.7320     0.4530 N.pl3 1 <1>  -0.9000 
 19 H       -2.4090    -2.8890     0.4140 H     1 <1>   0.0800 
 20 H        2.2510    -2.5900     0.9840 H     1 <1>   0.0800 
 21 H        1.3090    -2.0090     2.3580 H     1 <1>   0.0800 
 22 H        1.7710    -0.8940     1.0710 H     1 <1>   0.0800 
 23 H       -0.8210    -2.7500    -1.3450 H     1 <1>   0.4000 
 24 H       -2.8060    -0.0190    -0.4620 H     1 <1>   0.0800 
 25 H       -3.5360    -0.7820     0.9230 H     1 <1>   0.0800 
 26 H       -4.6980    -2.3950    -0.6150 H     1 <1>   0.0800 
 27 H       -4.0600    -1.5100    -1.9780 H     1 <1>   0.0800 
 28 H       -5.2250     0.7430    -2.5750 H     1 <1>   0.1500 
 29 H       -7.7830    -1.5400     2.8010 H     1 <1>   0.1500 
 30 H       -9.9500     1.9600     1.2150 H     1 <1>   0.4000 
 31 H       -9.1370     2.4500    -0.2530 H     1 <1>   0.4000 
@<TRIPOS>BOND
  1   1   2  2   
  2   2   3  1   
  3   2   4  1   
  4   3   5  1   
  5   4   6  1   
  6   4   7  1   
  7   4  19  1   
  8   5  20  1   
  9   5  21  1   
 10   5  22  1   
 11   6  23  1   
 12   7   8  1   
 13   7  24  1   
 14   7  25  1   
 15   8   9  1   
 16   8  26  1   
 17   8  27  1   
 18   9  10  1   
 19   9  11  1   
 20  10  12  ar  
 21  10  13  ar  
 22  11  14  2   
 23  11  28  1   
 24  12  15  ar  
 25  13  14  1   
 26  13  16  ar  
 27  15  17  ar  
 28  15  29  1   
 29  16  17  ar  
 30  16  18  1   
 31  18  30  1   
 32  18  31  1   
@<TRIPOS>SUBSTRUCTURE
  1 ****   9 GROUP 4 **** **** 0

# MOE 2024.06 (io_trps.svl 2023.06)
