@<TRIPOS>MOLECULE
NONAME
47 50 1 0 0 
SMALL
USER_CHARGES


@<TRIPOS>ATOM
  1 O       -1.2070    -0.9720     0.1150 O.2   1 <1>  -0.5700 
  2 C       -2.2880    -0.5320    -0.2300 C.2   1 <1>   0.5440 
  3 N       -2.3220     0.4830    -1.1640 N.am  1 <1>  -0.6600 
  4 C       -3.4880    -1.1010     0.3370 C.ar  1 <1>   0.0860 
  5 C       -1.1020     1.2750    -1.5110 C.3   1 <1>   0.1400 
  6 C       -3.4440     0.6890    -2.1300 C.3   1 <1>   0.1400 
  7 C       -3.5810    -2.4740     0.5490 C.ar  1 <1>   0.1600 
  8 C       -4.5930    -0.3370     0.7040 C.ar  1 <1>  -0.1500 
  9 C       -0.7390     1.0900    -2.9920 C.3   1 <1>   0.1200 
 10 C       -2.9450     0.5500    -3.5790 C.3   1 <1>   0.1200 
 11 N       -4.6310    -3.1180     1.0300 N.ar  1 <1>  -0.6200 
 12 C       -5.6890    -0.9880     1.2160 C.ar  1 <1>  -0.1500 
 13 O       -1.8410     1.3790    -3.8070 O.3   1 <1>  -0.5600 
 14 C       -5.6760    -2.3720     1.3620 C.ar  1 <1>   0.4100 
 15 N       -6.7850    -3.0180     1.8400 N.pl3 1 <1>  -0.8690 
 16 C       -6.8140    -4.3970     2.4120 C.3   1 <1>   0.2090 
 17 C       -7.8090    -5.2900     1.6570 C.3   1 <1>   0.0200 
 18 C       -7.3810    -5.6580     0.2450 C.2   1 <1>   0.0060 
 19 N       -7.9300    -6.6000    -0.4400 N.2   1 <1>  -0.5650 
 20 N       -6.3780    -5.0210    -0.4090 N.pl3 1 <1>   0.0330 
 21 C       -7.2540    -6.5940    -1.6250 C.ar  1 <1>   0.2270 
 22 C       -6.2800    -5.6140    -1.6220 C.ar  1 <1>  -0.1520 
 23 C       -7.4210    -7.4000    -2.7500 C.ar  1 <1>  -0.1500 
 24 C       -5.4460    -5.4110    -2.7240 C.ar  1 <1>  -0.1500 
 25 C       -6.6060    -7.2080    -3.8450 C.ar  1 <1>  -0.1500 
 26 C       -5.6190    -6.2140    -3.8310 C.ar  1 <1>  -0.1500 
 27 H       -0.2670     0.9810    -0.9000 H     1 <1>   0.0800 
 28 H       -1.2930     2.3170    -1.3230 H     1 <1>   0.0800 
 29 H       -3.8540     1.6740    -1.9910 H     1 <1>   0.0800 
 30 H       -4.2270    -0.0290    -1.9640 H     1 <1>   0.0800 
 31 H       -2.7200    -3.0720     0.2960 H     1 <1>   0.1500 
 32 H       -4.5760     0.7330     0.5900 H     1 <1>   0.1500 
 33 H       -0.4230     0.0790    -3.1790 H     1 <1>   0.0800 
 34 H        0.0570     1.7590    -3.2660 H     1 <1>   0.0800 
 35 H       -3.7190     0.8390    -4.2680 H     1 <1>   0.0800 
 36 H       -2.6600    -0.4670    -3.7860 H     1 <1>   0.0800 
 37 H       -6.5630    -0.4380     1.5080 H     1 <1>   0.1500 
 38 H       -7.5980    -2.4440     2.0750 H     1 <1>   0.4000 
 39 H       -7.1110    -4.3320     3.4440 H     1 <1>   0.0800 
 40 H       -5.8350    -4.8450     2.3850 H     1 <1>   0.0800 
 41 H       -8.7690    -4.8080     1.6190 H     1 <1>   0.0800 
 42 H       -7.9310    -6.2050     2.2070 H     1 <1>   0.0800 
 43 H       -5.8110    -4.2520    -0.0240 H     1 <1>   0.2700 
 44 H       -8.1850    -8.1540    -2.7310 H     1 <1>   0.1500 
 45 H       -4.6920    -4.6450    -2.6960 H     1 <1>   0.1500 
 46 H       -6.7230    -7.8220    -4.7200 H     1 <1>   0.1500 
 47 H       -4.9940    -6.0850    -4.6970 H     1 <1>   0.1500 
@<TRIPOS>BOND
  1   1   2  2   
  2   2   3  am  
  3   2   4  1   
  4   3   5  1   
  5   3   6  1   
  6   4   7  ar  
  7   4   8  ar  
  8   5   9  1   
  9   5  27  1   
 10   5  28  1   
 11   6  10  1   
 12   6  29  1   
 13   6  30  1   
 14   7  11  ar  
 15   7  31  1   
 16   8  12  ar  
 17   8  32  1   
 18   9  13  1   
 19   9  33  1   
 20   9  34  1   
 21  10  13  1   
 22  10  35  1   
 23  10  36  1   
 24  11  14  ar  
 25  12  14  ar  
 26  12  37  1   
 27  14  15  1   
 28  15  16  1   
 29  15  38  1   
 30  16  17  1   
 31  16  39  1   
 32  16  40  1   
 33  17  18  1   
 34  17  41  1   
 35  17  42  1   
 36  18  19  2   
 37  18  20  1   
 38  19  21  1   
 39  20  22  1   
 40  20  43  1   
 41  21  22  ar  
 42  21  23  ar  
 43  22  24  ar  
 44  23  25  ar  
 45  23  44  1   
 46  24  26  ar  
 47  24  45  1   
 48  25  26  ar  
 49  25  46  1   
 50  26  47  1   
@<TRIPOS>SUBSTRUCTURE
  1 ****  11 GROUP 4 **** **** 0

# MOE 2024.06 (io_trps.svl 2023.06)
