@<TRIPOS>MOLECULE
NONAME
41 42 1 0 0 
SMALL
USER_CHARGES


@<TRIPOS>ATOM
  1 CL      -4.4300     0.7010    -3.1590 Cl    1 <1>  -0.1230 
  2 C       -3.6870     0.6750    -1.5680 C.2   1 <1>   0.1230 
  3 C       -3.6720    -0.3830    -0.6530 C.2   1 <1>   0.2030 
  4 C       -3.0190     1.6970    -1.0110 C.2   1 <1>  -0.3020 
  5 N       -3.0070    -0.0010     0.4330 N.2   1 <1>  -0.7070 
  6 C       -4.2800    -1.6890    -0.8400 C.2   1 <1>   0.7160 
  7 N       -2.6180     1.2620     0.1980 N.pl3 1 <1>   0.3140 
  8 O       -4.9230    -1.9900    -1.8310 O.2   1 <1>  -0.5700 
  9 N       -4.1570    -2.6280     0.1430 N.am  1 <1>  -0.7300 
 10 C       -1.8470     2.0340     1.1810 C.3   1 <1>   0.0160 
 11 C       -4.7300    -3.9920     0.1170 C.3   1 <1>   0.2200 
 12 C       -6.1900    -3.9410     0.5760 C.3   1 <1>  -0.0800 
 13 C       -4.0640    -4.8810     1.1650 C.3   1 <1>   0.1200 
 14 C       -6.2010    -4.7770     1.8610 C.3   1 <1>   0.1200 
 15 C       -7.1970    -4.3400    -0.5270 C.3   1 <1>  -0.0550 
 16 O       -4.8800    -4.7960     2.2890 O.3   1 <1>  -0.5600 
 17 S       -7.2070    -6.0580    -1.0670 S.o2  1 <1>   1.3330 
 18 O       -5.8600    -6.5820    -1.0080 O.2   1 <1>  -0.6500 
 19 O       -7.9570    -6.1610    -2.2990 O.2   1 <1>  -0.6500 
 20 N       -8.1240    -6.8450     0.1290 N.am  1 <1>  -0.8490 
 21 C       -7.7480    -8.2550     0.2780 C.3   1 <1>   0.1160 
 22 C       -9.5730    -6.7410    -0.0830 C.3   1 <1>   0.1160 
 23 H       -2.8140     2.6770    -1.3970 H     1 <1>   0.1500 
 24 H       -3.7180    -2.3240     1.0170 H     1 <1>   0.3700 
 25 H       -2.3910     2.9230     1.4390 H     1 <1>   0.0800 
 26 H       -0.8960     2.2950     0.7570 H     1 <1>   0.0800 
 27 H       -1.6970     1.4350     2.0610 H     1 <1>   0.0800 
 28 H       -4.6060    -4.4120    -0.8670 H     1 <1>   0.0800 
 29 H       -6.4290    -2.9320     0.8640 H     1 <1>   0.0800 
 30 H       -3.0660    -4.5650     1.4150 H     1 <1>   0.0800 
 31 H       -4.0560    -5.9070     0.8400 H     1 <1>   0.0800 
 32 H       -6.4930    -5.7970     1.6970 H     1 <1>   0.0800 
 33 H       -6.8130    -4.3410     2.6310 H     1 <1>   0.0800 
 34 H       -6.9870    -3.7260    -1.3820 H     1 <1>   0.0800 
 35 H       -8.1830    -4.0780    -0.1990 H     1 <1>   0.0800 
 36 H       -8.3410    -8.7210     1.0470 H     1 <1>   0.0800 
 37 H       -6.7120    -8.3330     0.5610 H     1 <1>   0.0800 
 38 H       -7.8930    -8.7810    -0.6510 H     1 <1>   0.0800 
 39 H      -10.1000    -7.1710     0.7510 H     1 <1>   0.0800 
 40 H       -9.8610    -7.2590    -0.9830 H     1 <1>   0.0800 
 41 H       -9.8640    -5.7090    -0.1730 H     1 <1>   0.0800 
@<TRIPOS>BOND
  1   1   2  1   
  2   2   3  1   
  3   2   4  2   
  4   3   5  2   
  5   3   6  1   
  6   4   7  1   
  7   4  23  1   
  8   5   7  1   
  9   6   8  2   
 10   6   9  am  
 11   7  10  1   
 12   9  11  1   
 13   9  24  1   
 14  10  25  1   
 15  10  26  1   
 16  10  27  1   
 17  11  12  1   
 18  11  13  1   
 19  11  28  1   
 20  12  14  1   
 21  12  15  1   
 22  12  29  1   
 23  13  16  1   
 24  13  30  1   
 25  13  31  1   
 26  14  16  1   
 27  14  32  1   
 28  14  33  1   
 29  15  17  1   
 30  15  34  1   
 31  15  35  1   
 32  17  18  2   
 33  17  19  2   
 34  17  20  am  
 35  20  21  1   
 36  20  22  1   
 37  21  36  1   
 38  21  37  1   
 39  21  38  1   
 40  22  39  1   
 41  22  40  1   
 42  22  41  1   
@<TRIPOS>SUBSTRUCTURE
  1 ****  11 GROUP 4 **** **** 0

# MOE 2024.06 (io_trps.svl 2023.06)
