@<TRIPOS>MOLECULE
NONAME
58 61 1 0 0 
SMALL
USER_CHARGES


@<TRIPOS>ATOM
  1 F       -0.4430     0.5450     0.3200 F     1 <1>  -0.3400 
  2 C       -0.4550     1.8640     0.1670 C.3   1 <1>   1.1640 
  3 F       -1.4290     2.3210     0.9450 F     1 <1>  -0.3400 
  4 F       -0.8450     2.0860    -1.0830 F     1 <1>  -0.3400 
  5 C        0.8940     2.5240     0.4910 C.ar  1 <1>  -0.1440 
  6 C        1.1990     3.7820    -0.0210 C.ar  1 <1>  -0.1500 
  7 C        1.8300     1.8910     1.3020 C.ar  1 <1>  -0.1500 
  8 C        2.4080     4.3960     0.2630 C.ar  1 <1>  -0.1440 
  9 C        3.0390     2.4990     1.5880 C.ar  1 <1>  -0.1500 
 10 C        3.3280     3.7480     1.0700 C.ar  1 <1>  -0.1500 
 11 C        2.7290     5.7730    -0.2960 C.3   1 <1>  -0.0160 
 12 C        2.3880     6.8490     0.7340 C.3   1 <1>   0.1400 
 13 N        2.7030     8.1950     0.1920 N.am  1 <1>  -0.7300 
 14 C        3.8960     8.8250     0.3640 C.2   1 <1>   0.5690 
 15 O        4.8070     8.2900     0.9480 O.2   1 <1>  -0.5700 
 16 C        4.1380    10.2180    -0.2340 C.3   1 <1>   0.0610 
 17 C        5.0940    11.0360     0.6750 C.3   1 <1>   0.4230 
 18 C        2.8900    11.1520    -0.2490 C.3   1 <1>  -0.1600 
 19 C        4.7080     9.9850    -1.6670 C.3   1 <1>  -0.1600 
 20 N        4.7600    12.4020     0.2470 N.4   1 <1>  -0.9590 
 21 C        4.6120    11.0910     2.1430 C.3   1 <1>  -0.1600 
 22 C        3.3380    12.3690     0.5730 C.3   1 <1>   0.4230 
 23 C        5.1800    11.1980    -2.4920 C.3   1 <1>  -0.2400 
 24 C        5.5440    13.5500     0.7760 C.3   1 <1>   0.5240 
 25 C        3.3620    11.9810     2.0570 C.3   1 <1>  -0.1600 
 26 C        5.1990    14.7540    -0.0910 C.2   1 <1>   0.0460 
 27 N        5.0280    14.6000    -1.4230 N.2   1 <1>  -0.5650 
 28 C        5.0100    16.0430     0.2710 C.2   1 <1>  -0.3020 
 29 C        4.7520    15.7940    -1.8400 C.2   1 <1>   0.0360 
 30 N        4.7250    16.7200    -0.8580 N.pl3 1 <1>   0.0330 
 31 H        0.4840     4.2900    -0.6480 H     1 <1>   0.1500 
 32 H        1.6270     0.9190     1.7200 H     1 <1>   0.1500 
 33 H        3.7580     2.0010     2.2160 H     1 <1>   0.1500 
 34 H        4.2720     4.2120     1.2990 H     1 <1>   0.1500 
 35 H        2.1690     5.9380    -1.1990 H     1 <1>   0.0800 
 36 H        3.7770     5.8240    -0.5330 H     1 <1>   0.0800 
 37 H        2.9600     6.6770     1.6320 H     1 <1>   0.0800 
 38 H        1.3430     6.7980     0.9890 H     1 <1>   0.0800 
 39 H        1.9850     8.5980    -0.4130 H     1 <1>   0.3700 
 40 H        6.1320    10.7670     0.5570 H     1 <1>   0.0800 
 41 H        2.0170    10.7080     0.1940 H     1 <1>   0.0800 
 42 H        2.6280    11.4620    -1.2450 H     1 <1>   0.0800 
 43 H        5.5440     9.3080    -1.5890 H     1 <1>   0.0800 
 44 H        3.9590     9.4690    -2.2450 H     1 <1>   0.0800 
 45 H        4.8400    12.5030    -0.7780 H     1 <1>   0.4500 
 46 H        4.3910    10.1290     2.5670 H     1 <1>   0.0800 
 47 H        5.3670    11.5460     2.7600 H     1 <1>   0.0800 
 48 H        2.8060    13.2810     0.3480 H     1 <1>   0.0800 
 49 H        6.0360    11.6710    -2.0450 H     1 <1>   0.0800 
 50 H        4.3980    11.9230    -2.6330 H     1 <1>   0.0800 
 51 H        5.4810    10.8610    -3.4700 H     1 <1>   0.0800 
 52 H        5.3130    13.7450     1.8090 H     1 <1>   0.0800 
 53 H        6.5970    13.3460     0.6800 H     1 <1>   0.0800 
 54 H        3.4570    12.8530     2.6790 H     1 <1>   0.0800 
 55 H        2.4680    11.4540     2.3450 H     1 <1>   0.0800 
 56 H        5.0640    16.5150     1.2370 H     1 <1>   0.1500 
 57 H        4.5590    16.0500    -2.8690 H     1 <1>   0.1500 
 58 H        4.5350    17.7240    -0.9620 H     1 <1>   0.2700 
@<TRIPOS>BOND
  1   1   2  1   
  2   2   3  1   
  3   2   4  1   
  4   2   5  1   
  5   5   6  ar  
  6   5   7  ar  
  7   6   8  ar  
  8   6  31  1   
  9   7   9  ar  
 10   7  32  1   
 11   8  10  ar  
 12   8  11  1   
 13   9  10  ar  
 14   9  33  1   
 15  10  34  1   
 16  11  12  1   
 17  11  35  1   
 18  11  36  1   
 19  12  13  1   
 20  12  37  1   
 21  12  38  1   
 22  13  14  am  
 23  13  39  1   
 24  14  15  2   
 25  14  16  1   
 26  16  17  1   
 27  16  18  1   
 28  16  19  1   
 29  17  20  1   
 30  17  21  1   
 31  17  40  1   
 32  18  22  1   
 33  18  41  1   
 34  18  42  1   
 35  19  23  1   
 36  19  43  1   
 37  19  44  1   
 38  20  22  1   
 39  20  24  1   
 40  20  45  1   
 41  21  25  1   
 42  21  46  1   
 43  21  47  1   
 44  22  25  1   
 45  22  48  1   
 46  23  49  1   
 47  23  50  1   
 48  23  51  1   
 49  24  26  1   
 50  24  52  1   
 51  24  53  1   
 52  25  54  1   
 53  25  55  1   
 54  26  27  1   
 55  26  28  2   
 56  27  29  2   
 57  28  30  1   
 58  28  56  1   
 59  29  30  1   
 60  29  57  1   
 61  30  58  1   
@<TRIPOS>SUBSTRUCTURE
  1 ****  13 GROUP 4 **** **** 0

# MOE 2024.06 (io_trps.svl 2023.06)
