@<TRIPOS>MOLECULE
NONAME
41 43 1 0 0 
SMALL
USER_CHARGES


@<TRIPOS>ATOM
  1 S       -2.7070    -0.8180     1.9030 S.3   1 <1>  -0.0800 
  2 C       -2.1850     0.4080     0.7420 C.2   1 <1>   0.3250 
  3 C       -3.1530    -1.8770     0.6070 C.2   1 <1>  -0.1100 
  4 N       -2.3540     0.0050    -0.4790 N.2   1 <1>  -0.5650 
  5 C       -1.6540     1.6670     1.2570 C.ar  1 <1>   0.6730 
  6 C       -2.8920    -1.2660    -0.5590 C.2   1 <1>   0.0460 
  7 N       -1.2930     2.6070     0.3690 N.ar  1 <1>  -0.6200 
  8 N       -1.5540     1.8240     2.5880 N.ar  1 <1>  -0.6200 
  9 C       -3.1310    -1.8280    -1.9570 C.3   1 <1>   0.3210 
 10 C       -0.8170     3.7350     0.8370 C.ar  1 <1>   0.1600 
 11 C       -1.0750     2.9610     3.0300 C.ar  1 <1>   0.1600 
 12 N       -3.8830    -3.1000    -1.8990 N.am  1 <1>  -0.7300 
 13 C       -0.6850     3.9660     2.1820 C.ar  1 <1>  -0.1500 
 14 C       -3.5760    -4.2480    -2.5480 C.2   1 <1>   0.5690 
 15 O       -2.6830    -4.3110    -3.3590 O.2   1 <1>  -0.5700 
 16 C       -4.3850    -5.5020    -2.2220 C.3   1 <1>   0.1810 
 17 O       -5.4020    -5.2180    -1.2900 O.3   1 <1>  -0.5600 
 18 C       -5.9920    -6.3400    -0.7060 C.3   1 <1>   0.1200 
 19 C       -6.9220    -5.9020     0.4350 C.3   1 <1>   0.2000 
 20 O       -6.1980    -5.2870     1.4530 O.3   1 <1>  -0.5600 
 21 C       -7.6290    -7.0550     1.1330 C.3   1 <1>  -0.1600 
 22 C       -6.9170    -5.3230     2.6430 C.3   1 <1>   0.1200 
 23 C       -7.8760    -6.5070     2.5300 C.3   1 <1>  -0.1600 
 24 H       -3.5610    -2.8420     0.8550 H     1 <1>   0.1500 
 25 H       -2.1840    -1.9800    -2.4460 H     1 <1>   0.0800 
 26 H       -3.6960    -1.1150    -2.5300 H     1 <1>   0.0800 
 27 H       -0.5250     4.4920     0.1280 H     1 <1>   0.1500 
 28 H       -0.9910     3.0940     4.0960 H     1 <1>   0.1500 
 29 H       -4.6610    -3.1460    -1.2330 H     1 <1>   0.3700 
 30 H       -0.2940     4.8930     2.5550 H     1 <1>   0.1500 
 31 H       -3.7200    -6.2370    -1.8050 H     1 <1>   0.0800 
 32 H       -4.8360    -5.8870    -3.1180 H     1 <1>   0.0800 
 33 H       -5.2220    -6.9830    -0.3150 H     1 <1>   0.0800 
 34 H       -6.5510    -6.8610    -1.4630 H     1 <1>   0.0800 
 35 H       -7.6450    -5.1920     0.0710 H     1 <1>   0.0800 
 36 H       -6.9750    -7.9080     1.1840 H     1 <1>   0.0800 
 37 H       -8.5390    -7.3310     0.6290 H     1 <1>   0.0800 
 38 H       -7.4510    -4.3940     2.7410 H     1 <1>   0.0800 
 39 H       -6.2220    -5.4380     3.4570 H     1 <1>   0.0800 
 40 H       -7.6750    -7.2440     3.2870 H     1 <1>   0.0800 
 41 H       -8.8890    -6.1610     2.6370 H     1 <1>   0.0800 
@<TRIPOS>BOND
  1   1   2  1   
  2   1   3  1   
  3   2   4  2   
  4   2   5  1   
  5   3   6  2   
  6   3  24  1   
  7   4   6  1   
  8   5   7  ar  
  9   5   8  ar  
 10   6   9  1   
 11   7  10  ar  
 12   8  11  ar  
 13   9  12  1   
 14   9  25  1   
 15   9  26  1   
 16  10  13  ar  
 17  10  27  1   
 18  11  13  ar  
 19  11  28  1   
 20  12  14  am  
 21  12  29  1   
 22  13  30  1   
 23  14  15  2   
 24  14  16  1   
 25  16  17  1   
 26  16  31  1   
 27  16  32  1   
 28  17  18  1   
 29  18  19  1   
 30  18  33  1   
 31  18  34  1   
 32  19  20  1   
 33  19  21  1   
 34  19  35  1   
 35  20  22  1   
 36  21  23  1   
 37  21  36  1   
 38  21  37  1   
 39  22  23  1   
 40  22  38  1   
 41  22  39  1   
 42  23  40  1   
 43  23  41  1   
@<TRIPOS>SUBSTRUCTURE
  1 ****   3 GROUP 4 **** **** 0

# MOE 2024.06 (io_trps.svl 2023.06)
