@<TRIPOS>MOLECULE
NONAME
48 49 1 0 0 
SMALL
USER_CHARGES


@<TRIPOS>ATOM
  1 O       -0.9420    -0.0810    -0.5260 O.2   1 <1>  -0.5700 
  2 C       -1.7230     0.5720     0.1360 C.2   1 <1>   0.5440 
  3 N       -2.6550    -0.0860     0.9160 N.am  1 <1>  -0.6600 
  4 C       -1.6570     2.0180     0.0740 C.ar  1 <1>   0.0860 
  5 C       -2.4850    -1.5420     1.2020 C.3   1 <1>   0.3200 
  6 C       -3.7010     0.6150     1.7350 C.3   1 <1>   0.1400 
  7 C       -1.9670     2.6960    -1.1030 C.ar  1 <1>  -0.1500 
  8 C       -1.2910     2.7820     1.1820 C.ar  1 <1>  -0.1500 
  9 C       -3.4100    -2.3970     0.3550 C.2   1 <1>  -0.3320 
 10 C       -4.7020     1.4240     0.8910 C.3   1 <1>   0.1200 
 11 C       -1.9420     4.0770    -1.1650 C.ar  1 <1>  -0.1500 
 12 C       -1.2650     4.1640     1.1240 C.ar  1 <1>  -0.1500 
 13 N       -4.6950    -2.1170     0.0760 N.pl3 1 <1>   0.0330 
 14 C       -3.1450    -3.5720    -0.2570 C.2   1 <1>   0.0770 
 15 O       -5.1240     0.6720    -0.1940 O.3   1 <1>  -0.6800 
 16 C       -1.5940     4.8220    -0.0490 C.ar  1 <1>  -0.1430 
 17 C       -5.1310    -3.1420    -0.6850 C.2   1 <1>   0.0060 
 18 N       -4.2310    -4.0420    -0.9010 N.2   1 <1>  -0.5650 
 19 C       -1.5650     6.3440    -0.1110 C.3   1 <1>  -0.0170 
 20 C       -6.5390    -3.2050    -1.2350 C.3   1 <1>  -0.0600 
 21 C       -0.1330     6.9050    -0.1990 C.3   1 <1>  -0.0800 
 22 C       -0.1580     8.4380    -0.1530 C.3   1 <1>  -0.2400 
 23 C        0.5860     6.4390    -1.4730 C.3   1 <1>  -0.2400 
 24 H       -2.6840    -1.7270     2.2420 H     1 <1>   0.0800 
 25 H       -1.4660    -1.8400     1.0190 H     1 <1>   0.0800 
 26 H       -3.2250     1.2690     2.4440 H     1 <1>   0.0800 
 27 H       -4.2580    -0.1100     2.3030 H     1 <1>   0.0800 
 28 H       -2.2290     2.1250    -1.9770 H     1 <1>   0.1500 
 29 H       -1.0200     2.2830     2.0950 H     1 <1>   0.1500 
 30 H       -4.2560     2.3310     0.5210 H     1 <1>   0.0800 
 31 H       -5.5660     1.6860     1.4770 H     1 <1>   0.0800 
 32 H       -2.1890     4.5710    -2.0880 H     1 <1>   0.1500 
 33 H       -0.9810     4.7300     1.9950 H     1 <1>   0.1500 
 34 H       -5.2150    -1.2630     0.3180 H     1 <1>   0.2700 
 35 H       -2.2160    -4.1170    -0.2690 H     1 <1>   0.1500 
 36 H       -4.3310     0.3750    -0.6960 H     1 <1>   0.4000 
 37 H       -2.0440     6.7310     0.7710 H     1 <1>   0.0800 
 38 H       -2.1360     6.6840    -0.9570 H     1 <1>   0.0800 
 39 H       -6.7350    -2.3400    -1.8420 H     1 <1>   0.0800 
 40 H       -7.2480    -3.2460    -0.4290 H     1 <1>   0.0800 
 41 H       -6.6520    -4.0860    -1.8420 H     1 <1>   0.0800 
 42 H        0.4250     6.5520     0.6520 H     1 <1>   0.0800 
 43 H       -0.7010     8.8350    -0.9930 H     1 <1>   0.0800 
 44 H        0.8450     8.8280    -0.1790 H     1 <1>   0.0800 
 45 H       -0.6270     8.7790     0.7530 H     1 <1>   0.0800 
 46 H        0.0430     6.7430    -2.3500 H     1 <1>   0.0800 
 47 H        0.6820     5.3670    -1.4820 H     1 <1>   0.0800 
 48 H        1.5760     6.8590    -1.5180 H     1 <1>   0.0800 
@<TRIPOS>BOND
  1   1   2  2   
  2   2   3  am  
  3   2   4  1   
  4   3   5  1   
  5   3   6  1   
  6   4   7  ar  
  7   4   8  ar  
  8   5   9  1   
  9   5  24  1   
 10   5  25  1   
 11   6  10  1   
 12   6  26  1   
 13   6  27  1   
 14   7  11  ar  
 15   7  28  1   
 16   8  12  ar  
 17   8  29  1   
 18   9  13  1   
 19   9  14  2   
 20  10  15  1   
 21  10  30  1   
 22  10  31  1   
 23  11  16  ar  
 24  11  32  1   
 25  12  16  ar  
 26  12  33  1   
 27  13  17  1   
 28  13  34  1   
 29  14  18  1   
 30  14  35  1   
 31  15  36  1   
 32  16  19  1   
 33  17  18  2   
 34  17  20  1   
 35  19  21  1   
 36  19  37  1   
 37  19  38  1   
 38  20  39  1   
 39  20  40  1   
 40  20  41  1   
 41  21  22  1   
 42  21  23  1   
 43  21  42  1   
 44  22  43  1   
 45  22  44  1   
 46  22  45  1   
 47  23  46  1   
 48  23  47  1   
 49  23  48  1   
@<TRIPOS>SUBSTRUCTURE
  1 ****   4 GROUP 4 **** **** 0

# MOE 2024.06 (io_trps.svl 2023.06)
