@<TRIPOS>MOLECULE
NONAME
44 45 1 0 0 
SMALL
USER_CHARGES


@<TRIPOS>ATOM
  1 F        4.3080     0.4660     1.8450 F     1 <1>  -0.1900 
  2 C        3.6050    -0.3360     1.0890 C.ar  1 <1>   0.1900 
  3 C        2.7270     0.2030     0.1540 C.ar  1 <1>  -0.1440 
  4 C        3.7760    -1.6970     1.2570 C.ar  1 <1>  -0.1500 
  5 C        1.9980    -0.6700    -0.6460 C.ar  1 <1>  -0.1500 
  6 C        2.5580     1.7080    -0.0060 C.3   1 <1>  -0.0160 
  7 C        3.0320    -2.5270     0.4450 C.ar  1 <1>   0.1900 
  8 C        2.1480    -2.0410    -0.5030 C.ar  1 <1>  -0.1500 
  9 C        3.6720     2.2850    -0.8860 C.3   1 <1>  -0.0990 
 10 F        3.1670    -3.8190     0.5740 F     1 <1>  -0.1900 
 11 C        3.5510     3.7890    -0.9900 C.2   1 <1>   0.5690 
 12 O        2.8700     4.2420    -1.8770 O.2   1 <1>  -0.5700 
 13 N        4.2150     4.5420    -0.0700 N.am  1 <1>  -0.4930 
 14 C        4.2870     5.9520     0.0700 C.2   1 <1>   0.0630 
 15 C        3.2910     6.9240    -0.0700 C.2   1 <1>   0.1080 
 16 C        5.3950     6.6440     0.4180 C.2   1 <1>  -0.3320 
 17 N        3.7370     8.1180     0.1680 N.2   1 <1>  -0.7070 
 18 C        1.8420     6.6880    -0.4350 C.3   1 <1>  -0.0590 
 19 N        5.0370     7.9520     0.4630 N.pl3 1 <1>   0.3140 
 20 C        6.8000     6.1330     0.7080 C.3   1 <1>  -0.0600 
 21 C        5.8920     9.1140     0.7810 C.3   1 <1>   0.0960 
 22 C        6.5620     9.6670    -0.4860 C.3   1 <1>  -0.1600 
 23 C        7.4650    10.8640    -0.1650 C.3   1 <1>  -0.2400 
 24 H        4.4580    -2.0920     1.9860 H     1 <1>   0.1500 
 25 H        1.3120    -0.2860    -1.3830 H     1 <1>   0.1500 
 26 H        2.5730     2.1780     0.9620 H     1 <1>   0.0800 
 27 H        1.6030     1.9260    -0.4530 H     1 <1>   0.0800 
 28 H        1.5890    -2.7270    -1.1150 H     1 <1>   0.1500 
 29 H        3.6050     1.8640    -1.8730 H     1 <1>   0.0800 
 30 H        4.6340     2.0280    -0.4830 H     1 <1>   0.0800 
 31 H        4.8050     4.0390     0.5870 H     1 <1>   0.3700 
 32 H        1.5010     5.7600    -0.0200 H     1 <1>   0.0800 
 33 H        1.7450     6.6560    -1.5040 H     1 <1>   0.0800 
 34 H        1.2350     7.4870    -0.0520 H     1 <1>   0.0800 
 35 H        6.8580     5.0700     0.5610 H     1 <1>   0.0800 
 36 H        7.0730     6.3530     1.7250 H     1 <1>   0.0800 
 37 H        7.5070     6.6010     0.0460 H     1 <1>   0.0800 
 38 H        6.6310     8.8140     1.4990 H     1 <1>   0.0800 
 39 H        5.2720     9.8710     1.2260 H     1 <1>   0.0800 
 40 H        5.7970     9.9740    -1.1790 H     1 <1>   0.0800 
 41 H        7.1490     8.8940    -0.9510 H     1 <1>   0.0800 
 42 H        6.8910    11.6580     0.2800 H     1 <1>   0.0800 
 43 H        7.9150    11.2350    -1.0690 H     1 <1>   0.0800 
 44 H        8.2480    10.5770     0.5140 H     1 <1>   0.0800 
@<TRIPOS>BOND
  1   1   2  1   
  2   2   3  ar  
  3   2   4  ar  
  4   3   5  ar  
  5   3   6  1   
  6   4   7  ar  
  7   4  24  1   
  8   5   8  ar  
  9   5  25  1   
 10   6   9  1   
 11   6  26  1   
 12   6  27  1   
 13   7   8  ar  
 14   7  10  1   
 15   8  28  1   
 16   9  11  1   
 17   9  29  1   
 18   9  30  1   
 19  11  12  2   
 20  11  13  am  
 21  13  14  1   
 22  13  31  1   
 23  14  15  1   
 24  14  16  2   
 25  15  17  2   
 26  15  18  1   
 27  16  19  1   
 28  16  20  1   
 29  17  19  1   
 30  18  32  1   
 31  18  33  1   
 32  18  34  1   
 33  19  21  1   
 34  20  35  1   
 35  20  36  1   
 36  20  37  1   
 37  21  22  1   
 38  21  38  1   
 39  21  39  1   
 40  22  23  1   
 41  22  40  1   
 42  22  41  1   
 43  23  42  1   
 44  23  43  1   
 45  23  44  1   
@<TRIPOS>SUBSTRUCTURE
  1 ****  13 GROUP 4 **** **** 0

# MOE 2024.06 (io_trps.svl 2023.06)
