@<TRIPOS>MOLECULE
NONAME
51 55 1 0 0 
SMALL
USER_CHARGES


@<TRIPOS>ATOM
  1 S       -0.9760     1.4840     2.5490 S.3   1 <1>  -0.0800 
  2 C       -1.3570     1.4770     0.8340 C.2   1 <1>  -0.1400 
  3 C       -2.3070     0.3820     2.8800 C.2   1 <1>  -0.1100 
  4 C       -2.4200     0.7000     0.5870 C.2   1 <1>  -0.1810 
  5 C       -0.5550     2.2680    -0.1930 C.3   1 <1>   0.4600 
  6 C       -2.9650     0.0660     1.7480 C.2   1 <1>  -0.1500 
  7 C       -2.9300     0.5650    -0.8290 C.3   1 <1>   0.0210 
  8 O       -1.0230     1.9400    -1.4870 O.3   1 <1>  -0.5600 
  9 C       -0.7050     3.7800     0.0190 C.3   1 <1>  -0.1600 
 10 C        0.9240     1.8700    -0.1570 C.3   1 <1>  -0.1600 
 11 C       -2.4080     1.7500    -1.6660 C.3   1 <1>   0.1200 
 12 C        0.1410     4.5740    -0.9780 C.3   1 <1>   0.1400 
 13 C        1.7520     2.6900    -1.1480 C.3   1 <1>   0.1400 
 14 N        1.5650     4.1440    -0.8650 N.am  1 <1>  -0.6600 
 15 C        2.6340     4.9380    -0.5170 C.2   1 <1>   0.5690 
 16 O        3.7420     4.4740    -0.3820 O.2   1 <1>  -0.5700 
 17 C        2.4640     6.4390    -0.2720 C.3   1 <1>  -0.0190 
 18 C        3.7810     7.2000    -0.5250 C.3   1 <1>   0.1400 
 19 C        1.9510     6.7170     1.1600 C.3   1 <1>  -0.1600 
 20 N        3.6440     8.6130    -0.1150 N.am  1 <1>  -0.4200 
 21 C        1.6550     8.2150     1.3630 C.3   1 <1>  -0.0990 
 22 C        4.4810     9.6330    -0.3770 C.2   1 <1>   0.6900 
 23 C        2.7620     9.1000     0.8200 C.2   1 <1>   0.4490 
 24 O        5.4370     9.6040    -1.1480 O.2   1 <1>  -0.5700 
 25 N        4.0660    10.6820     0.3830 N.am  1 <1>  -0.2980 
 26 N        2.9740    10.3190     1.1370 N.2   1 <1>  -0.5120 
 27 C        4.6600    12.0290     0.4560 C.3   1 <1>   0.0600 
 28 H       -2.4560     0.0830     3.9020 H     1 <1>   0.1500 
 29 H       -3.8140    -0.5910     1.6790 H     1 <1>   0.1500 
 30 H       -4.0050     0.5690    -0.8380 H     1 <1>   0.0800 
 31 H       -2.5880    -0.3620    -1.2530 H     1 <1>   0.0800 
 32 H       -0.3860     4.0280     1.0150 H     1 <1>   0.0800 
 33 H       -1.7380     4.0620    -0.0620 H     1 <1>   0.0800 
 34 H        1.0150     0.8230    -0.3810 H     1 <1>   0.0800 
 35 H        1.3220     2.0270     0.8290 H     1 <1>   0.0800 
 36 H       -2.9150     2.6560    -1.3860 H     1 <1>   0.0800 
 37 H       -2.5810     1.5680    -2.7120 H     1 <1>   0.0800 
 38 H        0.0220     5.6230    -0.7810 H     1 <1>   0.0800 
 39 H       -0.2030     4.3840    -1.9810 H     1 <1>   0.0800 
 40 H        1.4330     2.4820    -2.1550 H     1 <1>   0.0800 
 41 H        2.7890     2.4100    -1.0670 H     1 <1>   0.0800 
 42 H        1.7580     6.8140    -0.9880 H     1 <1>   0.0800 
 43 H        4.0480     7.1510    -1.5670 H     1 <1>   0.0800 
 44 H        4.5810     6.7620     0.0480 H     1 <1>   0.0800 
 45 H        2.7030     6.4040     1.8660 H     1 <1>   0.0800 
 46 H        1.0610     6.1470     1.3600 H     1 <1>   0.0800 
 47 H        1.5140     8.4270     2.4080 H     1 <1>   0.0800 
 48 H        0.7480     8.4740     0.8470 H     1 <1>   0.0800 
 49 H        5.5010    12.0940    -0.2110 H     1 <1>   0.0800 
 50 H        4.9850    12.2190     1.4630 H     1 <1>   0.0800 
 51 H        3.9220    12.7580     0.1750 H     1 <1>   0.0800 
@<TRIPOS>BOND
  1   1   2  1   
  2   1   3  1   
  3   2   4  2   
  4   2   5  1   
  5   3   6  2   
  6   3  28  1   
  7   4   6  1   
  8   4   7  1   
  9   5   8  1   
 10   5   9  1   
 11   5  10  1   
 12   6  29  1   
 13   7  11  1   
 14   7  30  1   
 15   7  31  1   
 16   8  11  1   
 17   9  12  1   
 18   9  32  1   
 19   9  33  1   
 20  10  13  1   
 21  10  34  1   
 22  10  35  1   
 23  11  36  1   
 24  11  37  1   
 25  12  14  1   
 26  12  38  1   
 27  12  39  1   
 28  13  14  1   
 29  13  40  1   
 30  13  41  1   
 31  14  15  am  
 32  15  16  2   
 33  15  17  1   
 34  17  18  1   
 35  17  19  1   
 36  17  42  1   
 37  18  20  1   
 38  18  43  1   
 39  18  44  1   
 40  19  21  1   
 41  19  45  1   
 42  19  46  1   
 43  20  22  am  
 44  20  23  1   
 45  21  23  1   
 46  21  47  1   
 47  21  48  1   
 48  22  24  2   
 49  22  25  am  
 50  23  26  2   
 51  25  26  1   
 52  25  27  1   
 53  27  49  1   
 54  27  50  1   
 55  27  51  1   
@<TRIPOS>SUBSTRUCTURE
  1 ****  14 GROUP 4 **** **** 0

# MOE 2024.06 (io_trps.svl 2023.06)
