@<TRIPOS>MOLECULE
NONAME
53 56 1 0 0 
SMALL
USER_CHARGES


@<TRIPOS>ATOM
  1 O       -0.3040    -0.3620     1.9460 O.2   1 <1>  -0.5700 
  2 C       -1.2380    -0.3890     1.1720 C.2   1 <1>   0.5440 
  3 N       -1.6650    -1.5130     0.5290 N.am  1 <1>  -0.6600 
  4 C       -2.0430     0.7310     0.7910 C.ar  1 <1>   0.0860 
  5 C       -1.0650    -2.8630     0.6790 C.3   1 <1>   0.2200 
  6 C       -2.8210    -1.1870    -0.3520 C.3   1 <1>   0.2840 
  7 C       -2.9920     0.3060    -0.1140 C.ar  1 <1>   0.1660 
  8 C       -2.0230     2.0630     1.1510 C.ar  1 <1>  -0.1500 
  9 C       -0.5860    -3.4060    -0.6640 C.3   1 <1>  -0.1600 
 10 C       -2.1030    -3.8780     1.1500 C.3   1 <1>  -0.1600 
 11 N       -3.9080     1.0620    -0.6870 N.ar  1 <1>  -0.6200 
 12 C       -2.9610     2.9170     0.5790 C.ar  1 <1>   0.0860 
 13 C       -1.7470    -4.2100    -1.2600 C.3   1 <1>  -0.1600 
 14 C       -2.7130    -4.5080    -0.1070 C.3   1 <1>  -0.1600 
 15 C       -3.8810     2.3500    -0.3300 C.ar  1 <1>   0.3930 
 16 C       -2.9470     4.3230     0.9390 C.2   1 <1>   0.5440 
 17 O       -4.8140     3.1430    -0.8930 O.3   1 <1>  -0.3630 
 18 O       -2.4730     4.6630     2.0050 O.2   1 <1>  -0.5700 
 19 N       -3.4410     5.2860     0.0940 N.am  1 <1>  -0.4940 
 20 C       -5.7990     2.6550    -1.7860 C.3   1 <1>   0.0400 
 21 C       -3.5150     6.6920     0.2260 C.2   1 <1>  -0.0880 
 22 N       -2.5330     7.5510     0.6340 N.pl3 1 <1>   0.3140 
 23 C       -4.5900     7.4580    -0.0740 C.2   1 <1>  -0.1810 
 24 N       -2.9620     8.8360     0.5900 N.2   1 <1>  -0.7070 
 25 C       -1.1240     7.2690     0.9940 C.3   1 <1>   0.0960 
 26 C       -4.1860     8.7640     0.1740 C.2   1 <1>   0.1390 
 27 C       -5.9610     7.0370    -0.5690 C.3   1 <1>  -0.0590 
 28 C       -0.3190     6.7470    -0.2050 C.3   1 <1>  -0.2400 
 29 H       -0.2460    -2.8070     1.3790 H     1 <1>   0.0800 
 30 H       -3.7010    -1.7240    -0.0480 H     1 <1>   0.0800 
 31 H       -2.5880    -1.3830    -1.3830 H     1 <1>   0.0800 
 32 H       -1.2920     2.4170     1.8600 H     1 <1>   0.1500 
 33 H        0.2320    -4.0790    -0.4770 H     1 <1>   0.0800 
 34 H       -0.2370    -2.6260    -1.3180 H     1 <1>   0.0800 
 35 H       -2.8400    -3.4370     1.7980 H     1 <1>   0.0800 
 36 H       -1.5880    -4.6480     1.6990 H     1 <1>   0.0800 
 37 H       -1.3860    -5.1200    -1.7080 H     1 <1>   0.0800 
 38 H       -2.2490    -3.6350    -2.0190 H     1 <1>   0.0800 
 39 H       -3.6750    -4.0720    -0.3130 H     1 <1>   0.0800 
 40 H       -2.8420    -5.5680     0.0250 H     1 <1>   0.0800 
 41 H       -4.0230     4.9060    -0.6580 H     1 <1>   0.3700 
 42 H       -6.4260     3.4760    -2.0860 H     1 <1>   0.0800 
 43 H       -6.3870     1.9080    -1.2820 H     1 <1>   0.0800 
 44 H       -5.3120     2.2290    -2.6460 H     1 <1>   0.0800 
 45 H       -1.0990     6.5700     1.8060 H     1 <1>   0.0800 
 46 H       -0.6850     8.1860     1.3430 H     1 <1>   0.0800 
 47 H       -4.8110     9.6300     0.0380 H     1 <1>   0.1500 
 48 H       -6.0690     5.9690    -0.5260 H     1 <1>   0.0800 
 49 H       -6.1000     7.3630    -1.5830 H     1 <1>   0.0800 
 50 H       -6.7220     7.4810     0.0480 H     1 <1>   0.0800 
 51 H       -0.7170     5.8090    -0.5470 H     1 <1>   0.0800 
 52 H        0.7050     6.5960     0.0860 H     1 <1>   0.0800 
 53 H       -0.3470     7.4630    -1.0070 H     1 <1>   0.0800 
@<TRIPOS>BOND
  1   1   2  2   
  2   2   3  am  
  3   2   4  1   
  4   3   5  1   
  5   3   6  1   
  6   4   7  ar  
  7   4   8  ar  
  8   5   9  1   
  9   5  10  1   
 10   5  29  1   
 11   6   7  1   
 12   6  30  1   
 13   6  31  1   
 14   7  11  ar  
 15   8  12  ar  
 16   8  32  1   
 17   9  13  1   
 18   9  33  1   
 19   9  34  1   
 20  10  14  1   
 21  10  35  1   
 22  10  36  1   
 23  11  15  ar  
 24  12  15  ar  
 25  12  16  1   
 26  13  14  1   
 27  13  37  1   
 28  13  38  1   
 29  14  39  1   
 30  14  40  1   
 31  15  17  1   
 32  16  18  2   
 33  16  19  am  
 34  17  20  1   
 35  19  21  1   
 36  19  41  1   
 37  20  42  1   
 38  20  43  1   
 39  20  44  1   
 40  21  22  1   
 41  21  23  2   
 42  22  24  1   
 43  22  25  1   
 44  23  26  1   
 45  23  27  1   
 46  24  26  2   
 47  25  28  1   
 48  25  45  1   
 49  25  46  1   
 50  26  47  1   
 51  27  48  1   
 52  27  49  1   
 53  27  50  1   
 54  28  51  1   
 55  28  52  1   
 56  28  53  1   
@<TRIPOS>SUBSTRUCTURE
  1 ****  12 GROUP 4 **** **** 0

# MOE 2024.06 (io_trps.svl 2023.06)
