@<TRIPOS>MOLECULE
NONAME
46 48 1 0 0 
SMALL
USER_CHARGES


@<TRIPOS>ATOM
  1 O        1.2840     2.3110    -3.3480 O.3   1 <1>  -0.5320 
  2 C        2.1670     2.3960    -2.3430 C.ar  1 <1>   0.0830 
  3 C        2.1960     1.3960    -1.3900 C.ar  1 <1>  -0.1500 
  4 C        3.0350     3.4720    -2.2600 C.ar  1 <1>  -0.1500 
  5 C        3.1030     1.4640    -0.3480 C.ar  1 <1>  -0.1500 
  6 C        3.9430     3.5400    -1.2180 C.ar  1 <1>  -0.1500 
  7 C        3.9860     2.5320    -0.2610 C.ar  1 <1>  -0.1430 
  8 C        4.9990     2.5990     0.8610 C.3   1 <1>   0.4860 
  9 N        6.3060     2.1630     0.3010 N.4   1 <1>  -0.8520 
 10 C        6.5230     0.7170     0.4620 C.3   1 <1>   0.2960 
 11 C        7.4540     2.9510     0.8250 C.3   1 <1>   0.4860 
 12 C        7.4830     0.0520    -0.4650 C.3   1 <1>  -0.2000 
 13 C        6.0110    -0.1990    -0.5970 C.3   1 <1>  -0.2000 
 14 C        7.2670     4.4040     0.4460 C.ar  1 <1>  -0.1430 
 15 C        7.4410     4.8100    -0.8670 C.ar  1 <1>   0.1600 
 16 C        6.9090     5.3480     1.3920 C.ar  1 <1>  -0.1500 
 17 N        7.2520     6.0360    -1.3070 N.ar  1 <1>  -0.6200 
 18 C        6.7290     6.6350     0.9430 C.ar  1 <1>  -0.1500 
 19 C        6.8990     6.9440    -0.4040 C.ar  1 <1>   0.4100 
 20 N        6.7010     8.2390    -0.8450 N.pl3 1 <1>  -0.8380 
 21 C        7.4430     8.7330    -2.0380 C.3   1 <1>   0.1290 
 22 C        5.4030     8.9200    -0.5970 C.3   1 <1>   0.1290 
 23 H        1.3120     3.0670    -3.9600 H     1 <1>   0.4500 
 24 H        1.5060     0.5730    -1.4710 H     1 <1>   0.1500 
 25 H        3.0060     4.2540    -2.9990 H     1 <1>   0.1500 
 26 H        3.1080     0.6760     0.3860 H     1 <1>   0.1500 
 27 H        4.6040     4.3910    -1.1650 H     1 <1>   0.1500 
 28 H        4.7020     1.9640     1.6800 H     1 <1>   0.0800 
 29 H        5.0510     3.6150     1.2140 H     1 <1>   0.0800 
 30 H        6.2250     2.3470    -0.7060 H     1 <1>   0.4500 
 31 H        6.4940     0.3810     1.4880 H     1 <1>   0.1000 
 32 H        8.3750     2.5870     0.3980 H     1 <1>   0.0800 
 33 H        7.5150     2.8530     1.8960 H     1 <1>   0.0800 
 34 H        8.0910    -0.7590    -0.1020 H     1 <1>   0.1000 
 35 H        7.9670     0.6060    -1.2510 H     1 <1>   0.1000 
 36 H        5.5000     0.1980    -1.4580 H     1 <1>   0.1000 
 37 H        5.6420    -1.1710    -0.3170 H     1 <1>   0.1000 
 38 H        7.7470     4.0940    -1.6110 H     1 <1>   0.1500 
 39 H        6.7790     5.1120     2.4350 H     1 <1>   0.1500 
 40 H        6.4640     7.4250     1.6200 H     1 <1>   0.1500 
 41 H        8.4270     8.2970    -2.0660 H     1 <1>   0.0800 
 42 H        7.5430     9.8030    -1.9930 H     1 <1>   0.0800 
 43 H        6.9160     8.4580    -2.9350 H     1 <1>   0.0800 
 44 H        4.7910     8.3420     0.0730 H     1 <1>   0.0800 
 45 H        4.8710     9.0440    -1.5250 H     1 <1>   0.0800 
 46 H        5.5810     9.8880    -0.1610 H     1 <1>   0.0800 
@<TRIPOS>BOND
  1   1   2  1   
  2   1  23  1   
  3   2   3  ar  
  4   2   4  ar  
  5   3   5  ar  
  6   3  24  1   
  7   4   6  ar  
  8   4  25  1   
  9   5   7  ar  
 10   5  26  1   
 11   6   7  ar  
 12   6  27  1   
 13   7   8  1   
 14   8   9  1   
 15   8  28  1   
 16   8  29  1   
 17   9  10  1   
 18   9  11  1   
 19   9  30  1   
 20  10  12  1   
 21  10  13  1   
 22  10  31  1   
 23  11  14  1   
 24  11  32  1   
 25  11  33  1   
 26  12  13  1   
 27  12  34  1   
 28  12  35  1   
 29  13  36  1   
 30  13  37  1   
 31  14  15  ar  
 32  14  16  ar  
 33  15  17  ar  
 34  15  38  1   
 35  16  18  ar  
 36  16  39  1   
 37  17  19  ar  
 38  18  19  ar  
 39  18  40  1   
 40  19  20  1   
 41  20  21  1   
 42  20  22  1   
 43  21  41  1   
 44  21  42  1   
 45  21  43  1   
 46  22  44  1   
 47  22  45  1   
 48  22  46  1   
@<TRIPOS>SUBSTRUCTURE
  1 ****   6 GROUP 4 **** **** 0

# MOE 2024.06 (io_trps.svl 2023.06)
