@<TRIPOS>MOLECULE
NONAME
53 56 1 0 0 
SMALL
USER_CHARGES


@<TRIPOS>ATOM
  1 O       -0.2070     0.0580     0.9980 O.2   1 <1>  -0.5700 
  2 C       -1.1200     0.7480     0.6120 C.2   1 <1>   0.5690 
  3 N       -2.2370     0.2070     0.0420 N.am  1 <1>  -0.6600 
  4 C       -1.0210     2.2560     0.7750 C.3   1 <1>  -0.0990 
  5 C       -3.4490     0.9390    -0.4020 C.3   1 <1>   0.1400 
  6 C       -2.4180    -1.2550    -0.1330 C.3   1 <1>   0.1400 
  7 C        0.3630     2.7230     1.2560 C.3   1 <1>   0.0200 
  8 C       -4.4270    -0.1450    -0.8630 C.3   1 <1>   0.2000 
  9 C       -3.9300    -1.4520    -0.2450 C.3   1 <1>  -0.0800 
 10 C        0.4110     4.2310     1.3910 C.2   1 <1>   0.2980 
 11 O       -5.7180     0.1190    -0.4310 O.3   1 <1>  -0.6800 
 12 C       -4.3470    -2.6880    -1.0610 C.3   1 <1>  -0.0160 
 13 O       -0.2570     4.7970     2.3620 O.3   1 <1>  -0.0190 
 14 N        1.0450     5.0230     0.6310 N.2   1 <1>  -0.5650 
 15 C       -3.8540    -3.9760    -0.4240 C.ar  1 <1>   0.1670 
 16 N       -0.0280     6.0630     2.2050 N.2   1 <1>  -0.4100 
 17 C        0.7440     6.2030     1.1850 C.2   1 <1>   0.4620 
 18 N       -2.6110    -4.3340    -0.7090 N.ar  1 <1>  -0.6200 
 19 C       -4.6990    -4.6990     0.4050 C.ar  1 <1>  -0.1500 
 20 C        1.2450     7.4660     0.6670 C.ar  1 <1>   0.0540 
 21 C       -2.1920    -5.4540    -0.1420 C.ar  1 <1>   0.1600 
 22 C       -4.2500    -5.8650     0.9880 C.ar  1 <1>  -0.1500 
 23 C        2.0850     7.5230    -0.4480 C.ar  1 <1>  -0.1500 
 24 C        0.9020     8.6800     1.2660 C.ar  1 <1>  -0.1500 
 25 C       -2.9570    -6.2440     0.6990 C.ar  1 <1>  -0.1500 
 26 C        2.5640     8.7230    -0.9450 C.ar  1 <1>  -0.1440 
 27 C        1.3730     9.8850     0.7780 C.ar  1 <1>  -0.1500 
 28 C        2.2030     9.9080    -0.3270 C.ar  1 <1>  -0.1500 
 29 C        3.4750     8.7480    -2.1590 C.3   1 <1>  -0.0970 
 30 H       -1.2290     2.7190    -0.1720 H     1 <1>   0.0800 
 31 H       -1.7670     2.5690     1.4810 H     1 <1>   0.0800 
 32 H       -3.8550     1.4980     0.4230 H     1 <1>   0.0800 
 33 H       -3.2080     1.5970    -1.2180 H     1 <1>   0.0800 
 34 H       -1.9210    -1.5650    -1.0380 H     1 <1>   0.0800 
 35 H       -2.0070    -1.8040     0.6980 H     1 <1>   0.0800 
 36 H        1.1140     2.4100     0.5520 H     1 <1>   0.0800 
 37 H        0.5940     2.2800     2.2080 H     1 <1>   0.0800 
 38 H       -4.4330    -0.1960    -1.9380 H     1 <1>   0.0800 
 39 H       -4.3090    -1.5450     0.7570 H     1 <1>   0.0800 
 40 H       -5.7550     0.1220     0.5450 H     1 <1>   0.4000 
 41 H       -3.9530    -2.6210    -2.0600 H     1 <1>   0.0800 
 42 H       -5.4190    -2.7150    -1.1390 H     1 <1>   0.0800 
 43 H       -5.6980    -4.3550     0.5970 H     1 <1>   0.1500 
 44 H       -1.1830    -5.7590    -0.3610 H     1 <1>   0.1500 
 45 H       -4.8780    -6.4500     1.6370 H     1 <1>   0.1500 
 46 H        2.3670     6.6040    -0.9320 H     1 <1>   0.1500 
 47 H        0.2580     8.6800     2.1270 H     1 <1>   0.1500 
 48 H       -2.5420    -7.1420     1.1200 H     1 <1>   0.1500 
 49 H        1.0930    10.8060     1.2580 H     1 <1>   0.1500 
 50 H        2.5650    10.8480    -0.7040 H     1 <1>   0.1500 
 51 H        4.2520     9.4800    -2.0260 H     1 <1>   0.0800 
 52 H        2.9060     8.9990    -3.0350 H     1 <1>   0.0800 
 53 H        3.9370     7.7880    -2.3090 H     1 <1>   0.0800 
@<TRIPOS>BOND
  1   1   2  2   
  2   2   3  am  
  3   2   4  1   
  4   3   5  1   
  5   3   6  1   
  6   4   7  1   
  7   4  30  1   
  8   4  31  1   
  9   5   8  1   
 10   5  32  1   
 11   5  33  1   
 12   6   9  1   
 13   6  34  1   
 14   6  35  1   
 15   7  10  1   
 16   7  36  1   
 17   7  37  1   
 18   8   9  1   
 19   8  11  1   
 20   8  38  1   
 21   9  12  1   
 22   9  39  1   
 23  10  13  1   
 24  10  14  2   
 25  11  40  1   
 26  12  15  1   
 27  12  41  1   
 28  12  42  1   
 29  13  16  1   
 30  14  17  1   
 31  15  18  ar  
 32  15  19  ar  
 33  16  17  2   
 34  17  20  1   
 35  18  21  ar  
 36  19  22  ar  
 37  19  43  1   
 38  20  23  ar  
 39  20  24  ar  
 40  21  25  ar  
 41  21  44  1   
 42  22  25  ar  
 43  22  45  1   
 44  23  26  ar  
 45  23  46  1   
 46  24  27  ar  
 47  24  47  1   
 48  25  48  1   
 49  26  28  ar  
 50  26  29  1   
 51  27  28  ar  
 52  27  49  1   
 53  28  50  1   
 54  29  51  1   
 55  29  52  1   
 56  29  53  1   
@<TRIPOS>SUBSTRUCTURE
  1 ****   4 GROUP 4 **** **** 0

# MOE 2024.06 (io_trps.svl 2023.06)
