@<TRIPOS>MOLECULE
NONAME
55 58 1 0 0 
SMALL
USER_CHARGES


@<TRIPOS>ATOM
  1 O       -1.1020     2.2670     1.2670 O.3   1 <1>  -0.3630 
  2 C       -0.5120     1.0810     1.4000 C.ar  1 <1>   0.3920 
  3 C       -2.2560     2.1510     0.4440 C.3   1 <1>   0.2000 
  4 N        0.6060     0.9360     2.0610 N.ar  1 <1>  -0.6200 
  5 C       -1.1590     0.0820     0.7410 C.ar  1 <1>  -0.1440 
  6 C       -2.3860     0.6530     0.0890 C.3   1 <1>  -0.0160 
  7 C       -2.1040     3.1010    -0.7670 C.3   1 <1>   0.3430 
  8 C        1.0540    -0.3100     2.0560 C.ar  1 <1>   0.4760 
  9 C       -0.6010    -1.1680     0.7910 C.ar  1 <1>   0.1660 
 10 N       -0.6830     3.3210    -1.2180 N.4   1 <1>  -0.9590 
 11 N        0.5230    -1.3640     1.4500 N.ar  1 <1>  -0.6200 
 12 C        2.3270    -0.5720     2.8230 C.3   1 <1>  -0.0970 
 13 C       -1.2170    -2.3750     0.1140 C.3   1 <1>  -0.0970 
 14 C       -0.5440     4.6440    -1.9140 C.3   1 <1>   0.3430 
 15 C       -0.0760     2.1950    -1.9800 C.3   1 <1>   0.3430 
 16 C        0.9110     5.0120    -2.2700 C.3   1 <1>   0.2090 
 17 C        1.3500     1.9380    -1.4870 C.3   1 <1>  -0.1600 
 18 N        1.9100     4.3860    -1.3370 N.pl3 1 <1>  -0.8380 
 19 C        2.3770     3.0370    -1.7770 C.3   1 <1>   0.2090 
 20 C        2.7170     5.1500    -0.5460 C.ar  1 <1>   0.1000 
 21 C        2.9110     4.9020     0.8290 C.ar  1 <1>  -0.1430 
 22 C        3.4230     6.2290    -1.0980 C.ar  1 <1>  -0.1500 
 23 C        3.7550     5.7030     1.5610 C.ar  1 <1>   0.2110 
 24 C        2.1910     3.7570     1.5300 C.3   1 <1>  -0.0970 
 25 C        4.2540     7.0050    -0.3340 C.ar  1 <1>   0.2110 
 26 N        4.4120     6.7390     0.9840 N.ar  1 <1>  -0.1790 
 27 H       -3.1060     2.4510     1.0330 H     1 <1>   0.0800 
 28 H       -2.4000     0.4730    -0.9700 H     1 <1>   0.0800 
 29 H       -3.2740     0.2370     0.5320 H     1 <1>   0.0800 
 30 H       -2.5170     4.0500    -0.4670 H     1 <1>   0.0800 
 31 H       -2.7060     2.7440    -1.5860 H     1 <1>   0.0800 
 32 H       -0.0920     3.4070    -0.3690 H     1 <1>   0.4500 
 33 H        2.6810     0.3260     3.2940 H     1 <1>   0.0800 
 34 H        3.0810    -0.9410     2.1530 H     1 <1>   0.0800 
 35 H        2.1400    -1.3110     3.5790 H     1 <1>   0.0800 
 36 H       -2.1360    -2.1250    -0.3800 H     1 <1>   0.0800 
 37 H       -1.4170    -3.1320     0.8510 H     1 <1>   0.0800 
 38 H       -0.5280    -2.7750    -0.6070 H     1 <1>   0.0800 
 39 H       -0.9230     5.4160    -1.2650 H     1 <1>   0.0800 
 40 H       -1.1400     4.6570    -2.8110 H     1 <1>   0.0800 
 41 H       -0.0730     2.4110    -3.0360 H     1 <1>   0.0800 
 42 H       -0.6490     1.2980    -1.8240 H     1 <1>   0.0800 
 43 H        0.9980     6.0840    -2.2460 H     1 <1>   0.0800 
 44 H        1.1160     4.7020    -3.2810 H     1 <1>   0.0800 
 45 H        1.7030     1.0380    -1.9580 H     1 <1>   0.0800 
 46 H        1.3410     1.7340    -0.4350 H     1 <1>   0.0800 
 47 H        2.5930     3.0610    -2.8320 H     1 <1>   0.0800 
 48 H        3.2990     2.7940    -1.2720 H     1 <1>   0.0800 
 49 H        3.3150     6.4370    -2.1480 H     1 <1>   0.1500 
 50 H        3.9110     5.5250     2.6130 H     1 <1>   0.1500 
 51 H        1.1460     3.7710     1.2880 H     1 <1>   0.0800 
 52 H        2.2790     3.8250     2.6000 H     1 <1>   0.0800 
 53 H        2.6080     2.8150     1.2240 H     1 <1>   0.0800 
 54 H        4.7950     7.8320    -0.7660 H     1 <1>   0.1500 
 55 H        5.0380     7.3240     1.5510 H     1 <1>   0.4570 
@<TRIPOS>BOND
  1   1   2  1   
  2   1   3  1   
  3   2   4  ar  
  4   2   5  ar  
  5   3   6  1   
  6   3   7  1   
  7   3  27  1   
  8   4   8  ar  
  9   5   6  1   
 10   5   9  ar  
 11   6  28  1   
 12   6  29  1   
 13   7  10  1   
 14   7  30  1   
 15   7  31  1   
 16   8  11  ar  
 17   8  12  1   
 18   9  11  ar  
 19   9  13  1   
 20  10  14  1   
 21  10  15  1   
 22  10  32  1   
 23  12  33  1   
 24  12  34  1   
 25  12  35  1   
 26  13  36  1   
 27  13  37  1   
 28  13  38  1   
 29  14  16  1   
 30  14  39  1   
 31  14  40  1   
 32  15  17  1   
 33  15  41  1   
 34  15  42  1   
 35  16  18  1   
 36  16  43  1   
 37  16  44  1   
 38  17  19  1   
 39  17  45  1   
 40  17  46  1   
 41  18  19  1   
 42  18  20  1   
 43  19  47  1   
 44  19  48  1   
 45  20  21  ar  
 46  20  22  ar  
 47  21  23  ar  
 48  21  24  1   
 49  22  25  ar  
 50  22  49  1   
 51  23  26  ar  
 52  23  50  1   
 53  24  51  1   
 54  24  52  1   
 55  24  53  1   
 56  25  26  ar  
 57  25  54  1   
 58  26  55  1   
@<TRIPOS>SUBSTRUCTURE
  1 ****  17 GROUP 4 **** **** 0

# MOE 2024.06 (io_trps.svl 2023.06)
