@<TRIPOS>MOLECULE
NONAME
36 38 1 0 0 
SMALL
USER_CHARGES


@<TRIPOS>ATOM
  1 F        0.2260     3.2910     2.8760 F     1 <1>  -0.1900 
  2 C        0.0440     3.2900     1.5830 C.ar  1 <1>   0.1900 
  3 C       -1.0580     3.9420     1.0630 C.ar  1 <1>  -0.1500 
  4 C        0.9620     2.6380     0.7830 C.ar  1 <1>  -0.1500 
  5 C       -1.2550     3.9470    -0.3120 C.ar  1 <1>  -0.1440 
  6 C        0.7620     2.6400    -0.5870 C.ar  1 <1>  -0.1500 
  7 C       -0.3390     3.2880    -1.1260 C.ar  1 <1>  -0.1500 
  8 C       -2.4600     4.6620    -0.9340 C.3   1 <1>   0.3940 
  9 N       -2.6570     5.9840    -0.2480 N.3   1 <1>  -0.8100 
 10 C       -3.7120     3.7420    -0.9420 C.2   1 <1>   0.5690 
 11 C       -4.0100     6.5290    -0.4910 C.3   1 <1>   0.1100 
 12 C       -1.5730     6.9470    -0.5780 C.3   1 <1>   0.2900 
 13 O       -3.6550     2.6300    -1.4130 O.2   1 <1>  -0.5700 
 14 N       -4.9010     4.2040    -0.4740 N.am  1 <1>  -0.7300 
 15 C       -5.0960     5.5790     0.0490 C.3   1 <1>   0.1400 
 16 C       -1.5290     8.2110     0.2850 C.2   1 <1>   0.2980 
 17 O       -0.7240     9.1650    -0.0590 O.3   1 <1>  -0.2800 
 18 N       -2.1890     8.5030     1.3450 N.2   1 <1>  -0.3380 
 19 C       -0.9140    10.0710     0.8430 C.2   1 <1>   0.2980 
 20 N       -1.7860     9.7220     1.7070 N.2   1 <1>  -0.3380 
 21 C       -0.1370    11.3650     0.7910 C.3   1 <1>  -0.0600 
 22 H       -1.7470     4.4380     1.7250 H     1 <1>   0.1500 
 23 H        1.8060     2.1420     1.2250 H     1 <1>   0.1500 
 24 H        1.4590     2.1330    -1.2320 H     1 <1>   0.1500 
 25 H       -0.4830     3.2680    -2.1930 H     1 <1>   0.1500 
 26 H       -2.2410     4.8550    -1.9680 H     1 <1>   0.0800 
 27 H       -4.1620     6.6860    -1.5460 H     1 <1>   0.0800 
 28 H       -4.1250     7.4780     0.0030 H     1 <1>   0.0800 
 29 H       -1.6650     7.2430    -1.6080 H     1 <1>   0.0800 
 30 H       -0.6200     6.4620    -0.4610 H     1 <1>   0.0800 
 31 H       -5.6830     3.5480    -0.4400 H     1 <1>   0.3700 
 32 H       -6.0660     5.9410    -0.2430 H     1 <1>   0.0800 
 33 H       -5.0480     5.5610     1.1240 H     1 <1>   0.0800 
 34 H       -0.3460    11.8760    -0.1310 H     1 <1>   0.0800 
 35 H        0.9150    11.1590     0.8530 H     1 <1>   0.0800 
 36 H       -0.4220    11.9940     1.6140 H     1 <1>   0.0800 
@<TRIPOS>BOND
  1   1   2  1   
  2   2   3  ar  
  3   2   4  ar  
  4   3   5  ar  
  5   3  22  1   
  6   4   6  ar  
  7   4  23  1   
  8   5   7  ar  
  9   5   8  1   
 10   6   7  ar  
 11   6  24  1   
 12   7  25  1   
 13   8   9  1   
 14   8  10  1   
 15   8  26  1   
 16   9  11  1   
 17   9  12  1   
 18  10  13  2   
 19  10  14  am  
 20  11  15  1   
 21  11  27  1   
 22  11  28  1   
 23  12  16  1   
 24  12  29  1   
 25  12  30  1   
 26  14  15  1   
 27  14  31  1   
 28  15  32  1   
 29  15  33  1   
 30  16  17  1   
 31  16  18  2   
 32  17  19  1   
 33  18  20  1   
 34  19  20  2   
 35  19  21  1   
 36  21  34  1   
 37  21  35  1   
 38  21  36  1   
@<TRIPOS>SUBSTRUCTURE
  1 ****   9 GROUP 4 **** **** 0

# MOE 2024.06 (io_trps.svl 2023.06)
