@<TRIPOS>MOLECULE
NONAME
49 52 1 0 0 
SMALL
USER_CHARGES


@<TRIPOS>ATOM
  1 O        0.7890    -0.5000     1.1210 O.3   1 <1>  -0.5600 
  2 C        1.8180    -1.0740     0.3470 C.3   1 <1>   0.4240 
  3 C       -0.5230    -0.8680     0.8250 C.3   1 <1>   0.1200 
  4 C        1.5290    -2.5540     0.0170 C.ar  1 <1>  -0.1440 
  5 C        1.9740    -0.2380    -0.9360 C.3   1 <1>  -0.1600 
  6 C        3.0810    -0.9650     1.2140 C.3   1 <1>  -0.1600 
  7 C       -0.7030    -2.3500     1.1390 C.3   1 <1>  -0.0160 
  8 C        0.3390    -3.1600     0.3940 C.ar  1 <1>  -0.1440 
  9 C        2.4620    -3.3150    -0.6750 C.ar  1 <1>  -0.1500 
 10 C        2.3690     1.2060    -0.6320 C.3   1 <1>   0.2090 
 11 C        3.4500     0.4910     1.4890 C.3   1 <1>   0.2090 
 12 C        0.0980    -4.4910     0.0930 C.ar  1 <1>  -0.1500 
 13 C        2.2440    -4.6470    -0.9800 C.ar  1 <1>   0.0820 
 14 N        3.6110     1.1910     0.1850 N.pl3 1 <1>  -0.8380 
 15 C        1.0360    -5.2530    -0.6000 C.ar  1 <1>   0.0820 
 16 O        3.2710    -5.2470    -1.6490 O.3   1 <1>  -0.3630 
 17 C        4.7600     1.8240    -0.2120 C.2   1 <1>   0.2000 
 18 O        0.7890    -6.5570    -0.9250 O.3   1 <1>  -0.3630 
 19 C        3.5130    -6.6330    -1.5490 C.3   1 <1>   0.0400 
 20 N        5.9350     1.2460     0.1330 N.pl3 1 <1>  -0.5500 
 21 C        4.8430     2.9710    -0.9390 C.2   1 <1>  -0.1360 
 22 C       -0.4600    -7.1690    -0.6920 C.3   1 <1>   0.0400 
 23 C        7.1350     1.7860    -0.2270 C.2   1 <1>   0.4400 
 24 C        6.0990     3.4930    -1.2870 C.2   1 <1>   0.7670 
 25 N        7.2570     2.8640    -0.9050 N.2   1 <1>  -0.6610 
 26 O        6.1930     4.5250    -1.9440 O.2   1 <1>  -0.5700 
 27 H       -0.7240    -0.6640    -0.2120 H     1 <1>   0.0800 
 28 H       -1.1790    -0.2720     1.4350 H     1 <1>   0.0800 
 29 H        1.0650    -0.2610    -1.5060 H     1 <1>   0.0800 
 30 H        2.7420    -0.6670    -1.5520 H     1 <1>   0.0800 
 31 H        3.9100    -1.4350     0.7220 H     1 <1>   0.0800 
 32 H        2.9160    -1.4830     2.1410 H     1 <1>   0.0800 
 33 H       -1.6920    -2.6540     0.8470 H     1 <1>   0.0800 
 34 H       -0.5980    -2.5070     2.1970 H     1 <1>   0.0800 
 35 H        3.3920    -2.8810    -0.9930 H     1 <1>   0.1500 
 36 H        1.5850     1.7010    -0.0850 H     1 <1>   0.0800 
 37 H        2.5300     1.7340    -1.5560 H     1 <1>   0.0800 
 38 H        4.3530     0.5480     2.0700 H     1 <1>   0.0800 
 39 H        2.6660     0.9690     2.0520 H     1 <1>   0.0800 
 40 H       -0.8330    -4.9180     0.4090 H     1 <1>   0.1500 
 41 H        4.5190    -6.8220    -1.8770 H     1 <1>   0.0800 
 42 H        2.8200    -7.1520    -2.1870 H     1 <1>   0.0800 
 43 H        3.3940    -6.9380    -0.5250 H     1 <1>   0.0800 
 44 H        5.8910     0.3570     0.6240 H     1 <1>   0.4000 
 45 H        3.9780     3.5120    -1.2570 H     1 <1>   0.1500 
 46 H       -0.4200    -8.1680    -1.0870 H     1 <1>   0.0800 
 47 H       -1.2240    -6.6070    -1.2000 H     1 <1>   0.0800 
 48 H       -0.6420    -7.2030     0.3670 H     1 <1>   0.0800 
 49 H        8.0160     1.2540     0.0890 H     1 <1>   0.0600 
@<TRIPOS>BOND
  1   1   2  1   
  2   1   3  1   
  3   2   4  1   
  4   2   5  1   
  5   2   6  1   
  6   3   7  1   
  7   3  27  1   
  8   3  28  1   
  9   4   8  ar  
 10   4   9  ar  
 11   5  10  1   
 12   5  29  1   
 13   5  30  1   
 14   6  11  1   
 15   6  31  1   
 16   6  32  1   
 17   7   8  1   
 18   7  33  1   
 19   7  34  1   
 20   8  12  ar  
 21   9  13  ar  
 22   9  35  1   
 23  10  14  1   
 24  10  36  1   
 25  10  37  1   
 26  11  14  1   
 27  11  38  1   
 28  11  39  1   
 29  12  15  ar  
 30  12  40  1   
 31  13  15  ar  
 32  13  16  1   
 33  14  17  1   
 34  15  18  1   
 35  16  19  1   
 36  17  20  1   
 37  17  21  2   
 38  18  22  1   
 39  19  41  1   
 40  19  42  1   
 41  19  43  1   
 42  20  23  1   
 43  20  44  1   
 44  21  24  1   
 45  21  45  1   
 46  22  46  1   
 47  22  47  1   
 48  22  48  1   
 49  23  25  2   
 50  23  49  1   
 51  24  25  1   
 52  24  26  2   
@<TRIPOS>SUBSTRUCTURE
  1 ****   2 GROUP 4 **** **** 0

# MOE 2024.06 (io_trps.svl 2023.06)
