@<TRIPOS>MOLECULE
NONAME
51 55 1 0 0 
SMALL
USER_CHARGES


@<TRIPOS>ATOM
  1 O       -1.5270     3.3980    -2.2870 O.2   1 <1>  -0.5700 
  2 C       -0.5150     3.5420    -1.6250 C.2   1 <1>   0.7800 
  3 O        0.7040     3.2920    -2.0910 O.3   1 <1>  -0.2330 
  4 N       -0.4810     3.9290    -0.3120 N.am  1 <1>  -0.4770 
  5 C        1.5600     3.5280    -1.0790 C.ar  1 <1>   0.0830 
  6 C        0.8580     3.9300     0.0380 C.ar  1 <1>   0.1170 
  7 C       -1.5880     4.5400     0.4720 C.3   1 <1>   0.1400 
  8 C        2.9370     3.4130    -1.0820 C.ar  1 <1>  -0.1500 
  9 C        1.5350     4.2370     1.2100 C.ar  1 <1>  -0.1500 
 10 C       -2.6950     3.5240     0.8220 C.3   1 <1>   0.3430 
 11 C        3.6140     3.7180     0.0880 C.ar  1 <1>  -0.1500 
 12 C        2.9180     4.1270     1.2240 C.ar  1 <1>  -0.1500 
 13 N       -3.4720     3.0540    -0.3720 N.4   1 <1>  -0.9590 
 14 C       -4.3830     4.0940    -0.9670 C.3   1 <1>   0.3430 
 15 C       -4.1790     1.7550    -0.1190 C.3   1 <1>   0.3430 
 16 C       -5.5850     4.4590    -0.0620 C.3   1 <1>   0.1430 
 17 C       -5.6790     1.9280     0.1770 C.3   1 <1>  -0.1600 
 18 C       -6.7270     4.8660    -0.9690 C.ar  1 <1>   0.1670 
 19 C       -6.0190     3.2740     0.8370 C.3   1 <1>  -0.1600 
 20 C       -5.3610     5.7510     0.7720 C.3   1 <1>  -0.1600 
 21 N       -7.1080     4.2020    -2.0320 N.ar  1 <1>  -0.6200 
 22 C       -7.3150     6.0260    -0.5590 C.ar  1 <1>  -0.1430 
 23 C       -6.6640     6.5690     0.6860 C.3   1 <1>  -0.0170 
 24 C       -8.1150     4.7680    -2.6840 C.ar  1 <1>   0.7200 
 25 C       -8.3610     6.5090    -1.3070 C.ar  1 <1>   0.1600 
 26 N       -8.7730     5.8770    -2.3830 N.ar  1 <1>  -0.6200 
 27 N       -8.5310     4.1290    -3.7780 N.pl3 1 <1>  -0.9000 
 28 H       -2.0000     5.3680    -0.0780 H     1 <1>   0.0800 
 29 H       -1.1840     4.9330     1.3880 H     1 <1>   0.0800 
 30 H        3.4580     3.0970    -1.9690 H     1 <1>   0.1500 
 31 H        1.0090     4.5530     2.0910 H     1 <1>   0.1500 
 32 H       -3.3710     3.9700     1.5310 H     1 <1>   0.0800 
 33 H       -2.2300     2.6800     1.3060 H     1 <1>   0.0800 
 34 H        4.6880     3.6390     0.1210 H     1 <1>   0.1500 
 35 H        3.4660     4.3600     2.1220 H     1 <1>   0.1500 
 36 H       -2.7730     2.8690    -1.1240 H     1 <1>   0.4500 
 37 H       -4.7740     3.6970    -1.8900 H     1 <1>   0.0800 
 38 H       -3.8310     4.9820    -1.2220 H     1 <1>   0.0800 
 39 H       -3.7110     1.2500     0.7100 H     1 <1>   0.0800 
 40 H       -4.0760     1.1170    -0.9830 H     1 <1>   0.0800 
 41 H       -6.0070     1.1180     0.8050 H     1 <1>   0.0800 
 42 H       -6.2250     1.8400    -0.7480 H     1 <1>   0.0800 
 43 H       -7.0780     3.3280     1.0300 H     1 <1>   0.0800 
 44 H       -5.5190     3.3180     1.7880 H     1 <1>   0.0800 
 45 H       -4.5790     6.3380     0.3220 H     1 <1>   0.0800 
 46 H       -5.0930     5.5570     1.7950 H     1 <1>   0.0800 
 47 H       -6.4700     7.6260     0.6080 H     1 <1>   0.0800 
 48 H       -7.2960     6.3760     1.5370 H     1 <1>   0.0800 
 49 H       -8.8630     7.4200    -1.0250 H     1 <1>   0.1500 
 50 H       -9.4430     4.4170    -4.1230 H     1 <1>   0.4000 
 51 H       -8.3140     3.1400    -3.8340 H     1 <1>   0.4000 
@<TRIPOS>BOND
  1   1   2  2   
  2   2   3  1   
  3   2   4  am  
  4   3   5  1   
  5   4   6  1   
  6   4   7  1   
  7   5   6  ar  
  8   5   8  ar  
  9   6   9  ar  
 10   7  10  1   
 11   7  28  1   
 12   7  29  1   
 13   8  11  ar  
 14   8  30  1   
 15   9  12  ar  
 16   9  31  1   
 17  10  13  1   
 18  10  32  1   
 19  10  33  1   
 20  11  12  ar  
 21  11  34  1   
 22  12  35  1   
 23  13  14  1   
 24  13  15  1   
 25  13  36  1   
 26  14  16  1   
 27  14  37  1   
 28  14  38  1   
 29  15  17  1   
 30  15  39  1   
 31  15  40  1   
 32  16  18  1   
 33  16  19  1   
 34  16  20  1   
 35  17  19  1   
 36  17  41  1   
 37  17  42  1   
 38  18  21  ar  
 39  18  22  ar  
 40  19  43  1   
 41  19  44  1   
 42  20  23  1   
 43  20  45  1   
 44  20  46  1   
 45  21  24  ar  
 46  22  23  1   
 47  22  25  ar  
 48  23  47  1   
 49  23  48  1   
 50  24  26  ar  
 51  24  27  1   
 52  25  26  ar  
 53  25  49  1   
 54  27  50  1   
 55  27  51  1   
@<TRIPOS>SUBSTRUCTURE
  1 ****  14 GROUP 4 **** **** 0

# MOE 2024.06 (io_trps.svl 2023.06)
