@<TRIPOS>MOLECULE
NONAME
44 46 1 0 0 
SMALL
USER_CHARGES


@<TRIPOS>ATOM
  1 S       -1.2000    -0.8560    -0.5000 S.3   1 <1>  -0.0800 
  2 C       -1.5230    -1.5090     1.1120 C.2   1 <1>  -0.0450 
  3 C       -0.4270     0.5770     0.1440 C.2   1 <1>  -0.1400 
  4 C       -2.1870    -2.7810     1.2600 C.2   1 <1>   0.7150 
  5 C       -1.0350    -0.6370     2.0300 C.2   1 <1>  -0.1500 
  6 C       -0.4240     0.5320     1.4900 C.2   1 <1>  -0.1500 
  7 C        0.0910     1.5830    -0.8680 C.3   1 <1>   0.0200 
  8 O       -2.2160    -3.3320     2.3470 O.2   1 <1>  -0.5700 
  9 N       -2.8340    -3.3810     0.2120 N.am  1 <1>  -0.6600 
 10 C        0.7420     2.7960    -0.1990 C.3   1 <1>  -0.2400 
 11 C       -2.7270    -4.8680     0.0630 C.3   1 <1>   0.3640 
 12 C       -4.0670    -2.7440    -0.3210 C.3   1 <1>   0.1400 
 13 C       -1.2370    -5.2230    -0.0250 C.ar  1 <1>  -0.1430 
 14 C       -3.4680    -5.4370    -1.1870 C.3   1 <1>   0.2000 
 15 C       -4.4590    -3.3540    -1.6660 C.3   1 <1>   0.1200 
 16 C       -0.4260    -4.6610    -1.0030 C.ar  1 <1>  -0.1500 
 17 C       -0.6770    -6.1130     0.8800 C.ar  1 <1>  -0.1500 
 18 O       -4.6380    -4.7260    -1.5070 O.3   1 <1>  -0.5600 
 19 C       -3.9020    -6.9060    -1.0280 C.3   1 <1>   0.1200 
 20 C        0.9150    -4.9940    -1.0830 C.ar  1 <1>  -0.1500 
 21 C        0.6630    -6.4480     0.8020 C.ar  1 <1>  -0.1500 
 22 O       -2.8740    -7.7220    -0.5660 O.3   1 <1>  -0.6800 
 23 C        1.4600    -5.8900    -0.1810 C.ar  1 <1>  -0.1500 
 24 H       -1.0870    -0.7950     3.0940 H     1 <1>   0.1500 
 25 H       -0.0110     1.2830     2.1400 H     1 <1>   0.1500 
 26 H        0.8110     1.0980    -1.5040 H     1 <1>   0.0800 
 27 H       -0.7280     1.9130    -1.4830 H     1 <1>   0.0800 
 28 H        1.5770     2.4840     0.4040 H     1 <1>   0.0800 
 29 H        0.0290     3.3040     0.4270 H     1 <1>   0.0800 
 30 H        1.0960     3.4840    -0.9460 H     1 <1>   0.0800 
 31 H       -3.1500    -5.3240     0.9420 H     1 <1>   0.0800 
 32 H       -4.8710    -2.8890     0.3800 H     1 <1>   0.0800 
 33 H       -3.9140    -1.6860    -0.4380 H     1 <1>   0.0800 
 34 H       -2.8230    -5.3680    -2.0450 H     1 <1>   0.0800 
 35 H       -3.7030    -3.1760    -2.4110 H     1 <1>   0.0800 
 36 H       -5.3910    -2.9380    -2.0050 H     1 <1>   0.0800 
 37 H       -0.8350    -3.9530    -1.7020 H     1 <1>   0.1500 
 38 H       -1.2860    -6.5510     1.6540 H     1 <1>   0.1500 
 39 H       -4.2330    -7.2940    -1.9750 H     1 <1>   0.0800 
 40 H       -4.7070    -6.9760    -0.3170 H     1 <1>   0.0800 
 41 H        1.5350    -4.5510    -1.8430 H     1 <1>   0.1500 
 42 H        1.0850    -7.1400     1.5100 H     1 <1>   0.1500 
 43 H       -2.0380    -7.5560    -1.0490 H     1 <1>   0.4000 
 44 H        2.5030    -6.1490    -0.2410 H     1 <1>   0.1500 
@<TRIPOS>BOND
  1   1   2  1   
  2   1   3  1   
  3   2   4  1   
  4   2   5  2   
  5   3   6  2   
  6   3   7  1   
  7   4   8  2   
  8   4   9  am  
  9   5   6  1   
 10   5  24  1   
 11   6  25  1   
 12   7  10  1   
 13   7  26  1   
 14   7  27  1   
 15   9  11  1   
 16   9  12  1   
 17  10  28  1   
 18  10  29  1   
 19  10  30  1   
 20  11  13  1   
 21  11  14  1   
 22  11  31  1   
 23  12  15  1   
 24  12  32  1   
 25  12  33  1   
 26  13  16  ar  
 27  13  17  ar  
 28  14  18  1   
 29  14  19  1   
 30  14  34  1   
 31  15  18  1   
 32  15  35  1   
 33  15  36  1   
 34  16  20  ar  
 35  16  37  1   
 36  17  21  ar  
 37  17  38  1   
 38  19  22  1   
 39  19  39  1   
 40  19  40  1   
 41  20  23  ar  
 42  20  41  1   
 43  21  23  ar  
 44  21  42  1   
 45  22  43  1   
 46  23  44  1   
@<TRIPOS>SUBSTRUCTURE
  1 ****   9 GROUP 4 **** **** 0

# MOE 2024.06 (io_trps.svl 2023.06)
