@<TRIPOS>MOLECULE
NONAME
50 52 1 0 0 
SMALL
USER_CHARGES


@<TRIPOS>ATOM
  1 O       -0.8920     0.0800    -0.2470 O.3   1 <1>  -0.3630 
  2 C       -0.5010     1.3820    -0.3190 C.ar  1 <1>   0.0820 
  3 C       -2.0780    -0.3720    -0.8470 C.3   1 <1>   0.1200 
  4 C        0.7310     1.7190     0.2430 C.ar  1 <1>  -0.1440 
  5 C       -1.2840     2.3630    -0.9270 C.ar  1 <1>  -0.1500 
  6 C       -2.1540    -1.8820    -0.6040 C.3   1 <1>   0.3430 
  7 C        1.1550     3.0420     0.1820 C.ar  1 <1>  -0.1500 
  8 C        1.5710     0.6200     0.9040 C.3   1 <1>  -0.0170 
  9 C       -0.8450     3.6720    -0.9770 C.ar  1 <1>  -0.1500 
 10 N       -3.3750    -2.5110    -1.2130 N.4   1 <1>  -0.9590 
 11 C        0.3740     4.0110    -0.4230 C.ar  1 <1>  -0.1500 
 12 C        2.9130     1.0660     1.4980 C.3   1 <1>  -0.2400 
 13 C       -4.6460    -2.1160    -0.5200 C.3   1 <1>   0.3430 
 14 C       -3.3090    -3.9970    -1.0990 C.3   1 <1>   0.3430 
 15 C       -5.0070    -3.2580     0.4430 C.3   1 <1>   0.2000 
 16 C       -3.9490    -4.3440     0.2460 C.3   1 <1>  -0.0800 
 17 O       -4.9890    -2.8210     1.7580 O.3   1 <1>  -0.6800 
 18 C       -4.5380    -5.7670     0.3010 C.3   1 <1>  -0.0170 
 19 C       -3.4720    -6.8400     0.1280 C.ar  1 <1>   0.1670 
 20 N       -2.8460    -6.8650    -1.0390 N.ar  1 <1>  -0.6200 
 21 C       -3.2020    -7.7320     1.1660 C.ar  1 <1>   0.1600 
 22 C       -1.9540    -7.8430    -1.1030 C.ar  1 <1>   0.1600 
 23 N       -2.2990    -8.6950     1.1070 N.ar  1 <1>  -0.6200 
 24 C       -1.6880    -8.7270    -0.0640 C.ar  1 <1>   0.1600 
 25 H       -2.9000     0.1430    -0.3830 H     1 <1>   0.0800 
 26 H       -2.0240    -0.1530    -1.8990 H     1 <1>   0.0800 
 27 H       -2.2350     2.1400    -1.3660 H     1 <1>   0.1500 
 28 H       -2.1440    -2.0630     0.4580 H     1 <1>   0.0800 
 29 H       -1.2720    -2.3320    -1.0320 H     1 <1>   0.0800 
 30 H        2.0960     3.3460     0.6000 H     1 <1>   0.1500 
 31 H        0.9860     0.1750     1.6900 H     1 <1>   0.0800 
 32 H        1.7650    -0.1440     0.1720 H     1 <1>   0.0800 
 33 H       -1.4480     4.4310    -1.4460 H     1 <1>   0.1500 
 34 H       -3.4160    -2.2580    -2.2120 H     1 <1>   0.4500 
 35 H        0.7180     5.0300    -0.4610 H     1 <1>   0.1500 
 36 H        2.7570     1.8020     2.2670 H     1 <1>   0.0800 
 37 H        3.5440     1.4790     0.7320 H     1 <1>   0.0800 
 38 H        3.4170     0.2220     1.9340 H     1 <1>   0.0800 
 39 H       -4.5430    -1.1860     0.0140 H     1 <1>   0.0800 
 40 H       -5.4360    -2.0170    -1.2470 H     1 <1>   0.0800 
 41 H       -3.8860    -4.4490    -1.8910 H     1 <1>   0.0800 
 42 H       -2.2970    -4.3650    -1.1610 H     1 <1>   0.0800 
 43 H       -6.0030    -3.6080     0.2280 H     1 <1>   0.0800 
 44 H       -3.1830    -4.2600     0.9970 H     1 <1>   0.0800 
 45 H       -4.0900    -2.7760     2.1390 H     1 <1>   0.4000 
 46 H       -5.2760    -5.8950    -0.4730 H     1 <1>   0.0800 
 47 H       -5.0380    -5.9040     1.2450 H     1 <1>   0.0800 
 48 H       -3.7530    -7.6500     2.0860 H     1 <1>   0.1500 
 49 H       -1.4030    -7.9550    -2.0210 H     1 <1>   0.1500 
 50 H       -0.9420    -9.4890    -0.2080 H     1 <1>   0.1500 
@<TRIPOS>BOND
  1   1   2  1   
  2   1   3  1   
  3   2   4  ar  
  4   2   5  ar  
  5   3   6  1   
  6   3  25  1   
  7   3  26  1   
  8   4   7  ar  
  9   4   8  1   
 10   5   9  ar  
 11   5  27  1   
 12   6  10  1   
 13   6  28  1   
 14   6  29  1   
 15   7  11  ar  
 16   7  30  1   
 17   8  12  1   
 18   8  31  1   
 19   8  32  1   
 20   9  11  ar  
 21   9  33  1   
 22  10  13  1   
 23  10  14  1   
 24  10  34  1   
 25  11  35  1   
 26  12  36  1   
 27  12  37  1   
 28  12  38  1   
 29  13  15  1   
 30  13  39  1   
 31  13  40  1   
 32  14  16  1   
 33  14  41  1   
 34  14  42  1   
 35  15  16  1   
 36  15  17  1   
 37  15  43  1   
 38  16  18  1   
 39  16  44  1   
 40  17  45  1   
 41  18  19  1   
 42  18  46  1   
 43  18  47  1   
 44  19  20  ar  
 45  19  21  ar  
 46  20  22  ar  
 47  21  23  ar  
 48  21  48  1   
 49  22  24  ar  
 50  22  49  1   
 51  23  24  ar  
 52  24  50  1   
@<TRIPOS>SUBSTRUCTURE
  1 ****   6 GROUP 4 **** **** 0

# MOE 2024.06 (io_trps.svl 2023.06)
