@<TRIPOS>MOLECULE
NONAME
49 52 1 0 0 
SMALL
USER_CHARGES


@<TRIPOS>ATOM
  1 O       -0.5440     0.0250    -0.0160 O.2   1 <1>  -0.5700 
  2 C       -1.5210     0.6870    -0.3140 C.2   1 <1>   0.5440 
  3 N       -2.7490     0.0660    -0.3520 N.am  1 <1>  -0.6600 
  4 C       -1.3680     2.1030    -0.5980 C.ar  1 <1>   0.0860 
  5 C       -4.0560     0.7570    -0.2900 C.3   1 <1>   0.1400 
  6 C       -2.9130    -1.3810    -0.0930 C.3   1 <1>   0.1400 
  7 C       -0.6080     2.9190     0.2100 C.ar  1 <1>  -0.1500 
  8 C       -1.9870     2.6950    -1.7190 C.ar  1 <1>  -0.1500 
  9 C       -4.9920    -0.2190     0.4360 C.3   1 <1>  -0.0800 
 10 C       -4.4140    -1.6090     0.1100 C.3   1 <1>  -0.0800 
 11 C       -0.4530     4.2970    -0.0280 C.ar  1 <1>   0.0000 
 12 C       -1.8590     4.0300    -1.9810 C.ar  1 <1>  -0.1500 
 13 C       -6.5170    -0.0540     0.1480 C.3   1 <1>   0.2800 
 14 C       -5.0910    -2.2090    -1.1320 C.3   1 <1>  -0.1600 
 15 C       -1.0960     4.8690    -1.1450 C.ar  1 <1>   0.0000 
 16 C        0.3210     5.1290     0.8070 C.ar  1 <1>  -0.1500 
 17 O       -6.7140     0.5040    -1.1020 O.3   1 <1>  -0.6800 
 18 C       -7.2040    -1.4320     0.1230 C.3   1 <1>  -0.1600 
 19 C       -7.2210     0.8680     1.1680 C.3   1 <1>  -0.1600 
 20 C       -6.6030    -2.4040    -0.9160 C.3   1 <1>  -0.1600 
 21 C       -0.9470     6.2500    -1.3820 C.ar  1 <1>  -0.1500 
 22 C        0.4500     6.4670     0.5530 C.ar  1 <1>  -0.1500 
 23 C       -6.6910     2.3110     1.2390 C.3   1 <1>  -0.2400 
 24 C       -0.1920     7.0340    -0.5530 C.ar  1 <1>  -0.1500 
 25 H       -3.9780     1.6930     0.2350 H     1 <1>   0.0800 
 26 H       -4.3830     0.9390    -1.2980 H     1 <1>   0.0800 
 27 H       -2.5240    -1.9530    -0.9180 H     1 <1>   0.0800 
 28 H       -2.3710    -1.6400     0.8010 H     1 <1>   0.0800 
 29 H       -0.1090     2.4880     1.0600 H     1 <1>   0.1500 
 30 H       -2.5630     2.0640    -2.3720 H     1 <1>   0.1500 
 31 H       -4.8370    -0.0750     1.4900 H     1 <1>   0.0800 
 32 H       -4.5590    -2.2830     0.9360 H     1 <1>   0.0800 
 33 H       -2.3400     4.4650    -2.8390 H     1 <1>   0.1500 
 34 H       -4.9400    -1.5410    -1.9630 H     1 <1>   0.0800 
 35 H       -4.6390    -3.1520    -1.3880 H     1 <1>   0.0800 
 36 H        0.8120     4.6870     1.6550 H     1 <1>   0.1500 
 37 H       -7.6670     0.5210    -1.2980 H     1 <1>   0.4000 
 38 H       -7.0920    -1.8730     1.0980 H     1 <1>   0.0800 
 39 H       -8.2600    -1.3260    -0.0490 H     1 <1>   0.0800 
 40 H       -8.2720     0.9010     0.9400 H     1 <1>   0.0800 
 41 H       -7.1320     0.4290     2.1470 H     1 <1>   0.0800 
 42 H       -6.7940    -3.4130    -0.5930 H     1 <1>   0.0800 
 43 H       -7.1000    -2.2690    -1.8620 H     1 <1>   0.0800 
 44 H       -1.4410     6.6810    -2.2340 H     1 <1>   0.1500 
 45 H        1.0420     7.0970     1.1950 H     1 <1>   0.1500 
 46 H       -6.7100     2.7740     0.2680 H     1 <1>   0.0800 
 47 H       -5.6850     2.3330     1.6150 H     1 <1>   0.0800 
 48 H       -7.3060     2.8930     1.9030 H     1 <1>   0.0800 
 49 H       -0.0810     8.0890    -0.7390 H     1 <1>   0.1500 
@<TRIPOS>BOND
  1   1   2  2   
  2   2   3  am  
  3   2   4  1   
  4   3   5  1   
  5   3   6  1   
  6   4   7  ar  
  7   4   8  ar  
  8   5   9  1   
  9   5  25  1   
 10   5  26  1   
 11   6  10  1   
 12   6  27  1   
 13   6  28  1   
 14   7  11  ar  
 15   7  29  1   
 16   8  12  ar  
 17   8  30  1   
 18   9  10  1   
 19   9  13  1   
 20   9  31  1   
 21  10  14  1   
 22  10  32  1   
 23  11  15  ar  
 24  11  16  ar  
 25  12  15  ar  
 26  12  33  1   
 27  13  17  1   
 28  13  18  1   
 29  13  19  1   
 30  14  20  1   
 31  14  34  1   
 32  14  35  1   
 33  15  21  ar  
 34  16  22  ar  
 35  16  36  1   
 36  17  37  1   
 37  18  20  1   
 38  18  38  1   
 39  18  39  1   
 40  19  23  1   
 41  19  40  1   
 42  19  41  1   
 43  20  42  1   
 44  20  43  1   
 45  21  24  ar  
 46  21  44  1   
 47  22  24  ar  
 48  22  45  1   
 49  23  46  1   
 50  23  47  1   
 51  23  48  1   
 52  24  49  1   
@<TRIPOS>SUBSTRUCTURE
  1 ****   5 GROUP 4 **** **** 0

# MOE 2024.06 (io_trps.svl 2023.06)
