@<TRIPOS>MOLECULE
NONAME
52 56 1 0 0 
SMALL
USER_CHARGES


@<TRIPOS>ATOM
  1 O       -0.1990     0.4320     2.4950 O.2   1 <1>  -0.5700 
  2 C       -0.2920     1.1800     1.5400 C.2   1 <1>   0.7160 
  3 N       -1.4120     1.1110     0.7350 N.am  1 <1>  -0.6600 
  4 C        0.7420     2.1620     1.3140 C.2   1 <1>  -0.0860 
  5 C       -1.8150     2.2010    -0.2090 C.3   1 <1>   0.1400 
  6 C       -2.4560     0.0630     0.9190 C.3   1 <1>   0.1400 
  7 C        1.4960     2.5010     0.2280 C.2   1 <1>  -0.3320 
  8 C        1.1790     3.0430     2.2990 C.2   1 <1>   0.1390 
  9 C       -3.1020     2.8970     0.2710 C.3   1 <1>   0.1440 
 10 C       -3.7610     0.7090     1.4040 C.3   1 <1>  -0.1600 
 11 N        2.3130     3.5420     0.5720 N.pl3 1 <1>   0.5930 
 12 C        1.4700     1.8400    -1.1460 C.3   1 <1>  -0.0600 
 13 N        2.0770     3.8700     1.8780 N.2   1 <1>  -0.7070 
 14 C       -3.4660     3.9600    -0.7490 C.ar  1 <1>   0.1660 
 15 C       -4.2170     1.8480     0.4740 C.3   1 <1>  -0.1600 
 16 C       -2.8540     3.7420     1.5510 C.3   1 <1>  -0.1600 
 17 C        3.2520     4.2770    -0.2390 C.ar  1 <1>   0.2870 
 18 N       -3.9810     3.7340    -1.9340 N.ar  1 <1>  -0.6200 
 19 C       -3.1670     5.2110    -0.2950 C.ar  1 <1>  -0.1440 
 20 C       -2.5650     5.1800     1.0880 C.3   1 <1>  -0.0170 
 21 N        3.9240     3.6450    -1.2120 N.ar  1 <1>  -0.6200 
 22 C        3.4390     5.6370     0.0180 C.ar  1 <1>  -0.1500 
 23 C       -4.1870     4.8300    -2.6490 C.ar  1 <1>   0.7200 
 24 C       -3.4360     6.2740    -1.1230 C.ar  1 <1>   0.1600 
 25 C        4.7750     4.3710    -1.9170 C.ar  1 <1>   0.1600 
 26 C        4.3260     6.3810    -0.7270 C.ar  1 <1>  -0.1500 
 27 N       -3.9580     6.0930    -2.3150 N.ar  1 <1>  -0.6200 
 28 N       -4.7190     4.6420    -3.8570 N.pl3 1 <1>  -0.9000 
 29 C        5.0100     5.7200    -1.7210 C.ar  1 <1>  -0.1500 
 30 H       -1.9870     1.7710    -1.1810 H     1 <1>   0.0800 
 31 H       -1.0390     2.9370    -0.3130 H     1 <1>   0.0800 
 32 H       -2.1320    -0.6810     1.6270 H     1 <1>   0.0800 
 33 H       -2.6220    -0.4300    -0.0240 H     1 <1>   0.0800 
 34 H        0.7990     3.0360     3.3080 H     1 <1>   0.1500 
 35 H       -3.6110     1.0820     2.4020 H     1 <1>   0.0800 
 36 H       -4.5280    -0.0440     1.4530 H     1 <1>   0.0800 
 37 H        0.7270     1.0640    -1.1870 H     1 <1>   0.0800 
 38 H        2.4250     1.3930    -1.3590 H     1 <1>   0.0800 
 39 H        1.2510     2.5670    -1.9080 H     1 <1>   0.0800 
 40 H       -4.4760     1.4280    -0.4830 H     1 <1>   0.0800 
 41 H       -5.1020     2.3180     0.8670 H     1 <1>   0.0800 
 42 H       -2.0590     3.3540     2.1630 H     1 <1>   0.0800 
 43 H       -3.7510     3.7600     2.1440 H     1 <1>   0.0800 
 44 H       -1.5040     5.3530     1.0270 H     1 <1>   0.0800 
 45 H       -3.0190     5.9050     1.7410 H     1 <1>   0.0800 
 46 H        2.8850     6.1080     0.8110 H     1 <1>   0.1500 
 47 H       -3.2210     7.2800    -0.8060 H     1 <1>   0.1500 
 48 H        5.3180     3.8630    -2.6960 H     1 <1>   0.1500 
 49 H        4.4790     7.4300    -0.5380 H     1 <1>   0.1500 
 50 H       -5.1500     5.4650    -4.2680 H     1 <1>   0.4000 
 51 H       -5.2080     3.7610    -3.9820 H     1 <1>   0.4000 
 52 H        5.7200     6.2410    -2.3380 H     1 <1>   0.1500 
@<TRIPOS>BOND
  1   1   2  2   
  2   2   3  am  
  3   2   4  1   
  4   3   5  1   
  5   3   6  1   
  6   4   7  2   
  7   4   8  1   
  8   5   9  1   
  9   5  30  1   
 10   5  31  1   
 11   6  10  1   
 12   6  32  1   
 13   6  33  1   
 14   7  11  1   
 15   7  12  1   
 16   8  13  2   
 17   8  34  1   
 18   9  14  1   
 19   9  15  1   
 20   9  16  1   
 21  10  15  1   
 22  10  35  1   
 23  10  36  1   
 24  11  13  1   
 25  11  17  1   
 26  12  37  1   
 27  12  38  1   
 28  12  39  1   
 29  14  18  ar  
 30  14  19  ar  
 31  15  40  1   
 32  15  41  1   
 33  16  20  1   
 34  16  42  1   
 35  16  43  1   
 36  17  21  ar  
 37  17  22  ar  
 38  18  23  ar  
 39  19  20  1   
 40  19  24  ar  
 41  20  44  1   
 42  20  45  1   
 43  21  25  ar  
 44  22  26  ar  
 45  22  46  1   
 46  23  27  ar  
 47  23  28  1   
 48  24  27  ar  
 49  24  47  1   
 50  25  29  ar  
 51  25  48  1   
 52  26  29  ar  
 53  26  49  1   
 54  28  50  1   
 55  28  51  1   
 56  29  52  1   
@<TRIPOS>SUBSTRUCTURE
  1 ****   5 GROUP 4 **** **** 0

# MOE 2024.06 (io_trps.svl 2023.06)
