@<TRIPOS>MOLECULE
NONAME
51 54 1 0 0 
SMALL
USER_CHARGES


@<TRIPOS>ATOM
  1 S       -1.1070    -0.7030    -1.9670 S.3   1 <1>  -0.2320 
  2 C       -1.5890     0.7920    -1.2410 C.cat 1 <1>   0.8400 
  3 C       -2.0810    -1.6140    -0.8100 C.2   1 <1>  -0.0490 
  4 N       -1.1730     1.9600    -1.6690 N.pl3 1 <1>  -0.7940 
  5 N       -2.4170     0.5950    -0.2230 N.pl3 1 <1>  -0.6850 
  6 C       -2.7070    -0.7710     0.0290 C.2   1 <1>   0.2030 
  7 C       -1.5800     3.2300    -1.0360 C.3   1 <1>   0.3290 
  8 C       -2.9550     1.7520     0.5410 C.3   1 <1>   0.3290 
  9 C       -3.6460    -1.1620     1.1620 C.3   1 <1>   0.0390 
 10 C       -2.0110     2.9590     0.4130 C.3   1 <1>  -0.1600 
 11 C       -3.7960    -2.6670     1.2560 C.2   1 <1>   0.5690 
 12 O       -2.9890    -3.2560     1.9320 O.2   1 <1>  -0.5700 
 13 N       -4.7780    -3.3290     0.5740 N.am  1 <1>  -0.6600 
 14 C       -5.8060    -2.7660    -0.3440 C.3   1 <1>   0.1400 
 15 C       -5.0090    -4.7830     0.7520 C.3   1 <1>   0.1400 
 16 C       -6.7880    -3.9120    -0.6220 C.3   1 <1>   0.2000 
 17 C       -5.9590    -5.1780    -0.3810 C.3   1 <1>  -0.0800 
 18 O       -7.8250    -3.8660     0.3150 O.3   1 <1>  -0.5600 
 19 C       -6.7940    -6.4350    -0.0740 C.3   1 <1>   0.0200 
 20 C       -8.9420    -3.1270    -0.0690 C.3   1 <1>   0.0400 
 21 C       -5.9670    -7.7090    -0.0100 C.2   1 <1>  -0.0400 
 22 O       -6.5620    -8.8230     0.3230 O.3   1 <1>  -0.0190 
 23 C       -4.6730    -7.9920    -0.2350 C.2   1 <1>  -0.1500 
 24 N       -5.7400    -9.8320     0.3360 N.2   1 <1>  -0.4100 
 25 C       -4.5930    -9.3600     0.0050 C.2   1 <1>   0.1080 
 26 C       -3.3330   -10.1880    -0.1060 C.3   1 <1>  -0.0590 
 27 H       -2.0690    -2.6880    -0.8920 H     1 <1>   0.1500 
 28 H       -0.5460     2.0150    -2.4770 H     1 <1>   0.4500 
 29 H       -0.7550     3.9250    -1.0460 H     1 <1>   0.0800 
 30 H       -2.3950     3.6600    -1.5960 H     1 <1>   0.0800 
 31 H       -3.9290     2.0020     0.1540 H     1 <1>   0.0800 
 32 H       -3.0570     1.4950     1.5820 H     1 <1>   0.0800 
 33 H       -4.6060    -0.7050     1.0280 H     1 <1>   0.0800 
 34 H       -3.2380    -0.8150     2.0940 H     1 <1>   0.0800 
 35 H       -1.1340     2.7780     1.0100 H     1 <1>   0.0800 
 36 H       -2.4900     3.8340     0.8140 H     1 <1>   0.0800 
 37 H       -6.3130    -1.9260     0.0960 H     1 <1>   0.0800 
 38 H       -5.3290    -2.4700    -1.2620 H     1 <1>   0.0800 
 39 H       -4.0820    -5.3280     0.7130 H     1 <1>   0.0800 
 40 H       -5.4760    -4.9430     1.7090 H     1 <1>   0.0800 
 41 H       -7.1990    -3.8830    -1.6180 H     1 <1>   0.0800 
 42 H       -5.3690    -5.3580    -1.2610 H     1 <1>   0.0800 
 43 H       -7.5430    -6.5580    -0.8360 H     1 <1>   0.0800 
 44 H       -7.3050    -6.3130     0.8650 H     1 <1>   0.0800 
 45 H       -9.6480    -3.1450     0.7430 H     1 <1>   0.0800 
 46 H       -9.3860    -3.5790    -0.9390 H     1 <1>   0.0800 
 47 H       -8.6530    -2.1110    -0.2730 H     1 <1>   0.0800 
 48 H       -3.8600    -7.3570    -0.5300 H     1 <1>   0.1500 
 49 H       -2.9340   -10.1150    -1.1010 H     1 <1>   0.0800 
 50 H       -3.5510   -11.2190     0.1070 H     1 <1>   0.0800 
 51 H       -2.6020    -9.8350     0.5980 H     1 <1>   0.0800 
@<TRIPOS>BOND
  1   1   2  1   
  2   1   3  1   
  3   2   4  ar  
  4   2   5  ar  
  5   3   6  2   
  6   3  27  1   
  7   4   7  1   
  8   4  28  1   
  9   5   6  1   
 10   5   8  1   
 11   6   9  1   
 12   7  10  1   
 13   7  29  1   
 14   7  30  1   
 15   8  10  1   
 16   8  31  1   
 17   8  32  1   
 18   9  11  1   
 19   9  33  1   
 20   9  34  1   
 21  10  35  1   
 22  10  36  1   
 23  11  12  2   
 24  11  13  am  
 25  13  14  1   
 26  13  15  1   
 27  14  16  1   
 28  14  37  1   
 29  14  38  1   
 30  15  17  1   
 31  15  39  1   
 32  15  40  1   
 33  16  17  1   
 34  16  18  1   
 35  16  41  1   
 36  17  19  1   
 37  17  42  1   
 38  18  20  1   
 39  19  21  1   
 40  19  43  1   
 41  19  44  1   
 42  20  45  1   
 43  20  46  1   
 44  20  47  1   
 45  21  22  1   
 46  21  23  2   
 47  22  24  1   
 48  23  25  1   
 49  23  48  1   
 50  24  25  2   
 51  25  26  1   
 52  26  49  1   
 53  26  50  1   
 54  26  51  1   
@<TRIPOS>SUBSTRUCTURE
  1 ****  13 GROUP 4 **** **** 0

# MOE 2024.06 (io_trps.svl 2023.06)
