@<TRIPOS>MOLECULE
NONAME
54 57 1 0 0 
SMALL
USER_CHARGES


@<TRIPOS>ATOM
  1 CL      -0.9120    -1.3180     2.3770 Cl    1 <1>  -0.1770 
  2 C       -0.7870    -2.3280     0.9470 C.ar  1 <1>   0.1770 
  3 C       -1.7650    -2.2740    -0.0540 C.ar  1 <1>   0.1000 
  4 C        0.3050    -3.1690     0.8520 C.ar  1 <1>  -0.1500 
  5 N       -2.8930    -1.4450    -0.0170 N.pl3 1 <1>  -0.8380 
  6 C       -1.5990    -3.1020    -1.1570 C.ar  1 <1>  -0.1500 
  7 C        0.4470    -3.9850    -0.2590 C.ar  1 <1>  -0.1500 
  8 C       -2.6470     0.0020    -0.1570 C.3   1 <1>   0.2090 
  9 C       -3.9200    -1.7830     0.9850 C.3   1 <1>   0.2090 
 10 C       -0.5080    -3.9480    -1.2610 C.ar  1 <1>  -0.1500 
 11 C       -3.9330     0.6430    -0.6650 C.3   1 <1>  -0.1600 
 12 C       -5.2430    -1.1930     0.5110 C.3   1 <1>  -0.1600 
 13 C       -5.1270     0.3220     0.2540 C.3   1 <1>   0.4230 
 14 N       -6.3970     0.8370    -0.3580 N.4   1 <1>  -0.9590 
 15 C       -7.6070     0.5360     0.4850 C.3   1 <1>   0.3430 
 16 C       -6.3570     2.3010    -0.6650 C.3   1 <1>   0.3430 
 17 C       -8.9260     0.9050    -0.2290 C.3   1 <1>   0.0000 
 18 C       -7.6190     2.7250    -1.4210 C.3   1 <1>  -0.1600 
 19 C      -10.1200     0.5910     0.6910 C.3   1 <1>   0.2000 
 20 C       -8.8950     2.3900    -0.6370 C.3   1 <1>  -0.1600 
 21 C       -9.1780    -0.0320    -1.4230 C.3   1 <1>  -0.1600 
 22 O       -9.7910     0.7970     2.0200 O.3   1 <1>  -0.6800 
 23 C      -10.4770    -0.8810     0.4630 C.3   1 <1>  -0.1600 
 24 C       -9.7350    -1.3160    -0.8070 C.3   1 <1>  -0.1600 
 25 H        1.0370    -3.1840     1.6390 H     1 <1>   0.1500 
 26 H       -2.3380    -3.0770    -1.9360 H     1 <1>   0.1500 
 27 H        1.2940    -4.6440    -0.3420 H     1 <1>   0.1500 
 28 H       -2.3610     0.4210     0.7940 H     1 <1>   0.0800 
 29 H       -1.8450     0.1660    -0.8580 H     1 <1>   0.0800 
 30 H       -4.0000    -2.8550     1.0750 H     1 <1>   0.0800 
 31 H       -3.6450    -1.3800     1.9460 H     1 <1>   0.0800 
 32 H       -0.4020    -4.5810    -2.1260 H     1 <1>   0.1500 
 33 H       -4.1170     0.2740    -1.6590 H     1 <1>   0.0800 
 34 H       -3.7560     1.7000    -0.7110 H     1 <1>   0.0800 
 35 H       -5.9650    -1.4010     1.2770 H     1 <1>   0.0800 
 36 H       -5.5300    -1.7040    -0.3910 H     1 <1>   0.0800 
 37 H       -4.9640     0.8110     1.2010 H     1 <1>   0.0800 
 38 H       -6.5210     0.3380    -1.2460 H     1 <1>   0.4500 
 39 H       -7.6490    -0.5100     0.7310 H     1 <1>   0.0800 
 40 H       -7.5450     1.0880     1.4090 H     1 <1>   0.0800 
 41 H       -6.2830     2.8630     0.2520 H     1 <1>   0.0800 
 42 H       -5.5010     2.5350    -1.2760 H     1 <1>   0.0800 
 43 H       -7.5810     3.7870    -1.5910 H     1 <1>   0.0800 
 44 H       -7.6380     2.2490    -2.3860 H     1 <1>   0.0800 
 45 H      -10.9620     1.2170     0.4440 H     1 <1>   0.0800 
 46 H       -9.7620     2.6370    -1.2260 H     1 <1>   0.0800 
 47 H       -8.9290     2.9970     0.2530 H     1 <1>   0.0800 
 48 H       -9.9360     0.3940    -2.0600 H     1 <1>   0.0800 
 49 H       -8.3060    -0.2240    -2.0220 H     1 <1>   0.0800 
 50 H      -10.5740     0.6390     2.5870 H     1 <1>   0.4000 
 51 H      -10.1820    -1.5010     1.2930 H     1 <1>   0.0800 
 52 H      -11.5390    -0.9730     0.3150 H     1 <1>   0.0800 
 53 H       -8.9280    -1.9800    -0.5450 H     1 <1>   0.0800 
 54 H      -10.3900    -1.8290    -1.4920 H     1 <1>   0.0800 
@<TRIPOS>BOND
  1   1   2  1   
  2   2   3  ar  
  3   2   4  ar  
  4   3   5  1   
  5   3   6  ar  
  6   4   7  ar  
  7   4  25  1   
  8   5   8  1   
  9   5   9  1   
 10   6  10  ar  
 11   6  26  1   
 12   7  10  ar  
 13   7  27  1   
 14   8  11  1   
 15   8  28  1   
 16   8  29  1   
 17   9  12  1   
 18   9  30  1   
 19   9  31  1   
 20  10  32  1   
 21  11  13  1   
 22  11  33  1   
 23  11  34  1   
 24  12  13  1   
 25  12  35  1   
 26  12  36  1   
 27  13  14  1   
 28  13  37  1   
 29  14  15  1   
 30  14  16  1   
 31  14  38  1   
 32  15  17  1   
 33  15  39  1   
 34  15  40  1   
 35  16  18  1   
 36  16  41  1   
 37  16  42  1   
 38  17  19  1   
 39  17  20  1   
 40  17  21  1   
 41  18  20  1   
 42  18  43  1   
 43  18  44  1   
 44  19  22  1   
 45  19  23  1   
 46  19  45  1   
 47  20  46  1   
 48  20  47  1   
 49  21  24  1   
 50  21  48  1   
 51  21  49  1   
 52  22  50  1   
 53  23  24  1   
 54  23  51  1   
 55  23  52  1   
 56  24  53  1   
 57  24  54  1   
@<TRIPOS>SUBSTRUCTURE
  1 ****  12 GROUP 4 **** **** 0

# MOE 2024.06 (io_trps.svl 2023.06)
