@<TRIPOS>MOLECULE
NONAME
54 56 1 0 0 
SMALL
USER_CHARGES


@<TRIPOS>ATOM
  1 O       -0.9320     2.0890    -2.3620 O.co2 1 <1>  -0.9000 
  2 C       -0.4150     2.1070    -1.2340 C.2   1 <1>   0.9060 
  3 O        0.7560     1.7770    -1.0270 O.co2 1 <1>  -0.9000 
  4 C       -1.3560     2.3370    -0.0270 C.3   1 <1>   0.4600 
  5 N       -2.7170     1.6810    -0.2140 N.4   1 <1>  -0.9590 
  6 C       -1.5800     3.8170     0.2810 C.ar  1 <1>  -0.1430 
  7 C       -3.6850     1.9840     0.8700 C.3   1 <1>   0.3430 
  8 C       -2.5490     0.2350    -0.5220 C.3   1 <1>   0.3430 
  9 C       -2.1100     4.6710    -0.6780 C.ar  1 <1>  -0.1500 
 10 C       -1.2780     4.3140     1.5410 C.ar  1 <1>  -0.1500 
 11 C       -5.0410     1.3800     0.5270 C.3   1 <1>  -0.1600 
 12 C       -3.9040    -0.3830    -0.8610 C.3   1 <1>  -0.1600 
 13 C       -2.3650     5.9990    -0.3790 C.ar  1 <1>   0.0830 
 14 C       -1.5090     5.6460     1.8420 C.ar  1 <1>  -0.1500 
 15 C       -4.9430    -0.1280     0.2400 C.3   1 <1>   0.1000 
 16 O       -2.9310     6.7570    -1.3500 O.3   1 <1>  -0.3630 
 17 C       -2.0400     6.4960     0.8880 C.ar  1 <1>   0.0830 
 18 C       -6.2950    -0.6940    -0.1840 C.2   1 <1>   0.0060 
 19 C       -4.2160     7.2780    -1.0880 C.3   1 <1>   0.0400 
 20 O       -2.2110     7.7940     1.2350 O.3   1 <1>  -0.3630 
 21 N       -7.1380    -0.0520    -0.9190 N.2   1 <1>  -0.3380 
 22 N       -6.7600    -1.9080     0.1420 N.pl3 1 <1>   0.0480 
 23 C       -1.3840     8.7260     0.5720 C.3   1 <1>   0.0400 
 24 N       -8.1970    -0.8380    -1.0870 N.2   1 <1>  -0.3380 
 25 C       -7.9590    -1.9340    -0.4530 C.2   1 <1>   0.0060 
 26 C       -6.1280    -2.9590     0.9700 C.3   1 <1>   0.0160 
 27 C       -8.9320    -3.0980    -0.3940 C.3   1 <1>   0.3000 
 28 O       -9.3000    -3.3090     0.9260 O.3   1 <1>  -0.6800 
 29 H       -0.8640     1.8880     0.8160 H     1 <1>   0.0800 
 30 H       -3.0310     2.1090    -1.1010 H     1 <1>   0.4500 
 31 H       -3.7900     3.0520     0.9850 H     1 <1>   0.0800 
 32 H       -3.3270     1.5760     1.8000 H     1 <1>   0.0800 
 33 H       -2.1150    -0.2700     0.3240 H     1 <1>   0.0800 
 34 H       -1.8850     0.1130    -1.3660 H     1 <1>   0.0800 
 35 H       -2.3310     4.3170    -1.6720 H     1 <1>   0.1500 
 36 H       -0.8550     3.6740     2.2970 H     1 <1>   0.1500 
 37 H       -5.4390     1.8970    -0.3290 H     1 <1>   0.0800 
 38 H       -5.7220     1.5450     1.3440 H     1 <1>   0.0800 
 39 H       -3.7800    -1.4400    -1.0080 H     1 <1>   0.0800 
 40 H       -4.2520     0.0310    -1.7920 H     1 <1>   0.0800 
 41 H       -1.2690     6.0360     2.8150 H     1 <1>   0.1500 
 42 H       -4.6250    -0.6190     1.1430 H     1 <1>   0.0800 
 43 H       -4.5810     7.7360    -1.9890 H     1 <1>   0.0800 
 44 H       -4.1520     8.0120    -0.3060 H     1 <1>   0.0800 
 45 H       -4.8650     6.4720    -0.7950 H     1 <1>   0.0800 
 46 H       -1.5600     9.6960     1.0000 H     1 <1>   0.0800 
 47 H       -1.6260     8.7370    -0.4750 H     1 <1>   0.0800 
 48 H       -0.3560     8.4410     0.7140 H     1 <1>   0.0800 
 49 H       -5.0890    -3.0490     0.7110 H     1 <1>   0.0800 
 50 H       -6.6130    -3.9030     0.8000 H     1 <1>   0.0800 
 51 H       -6.2250    -2.6980     2.0080 H     1 <1>   0.0800 
 52 H       -8.4810    -3.9980    -0.7720 H     1 <1>   0.0800 
 53 H       -9.8190    -2.8780    -0.9630 H     1 <1>   0.0800 
 54 H       -9.7110    -2.4900     1.2680 H     1 <1>   0.4000 
@<TRIPOS>BOND
  1   1   2  ar  
  2   2   3  ar  
  3   2   4  1   
  4   4   5  1   
  5   4   6  1   
  6   4  29  1   
  7   5   7  1   
  8   5   8  1   
  9   5  30  1   
 10   6   9  ar  
 11   6  10  ar  
 12   7  11  1   
 13   7  31  1   
 14   7  32  1   
 15   8  12  1   
 16   8  33  1   
 17   8  34  1   
 18   9  13  ar  
 19   9  35  1   
 20  10  14  ar  
 21  10  36  1   
 22  11  15  1   
 23  11  37  1   
 24  11  38  1   
 25  12  15  1   
 26  12  39  1   
 27  12  40  1   
 28  13  16  1   
 29  13  17  ar  
 30  14  17  ar  
 31  14  41  1   
 32  15  18  1   
 33  15  42  1   
 34  16  19  1   
 35  17  20  1   
 36  18  21  2   
 37  18  22  1   
 38  19  43  1   
 39  19  44  1   
 40  19  45  1   
 41  20  23  1   
 42  21  24  1   
 43  22  25  1   
 44  22  26  1   
 45  23  46  1   
 46  23  47  1   
 47  23  48  1   
 48  24  25  2   
 49  25  27  1   
 50  26  49  1   
 51  26  50  1   
 52  26  51  1   
 53  27  28  1   
 54  27  52  1   
 55  27  53  1   
 56  28  54  1   
@<TRIPOS>SUBSTRUCTURE
  1 ****   7 GROUP 4 **** **** 0

# MOE 2024.06 (io_trps.svl 2023.06)
