@<TRIPOS>MOLECULE
NONAME
35 36 1 0 0 
SMALL
USER_CHARGES


@<TRIPOS>ATOM
  1 N       -0.1520    -0.5050     0.1660 N.ar  1 <1>  -0.6200 
  2 C       -0.1850    -1.7920    -0.0870 C.ar  1 <1>   0.4100 
  3 C        1.0430     0.0540     0.1360 C.ar  1 <1>   0.4760 
  4 N       -1.4270    -2.3490    -0.0500 N.pl3 1 <1>  -0.8690 
  5 C        0.9660    -2.5020    -0.3710 C.ar  1 <1>  -0.1500 
  6 N        2.2060    -0.5220    -0.1150 N.ar  1 <1>  -0.6200 
  7 C        1.0980     1.5340     0.4260 C.3   1 <1>  -0.0970 
  8 C       -1.7100    -3.7470     0.3570 C.3   1 <1>   0.2090 
  9 C        2.1480    -1.8150    -0.3710 C.ar  1 <1>   0.1600 
 10 C       -2.0770    -4.5770    -0.8680 C.3   1 <1>  -0.0170 
 11 C       -2.2720    -6.0170    -0.4530 C.ar  1 <1>   0.4770 
 12 N       -3.5070    -6.3730    -0.1380 N.ar  1 <1>  -0.6200 
 13 N       -1.1840    -6.7700    -0.4360 N.ar  1 <1>  -0.6200 
 14 C       -3.6640    -7.6250     0.2240 C.ar  1 <1>   0.1670 
 15 C       -1.3620    -8.0190    -0.0720 C.ar  1 <1>   0.1670 
 16 C       -2.6040    -8.4990     0.2720 C.ar  1 <1>  -0.1500 
 17 C       -5.0670    -8.0640     0.5850 C.3   1 <1>  -0.0970 
 18 C       -0.1380    -8.9090    -0.0480 C.3   1 <1>  -0.0970 
 19 H       -2.1490    -1.6690     0.2010 H     1 <1>   0.4000 
 20 H        0.9270    -3.5500    -0.5870 H     1 <1>   0.1500 
 21 H        0.1120     1.9210     0.6090 H     1 <1>   0.0800 
 22 H        1.5250     2.0470    -0.4160 H     1 <1>   0.0800 
 23 H        1.7090     1.7060     1.2910 H     1 <1>   0.0800 
 24 H       -2.5270    -3.7580     1.0590 H     1 <1>   0.0800 
 25 H       -0.8480    -4.1730     0.8420 H     1 <1>   0.0800 
 26 H        3.0720    -2.3250    -0.5870 H     1 <1>   0.1500 
 27 H       -1.2910    -4.5220    -1.5970 H     1 <1>   0.0800 
 28 H       -2.9830    -4.2000    -1.3060 H     1 <1>   0.0800 
 29 H       -2.7410    -9.5210     0.5670 H     1 <1>   0.1500 
 30 H       -5.4290    -7.4700     1.4040 H     1 <1>   0.0800 
 31 H       -5.0870    -9.1000     0.8700 H     1 <1>   0.0800 
 32 H       -5.7160    -7.9210    -0.2590 H     1 <1>   0.0800 
 33 H        0.5780    -8.5170     0.6510 H     1 <1>   0.0800 
 34 H        0.3090    -8.9300    -1.0250 H     1 <1>   0.0800 
 35 H       -0.3940    -9.9120     0.2390 H     1 <1>   0.0800 
@<TRIPOS>BOND
  1   1   2  ar  
  2   1   3  ar  
  3   2   4  1   
  4   2   5  ar  
  5   3   6  ar  
  6   3   7  1   
  7   4   8  1   
  8   4  19  1   
  9   5   9  ar  
 10   5  20  1   
 11   6   9  ar  
 12   7  21  1   
 13   7  22  1   
 14   7  23  1   
 15   8  10  1   
 16   8  24  1   
 17   8  25  1   
 18   9  26  1   
 19  10  11  1   
 20  10  27  1   
 21  10  28  1   
 22  11  12  ar  
 23  11  13  ar  
 24  12  14  ar  
 25  13  15  ar  
 26  14  16  ar  
 27  14  17  1   
 28  15  16  ar  
 29  15  18  1   
 30  16  29  1   
 31  17  30  1   
 32  17  31  1   
 33  17  32  1   
 34  18  33  1   
 35  18  34  1   
 36  18  35  1   
@<TRIPOS>SUBSTRUCTURE
  1 ****   8 GROUP 4 **** **** 0

# MOE 2024.06 (io_trps.svl 2023.06)
