@<TRIPOS>MOLECULE
NONAME
50 51 1 0 0 
SMALL
USER_CHARGES


@<TRIPOS>ATOM
  1 S       -0.6690    -0.6350     0.7960 S.3   1 <1>  -0.0800 
  2 C       -1.4020    -1.2240    -0.6620 C.2   1 <1>   0.4420 
  3 C       -0.6880     0.9380     0.0790 C.2   1 <1>   0.1980 
  4 N       -1.6010    -0.2850    -1.5130 N.2   1 <1>  -0.3380 
  5 N       -1.6800    -2.5720    -0.7180 N.am  1 <1>  -0.4940 
  6 N       -1.1920     0.9450    -1.0850 N.2   1 <1>  -0.3380 
  7 C       -0.1300     2.1050     0.8640 C.3   1 <1>   0.0200 
  8 C       -2.2050    -3.3090    -1.7430 C.2   1 <1>   0.5690 
  9 C       -0.2240     3.3690     0.0020 C.3   1 <1>   0.3430 
 10 O       -2.5000    -2.8500    -2.8170 O.2   1 <1>  -0.5700 
 11 C       -2.4880    -4.8040    -1.4800 C.3   1 <1>   0.2510 
 12 N        0.3670     4.5800     0.6640 N.4   1 <1>  -0.9590 
 13 N       -3.4940    -5.0220    -0.3840 N.3   1 <1>  -0.8100 
 14 C       -1.1730    -5.5330    -1.1570 C.3   1 <1>  -0.2400 
 15 C       -0.4370     5.0410     1.8430 C.3   1 <1>   0.2630 
 16 C        0.4850     5.6880    -0.3360 C.3   1 <1>   0.2630 
 17 C       -3.8180    -6.4590    -0.1870 C.3   1 <1>   0.1100 
 18 C       -4.7370    -4.2520    -0.6710 C.3   1 <1>   0.1100 
 19 C       -4.8980    -6.6780     0.8940 C.3   1 <1>   0.3430 
 20 C       -5.8250    -4.4530     0.4040 C.3   1 <1>   0.3430 
 21 N       -6.1510    -5.9060     0.5980 N.4   1 <1>  -0.9590 
 22 C       -7.1730    -6.0930     1.6720 C.3   1 <1>   0.2630 
 23 H       -1.5010    -3.0990     0.1330 H     1 <1>   0.3700 
 24 H        0.8950     1.8960     1.1090 H     1 <1>   0.0800 
 25 H       -0.7040     2.2140     1.7660 H     1 <1>   0.0800 
 26 H       -1.2580     3.5530    -0.2430 H     1 <1>   0.0800 
 27 H        0.2960     3.1800    -0.9250 H     1 <1>   0.0800 
 28 H       -2.8790    -5.2100    -2.3980 H     1 <1>   0.0800 
 29 H        1.3210     4.3480     0.9840 H     1 <1>   0.4500 
 30 H       -0.8350    -5.2990    -0.1640 H     1 <1>   0.0800 
 31 H       -0.4140    -5.2290    -1.8560 H     1 <1>   0.0800 
 32 H       -1.2840    -6.5970    -1.2600 H     1 <1>   0.0800 
 33 H       -1.4440     5.2790     1.5400 H     1 <1>   0.0800 
 34 H        0.0080     5.9230     2.2760 H     1 <1>   0.0800 
 35 H       -0.4750     4.2740     2.5990 H     1 <1>   0.0800 
 36 H       -0.4890     5.9660    -0.7050 H     1 <1>   0.0800 
 37 H        1.0930     5.3770    -1.1700 H     1 <1>   0.0800 
 38 H        0.9420     6.5550     0.1160 H     1 <1>   0.0800 
 39 H       -2.9380    -6.9880     0.1310 H     1 <1>   0.0800 
 40 H       -4.1470    -6.8930    -1.1160 H     1 <1>   0.0800 
 41 H       -5.1300    -4.5340    -1.6340 H     1 <1>   0.0800 
 42 H       -4.5170    -3.1980    -0.7100 H     1 <1>   0.0800 
 43 H       -4.4950    -6.3650     1.8440 H     1 <1>   0.0800 
 44 H       -5.1220    -7.7300     0.9600 H     1 <1>   0.0800 
 45 H       -6.7110    -3.9120     0.1140 H     1 <1>   0.0800 
 46 H       -5.4680    -4.0330     1.3300 H     1 <1>   0.0800 
 47 H       -6.5290    -6.2570    -0.2920 H     1 <1>   0.4500 
 48 H       -6.7970    -5.7290     2.6140 H     1 <1>   0.0800 
 49 H       -7.4170    -7.1380     1.7780 H     1 <1>   0.0800 
 50 H       -8.0750    -5.5550     1.4290 H     1 <1>   0.0800 
@<TRIPOS>BOND
  1   1   2  1   
  2   1   3  1   
  3   2   4  2   
  4   2   5  1   
  5   3   6  2   
  6   3   7  1   
  7   4   6  1   
  8   5   8  am  
  9   5  23  1   
 10   7   9  1   
 11   7  24  1   
 12   7  25  1   
 13   8  10  2   
 14   8  11  1   
 15   9  12  1   
 16   9  26  1   
 17   9  27  1   
 18  11  13  1   
 19  11  14  1   
 20  11  28  1   
 21  12  15  1   
 22  12  16  1   
 23  12  29  1   
 24  13  17  1   
 25  13  18  1   
 26  14  30  1   
 27  14  31  1   
 28  14  32  1   
 29  15  33  1   
 30  15  34  1   
 31  15  35  1   
 32  16  36  1   
 33  16  37  1   
 34  16  38  1   
 35  17  19  1   
 36  17  39  1   
 37  17  40  1   
 38  18  20  1   
 39  18  41  1   
 40  18  42  1   
 41  19  21  1   
 42  19  43  1   
 43  19  44  1   
 44  20  21  1   
 45  20  45  1   
 46  20  46  1   
 47  21  22  1   
 48  21  47  1   
 49  22  48  1   
 50  22  49  1   
 51  22  50  1   
@<TRIPOS>SUBSTRUCTURE
  1 ****   2 GROUP 4 **** **** 0

# MOE 2024.06 (io_trps.svl 2023.06)
