@<TRIPOS>MOLECULE
NONAME
42 44 1 0 0 
SMALL
USER_CHARGES


@<TRIPOS>ATOM
  1 O       -2.6020    -0.1390    -2.8550 O.2   1 <1>  -0.5700 
  2 C       -2.5650    -0.6680    -1.7730 C.2   1 <1>   0.5690 
  3 N       -2.3060     0.0350    -0.6300 N.am  1 <1>  -0.6600 
  4 C       -2.8490    -2.1470    -1.7110 C.3   1 <1>  -0.0190 
  5 C       -2.2490    -0.6030     0.7160 C.3   1 <1>   0.2200 
  6 C       -1.9780     1.4940    -0.6730 C.3   1 <1>   0.0600 
  7 C       -1.6450    -2.9530    -1.1800 C.3   1 <1>   0.1200 
  8 C       -4.1920    -2.3730    -1.0080 C.3   1 <1>   0.3430 
  9 C       -1.1300    -1.6710     0.7720 C.3   1 <1>   0.1200 
 10 C       -3.6490    -1.1190     1.1470 C.3   1 <1>   0.3430 
 11 O       -1.5150    -2.9000     0.2150 O.3   1 <1>  -0.5600 
 12 N       -4.0980    -2.3960     0.4930 N.4   1 <1>  -0.9590 
 13 C       -5.3090    -2.9760     1.1320 C.3   1 <1>   0.4860 
 14 C       -5.4170    -4.4170     0.6930 C.ar  1 <1>  -0.1440 
 15 C       -6.2040    -4.7180    -0.4030 C.ar  1 <1>  -0.1500 
 16 C       -4.7210    -5.4290     1.3350 C.ar  1 <1>  -0.1500 
 17 C       -6.2760    -6.0060    -0.9270 C.ar  1 <1>  -0.1790 
 18 C       -4.8090    -6.7260     0.8600 C.ar  1 <1>  -0.1500 
 19 C       -7.0350    -6.2600    -2.1430 C.2   1 <1>   0.9790 
 20 C       -5.5730    -7.0070    -0.2580 C.ar  1 <1>  -0.1500 
 21 O       -7.2690    -7.4180    -2.5220 O.co2 1 <1>  -0.9000 
 22 O       -7.4270    -5.2980    -2.8290 O.co2 1 <1>  -0.9000 
 23 H       -2.9910    -2.4590    -2.7300 H     1 <1>   0.0800 
 24 H       -1.9730     0.1660     1.4160 H     1 <1>   0.0800 
 25 H       -2.6690     2.0470    -0.0620 H     1 <1>   0.0800 
 26 H       -2.0390     1.8740    -1.6790 H     1 <1>   0.0800 
 27 H       -0.9760     1.6560    -0.3140 H     1 <1>   0.0800 
 28 H       -0.7260    -2.6110    -1.6290 H     1 <1>   0.0800 
 29 H       -1.7730    -3.9910    -1.4390 H     1 <1>   0.0800 
 30 H       -4.5620    -3.3240    -1.3530 H     1 <1>   0.0800 
 31 H       -4.8950    -1.6200    -1.3260 H     1 <1>   0.0800 
 32 H       -0.8810    -1.8670     1.8000 H     1 <1>   0.0800 
 33 H       -0.2380    -1.3220     0.2770 H     1 <1>   0.0800 
 34 H       -4.3720    -0.3420     0.9600 H     1 <1>   0.0800 
 35 H       -3.6160    -1.2810     2.2110 H     1 <1>   0.0800 
 36 H       -3.3290    -3.0750     0.6610 H     1 <1>   0.4500 
 37 H       -5.2240    -2.9390     2.2060 H     1 <1>   0.0800 
 38 H       -6.1900    -2.4320     0.8330 H     1 <1>   0.0800 
 39 H       -6.7730    -3.9500    -0.9020 H     1 <1>   0.1500 
 40 H       -4.1090    -5.2280     2.1980 H     1 <1>   0.1500 
 41 H       -4.2800    -7.5230     1.3530 H     1 <1>   0.1500 
 42 H       -5.6340    -8.0140    -0.6380 H     1 <1>   0.1500 
@<TRIPOS>BOND
  1   1   2  2   
  2   2   3  am  
  3   2   4  1   
  4   3   5  1   
  5   3   6  1   
  6   4   7  1   
  7   4   8  1   
  8   4  23  1   
  9   5   9  1   
 10   5  10  1   
 11   5  24  1   
 12   6  25  1   
 13   6  26  1   
 14   6  27  1   
 15   7  11  1   
 16   7  28  1   
 17   7  29  1   
 18   8  12  1   
 19   8  30  1   
 20   8  31  1   
 21   9  11  1   
 22   9  32  1   
 23   9  33  1   
 24  10  12  1   
 25  10  34  1   
 26  10  35  1   
 27  12  13  1   
 28  12  36  1   
 29  13  14  1   
 30  13  37  1   
 31  13  38  1   
 32  14  15  ar  
 33  14  16  ar  
 34  15  17  ar  
 35  15  39  1   
 36  16  18  ar  
 37  16  40  1   
 38  17  19  1   
 39  17  20  ar  
 40  18  20  ar  
 41  18  41  1   
 42  19  21  ar  
 43  19  22  ar  
 44  20  42  1   
@<TRIPOS>SUBSTRUCTURE
  1 ****   8 GROUP 4 **** **** 0

# MOE 2024.06 (io_trps.svl 2023.06)
