@<TRIPOS>MOLECULE
NONAME
50 52 1 0 0 
SMALL
USER_CHARGES


@<TRIPOS>ATOM
  1 F       -1.4880    -1.1100     0.3060 F     1 <1>  -0.1900 
  2 C       -1.9380     0.0610    -0.0640 C.ar  1 <1>   0.1900 
  3 C       -2.9550     0.0960    -1.0020 C.ar  1 <1>  -0.1440 
  4 C       -1.3900     1.2080     0.4980 C.ar  1 <1>  -0.1440 
  5 C       -3.4210     1.3450    -1.3660 C.ar  1 <1>   0.1900 
  6 C       -3.5240    -1.1690    -1.6050 C.3   1 <1>   0.4860 
  7 C       -1.8880     2.4420     0.1000 C.ar  1 <1>  -0.1500 
  8 C       -0.2680     1.1260     1.5250 C.3   1 <1>  -0.0970 
  9 F       -4.3880     1.4240    -2.2400 F     1 <1>  -0.1900 
 10 C       -2.9100     2.5150    -0.8350 C.ar  1 <1>  -0.1500 
 11 N       -4.3320    -1.8890    -0.5880 N.4   1 <1>  -0.9590 
 12 C       -4.7120    -3.2590    -1.0770 C.3   1 <1>   0.3430 
 13 C       -5.5240    -1.0960    -0.1560 C.3   1 <1>   0.3430 
 14 C       -5.5680    -4.0340    -0.0630 C.3   1 <1>   0.2000 
 15 C       -6.2620    -1.8610     0.9310 C.3   1 <1>  -0.1600 
 16 O       -5.9820    -5.2050    -0.6650 O.3   1 <1>  -0.6800 
 17 C       -6.7950    -3.2340     0.4290 C.3   1 <1>  -0.1060 
 18 C       -7.3910    -4.0460     1.5820 C.2   1 <1>   0.9060 
 19 C       -7.8640    -3.0810    -0.7010 C.3   1 <1>  -0.0160 
 20 O       -7.5530    -3.5180     2.6840 O.co2 1 <1>  -0.9000 
 21 O       -7.6400    -5.2410     1.3760 O.co2 1 <1>  -0.9000 
 22 C       -8.7750    -1.8630    -0.5800 C.ar  1 <1>  -0.1440 
 23 C       -8.7810    -0.8850    -1.5650 C.ar  1 <1>  -0.1500 
 24 C       -9.6120    -1.7210     0.5170 C.ar  1 <1>  -0.1500 
 25 C       -9.5990     0.2250    -1.4470 C.ar  1 <1>  -0.1500 
 26 C      -10.4300    -0.6110     0.6370 C.ar  1 <1>  -0.1500 
 27 C      -10.4220     0.3640    -0.3440 C.ar  1 <1>  -0.1500 
 28 H       -2.7110    -1.7940    -1.9340 H     1 <1>   0.0800 
 29 H       -4.1350    -0.9290    -2.4600 H     1 <1>   0.0800 
 30 H       -1.4850     3.3510     0.5150 H     1 <1>   0.1500 
 31 H        0.0500     2.1070     1.8300 H     1 <1>   0.0800 
 32 H        0.5780     0.6110     1.1070 H     1 <1>   0.0800 
 33 H       -0.6020     0.5910     2.3960 H     1 <1>   0.0800 
 34 H       -3.3020     3.4680    -1.1480 H     1 <1>   0.1500 
 35 H       -3.7370    -2.0080     0.2440 H     1 <1>   0.4500 
 36 H       -5.2770    -3.1680    -1.9890 H     1 <1>   0.0800 
 37 H       -3.8250    -3.8350    -1.2810 H     1 <1>   0.0800 
 38 H       -5.2150    -0.1390     0.2330 H     1 <1>   0.0800 
 39 H       -6.1850    -0.9260    -0.9900 H     1 <1>   0.0800 
 40 H       -4.9600    -4.3140     0.7810 H     1 <1>   0.0800 
 41 H       -5.6050    -2.0100     1.7700 H     1 <1>   0.0800 
 42 H       -7.0730    -1.2590     1.3010 H     1 <1>   0.0800 
 43 H       -6.6560    -5.6060    -0.0350 H     1 <1>   0.4000 
 44 H       -7.3840    -3.0420    -1.6600 H     1 <1>   0.0800 
 45 H       -8.4860    -3.9610    -0.7230 H     1 <1>   0.0800 
 46 H       -8.1570    -0.9830    -2.4350 H     1 <1>   0.1500 
 47 H       -9.6270    -2.4740     1.2900 H     1 <1>   0.1500 
 48 H       -9.6000     0.9800    -2.2130 H     1 <1>   0.1500 
 49 H      -11.0690    -0.5140     1.4970 H     1 <1>   0.1500 
 50 H      -11.0590     1.2260    -0.2490 H     1 <1>   0.1500 
@<TRIPOS>BOND
  1   1   2  1   
  2   2   3  ar  
  3   2   4  ar  
  4   3   5  ar  
  5   3   6  1   
  6   4   7  ar  
  7   4   8  1   
  8   5   9  1   
  9   5  10  ar  
 10   6  11  1   
 11   6  28  1   
 12   6  29  1   
 13   7  10  ar  
 14   7  30  1   
 15   8  31  1   
 16   8  32  1   
 17   8  33  1   
 18  10  34  1   
 19  11  12  1   
 20  11  13  1   
 21  11  35  1   
 22  12  14  1   
 23  12  36  1   
 24  12  37  1   
 25  13  15  1   
 26  13  38  1   
 27  13  39  1   
 28  14  16  1   
 29  14  17  1   
 30  14  40  1   
 31  15  17  1   
 32  15  41  1   
 33  15  42  1   
 34  16  43  1   
 35  17  18  1   
 36  17  19  1   
 37  18  20  ar  
 38  18  21  ar  
 39  19  22  1   
 40  19  44  1   
 41  19  45  1   
 42  22  23  ar  
 43  22  24  ar  
 44  23  25  ar  
 45  23  46  1   
 46  24  26  ar  
 47  24  47  1   
 48  25  27  ar  
 49  25  48  1   
 50  26  27  ar  
 51  26  49  1   
 52  27  50  1   
@<TRIPOS>SUBSTRUCTURE
  1 ****  13 GROUP 4 **** **** 0

# MOE 2024.06 (io_trps.svl 2023.06)
