@<TRIPOS>MOLECULE
NONAME
36 37 1 0 0 
SMALL
USER_CHARGES


@<TRIPOS>ATOM
  1 O        3.7190    -1.8110     0.8270 O.2   1 <1>  -0.5700 
  2 C        2.5950    -1.5620     0.4550 C.2   1 <1>   0.5690 
  3 N        2.1640    -0.2850     0.2270 N.am  1 <1>  -0.4930 
  4 C        1.6410    -2.7400     0.2330 C.3   1 <1>   0.2370 
  5 C        2.8600     0.9400     0.3760 C.2   1 <1>   0.0630 
  6 N        0.4030    -2.2900    -0.4610 N.pl3 1 <1>   0.0480 
  7 C        1.2960    -3.4740     1.5420 C.3   1 <1>  -0.2400 
  8 C        4.1580     1.1780     0.8290 C.2   1 <1>   0.1390 
  9 C        2.3720     2.1640     0.0930 C.2   1 <1>  -0.3020 
 10 C       -0.6710    -1.6510     0.0860 C.2   1 <1>  -0.3020 
 11 C        0.1970    -2.3220    -1.8050 C.2   1 <1>  -0.3020 
 12 N        4.4560     2.4430     0.8310 N.2   1 <1>  -0.7070 
 13 N        3.3490     3.0590     0.3730 N.pl3 1 <1>   0.3140 
 14 C       -1.5410    -1.2970    -0.8940 C.2   1 <1>  -0.1500 
 15 C       -0.9870    -1.7250    -2.1030 C.2   1 <1>  -0.1500 
 16 C        3.2850     4.5380     0.2190 C.3   1 <1>   0.1760 
 17 C        2.1880     5.1320     1.1150 C.3   1 <1>  -0.2400 
 18 C        3.0640     4.9230    -1.2500 C.3   1 <1>  -0.2400 
 19 H        1.2070    -0.1970    -0.1300 H     1 <1>   0.3700 
 20 H        2.1400    -3.4340    -0.4180 H     1 <1>   0.0800 
 21 H        0.8610    -2.7980     2.2560 H     1 <1>   0.0800 
 22 H        2.1940    -3.8800     1.9730 H     1 <1>   0.0800 
 23 H        0.6140    -4.2830     1.3490 H     1 <1>   0.0800 
 24 H        4.8390     0.4050     1.1440 H     1 <1>   0.1500 
 25 H        1.4090     2.4470    -0.2840 H     1 <1>   0.1500 
 26 H       -0.7710    -1.4790     1.1440 H     1 <1>   0.1500 
 27 H        0.9010    -2.7650    -2.4890 H     1 <1>   0.1500 
 28 H       -2.4840    -0.7860    -0.7930 H     1 <1>   0.1500 
 29 H       -1.4360    -1.5920    -3.0730 H     1 <1>   0.1500 
 30 H        4.2360     4.9290     0.5370 H     1 <1>   0.0800 
 31 H        1.2170     4.7800     0.8170 H     1 <1>   0.0800 
 32 H        2.1990     6.2050     1.0460 H     1 <1>   0.0800 
 33 H        2.3660     4.8580     2.1400 H     1 <1>   0.0800 
 34 H        2.1150     4.5630    -1.6030 H     1 <1>   0.0800 
 35 H        3.8490     4.5080    -1.8580 H     1 <1>   0.0800 
 36 H        3.0860     5.9930    -1.3570 H     1 <1>   0.0800 
@<TRIPOS>BOND
  1   1   2  2   
  2   2   3  am  
  3   2   4  1   
  4   3   5  1   
  5   3  19  1   
  6   4   6  1   
  7   4   7  1   
  8   4  20  1   
  9   5   8  1   
 10   5   9  2   
 11   6  10  1   
 12   6  11  1   
 13   7  21  1   
 14   7  22  1   
 15   7  23  1   
 16   8  12  2   
 17   8  24  1   
 18   9  13  1   
 19   9  25  1   
 20  10  14  2   
 21  10  26  1   
 22  11  15  2   
 23  11  27  1   
 24  12  13  1   
 25  13  16  1   
 26  14  15  1   
 27  14  28  1   
 28  15  29  1   
 29  16  17  1   
 30  16  18  1   
 31  16  30  1   
 32  17  31  1   
 33  17  32  1   
 34  17  33  1   
 35  18  34  1   
 36  18  35  1   
 37  18  36  1   
@<TRIPOS>SUBSTRUCTURE
  1 ****   3 GROUP 4 **** **** 0

# MOE 2024.06 (io_trps.svl 2023.06)
