@<TRIPOS>MOLECULE
NONAME
45 47 1 0 0 
SMALL
USER_CHARGES


@<TRIPOS>ATOM
  1 S       -1.0570    -0.2990    -2.1360 S.3   1 <1>  -0.0800 
  2 C       -0.7470    -1.4700    -0.8810 C.2   1 <1>  -0.1400 
  3 C        0.5080     0.4110    -1.8180 C.2   1 <1>   0.2280 
  4 C        0.4670    -1.2310    -0.3570 C.2   1 <1>   0.0460 
  5 C       -1.8260    -2.4890    -0.6010 C.3   1 <1>   0.5230 
  6 N        1.1610    -0.1630    -0.8890 N.2   1 <1>  -0.5650 
  7 C        1.1720    -1.9870     0.7500 C.3   1 <1>  -0.0590 
  8 N       -3.0390    -1.7760    -0.1290 N.4   1 <1>  -0.9590 
  9 C       -2.8170    -0.9690     1.1060 C.3   1 <1>   0.3430 
 10 C       -4.2560    -2.6160    -0.0470 C.3   1 <1>   0.3430 
 11 C       -4.1180    -0.2930     1.5610 C.3   1 <1>  -0.1600 
 12 C       -5.4970    -1.7180     0.0400 C.3   1 <1>  -0.1600 
 13 C       -5.2050    -0.2660     0.4740 C.3   1 <1>   0.2800 
 14 O       -4.6320     0.3770    -0.6430 O.3   1 <1>  -0.5600 
 15 C       -6.4680     0.4610     0.9870 C.3   1 <1>  -0.1600 
 16 C       -5.2900     1.4590    -1.2440 C.3   1 <1>   0.1200 
 17 C       -7.4610     0.8500    -0.1230 C.3   1 <1>   0.2800 
 18 C       -6.7600     1.1020    -1.4630 C.3   1 <1>  -0.1600 
 19 O       -8.0400     2.0330     0.2670 O.3   1 <1>  -0.6800 
 20 C       -8.6180    -0.1390    -0.2690 C.3   1 <1>  -0.2400 
 21 H        0.7990     1.2600    -2.4140 H     1 <1>   0.1500 
 22 H       -1.4890    -3.1860     0.1480 H     1 <1>   0.0800 
 23 H       -2.0430    -3.0320    -1.5060 H     1 <1>   0.0800 
 24 H        0.5760    -2.8020     1.1140 H     1 <1>   0.0800 
 25 H        1.3860    -1.3180     1.5650 H     1 <1>   0.0800 
 26 H        2.1030    -2.3770     0.3790 H     1 <1>   0.0800 
 27 H       -3.2630    -1.0510    -0.8390 H     1 <1>   0.4500 
 28 H       -2.0850    -0.2030     0.8960 H     1 <1>   0.0800 
 29 H       -2.4340    -1.5900     1.8990 H     1 <1>   0.0800 
 30 H       -4.2000    -3.2440     0.8280 H     1 <1>   0.0800 
 31 H       -4.3360    -3.2500    -0.9160 H     1 <1>   0.0800 
 32 H       -3.8940     0.7080     1.8840 H     1 <1>   0.0800 
 33 H       -4.4940    -0.8180     2.4210 H     1 <1>   0.0800 
 34 H       -6.1750    -2.1740     0.7380 H     1 <1>   0.0800 
 35 H       -5.9920    -1.7160    -0.9140 H     1 <1>   0.0800 
 36 H       -6.1420     1.3520     1.4960 H     1 <1>   0.0800 
 37 H       -6.9640    -0.1440     1.7250 H     1 <1>   0.0800 
 38 H       -4.8050     1.6580    -2.1850 H     1 <1>   0.0800 
 39 H       -5.1850     2.3230    -0.6100 H     1 <1>   0.0800 
 40 H       -6.7970     0.2200    -2.0770 H     1 <1>   0.0800 
 41 H       -7.2600     1.8830    -2.0090 H     1 <1>   0.0800 
 42 H       -7.3760     2.7450     0.3030 H     1 <1>   0.4000 
 43 H       -8.2650    -1.1070    -0.5670 H     1 <1>   0.0800 
 44 H       -9.3090     0.2110    -1.0160 H     1 <1>   0.0800 
 45 H       -9.1440    -0.2400     0.6640 H     1 <1>   0.0800 
@<TRIPOS>BOND
  1   1   2  1   
  2   1   3  1   
  3   2   4  2   
  4   2   5  1   
  5   3   6  2   
  6   3  21  1   
  7   4   6  1   
  8   4   7  1   
  9   5   8  1   
 10   5  22  1   
 11   5  23  1   
 12   7  24  1   
 13   7  25  1   
 14   7  26  1   
 15   8   9  1   
 16   8  10  1   
 17   8  27  1   
 18   9  11  1   
 19   9  28  1   
 20   9  29  1   
 21  10  12  1   
 22  10  30  1   
 23  10  31  1   
 24  11  13  1   
 25  11  32  1   
 26  11  33  1   
 27  12  13  1   
 28  12  34  1   
 29  12  35  1   
 30  13  14  1   
 31  13  15  1   
 32  14  16  1   
 33  15  17  1   
 34  15  36  1   
 35  15  37  1   
 36  16  18  1   
 37  16  38  1   
 38  16  39  1   
 39  17  18  1   
 40  17  19  1   
 41  17  20  1   
 42  18  40  1   
 43  18  41  1   
 44  19  42  1   
 45  20  43  1   
 46  20  44  1   
 47  20  45  1   
@<TRIPOS>SUBSTRUCTURE
  1 ****  14 GROUP 4 **** **** 0

# MOE 2024.06 (io_trps.svl 2023.06)
