@<TRIPOS>MOLECULE
NONAME
44 46 1 0 0 
SMALL
USER_CHARGES


@<TRIPOS>ATOM
  1 F       -0.6600    -0.4810     0.4720 F     1 <1>  -0.1900 
  2 C       -1.8000    -1.1270     0.3600 C.ar  1 <1>   0.1900 
  3 C       -2.6620    -0.9840    -0.7230 C.ar  1 <1>   0.3920 
  4 C       -2.1520    -1.9900     1.3650 C.ar  1 <1>   0.1600 
  5 O       -2.4610    -0.1800    -1.7940 O.3   1 <1>  -0.3630 
  6 N       -3.7880    -1.6630    -0.7740 N.ar  1 <1>  -0.6200 
  7 N       -3.2750    -2.6760     1.3230 N.ar  1 <1>  -0.6200 
  8 C       -1.3660     0.6950    -1.9470 C.3   1 <1>   0.0400 
  9 C       -4.0330    -2.4620     0.2500 C.ar  1 <1>   0.7200 
 10 N       -5.2000    -3.1330     0.1560 N.pl3 1 <1>  -0.8690 
 11 C       -5.4260    -4.4340     0.8080 C.3   1 <1>   0.2090 
 12 C       -6.6550    -5.0910     0.1900 C.3   1 <1>  -0.1600 
 13 C       -6.9280    -6.4390     0.8510 C.3   1 <1>   0.2090 
 14 N       -8.0690    -7.0900     0.1570 N.pl3 1 <1>  -0.8380 
 15 C       -7.8410    -8.2360    -0.6300 C.ar  1 <1>   0.1000 
 16 C       -9.3770    -6.8920     0.8450 C.3   1 <1>   0.2090 
 17 C       -8.7770    -9.2730    -0.6930 C.ar  1 <1>  -0.1430 
 18 C       -6.6780    -8.3650    -1.3880 C.ar  1 <1>  -0.1500 
 19 C      -10.4900    -7.6950     0.1770 C.3   1 <1>  -0.1600 
 20 C       -8.5290   -10.4030    -1.4540 C.ar  1 <1>  -0.1500 
 21 C      -10.0860    -9.1640     0.0690 C.3   1 <1>  -0.0170 
 22 C       -6.4320    -9.4920    -2.1490 C.ar  1 <1>  -0.1500 
 23 C       -7.3570   -10.5180    -2.1790 C.ar  1 <1>  -0.1500 
 24 H       -1.5030    -2.1200     2.2130 H     1 <1>   0.1500 
 25 H       -1.4920     1.2270    -2.8730 H     1 <1>   0.0800 
 26 H       -0.4580     0.1200    -1.9800 H     1 <1>   0.0800 
 27 H       -1.3540     1.3920    -1.1270 H     1 <1>   0.0800 
 28 H       -5.6230    -3.0180    -0.7640 H     1 <1>   0.4000 
 29 H       -5.5740    -4.2760     1.8630 H     1 <1>   0.0800 
 30 H       -4.5600    -5.0600     0.6700 H     1 <1>   0.0800 
 31 H       -6.4880    -5.2430    -0.8610 H     1 <1>   0.0800 
 32 H       -7.5080    -4.4520     0.3260 H     1 <1>   0.0800 
 33 H       -7.1610    -6.2980     1.8930 H     1 <1>   0.0800 
 34 H       -6.0560    -7.0680     0.7960 H     1 <1>   0.0800 
 35 H       -9.6310    -5.8460     0.8260 H     1 <1>   0.0800 
 36 H       -9.2840    -7.2020     1.8720 H     1 <1>   0.0800 
 37 H       -5.9580    -7.5710    -1.3920 H     1 <1>   0.1500 
 38 H      -10.6660    -7.2940    -0.8060 H     1 <1>   0.0800 
 39 H      -11.3970    -7.6020     0.7470 H     1 <1>   0.0800 
 40 H       -9.2500   -11.2010    -1.4900 H     1 <1>   0.1500 
 41 H       -9.9570    -9.5850     1.0500 H     1 <1>   0.0800 
 42 H      -10.8590    -9.7120    -0.4400 H     1 <1>   0.0800 
 43 H       -5.5230    -9.5680    -2.7190 H     1 <1>   0.1500 
 44 H       -7.1690   -11.3990    -2.7680 H     1 <1>   0.1500 
@<TRIPOS>BOND
  1   1   2  1   
  2   2   3  ar  
  3   2   4  ar  
  4   3   5  1   
  5   3   6  ar  
  6   4   7  ar  
  7   4  24  1   
  8   5   8  1   
  9   6   9  ar  
 10   7   9  ar  
 11   8  25  1   
 12   8  26  1   
 13   8  27  1   
 14   9  10  1   
 15  10  11  1   
 16  10  28  1   
 17  11  12  1   
 18  11  29  1   
 19  11  30  1   
 20  12  13  1   
 21  12  31  1   
 22  12  32  1   
 23  13  14  1   
 24  13  33  1   
 25  13  34  1   
 26  14  15  1   
 27  14  16  1   
 28  15  17  ar  
 29  15  18  ar  
 30  16  19  1   
 31  16  35  1   
 32  16  36  1   
 33  17  20  ar  
 34  17  21  1   
 35  18  22  ar  
 36  18  37  1   
 37  19  21  1   
 38  19  38  1   
 39  19  39  1   
 40  20  23  ar  
 41  20  40  1   
 42  21  41  1   
 43  21  42  1   
 44  22  23  ar  
 45  22  43  1   
 46  23  44  1   
@<TRIPOS>SUBSTRUCTURE
  1 ****  12 GROUP 4 **** **** 0

# MOE 2024.06 (io_trps.svl 2023.06)
