@<TRIPOS>MOLECULE
NONAME
48 49 1 0 0 
SMALL
USER_CHARGES


@<TRIPOS>ATOM
  1 S        0.0870     1.9730     1.3390 S.o2  1 <1>   1.2040 
  2 O       -0.7490     2.1250     0.1700 O.2   1 <1>  -0.6500 
  3 O       -0.1560     2.7780     2.5140 O.2   1 <1>  -0.6500 
  4 C        1.8240     2.1260     0.8540 C.ar  1 <1>  -0.0090 
  5 C       -0.0110     0.2650     1.8400 C.3   1 <1>  -0.1350 
  6 C        2.8000     2.4830     1.7750 C.ar  1 <1>  -0.1500 
  7 C        2.2300     1.8650    -0.4490 C.ar  1 <1>  -0.1500 
  8 C        4.1320     2.5740     1.4120 C.ar  1 <1>  -0.1500 
  9 C        3.5600     1.9550    -0.8190 C.ar  1 <1>  -0.1500 
 10 C        4.5280     2.3060     0.1110 C.ar  1 <1>  -0.1430 
 11 C        6.0030     2.4430    -0.2650 C.3   1 <1>   0.4330 
 12 N        6.1160     3.6900    -1.0280 N.pl3 1 <1>  -0.8690 
 13 C        6.5580     1.2920    -1.1140 C.3   1 <1>  -0.1600 
 14 C        6.6250     4.8330    -0.4600 C.ar  1 <1>   0.4100 
 15 C        6.4480    -0.0760    -0.4210 C.3   1 <1>  -0.2400 
 16 N        7.7690     4.6660     0.1930 N.ar  1 <1>  -0.6200 
 17 C        5.9710     6.0710    -0.5910 C.ar  1 <1>   0.0860 
 18 C        8.3400     5.7420     0.6960 C.ar  1 <1>   0.1660 
 19 C        4.6800     6.2080    -1.2250 C.2   1 <1>   0.5440 
 20 C        6.6080     7.1850    -0.0650 C.ar  1 <1>  -0.1500 
 21 C        7.8110     7.0240     0.5870 C.ar  1 <1>  -0.1430 
 22 C        9.6540     5.4960     1.4150 C.3   1 <1>  -0.0970 
 23 O        4.4140     7.1680    -1.9160 O.2   1 <1>  -0.5700 
 24 N        3.6770     5.3100    -1.0560 N.am  1 <1>  -0.8000 
 25 C        8.5130     8.2490     1.1620 C.3   1 <1>  -0.0970 
 26 H       -1.0090     0.0350     2.1590 H     1 <1>   0.0800 
 27 H        0.6590     0.0740     2.6560 H     1 <1>   0.0800 
 28 H        0.2430    -0.3810     1.0230 H     1 <1>   0.0800 
 29 H        2.5140     2.7000     2.7920 H     1 <1>   0.1500 
 30 H        1.4940     1.5930    -1.1880 H     1 <1>   0.1500 
 31 H        4.8630     2.8610     2.1500 H     1 <1>   0.1500 
 32 H        3.8320     1.7510    -1.8410 H     1 <1>   0.1500 
 33 H        6.5920     2.5090     0.6350 H     1 <1>   0.0800 
 34 H        5.3180     3.8260    -1.6520 H     1 <1>   0.4000 
 35 H        7.5970     1.4970    -1.3060 H     1 <1>   0.0800 
 36 H        6.0520     1.2540    -2.0610 H     1 <1>   0.0800 
 37 H        6.9680    -0.0620     0.5210 H     1 <1>   0.0800 
 38 H        6.8900    -0.8360    -1.0420 H     1 <1>   0.0800 
 39 H        5.4190    -0.3350    -0.2460 H     1 <1>   0.0800 
 40 H        6.1520     8.1540    -0.1710 H     1 <1>   0.1500 
 41 H        9.7980     4.4440     1.5820 H     1 <1>   0.0800 
 42 H        9.6610     5.9920     2.3670 H     1 <1>   0.0800 
 43 H       10.4670     5.8590     0.8140 H     1 <1>   0.0800 
 44 H        2.7560     5.5250    -1.4400 H     1 <1>   0.3700 
 45 H        3.7240     4.5330    -0.3890 H     1 <1>   0.3700 
 46 H        9.5250     8.3000     0.8030 H     1 <1>   0.0800 
 47 H        8.5220     8.1990     2.2360 H     1 <1>   0.0800 
 48 H        8.0090     9.1530     0.8700 H     1 <1>   0.0800 
@<TRIPOS>BOND
  1   1   2  2   
  2   1   3  2   
  3   1   4  1   
  4   1   5  1   
  5   4   6  ar  
  6   4   7  ar  
  7   5  26  1   
  8   5  27  1   
  9   5  28  1   
 10   6   8  ar  
 11   6  29  1   
 12   7   9  ar  
 13   7  30  1   
 14   8  10  ar  
 15   8  31  1   
 16   9  10  ar  
 17   9  32  1   
 18  10  11  1   
 19  11  12  1   
 20  11  13  1   
 21  11  33  1   
 22  12  14  1   
 23  12  34  1   
 24  13  15  1   
 25  13  35  1   
 26  13  36  1   
 27  14  16  ar  
 28  14  17  ar  
 29  15  37  1   
 30  15  38  1   
 31  15  39  1   
 32  16  18  ar  
 33  17  19  1   
 34  17  20  ar  
 35  18  21  ar  
 36  18  22  1   
 37  19  23  2   
 38  19  24  am  
 39  20  21  ar  
 40  20  40  1   
 41  21  25  1   
 42  22  41  1   
 43  22  42  1   
 44  22  43  1   
 45  24  44  1   
 46  24  45  1   
 47  25  46  1   
 48  25  47  1   
 49  25  48  1   
@<TRIPOS>SUBSTRUCTURE
  1 ****  10 GROUP 4 **** **** 0

# MOE 2024.06 (io_trps.svl 2023.06)
