@<TRIPOS>MOLECULE
NONAME
36 37 1 0 0 
SMALL
USER_CHARGES


@<TRIPOS>ATOM
  1 O        0.3120    -0.2270    -1.3610 O.2   1 <1>  -0.5700 
  2 C        1.2520    -0.7440    -0.7960 C.2   1 <1>   0.5440 
  3 N        2.2980     0.0140    -0.3300 N.am  1 <1>  -0.4940 
  4 C        1.2940    -2.1730    -0.5890 C.ar  1 <1>   0.0860 
  5 C        2.5390     1.3880    -0.4470 C.2   1 <1>   0.2040 
  6 C        0.3080    -2.8610     0.1300 C.ar  1 <1>   0.1660 
  7 C        2.3470    -2.9210    -1.0990 C.ar  1 <1>  -0.1500 
  8 O        1.7780     2.1790    -1.1670 O.3   1 <1>  -0.0190 
  9 C        3.5170     2.1450     0.0910 C.2   1 <1>  -0.1810 
 10 N        0.3210    -4.1630     0.3670 N.ar  1 <1>  -0.6200 
 11 C       -0.8870    -2.1220     0.7110 C.3   1 <1>  -0.0970 
 12 C        2.3620    -4.2760    -0.8600 C.ar  1 <1>  -0.1500 
 13 N        2.1980     3.4190    -1.1380 N.2   1 <1>  -0.4100 
 14 C        3.2410     3.4250    -0.3890 C.2   1 <1>   0.1080 
 15 C        4.6630     1.7460     1.0060 C.3   1 <1>  -0.0590 
 16 C        1.3360    -4.8470    -0.1270 C.ar  1 <1>   0.1670 
 17 C        4.0390     4.6840    -0.0920 C.3   1 <1>   0.0210 
 18 C        1.3270    -6.3360     0.1490 C.3   1 <1>  -0.0970 
 19 C        5.2150     4.8390    -1.0620 C.3   1 <1>  -0.2400 
 20 H        2.9960    -0.4960     0.2040 H     1 <1>   0.3700 
 21 H        3.1270    -2.4530    -1.6760 H     1 <1>   0.1500 
 22 H       -0.5780    -1.2100     1.1880 H     1 <1>   0.0800 
 23 H       -1.3890    -2.7320     1.4400 H     1 <1>   0.0800 
 24 H       -1.5800    -1.8870    -0.0760 H     1 <1>   0.0800 
 25 H        3.1610    -4.8850    -1.2440 H     1 <1>   0.1500 
 26 H        4.6330     0.6940     1.2200 H     1 <1>   0.0800 
 27 H        4.5960     2.2860     1.9340 H     1 <1>   0.0800 
 28 H        5.6030     1.9750     0.5370 H     1 <1>   0.0800 
 29 H        4.3980     4.6530     0.9200 H     1 <1>   0.0800 
 30 H        3.3870     5.5350    -0.1840 H     1 <1>   0.0800 
 31 H        0.4350    -6.7700    -0.2630 H     1 <1>   0.0800 
 32 H        1.3320    -6.5030     1.2110 H     1 <1>   0.0800 
 33 H        2.1830    -6.8190    -0.2840 H     1 <1>   0.0800 
 34 H        5.8860     4.0040    -0.9760 H     1 <1>   0.0800 
 35 H        5.7550     5.7430    -0.8480 H     1 <1>   0.0800 
 36 H        4.8500     4.8850    -2.0730 H     1 <1>   0.0800 
@<TRIPOS>BOND
  1   1   2  2   
  2   2   3  am  
  3   2   4  1   
  4   3   5  1   
  5   3  20  1   
  6   4   6  ar  
  7   4   7  ar  
  8   5   8  1   
  9   5   9  2   
 10   6  10  ar  
 11   6  11  1   
 12   7  12  ar  
 13   7  21  1   
 14   8  13  1   
 15   9  14  1   
 16   9  15  1   
 17  10  16  ar  
 18  11  22  1   
 19  11  23  1   
 20  11  24  1   
 21  12  16  ar  
 22  12  25  1   
 23  13  14  2   
 24  14  17  1   
 25  15  26  1   
 26  15  27  1   
 27  15  28  1   
 28  16  18  1   
 29  17  19  1   
 30  17  29  1   
 31  17  30  1   
 32  18  31  1   
 33  18  32  1   
 34  18  33  1   
 35  19  34  1   
 36  19  35  1   
 37  19  36  1   
@<TRIPOS>SUBSTRUCTURE
  1 ****   3 GROUP 4 **** **** 0

# MOE 2024.06 (io_trps.svl 2023.06)
