@<TRIPOS>MOLECULE
NONAME
47 50 1 0 0 
SMALL
USER_CHARGES


@<TRIPOS>ATOM
  1 O       -1.1530    -2.2170     0.7480 O.2   1 <1>  -0.5700 
  2 C       -0.0740    -2.7090     0.9930 C.2   1 <1>   0.6900 
  3 N        0.7440    -3.2960     0.0850 N.am  1 <1>  -0.6600 
  4 N        0.4500    -2.7870     2.2340 N.am  1 <1>  -0.4900 
  5 C        1.9080    -3.9010     0.7970 C.3   1 <1>   0.2010 
  6 C        0.3850    -3.6670    -1.3170 C.3   1 <1>   0.2010 
  7 C        1.6110    -3.4760     2.2280 C.2   1 <1>   0.5690 
  8 C        0.0390    -5.1500    -1.4660 C.2   1 <1>   0.5690 
  9 O        2.2890    -3.7120     3.1940 O.2   1 <1>  -0.5700 
 10 O        0.9340    -5.9070    -1.7640 O.2   1 <1>  -0.5700 
 11 N       -1.2350    -5.6060    -1.2540 N.am  1 <1>  -0.6600 
 12 C       -2.4130    -4.7940    -0.8520 C.3   1 <1>   0.1400 
 13 C       -1.5910    -7.0420    -1.3410 C.3   1 <1>   0.1400 
 14 C       -3.5870    -5.7740    -0.8770 C.3   1 <1>   0.2000 
 15 C       -2.9650    -7.1550    -0.6800 C.3   1 <1>  -0.0800 
 16 O       -4.4970    -5.5140     0.1350 O.3   1 <1>  -0.6800 
 17 C       -3.8300    -8.2910    -1.2500 C.3   1 <1>  -0.0170 
 18 C       -3.1780    -9.6490    -1.0120 C.ar  1 <1>  -0.1440 
 19 C       -3.2110   -10.2930     0.2480 C.ar  1 <1>   0.0000 
 20 C       -2.5250   -10.2830    -2.0270 C.ar  1 <1>  -0.1500 
 21 C       -2.5480   -11.5390     0.3670 C.ar  1 <1>   0.3100 
 22 C       -3.8620    -9.7780     1.3940 C.ar  1 <1>  -0.1500 
 23 C       -1.9070   -11.5200    -1.8050 C.ar  1 <1>   0.1600 
 24 N       -1.9040   -12.1380    -0.6670 N.ar  1 <1>  -0.6200 
 25 C       -2.5510   -12.1950     1.6080 C.ar  1 <1>  -0.1500 
 26 C       -3.8480   -10.4440     2.5890 C.ar  1 <1>  -0.1500 
 27 C       -3.1830   -11.6670     2.7010 C.ar  1 <1>  -0.1500 
 28 H        0.0050    -2.3970     3.0560 H     1 <1>   0.3700 
 29 H        1.9090    -4.9740     0.7090 H     1 <1>   0.0800 
 30 H        2.8360    -3.4820     0.4530 H     1 <1>   0.0800 
 31 H       -0.4460    -3.0690    -1.6430 H     1 <1>   0.0800 
 32 H        1.2180    -3.4450    -1.9590 H     1 <1>   0.0800 
 33 H       -2.2600    -4.4170     0.1430 H     1 <1>   0.0800 
 34 H       -2.5760    -3.9830    -1.5390 H     1 <1>   0.0800 
 35 H       -1.6350    -7.3250    -2.3790 H     1 <1>   0.0800 
 36 H       -0.8600    -7.6530    -0.8380 H     1 <1>   0.0800 
 37 H       -4.1000    -5.7070    -1.8220 H     1 <1>   0.0800 
 38 H       -2.7940    -7.3180     0.3690 H     1 <1>   0.0800 
 39 H       -4.0470    -5.4820     1.0010 H     1 <1>   0.4000 
 40 H       -3.9700    -8.1370    -2.3060 H     1 <1>   0.0800 
 41 H       -4.8090    -8.2710    -0.8030 H     1 <1>   0.0800 
 42 H       -2.4620    -9.8590    -3.0120 H     1 <1>   0.1500 
 43 H       -4.3840    -8.8420     1.3290 H     1 <1>   0.1500 
 44 H       -1.4020   -11.9860    -2.6340 H     1 <1>   0.1500 
 45 H       -2.0340   -13.1350     1.6700 H     1 <1>   0.1500 
 46 H       -4.3470   -10.0400     3.4530 H     1 <1>   0.1500 
 47 H       -3.1770   -12.1820     3.6470 H     1 <1>   0.1500 
@<TRIPOS>BOND
  1   1   2  2   
  2   2   3  am  
  3   2   4  am  
  4   3   5  1   
  5   3   6  1   
  6   4   7  am  
  7   4  28  1   
  8   5   7  1   
  9   5  29  1   
 10   5  30  1   
 11   6   8  1   
 12   6  31  1   
 13   6  32  1   
 14   7   9  2   
 15   8  10  2   
 16   8  11  am  
 17  11  12  1   
 18  11  13  1   
 19  12  14  1   
 20  12  33  1   
 21  12  34  1   
 22  13  15  1   
 23  13  35  1   
 24  13  36  1   
 25  14  15  1   
 26  14  16  1   
 27  14  37  1   
 28  15  17  1   
 29  15  38  1   
 30  16  39  1   
 31  17  18  1   
 32  17  40  1   
 33  17  41  1   
 34  18  19  ar  
 35  18  20  ar  
 36  19  21  ar  
 37  19  22  ar  
 38  20  23  ar  
 39  20  42  1   
 40  21  24  ar  
 41  21  25  ar  
 42  22  26  ar  
 43  22  43  1   
 44  23  24  ar  
 45  23  44  1   
 46  25  27  ar  
 47  25  45  1   
 48  26  27  ar  
 49  26  46  1   
 50  27  47  1   
@<TRIPOS>SUBSTRUCTURE
  1 ****  13 GROUP 4 **** **** 0

# MOE 2024.06 (io_trps.svl 2023.06)
