@<TRIPOS>MOLECULE
NONAME
44 46 1 0 0 
SMALL
USER_CHARGES


@<TRIPOS>ATOM
  1 CL      -3.4810    -0.0300     2.3510 Cl    1 <1>  -0.1240 
  2 C       -3.3580    -1.3330     1.1970 C.2   1 <1>   0.2640 
  3 O       -4.1990    -2.3400     1.3080 O.3   1 <1>  -0.2800 
  4 C       -2.5130    -1.4880     0.1600 C.2   1 <1>  -0.1500 
  5 C       -3.9090    -3.1820     0.3280 C.2   1 <1>  -0.0400 
  6 C       -2.8790    -2.7130    -0.4180 C.2   1 <1>  -0.1500 
  7 C       -4.7420    -4.4460     0.2080 C.3   1 <1>   0.5230 
  8 N       -6.1770    -4.0640     0.3010 N.4   1 <1>  -0.9590 
  9 C       -7.0330    -5.2690     0.5830 C.3   1 <1>   0.3430 
 10 C       -6.6140    -3.3040    -0.9100 C.3   1 <1>   0.3430 
 11 C       -8.4720    -4.9060     0.9910 C.3   1 <1>   0.1400 
 12 C       -7.5910    -2.1750    -0.5540 C.3   1 <1>  -0.1600 
 13 N       -9.1420    -4.0380    -0.0220 N.am  1 <1>  -0.6600 
 14 C       -8.8750    -2.5890     0.1800 C.3   1 <1>   0.1400 
 15 C       -9.8950    -4.4670    -1.0980 C.2   1 <1>   0.5690 
 16 O      -10.5100    -3.6700    -1.7640 O.2   1 <1>  -0.5700 
 17 C       -9.9110    -5.9190    -1.6030 C.3   1 <1>   0.2010 
 18 N      -10.3180    -6.9740    -0.6260 N.am  1 <1>  -0.6600 
 19 C       -9.4980    -7.9290    -0.1420 C.2   1 <1>   0.7800 
 20 C      -11.7150    -7.3820    -0.4460 C.3   1 <1>   0.1400 
 21 O       -8.2850    -7.8770    -0.1510 O.2   1 <1>  -0.5700 
 22 O      -10.1670    -8.9290     0.4060 O.3   1 <1>  -0.4300 
 23 C      -11.5640    -8.7180     0.2970 C.3   1 <1>   0.1200 
 24 H       -1.7260    -0.8310    -0.1680 H     1 <1>   0.1500 
 25 H       -2.4010    -3.1470    -1.2800 H     1 <1>   0.1500 
 26 H       -4.4860    -5.1050     1.0220 H     1 <1>   0.0800 
 27 H       -4.5370    -4.9490    -0.7230 H     1 <1>   0.0800 
 28 H       -6.2220    -3.4120     1.0960 H     1 <1>   0.4500 
 29 H       -6.5960    -5.8480     1.3800 H     1 <1>   0.0800 
 30 H       -7.0690    -5.9020    -0.2890 H     1 <1>   0.0800 
 31 H       -7.0830    -3.9740    -1.6120 H     1 <1>   0.0800 
 32 H       -5.7590    -2.8620    -1.3960 H     1 <1>   0.0800 
 33 H       -8.4460    -4.3990     1.9400 H     1 <1>   0.0800 
 34 H       -9.0450    -5.7950     1.1600 H     1 <1>   0.0800 
 35 H       -7.8890    -1.7120    -1.4780 H     1 <1>   0.0800 
 36 H       -7.0830    -1.4150     0.0130 H     1 <1>   0.0800 
 37 H       -9.7050    -2.0030    -0.1810 H     1 <1>   0.0800 
 38 H       -8.7810    -2.3800     1.2330 H     1 <1>   0.0800 
 39 H       -8.9260    -6.1470    -1.9690 H     1 <1>   0.0800 
 40 H      -10.5730    -5.9680    -2.4490 H     1 <1>   0.0800 
 41 H      -12.2030    -7.5220    -1.3960 H     1 <1>   0.0800 
 42 H      -12.2550    -6.6620     0.1440 H     1 <1>   0.0800 
 43 H      -11.9960    -9.5340    -0.2550 H     1 <1>   0.0800 
 44 H      -11.9860    -8.6740     1.2860 H     1 <1>   0.0800 
@<TRIPOS>BOND
  1   1   2  1   
  2   2   3  1   
  3   2   4  2   
  4   3   5  1   
  5   4   6  1   
  6   4  24  1   
  7   5   6  2   
  8   5   7  1   
  9   6  25  1   
 10   7   8  1   
 11   7  26  1   
 12   7  27  1   
 13   8   9  1   
 14   8  10  1   
 15   8  28  1   
 16   9  11  1   
 17   9  29  1   
 18   9  30  1   
 19  10  12  1   
 20  10  31  1   
 21  10  32  1   
 22  11  13  1   
 23  11  33  1   
 24  11  34  1   
 25  12  14  1   
 26  12  35  1   
 27  12  36  1   
 28  13  14  1   
 29  13  15  am  
 30  14  37  1   
 31  14  38  1   
 32  15  16  2   
 33  15  17  1   
 34  17  18  1   
 35  17  39  1   
 36  17  40  1   
 37  18  19  am  
 38  18  20  1   
 39  19  21  2   
 40  19  22  1   
 41  20  23  1   
 42  20  41  1   
 43  20  42  1   
 44  22  23  1   
 45  23  43  1   
 46  23  44  1   
@<TRIPOS>SUBSTRUCTURE
  1 ****   9 GROUP 4 **** **** 0

# MOE 2024.06 (io_trps.svl 2023.06)
