@<TRIPOS>MOLECULE
NONAME
45 47 1 0 0 
SMALL
USER_CHARGES


@<TRIPOS>ATOM
  1 F       -4.8920    -1.0610     1.9440 F     1 <1>  -0.1900 
  2 C       -4.4150    -0.2300     1.0530 C.ar  1 <1>   0.1900 
  3 C       -4.0950    -0.6970    -0.2140 C.ar  1 <1>  -0.1440 
  4 C       -4.2450     1.0900     1.4250 C.ar  1 <1>  -0.1500 
  5 C       -3.5840     0.2120    -1.1290 C.ar  1 <1>  -0.1500 
  6 C       -4.2870    -2.1560    -0.6050 C.3   1 <1>  -0.0160 
  7 C       -3.7360     1.9830     0.4980 C.ar  1 <1>  -0.1500 
  8 C       -3.4070     1.5420    -0.7750 C.ar  1 <1>  -0.1500 
  9 C       -3.0800    -2.9930    -0.1700 C.3   1 <1>  -0.0990 
 10 C       -3.3110    -4.4560    -0.4660 C.2   1 <1>   0.5690 
 11 O       -3.0540    -4.8850    -1.5630 O.2   1 <1>  -0.5700 
 12 N       -3.8340    -5.2380     0.5070 N.am  1 <1>  -0.7300 
 13 C       -4.1230    -6.6840     0.3690 C.3   1 <1>   0.2200 
 14 C       -5.6180    -6.9370     0.2220 C.3   1 <1>  -0.0800 
 15 C       -3.8560    -7.3670     1.7040 C.3   1 <1>   0.1200 
 16 C       -6.1100    -6.9540     1.6740 C.3   1 <1>   0.1200 
 17 C       -6.3790    -5.9610    -0.6950 C.3   1 <1>  -0.0170 
 18 O       -4.9780    -7.0850     2.4840 O.3   1 <1>  -0.5600 
 19 C       -7.8370    -6.3700    -0.8310 C.ar  1 <1>  -0.1430 
 20 C       -8.2320    -7.3660    -1.7010 C.ar  1 <1>  -0.1500 
 21 C       -8.8400    -5.7710    -0.0950 C.ar  1 <1>  -0.1500 
 22 C       -9.5710    -7.7100    -1.7860 C.ar  1 <1>   0.1600 
 23 C      -10.1500    -6.1900    -0.2550 C.ar  1 <1>   0.1600 
 24 N      -10.5400    -7.1470    -1.0820 N.ar  1 <1>  -0.6200 
 25 H       -4.5070     1.4090     2.4180 H     1 <1>   0.1500 
 26 H       -3.3210    -0.1090    -2.1220 H     1 <1>   0.1500 
 27 H       -5.1820    -2.5380    -0.1450 H     1 <1>   0.0800 
 28 H       -4.4140    -2.2380    -1.6710 H     1 <1>   0.0800 
 29 H       -3.5950     3.0160     0.7640 H     1 <1>   0.1500 
 30 H       -3.0100     2.2370    -1.4940 H     1 <1>   0.1500 
 31 H       -2.9020    -2.8650     0.8820 H     1 <1>   0.0800 
 32 H       -2.2030    -2.6650    -0.6980 H     1 <1>   0.0800 
 33 H       -4.0730    -4.8520     1.4240 H     1 <1>   0.3700 
 34 H       -3.5460    -7.1130    -0.4330 H     1 <1>   0.0800 
 35 H       -5.7440    -7.9310    -0.1700 H     1 <1>   0.0800 
 36 H       -2.9700    -7.0010     2.1910 H     1 <1>   0.0800 
 37 H       -3.7970    -8.4340     1.5820 H     1 <1>   0.0800 
 38 H       -6.7740    -7.7810     1.8600 H     1 <1>   0.0800 
 39 H       -6.5950    -6.0310     1.9420 H     1 <1>   0.0800 
 40 H       -5.9180    -5.9530    -1.6680 H     1 <1>   0.0800 
 41 H       -6.3270    -4.9600    -0.3050 H     1 <1>   0.0800 
 42 H       -7.5120    -7.8770    -2.3130 H     1 <1>   0.1500 
 43 H       -8.6170    -4.9830     0.6010 H     1 <1>   0.1500 
 44 H       -9.8610    -8.4890    -2.4700 H     1 <1>   0.1500 
 45 H      -10.9190    -5.7120     0.3270 H     1 <1>   0.1500 
@<TRIPOS>BOND
  1   1   2  1   
  2   2   3  ar  
  3   2   4  ar  
  4   3   5  ar  
  5   3   6  1   
  6   4   7  ar  
  7   4  25  1   
  8   5   8  ar  
  9   5  26  1   
 10   6   9  1   
 11   6  27  1   
 12   6  28  1   
 13   7   8  ar  
 14   7  29  1   
 15   8  30  1   
 16   9  10  1   
 17   9  31  1   
 18   9  32  1   
 19  10  11  2   
 20  10  12  am  
 21  12  13  1   
 22  12  33  1   
 23  13  14  1   
 24  13  15  1   
 25  13  34  1   
 26  14  16  1   
 27  14  17  1   
 28  14  35  1   
 29  15  18  1   
 30  15  36  1   
 31  15  37  1   
 32  16  18  1   
 33  16  38  1   
 34  16  39  1   
 35  17  19  1   
 36  17  40  1   
 37  17  41  1   
 38  19  20  ar  
 39  19  21  ar  
 40  20  22  ar  
 41  20  42  1   
 42  21  23  ar  
 43  21  43  1   
 44  22  24  ar  
 45  22  44  1   
 46  23  24  ar  
 47  23  45  1   
@<TRIPOS>SUBSTRUCTURE
  1 ****  12 GROUP 4 **** **** 0

# MOE 2024.06 (io_trps.svl 2023.06)
