@<TRIPOS>MOLECULE
NONAME
56 58 1 0 0 
SMALL
USER_CHARGES


@<TRIPOS>ATOM
  1 O        1.2140     0.0030     0.9760 O.2   1 <1>  -0.5700 
  2 C        2.2280    -0.3020     0.3860 C.2   1 <1>   0.7800 
  3 O        3.2010     0.5900     0.1670 O.3   1 <1>  -0.4300 
  4 N        2.4620    -1.5840    -0.0360 N.am  1 <1>  -0.6600 
  5 C        3.1480     1.9770     0.4400 C.3   1 <1>   0.2800 
  6 C        3.6770    -1.9900    -0.7930 C.3   1 <1>   0.1400 
  7 C        1.5640    -2.7050     0.3710 C.3   1 <1>   0.1400 
  8 C        4.4810     2.5360    -0.0600 C.3   1 <1>  -0.2400 
  9 C        3.0370     2.2210     1.9500 C.3   1 <1>  -0.2400 
 10 C        2.0050     2.6300    -0.3450 C.3   1 <1>  -0.2400 
 11 C        4.5770    -2.8270     0.1350 C.3   1 <1>   0.2800 
 12 C        2.3090    -4.0550     0.3520 C.3   1 <1>  -0.1600 
 13 O        5.5330    -3.4360    -0.7050 O.3   1 <1>  -0.5600 
 14 C        5.2540    -1.8610     1.1510 C.3   1 <1>   0.3430 
 15 C        3.7610    -3.9330     0.8630 C.3   1 <1>  -0.1600 
 16 C        6.7680    -3.7660    -0.1230 C.3   1 <1>   0.1200 
 17 N        6.5710    -1.3590     0.6380 N.4   1 <1>  -0.9590 
 18 C        7.5110    -2.5030     0.3740 C.3   1 <1>   0.3430 
 19 C        7.1620    -0.2870     1.4780 C.3   1 <1>   0.4860 
 20 C        8.3850     0.2540     0.7660 C.ar  1 <1>  -0.1440 
 21 C        9.6530    -0.0160     1.2600 C.ar  1 <1>  -0.1500 
 22 C        8.2480     1.0150    -0.3870 C.ar  1 <1>  -0.1500 
 23 C       10.7730     0.4620     0.6020 C.ar  1 <1>  -0.1500 
 24 C        9.3690     1.4910    -1.0440 C.ar  1 <1>  -0.1500 
 25 C       10.6310     1.2130    -0.5510 C.ar  1 <1>  -0.1500 
 26 H        4.2050    -1.1320    -1.1670 H     1 <1>   0.0800 
 27 H        3.3750    -2.5820    -1.6410 H     1 <1>   0.0800 
 28 H        0.7150    -2.7420    -0.2910 H     1 <1>   0.0800 
 29 H        1.1970    -2.5150     1.3670 H     1 <1>   0.0800 
 30 H        5.3000     2.1060     0.4830 H     1 <1>   0.0800 
 31 H        4.5100     3.6020     0.0810 H     1 <1>   0.0800 
 32 H        4.5990     2.3360    -1.1100 H     1 <1>   0.0800 
 33 H        3.8070     1.6930     2.4810 H     1 <1>   0.0800 
 34 H        2.0760     1.9160     2.3230 H     1 <1>   0.0800 
 35 H        3.1390     3.2700     2.1580 H     1 <1>   0.0800 
 36 H        2.0750     2.3830    -1.3890 H     1 <1>   0.0800 
 37 H        2.0540     3.6990    -0.2450 H     1 <1>   0.0800 
 38 H        1.0470     2.3180     0.0270 H     1 <1>   0.0800 
 39 H        2.3140    -4.4370    -0.6550 H     1 <1>   0.0800 
 40 H        1.7660    -4.7660     0.9500 H     1 <1>   0.0800 
 41 H        5.4090    -2.3860     2.0770 H     1 <1>   0.0800 
 42 H        4.5870    -1.0400     1.3540 H     1 <1>   0.0800 
 43 H        3.7020    -3.7060     1.9130 H     1 <1>   0.0800 
 44 H        4.2490    -4.8870     0.7670 H     1 <1>   0.0800 
 45 H        7.3600    -4.2760    -0.8630 H     1 <1>   0.0800 
 46 H        6.5930    -4.4480     0.6920 H     1 <1>   0.0800 
 47 H        6.3880    -0.9450    -0.2860 H     1 <1>   0.4500 
 48 H        8.2360    -2.2060    -0.3670 H     1 <1>   0.0800 
 49 H        8.0550    -2.7540     1.2690 H     1 <1>   0.0800 
 50 H        7.4400    -0.6780     2.4440 H     1 <1>   0.0800 
 51 H        6.4500     0.5090     1.6220 H     1 <1>   0.0800 
 52 H        9.7900    -0.5930     2.1590 H     1 <1>   0.1500 
 53 H        7.2780     1.2520    -0.7890 H     1 <1>   0.1500 
 54 H       11.7580     0.2540     0.9850 H     1 <1>   0.1500 
 55 H        9.2650     2.0820    -1.9390 H     1 <1>   0.1500 
 56 H       11.5030     1.5850    -1.0620 H     1 <1>   0.1500 
@<TRIPOS>BOND
  1   1   2  2   
  2   2   3  1   
  3   2   4  am  
  4   3   5  1   
  5   4   6  1   
  6   4   7  1   
  7   5   8  1   
  8   5   9  1   
  9   5  10  1   
 10   6  11  1   
 11   6  26  1   
 12   6  27  1   
 13   7  12  1   
 14   7  28  1   
 15   7  29  1   
 16   8  30  1   
 17   8  31  1   
 18   8  32  1   
 19   9  33  1   
 20   9  34  1   
 21   9  35  1   
 22  10  36  1   
 23  10  37  1   
 24  10  38  1   
 25  11  13  1   
 26  11  14  1   
 27  11  15  1   
 28  12  15  1   
 29  12  39  1   
 30  12  40  1   
 31  13  16  1   
 32  14  17  1   
 33  14  41  1   
 34  14  42  1   
 35  15  43  1   
 36  15  44  1   
 37  16  18  1   
 38  16  45  1   
 39  16  46  1   
 40  17  18  1   
 41  17  19  1   
 42  17  47  1   
 43  18  48  1   
 44  18  49  1   
 45  19  20  1   
 46  19  50  1   
 47  19  51  1   
 48  20  21  ar  
 49  20  22  ar  
 50  21  23  ar  
 51  21  52  1   
 52  22  24  ar  
 53  22  53  1   
 54  23  25  ar  
 55  23  54  1   
 56  24  25  ar  
 57  24  55  1   
 58  25  56  1   
@<TRIPOS>SUBSTRUCTURE
  1 ****  17 GROUP 4 **** **** 0

# MOE 2024.06 (io_trps.svl 2023.06)
