@<TRIPOS>MOLECULE
NONAME
51 53 1 0 0 
SMALL
USER_CHARGES


@<TRIPOS>ATOM
  1 S       -0.2660    -0.7790     1.8180 S.3   1 <1>  -0.3320 
  2 C       -0.3800    -2.0540     0.5500 C.ar  1 <1>   0.1020 
  3 C        1.0800     0.3780     1.3060 C.3   1 <1>  -0.0100 
  4 C       -1.3180    -3.0350     0.7140 C.ar  1 <1>  -0.1500 
  5 C        0.4580    -2.0480    -0.5700 C.ar  1 <1>  -0.1500 
  6 C       -1.4700    -4.0620    -0.2270 C.ar  1 <1>   0.3100 
  7 C        0.3310    -3.0410    -1.5050 C.ar  1 <1>  -0.1500 
  8 N       -2.4210    -4.9950     0.0080 N.ar  1 <1>  -0.6200 
  9 C       -0.6260    -4.0700    -1.3670 C.ar  1 <1>   0.0000 
 10 C       -2.5500    -5.9450    -0.8700 C.ar  1 <1>   0.4100 
 11 C       -0.7980    -5.1160    -2.3010 C.ar  1 <1>  -0.1430 
 12 N       -3.5150    -6.8910    -0.6370 N.pl3 1 <1>  -0.8380 
 13 C       -1.7620    -6.0370    -2.0330 C.ar  1 <1>  -0.1500 
 14 C        0.0500    -5.2270    -3.5590 C.3   1 <1>  -0.0970 
 15 C       -3.0250    -8.2900    -0.3740 C.3   1 <1>   0.2090 
 16 C       -4.7230    -6.8130    -1.5010 C.3   1 <1>   0.2090 
 17 C       -4.1500    -9.3600    -0.3870 C.3   1 <1>  -0.1060 
 18 C       -5.9060    -7.5670    -0.8740 C.3   1 <1>  -0.1600 
 19 C       -4.3580    -9.8670    -1.8230 C.2   1 <1>   0.9060 
 20 C       -5.4690    -8.6910     0.0810 C.3   1 <1>   0.2000 
 21 C       -3.7490   -10.6150     0.4510 C.3   1 <1>  -0.1600 
 22 O       -3.4560    -9.7540    -2.6650 O.co2 1 <1>  -0.9000 
 23 O       -5.4320   -10.4050    -2.1200 O.co2 1 <1>  -0.9000 
 24 O       -5.2720    -8.0640     1.3020 O.3   1 <1>  -0.6800 
 25 C       -3.5580   -10.4530     1.9710 C.3   1 <1>  -0.1600 
 26 C       -3.0430   -11.7520     2.5970 C.3   1 <1>  -0.2400 
 27 H        1.1540     1.1410     2.0600 H     1 <1>   0.0800 
 28 H        0.8080     0.8040     0.3570 H     1 <1>   0.0800 
 29 H        1.9940    -0.1840     1.2410 H     1 <1>   0.0800 
 30 H       -1.9620    -3.0410     1.5730 H     1 <1>   0.1500 
 31 H        1.1930    -1.2790    -0.6990 H     1 <1>   0.1500 
 32 H        0.9750    -3.0370    -2.3650 H     1 <1>   0.1500 
 33 H       -1.9590    -6.8660    -2.6900 H     1 <1>   0.1500 
 34 H       -0.2340    -6.0910    -4.1330 H     1 <1>   0.0800 
 35 H        1.0880    -5.3240    -3.2960 H     1 <1>   0.0800 
 36 H       -0.0830    -4.3550    -4.1720 H     1 <1>   0.0800 
 37 H       -2.2440    -8.5500    -1.0670 H     1 <1>   0.0800 
 38 H       -2.5690    -8.2720     0.5970 H     1 <1>   0.0800 
 39 H       -4.9900    -5.7830    -1.6620 H     1 <1>   0.0800 
 40 H       -4.4890    -7.2500    -2.4580 H     1 <1>   0.0800 
 41 H       -6.4800    -7.9970    -1.6740 H     1 <1>   0.0800 
 42 H       -6.5550    -6.8790    -0.3630 H     1 <1>   0.0800 
 43 H       -6.2530    -9.4190     0.1980 H     1 <1>   0.0800 
 44 H       -4.5040   -11.3670     0.2930 H     1 <1>   0.0800 
 45 H       -2.8370   -11.0050     0.0300 H     1 <1>   0.0800 
 46 H       -4.6010    -7.3620     1.1180 H     1 <1>   0.4000 
 47 H       -2.8630    -9.6620     2.1870 H     1 <1>   0.0800 
 48 H       -4.5000   -10.2030     2.4270 H     1 <1>   0.0800 
 49 H       -2.0880   -12.0160     2.1790 H     1 <1>   0.0800 
 50 H       -3.7360   -12.5540     2.4140 H     1 <1>   0.0800 
 51 H       -2.9330   -11.6280     3.6600 H     1 <1>   0.0800 
@<TRIPOS>BOND
  1   1   2  1   
  2   1   3  1   
  3   2   4  ar  
  4   2   5  ar  
  5   3  27  1   
  6   3  28  1   
  7   3  29  1   
  8   4   6  ar  
  9   4  30  1   
 10   5   7  ar  
 11   5  31  1   
 12   6   8  ar  
 13   6   9  ar  
 14   7   9  ar  
 15   7  32  1   
 16   8  10  ar  
 17   9  11  ar  
 18  10  12  1   
 19  10  13  ar  
 20  11  13  ar  
 21  11  14  1   
 22  12  15  1   
 23  12  16  1   
 24  13  33  1   
 25  14  34  1   
 26  14  35  1   
 27  14  36  1   
 28  15  17  1   
 29  15  37  1   
 30  15  38  1   
 31  16  18  1   
 32  16  39  1   
 33  16  40  1   
 34  17  19  1   
 35  17  20  1   
 36  17  21  1   
 37  18  20  1   
 38  18  41  1   
 39  18  42  1   
 40  19  22  ar  
 41  19  23  ar  
 42  20  24  1   
 43  20  43  1   
 44  21  25  1   
 45  21  44  1   
 46  21  45  1   
 47  24  46  1   
 48  25  26  1   
 49  25  47  1   
 50  25  48  1   
 51  26  49  1   
 52  26  50  1   
 53  26  51  1   
@<TRIPOS>SUBSTRUCTURE
  1 ****  10 GROUP 4 **** **** 0

# MOE 2024.06 (io_trps.svl 2023.06)
