@<TRIPOS>MOLECULE
NONAME
46 48 1 0 0 
SMALL
USER_CHARGES


@<TRIPOS>ATOM
  1 S        2.1150    -0.8410     2.4140 S.3   1 <1>  -0.0800 
  2 C        1.7110    -1.1220     0.7370 C.2   1 <1>   0.1980 
  3 C        1.2210    -2.2630     2.8410 C.2   1 <1>  -0.1100 
  4 N        0.9910    -2.1540     0.5450 N.2   1 <1>  -0.5650 
  5 C        2.2560    -0.1210    -0.2800 C.3   1 <1>   0.1000 
  6 C        0.6900    -2.8370     1.7400 C.2   1 <1>   0.1410 
  7 C        1.4040     1.1540    -0.2910 C.3   1 <1>  -0.2400 
  8 C        2.3150    -0.7230    -1.6920 C.3   1 <1>  -0.2400 
  9 C       -0.1080    -4.0610     1.7500 C.2   1 <1>   0.7160 
 10 O       -0.2460    -4.6890     2.7860 O.2   1 <1>  -0.5700 
 11 N       -0.7390    -4.5330     0.6240 N.am  1 <1>  -0.6600 
 12 C       -0.7550    -6.0060     0.3520 C.3   1 <1>   0.3640 
 13 C       -1.7300    -3.6860    -0.0900 C.3   1 <1>   0.1400 
 14 C        0.6870    -6.5230     0.4410 C.ar  1 <1>  -0.1430 
 15 C       -1.3430    -6.3940    -1.0430 C.3   1 <1>   0.2000 
 16 C       -1.9220    -4.1650    -1.5270 C.3   1 <1>   0.1200 
 17 C        1.0010    -7.5820     1.2810 C.ar  1 <1>  -0.1500 
 18 C        1.7000    -5.9390    -0.3100 C.ar  1 <1>  -0.1500 
 19 O       -2.3220    -5.4990    -1.5080 O.3   1 <1>  -0.5600 
 20 C       -2.0030    -7.7840    -1.0610 C.3   1 <1>   0.1200 
 21 C        2.2980    -8.0590     1.3580 C.ar  1 <1>  -0.1500 
 22 C        2.9970    -6.4140    -0.2340 C.ar  1 <1>  -0.1500 
 23 O       -1.1790    -8.7700    -0.5280 O.3   1 <1>  -0.6800 
 24 C        3.2970    -7.4770     0.5980 C.ar  1 <1>  -0.1500 
 25 H        1.1730    -2.5490     3.8760 H     1 <1>   0.1500 
 26 H        3.2590     0.1360     0.0140 H     1 <1>   0.0800 
 27 H        0.3900     0.9210    -0.5660 H     1 <1>   0.0800 
 28 H        1.8010     1.8660    -0.9930 H     1 <1>   0.0800 
 29 H        1.3980     1.6060     0.6850 H     1 <1>   0.0800 
 30 H        1.3280    -0.9820    -2.0300 H     1 <1>   0.0800 
 31 H        2.9170    -1.6150    -1.6840 H     1 <1>   0.0800 
 32 H        2.7480    -0.0230    -2.3830 H     1 <1>   0.0800 
 33 H       -1.3500    -6.4780     1.1160 H     1 <1>   0.0800 
 34 H       -2.6730    -3.7360     0.4250 H     1 <1>   0.0800 
 35 H       -1.4110    -2.6590    -0.0980 H     1 <1>   0.0800 
 36 H       -0.5530    -6.3870    -1.7720 H     1 <1>   0.0800 
 37 H       -1.0110    -4.0710    -2.0940 H     1 <1>   0.0800 
 38 H       -2.6970    -3.5960    -2.0090 H     1 <1>   0.0800 
 39 H        0.2330    -8.0400     1.8810 H     1 <1>   0.1500 
 40 H        1.4820    -5.1010    -0.9510 H     1 <1>   0.1500 
 41 H       -2.2410    -8.0630    -2.0720 H     1 <1>   0.0800 
 42 H       -2.9050    -7.7700    -0.4750 H     1 <1>   0.0800 
 43 H        2.5280    -8.8820     2.0120 H     1 <1>   0.1500 
 44 H        3.7730    -5.9530    -0.8190 H     1 <1>   0.1500 
 45 H       -0.2780    -8.7290    -0.9100 H     1 <1>   0.4000 
 46 H        4.3050    -7.8480     0.6590 H     1 <1>   0.1500 
@<TRIPOS>BOND
  1   1   2  1   
  2   1   3  1   
  3   2   4  2   
  4   2   5  1   
  5   3   6  2   
  6   3  25  1   
  7   4   6  1   
  8   5   7  1   
  9   5   8  1   
 10   5  26  1   
 11   6   9  1   
 12   7  27  1   
 13   7  28  1   
 14   7  29  1   
 15   8  30  1   
 16   8  31  1   
 17   8  32  1   
 18   9  10  2   
 19   9  11  am  
 20  11  12  1   
 21  11  13  1   
 22  12  14  1   
 23  12  15  1   
 24  12  33  1   
 25  13  16  1   
 26  13  34  1   
 27  13  35  1   
 28  14  17  ar  
 29  14  18  ar  
 30  15  19  1   
 31  15  20  1   
 32  15  36  1   
 33  16  19  1   
 34  16  37  1   
 35  16  38  1   
 36  17  21  ar  
 37  17  39  1   
 38  18  22  ar  
 39  18  40  1   
 40  20  23  1   
 41  20  41  1   
 42  20  42  1   
 43  21  24  ar  
 44  21  43  1   
 45  22  24  ar  
 46  22  44  1   
 47  23  45  1   
 48  24  46  1   
@<TRIPOS>SUBSTRUCTURE
  1 ****  11 GROUP 4 **** **** 0

# MOE 2024.06 (io_trps.svl 2023.06)
