@<TRIPOS>MOLECULE
NONAME
49 52 1 0 0 
SMALL
USER_CHARGES


@<TRIPOS>ATOM
  1 O       -3.0110     1.1520    -2.1330 O.2   1 <1>  -0.5700 
  2 C       -2.4620     1.1970    -1.0470 C.2   1 <1>   0.6160 
  3 N       -2.2060     0.0070    -0.4320 N.am  1 <1>  -0.7300 
  4 C       -2.1090     2.4710    -0.4640 C.2   1 <1>   0.0290 
  5 C       -2.5380    -1.3400    -0.9490 C.3   1 <1>   0.2200 
  6 C       -1.5650     2.5480     0.8640 C.2   1 <1>   0.6160 
  7 C       -2.2800     3.6520    -1.1500 C.2   1 <1>  -0.1500 
  8 C       -3.7030    -1.9060    -0.1550 C.3   1 <1>  -0.0800 
  9 C       -1.4080    -2.3200    -0.6260 C.3   1 <1>   0.1200 
 10 O       -1.3690     1.5920     1.6030 O.2   1 <1>  -0.5700 
 11 N       -1.2350     3.7750     1.3710 N.am  1 <1>  -0.5390 
 12 C       -1.9330     4.8980    -0.5820 C.2   1 <1>  -0.1380 
 13 C       -2.9800    -2.5170     1.0440 C.3   1 <1>   0.1200 
 14 C       -4.4750    -2.9610    -0.9700 C.3   1 <1>  -0.0170 
 15 O       -1.7540    -2.9750     0.5620 O.3   1 <1>  -0.5600 
 16 C       -1.4050     4.9400     0.6750 C.2   1 <1>  -0.0290 
 17 C       -2.1560     6.1570    -1.4110 C.3   1 <1>  -0.0220 
 18 C       -5.6400    -3.5400    -0.1810 C.ar  1 <1>  -0.1430 
 19 C       -0.9960     6.2310     1.3700 C.3   1 <1>  -0.0220 
 20 C       -2.1160     7.4290    -0.5530 C.3   1 <1>  -0.1600 
 21 C       -6.8160    -2.8410    -0.0020 C.ar  1 <1>  -0.1500 
 22 C       -5.5830    -4.7940     0.3940 C.ar  1 <1>  -0.1500 
 23 C       -0.9080     7.4110     0.3920 C.3   1 <1>  -0.1600 
 24 C       -7.8480    -3.4110     0.7250 C.ar  1 <1>   0.1600 
 25 C       -6.6730    -5.2720     1.1030 C.ar  1 <1>   0.1600 
 26 N       -7.8050    -4.6100     1.2830 N.ar  1 <1>  -0.6200 
 27 H       -1.7910     0.0390     0.5110 H     1 <1>   0.3700 
 28 H       -2.7330    -1.2940    -2.0070 H     1 <1>   0.0800 
 29 H       -2.6870     3.6450    -2.1480 H     1 <1>   0.1500 
 30 H       -4.3840    -1.1320     0.1530 H     1 <1>   0.0800 
 31 H       -0.4610    -1.8260    -0.4990 H     1 <1>   0.0800 
 32 H       -1.3270    -3.0700    -1.3930 H     1 <1>   0.0800 
 33 H       -0.8520     3.7560     2.3160 H     1 <1>   0.3700 
 34 H       -3.5120    -3.3330     1.4990 H     1 <1>   0.0800 
 35 H       -2.7760    -1.7640     1.7870 H     1 <1>   0.0800 
 36 H       -3.8140    -3.7560    -1.2700 H     1 <1>   0.0800 
 37 H       -4.8600    -2.5060    -1.8670 H     1 <1>   0.0800 
 38 H       -1.3890     6.2090    -2.1640 H     1 <1>   0.0800 
 39 H       -3.1080     6.1020    -1.9100 H     1 <1>   0.0800 
 40 H       -1.7230     6.4520     2.1310 H     1 <1>   0.0800 
 41 H       -0.0410     6.1020     1.8480 H     1 <1>   0.0800 
 42 H       -2.0690     8.2930    -1.1940 H     1 <1>   0.0800 
 43 H       -3.0200     7.4950     0.0270 H     1 <1>   0.0800 
 44 H       -6.9390    -1.8580    -0.4210 H     1 <1>   0.1500 
 45 H       -4.7020    -5.4020     0.3000 H     1 <1>   0.1500 
 46 H       -0.8580     8.3340     0.9440 H     1 <1>   0.0800 
 47 H       -0.0070     7.3230    -0.1900 H     1 <1>   0.0800 
 48 H       -8.7580    -2.8500     0.8540 H     1 <1>   0.1500 
 49 H       -6.6100    -6.2510     1.5450 H     1 <1>   0.1500 
@<TRIPOS>BOND
  1   1   2  2   
  2   2   3  am  
  3   2   4  1   
  4   3   5  1   
  5   3  27  1   
  6   4   6  1   
  7   4   7  2   
  8   5   8  1   
  9   5   9  1   
 10   5  28  1   
 11   6  10  2   
 12   6  11  am  
 13   7  12  1   
 14   7  29  1   
 15   8  13  1   
 16   8  14  1   
 17   8  30  1   
 18   9  15  1   
 19   9  31  1   
 20   9  32  1   
 21  11  16  1   
 22  11  33  1   
 23  12  16  2   
 24  12  17  1   
 25  13  15  1   
 26  13  34  1   
 27  13  35  1   
 28  14  18  1   
 29  14  36  1   
 30  14  37  1   
 31  16  19  1   
 32  17  20  1   
 33  17  38  1   
 34  17  39  1   
 35  18  21  ar  
 36  18  22  ar  
 37  19  23  1   
 38  19  40  1   
 39  19  41  1   
 40  20  23  1   
 41  20  42  1   
 42  20  43  1   
 43  21  24  ar  
 44  21  44  1   
 45  22  25  ar  
 46  22  45  1   
 47  23  46  1   
 48  23  47  1   
 49  24  26  ar  
 50  24  48  1   
 51  25  26  ar  
 52  25  49  1   
@<TRIPOS>SUBSTRUCTURE
  1 ****   3 GROUP 4 **** **** 0

# MOE 2024.06 (io_trps.svl 2023.06)
