@<TRIPOS>MOLECULE
NONAME
53 54 1 0 0 
SMALL
USER_CHARGES


@<TRIPOS>ATOM
  1 O        2.7140     2.3290     1.6190 O.co2 1 <1>  -0.9000 
  2 C        2.3420     1.1630     1.4130 C.2   1 <1>   0.9060 
  3 O        2.2930     0.3390     2.3240 O.co2 1 <1>  -0.9000 
  4 C        2.2480     0.6540    -0.0390 C.3   1 <1>  -0.1060 
  5 C        3.4060    -0.3650    -0.1400 C.3   1 <1>   0.2000 
  6 C        2.5200     1.7950    -1.0760 C.3   1 <1>  -0.1600 
  7 C        0.8730    -0.0190    -0.3050 C.3   1 <1>  -0.1600 
  8 O        3.4970    -0.8490    -1.4470 O.3   1 <1>  -0.6800 
  9 C        4.7550     0.3030     0.2390 C.3   1 <1>   0.3430 
 10 C        4.0120     2.1250    -1.2700 C.3   1 <1>   0.3430 
 11 C       -0.3230     0.9320    -0.1280 C.3   1 <1>  -0.1600 
 12 N        4.7660     1.7880    -0.0350 N.4   1 <1>  -0.9590 
 13 C       -1.6440     0.2010    -0.3780 C.3   1 <1>  -0.2400 
 14 C        6.1080     2.4080     0.0910 C.3   1 <1>   0.3430 
 15 C        5.9960     3.8910     0.4470 C.3   1 <1>   0.1200 
 16 O        7.2910     4.4430     0.3890 O.3   1 <1>  -0.3630 
 17 C        7.5050     5.7700     0.5930 C.ar  1 <1>   0.0830 
 18 C        8.7810     6.2650     0.3400 C.ar  1 <1>  -0.1430 
 19 C        6.5080     6.6360     1.0380 C.ar  1 <1>  -0.1500 
 20 C        9.0420     7.6140     0.5250 C.ar  1 <1>  -0.1500 
 21 C        9.8940     5.3440    -0.1390 C.3   1 <1>  -0.0970 
 22 C        6.7830     7.9800     1.2180 C.ar  1 <1>  -0.1500 
 23 C        8.0490     8.4760     0.9610 C.ar  1 <1>  -0.1430 
 24 C        8.3530     9.9500     1.1590 C.3   1 <1>  -0.0970 
 25 H        3.2340    -1.2100     0.5080 H     1 <1>   0.0800 
 26 H        2.0010     2.6890    -0.7750 H     1 <1>   0.0800 
 27 H        2.1250     1.5190    -2.0370 H     1 <1>   0.0800 
 28 H        0.8460    -0.4240    -1.3000 H     1 <1>   0.0800 
 29 H        0.7560    -0.8390     0.3850 H     1 <1>   0.0800 
 30 H        2.6680    -1.3170    -1.6730 H     1 <1>   0.4000 
 31 H        5.5490    -0.1900    -0.2950 H     1 <1>   0.0800 
 32 H        4.9100     0.1560     1.2960 H     1 <1>   0.0800 
 33 H        4.1190     3.1700    -1.5100 H     1 <1>   0.0800 
 34 H        4.4010     1.5410    -2.0890 H     1 <1>   0.0800 
 35 H       -0.3280     1.3270     0.8750 H     1 <1>   0.0800 
 36 H       -0.2480     1.7600    -0.8100 H     1 <1>   0.0800 
 37 H        4.1590     2.1830     0.7330 H     1 <1>   0.4500 
 38 H       -1.7570    -0.6140     0.3160 H     1 <1>   0.0800 
 39 H       -1.6790    -0.1870    -1.3800 H     1 <1>   0.0800 
 40 H       -2.4690     0.8790    -0.2430 H     1 <1>   0.0800 
 41 H        6.6570     1.9160     0.8750 H     1 <1>   0.0800 
 42 H        6.6460     2.2970    -0.8350 H     1 <1>   0.0800 
 43 H        5.6160     4.0100     1.4470 H     1 <1>   0.0800 
 44 H        5.3800     4.4170    -0.2600 H     1 <1>   0.0800 
 45 H        5.5160     6.2910     1.2540 H     1 <1>   0.1500 
 46 H       10.0260     8.0000     0.3310 H     1 <1>   0.1500 
 47 H       10.8180     5.8810    -0.2580 H     1 <1>   0.0800 
 48 H        9.6260     4.9100    -1.0840 H     1 <1>   0.0800 
 49 H       10.0470     4.5560     0.5760 H     1 <1>   0.0800 
 50 H        6.0060     8.6390     1.5630 H     1 <1>   0.1500 
 51 H        7.4570    10.5380     1.0710 H     1 <1>   0.0800 
 52 H        9.0550    10.2900     0.4190 H     1 <1>   0.0800 
 53 H        8.7750    10.1060     2.1360 H     1 <1>   0.0800 
@<TRIPOS>BOND
  1   1   2  ar  
  2   2   3  ar  
  3   2   4  1   
  4   4   5  1   
  5   4   6  1   
  6   4   7  1   
  7   5   8  1   
  8   5   9  1   
  9   5  25  1   
 10   6  10  1   
 11   6  26  1   
 12   6  27  1   
 13   7  11  1   
 14   7  28  1   
 15   7  29  1   
 16   8  30  1   
 17   9  12  1   
 18   9  31  1   
 19   9  32  1   
 20  10  12  1   
 21  10  33  1   
 22  10  34  1   
 23  11  13  1   
 24  11  35  1   
 25  11  36  1   
 26  12  14  1   
 27  12  37  1   
 28  13  38  1   
 29  13  39  1   
 30  13  40  1   
 31  14  15  1   
 32  14  41  1   
 33  14  42  1   
 34  15  16  1   
 35  15  43  1   
 36  15  44  1   
 37  16  17  1   
 38  17  18  ar  
 39  17  19  ar  
 40  18  20  ar  
 41  18  21  1   
 42  19  22  ar  
 43  19  45  1   
 44  20  23  ar  
 45  20  46  1   
 46  21  47  1   
 47  21  48  1   
 48  21  49  1   
 49  22  23  ar  
 50  22  50  1   
 51  23  24  1   
 52  24  51  1   
 53  24  52  1   
 54  24  53  1   
@<TRIPOS>SUBSTRUCTURE
  1 ****  15 GROUP 4 **** **** 0

# MOE 2024.06 (io_trps.svl 2023.06)
