@<TRIPOS>MOLECULE
NONAME
52 55 1 0 0 
SMALL
USER_CHARGES


@<TRIPOS>ATOM
  1 O       -2.9530    -2.4760     0.4820 O.2   1 <1>  -0.5740 
  2 C       -1.9230    -2.9830     0.1120 C.2   1 <1>   0.5650 
  3 N       -0.7350    -2.8010     0.7720 N.am  1 <1>  -0.6640 
  4 C       -2.0120    -3.9290    -1.0770 C.3   1 <1>  -0.1060 
  5 C        0.4980    -3.5710     0.4490 C.3   1 <1>   0.1330 
  6 C       -0.5750    -1.7670     1.8320 C.3   1 <1>   0.0520 
  7 C       -0.7150    -4.6950    -1.3980 C.3   1 <1>  -0.1670 
  8 C        0.1580    -4.9530    -0.1450 C.3   1 <1>  -0.0080 
  9 C       -0.5820    -5.7920     0.9260 C.3   1 <1>   0.1610 
 10 C        1.4600    -5.6860    -0.5620 C.3   1 <1>  -0.1670 
 11 N       -0.9940    -7.1280     0.3740 N.pl3 1 <1>  -0.5960 
 12 C        1.4850    -7.1720    -0.1580 C.3   1 <1>  -0.1670 
 13 C       -2.2810    -7.5580     0.4200 C.cat 1 <1>   1.0690 
 14 C        0.1220    -7.8610    -0.3100 C.3   1 <1>   0.1610 
 15 N       -3.2610    -6.8080     0.9290 N.pl3 1 <1>  -0.7040 
 16 N       -2.7880    -8.7350    -0.0060 N.pl3 1 <1>  -0.7670 
 17 C       -4.4450    -7.5050     0.8450 C.ar  1 <1>   0.3030 
 18 C       -4.1420    -8.7150     0.2560 C.ar  1 <1>   0.6150 
 19 C       -2.1870    -9.9530    -0.5950 C.3   1 <1>   0.3480 
 20 C       -5.7430    -7.2330     1.2150 C.ar  1 <1>  -0.1160 
 21 N       -4.9990    -9.6910    -0.0100 N.ar  1 <1>  -0.5830 
 22 C       -1.7490   -10.8900     0.5270 C.3   1 <1>  -0.2470 
 23 C       -6.6760    -8.2280     0.9620 C.ar  1 <1>  -0.1860 
 24 C       -6.2420    -9.4170     0.3520 C.ar  1 <1>   0.1530 
 25 C       -8.0680    -8.0680     1.3120 C.2   1 <1>   0.9770 
 26 O       -8.4390    -7.0340     1.8860 O.co2 1 <1>  -0.9020 
 27 O       -8.8860    -8.9590     1.0440 O.co2 1 <1>  -0.9020 
 28 H       -2.3130    -3.3610    -1.9380 H     1 <1>   0.0720 
 29 H       -2.7980    -4.6310    -0.8740 H     1 <1>   0.0720 
 30 H        1.0830    -3.6980     1.3450 H     1 <1>   0.0720 
 31 H        1.0840    -3.0010    -0.2520 H     1 <1>   0.0720 
 32 H       -1.4780    -1.1920     1.9440 H     1 <1>   0.0720 
 33 H        0.2240    -1.0970     1.5690 H     1 <1>   0.0720 
 34 H       -0.3480    -2.2390     2.7720 H     1 <1>   0.0720 
 35 H       -0.1470    -4.0940    -2.0880 H     1 <1>   0.0720 
 36 H       -0.9550    -5.6120    -1.9070 H     1 <1>   0.0720 
 37 H       -1.4250    -5.2470     1.3060 H     1 <1>   0.0720 
 38 H        0.0730    -5.9510     1.7660 H     1 <1>   0.0720 
 39 H        2.3170    -5.2130    -0.1130 H     1 <1>   0.0720 
 40 H        1.5990    -5.6130    -1.6280 H     1 <1>   0.0720 
 41 H        1.8050    -7.2620     0.8660 H     1 <1>   0.0720 
 42 H        2.2150    -7.6900    -0.7560 H     1 <1>   0.0720 
 43 H       -0.1040    -7.9330    -1.3600 H     1 <1>   0.0720 
 44 H        0.2070    -8.8530     0.0970 H     1 <1>   0.0720 
 45 H       -3.1750    -5.8630     1.2980 H     1 <1>   0.4450 
 46 H       -1.3590    -9.7090    -1.2320 H     1 <1>   0.0720 
 47 H       -2.9100   -10.4580    -1.2150 H     1 <1>   0.0720 
 48 H       -6.0310    -6.3030     1.6780 H     1 <1>   0.1430 
 49 H       -1.0420   -10.4140     1.1820 H     1 <1>   0.0720 
 50 H       -1.2880   -11.7650     0.1060 H     1 <1>   0.0720 
 51 H       -2.6040   -11.2070     1.0990 H     1 <1>   0.0720 
 52 H       -6.9900   -10.1750     0.1630 H     1 <1>   0.1430 
@<TRIPOS>BOND
  1   1   2  2   
  2   2   3  am  
  3   2   4  1   
  4   3   5  1   
  5   3   6  1   
  6   4   7  1   
  7   4  28  1   
  8   4  29  1   
  9   5   8  1   
 10   5  30  1   
 11   5  31  1   
 12   6  32  1   
 13   6  33  1   
 14   6  34  1   
 15   7   8  1   
 16   7  35  1   
 17   7  36  1   
 18   8   9  1   
 19   8  10  1   
 20   9  11  1   
 21   9  37  1   
 22   9  38  1   
 23  10  12  1   
 24  10  39  1   
 25  10  40  1   
 26  11  13  ar  
 27  11  14  1   
 28  12  14  1   
 29  12  41  1   
 30  12  42  1   
 31  13  15  ar  
 32  13  16  ar  
 33  14  43  1   
 34  14  44  1   
 35  15  17  1   
 36  15  45  1   
 37  16  18  1   
 38  16  19  1   
 39  17  18  ar  
 40  17  20  ar  
 41  18  21  ar  
 42  19  22  1   
 43  19  46  1   
 44  19  47  1   
 45  20  23  ar  
 46  20  48  1   
 47  21  24  ar  
 48  22  49  1   
 49  22  50  1   
 50  22  51  1   
 51  23  24  ar  
 52  23  25  1   
 53  24  52  1   
 54  25  26  ar  
 55  25  27  ar  
@<TRIPOS>SUBSTRUCTURE
  1 ****  15 GROUP 4 **** **** 0

# MOE 2024.06 (io_trps.svl 2023.06)
