@<TRIPOS>MOLECULE
NONAME
53 55 1 0 0 
SMALL
USER_CHARGES


@<TRIPOS>ATOM
  1 O        0.0150     1.0260     0.7820 O.2   1 <1>  -0.5700 
  2 C       -0.1720     2.1690     0.4350 C.2   1 <1>   0.5690 
  3 N       -1.2330     2.9100     0.8840 N.am  1 <1>  -0.6600 
  4 C        0.8120     2.7850    -0.5640 C.3   1 <1>   0.1810 
  5 C       -1.4390     4.3250     0.4260 C.3   1 <1>   0.3640 
  6 C       -2.1970     2.3860     1.8960 C.3   1 <1>   0.0600 
  7 O        0.7890     4.1930    -0.5650 O.3   1 <1>  -0.5600 
  8 C       -2.9220     4.6040     0.1330 C.ar  1 <1>  -0.1430 
  9 C       -0.5100     4.7360    -0.7430 C.3   1 <1>   0.2610 
 10 C       -3.6750     3.9660    -0.8590 C.ar  1 <1>  -0.1430 
 11 C       -3.5400     5.5650     0.9260 C.ar  1 <1>  -0.1500 
 12 C       -0.4280     6.2620    -0.8460 C.2   1 <1>   0.5690 
 13 C       -5.0080     4.3120    -1.0300 C.ar  1 <1>  -0.1500 
 14 C       -3.1290     2.8930    -1.7950 C.3   1 <1>  -0.0960 
 15 C       -4.8690     5.8980     0.7480 C.ar  1 <1>  -0.1500 
 16 O       -1.3140     6.8850    -1.3780 O.2   1 <1>  -0.5700 
 17 N        0.6660     6.9030    -0.3480 N.am  1 <1>  -0.7300 
 18 C       -5.6060     5.2700    -0.2340 C.ar  1 <1>  -0.1500 
 19 C        0.9240     8.3370    -0.5200 C.3   1 <1>   0.2200 
 20 C        2.4280     8.5870    -0.5910 C.3   1 <1>  -0.1600 
 21 C        0.2980     9.1050     0.6410 C.3   1 <1>  -0.1600 
 22 C        2.7090    10.0840    -0.6960 C.3   1 <1>   0.3430 
 23 C        0.6030    10.5940     0.5140 C.3   1 <1>   0.3430 
 24 N        2.0820    10.8050     0.4530 N.4   1 <1>  -0.9590 
 25 C        2.4040    12.2640     0.4000 C.3   1 <1>   0.2630 
 26 H        0.5810     2.4370    -1.5540 H     1 <1>   0.0800 
 27 H        1.8100     2.4740    -0.3140 H     1 <1>   0.0800 
 28 H       -1.1530     4.9440     1.2570 H     1 <1>   0.0800 
 29 H       -2.3040     3.0900     2.7020 H     1 <1>   0.0800 
 30 H       -1.8530     1.4500     2.3010 H     1 <1>   0.0800 
 31 H       -3.1580     2.2280     1.4370 H     1 <1>   0.0800 
 32 H       -0.8950     4.3690    -1.6740 H     1 <1>   0.0800 
 33 H       -2.9900     6.0730     1.6980 H     1 <1>   0.1500 
 34 H       -5.5970     3.8360    -1.7930 H     1 <1>   0.1500 
 35 H       -3.9280     2.2710    -2.1570 H     1 <1>   0.0800 
 36 H       -2.4290     2.2480    -1.3020 H     1 <1>   0.0800 
 37 H       -2.6570     3.3520    -2.6440 H     1 <1>   0.0800 
 38 H       -5.3290     6.6460     1.3700 H     1 <1>   0.1500 
 39 H        1.4310     6.3080    -0.0110 H     1 <1>   0.3700 
 40 H       -6.6400     5.5260    -0.3820 H     1 <1>   0.1500 
 41 H        0.4680     8.6620    -1.4440 H     1 <1>   0.0800 
 42 H        2.9200     8.1900     0.2800 H     1 <1>   0.0800 
 43 H        2.8300     8.0960    -1.4600 H     1 <1>   0.0800 
 44 H       -0.7690     8.9670     0.6180 H     1 <1>   0.0800 
 45 H        0.6660     8.7360     1.5820 H     1 <1>   0.0800 
 46 H        2.3070    10.4590    -1.6240 H     1 <1>   0.0800 
 47 H        3.7750    10.2500    -0.7000 H     1 <1>   0.0800 
 48 H        0.1880    11.1180     1.3600 H     1 <1>   0.0800 
 49 H        0.1410    10.9780    -0.3810 H     1 <1>   0.0800 
 50 H        2.4840    10.4180     1.3190 H     1 <1>   0.4500 
 51 H        1.9960    12.7070    -0.4950 H     1 <1>   0.0800 
 52 H        3.4720    12.4130     0.4020 H     1 <1>   0.0800 
 53 H        1.9860    12.7720     1.2550 H     1 <1>   0.0800 
@<TRIPOS>BOND
  1   1   2  2   
  2   2   3  am  
  3   2   4  1   
  4   3   5  1   
  5   3   6  1   
  6   4   7  1   
  7   4  26  1   
  8   4  27  1   
  9   5   8  1   
 10   5   9  1   
 11   5  28  1   
 12   6  29  1   
 13   6  30  1   
 14   6  31  1   
 15   7   9  1   
 16   8  10  ar  
 17   8  11  ar  
 18   9  12  1   
 19   9  32  1   
 20  10  13  ar  
 21  10  14  1   
 22  11  15  ar  
 23  11  33  1   
 24  12  16  2   
 25  12  17  am  
 26  13  18  ar  
 27  13  34  1   
 28  14  35  1   
 29  14  36  1   
 30  14  37  1   
 31  15  18  ar  
 32  15  38  1   
 33  17  19  1   
 34  17  39  1   
 35  18  40  1   
 36  19  20  1   
 37  19  21  1   
 38  19  41  1   
 39  20  22  1   
 40  20  42  1   
 41  20  43  1   
 42  21  23  1   
 43  21  44  1   
 44  21  45  1   
 45  22  24  1   
 46  22  46  1   
 47  22  47  1   
 48  23  24  1   
 49  23  48  1   
 50  23  49  1   
 51  24  25  1   
 52  24  50  1   
 53  25  51  1   
 54  25  52  1   
 55  25  53  1   
@<TRIPOS>SUBSTRUCTURE
  1 ****  12 GROUP 4 **** **** 0

# MOE 2024.06 (io_trps.svl 2023.06)
