@<TRIPOS>MOLECULE
NONAME
41 43 1 0 0 
SMALL
USER_CHARGES


@<TRIPOS>ATOM
  1 F       -0.5390    -0.5550    -0.7550 F     1 <1>  -0.1900 
  2 C       -1.1350    -1.7040    -0.5580 C.ar  1 <1>   0.1900 
  3 C       -2.2790    -1.9930    -1.2770 C.ar  1 <1>  -0.1500 
  4 C       -0.5970    -2.5850     0.3620 C.ar  1 <1>  -0.1500 
  5 C       -2.9010    -3.2100    -1.0630 C.ar  1 <1>  -0.1500 
  6 C       -1.2330    -3.7970     0.5650 C.ar  1 <1>  -0.1500 
  7 C       -2.3870    -4.1210    -0.1460 C.ar  1 <1>   0.1000 
  8 N       -3.0410    -5.3320     0.0470 N.pl3 1 <1>  -0.8380 
  9 C       -4.1470    -5.3530     1.0540 C.3   1 <1>   0.2090 
 10 C       -2.2610    -6.5870    -0.1150 C.3   1 <1>   0.2090 
 11 C       -5.4840    -5.7780     0.4240 C.3   1 <1>   0.2090 
 12 C       -3.1370    -7.8370    -0.2780 C.3   1 <1>  -0.1600 
 13 N       -5.5030    -7.2170     0.0100 N.pl3 1 <1>  -0.8380 
 14 C       -4.4700    -7.5960    -0.9910 C.3   1 <1>   0.2090 
 15 C       -6.7060    -7.9330     0.0290 C.ar  1 <1>   0.4100 
 16 N       -7.7980    -7.2000    -0.1630 N.ar  1 <1>  -0.6200 
 17 C       -6.7660    -9.3480     0.2300 C.ar  1 <1>   0.3930 
 18 C       -8.9090    -7.9190    -0.1560 C.ar  1 <1>   0.1600 
 19 O       -5.6050   -10.0320     0.4410 O.3   1 <1>  -0.3630 
 20 N       -7.8920   -10.0510     0.2300 N.ar  1 <1>  -0.6200 
 21 C       -8.9560    -9.2880     0.0310 C.ar  1 <1>   0.1600 
 22 C       -5.6100   -11.4250     0.6890 C.3   1 <1>   0.0400 
 23 H       -2.6680    -1.2830    -1.9840 H     1 <1>   0.1500 
 24 H        0.2940    -2.3220     0.9020 H     1 <1>   0.1500 
 25 H       -3.7910    -3.4730    -1.6050 H     1 <1>   0.1500 
 26 H       -0.8420    -4.4980     1.2780 H     1 <1>   0.1500 
 27 H       -4.2640    -4.3660     1.4660 H     1 <1>   0.0800 
 28 H       -3.9050    -6.0210     1.8620 H     1 <1>   0.0800 
 29 H       -1.6070    -6.7170     0.7300 H     1 <1>   0.0800 
 30 H       -1.6470    -6.4790    -0.9930 H     1 <1>   0.0800 
 31 H       -5.6910    -5.1550    -0.4280 H     1 <1>   0.0800 
 32 H       -6.2610    -5.6140     1.1490 H     1 <1>   0.0800 
 33 H       -3.3250    -8.2790     0.6840 H     1 <1>   0.0800 
 34 H       -2.5730    -8.5550    -0.8430 H     1 <1>   0.0800 
 35 H       -4.7730    -8.4990    -1.4930 H     1 <1>   0.0800 
 36 H       -4.3710    -6.8230    -1.7350 H     1 <1>   0.0800 
 37 H       -9.8300    -7.3860    -0.3090 H     1 <1>   0.1500 
 38 H       -9.9120    -9.7810     0.0180 H     1 <1>   0.1500 
 39 H       -4.5960   -11.7460     0.8350 H     1 <1>   0.0800 
 40 H       -6.0400   -11.9270    -0.1600 H     1 <1>   0.0800 
 41 H       -6.1910   -11.6180     1.5740 H     1 <1>   0.0800 
@<TRIPOS>BOND
  1   1   2  1   
  2   2   3  ar  
  3   2   4  ar  
  4   3   5  ar  
  5   3  23  1   
  6   4   6  ar  
  7   4  24  1   
  8   5   7  ar  
  9   5  25  1   
 10   6   7  ar  
 11   6  26  1   
 12   7   8  1   
 13   8   9  1   
 14   8  10  1   
 15   9  11  1   
 16   9  27  1   
 17   9  28  1   
 18  10  12  1   
 19  10  29  1   
 20  10  30  1   
 21  11  13  1   
 22  11  31  1   
 23  11  32  1   
 24  12  14  1   
 25  12  33  1   
 26  12  34  1   
 27  13  14  1   
 28  13  15  1   
 29  14  35  1   
 30  14  36  1   
 31  15  16  ar  
 32  15  17  ar  
 33  16  18  ar  
 34  17  19  1   
 35  17  20  ar  
 36  18  21  ar  
 37  18  37  1   
 38  19  22  1   
 39  20  21  ar  
 40  21  38  1   
 41  22  39  1   
 42  22  40  1   
 43  22  41  1   
@<TRIPOS>SUBSTRUCTURE
  1 ****  11 GROUP 4 **** **** 0

# MOE 2024.06 (io_trps.svl 2023.06)
