@<TRIPOS>MOLECULE
NONAME
56 58 1 0 0 
SMALL
USER_CHARGES


@<TRIPOS>ATOM
  1 O       -1.7290     0.6460     2.4960 O.2   1 <1>  -0.5700 
  2 C       -1.6480     1.2820     1.4720 C.2   1 <1>   0.5690 
  3 N       -1.7120     0.6770     0.2410 N.am  1 <1>  -0.6600 
  4 C       -1.4710     2.7910     1.6130 C.3   1 <1>   0.0440 
  5 C       -1.7660    -0.8210     0.1290 C.3   1 <1>   0.3640 
  6 C       -1.8700     1.4370    -1.0390 C.3   1 <1>   0.1400 
  7 C       -0.2070     3.3530     0.9590 C.ar  1 <1>  -0.1440 
  8 C       -0.3410    -1.4060     0.0440 C.ar  1 <1>  -0.1440 
  9 C       -2.7140    -1.2610    -1.0250 C.3   1 <1>   0.2000 
 10 C       -1.6900     0.5490    -2.2760 C.3   1 <1>   0.1200 
 11 C       -0.1960     4.6700     0.5300 C.ar  1 <1>  -0.1500 
 12 C        0.9260     2.5740     0.7730 C.ar  1 <1>  -0.1500 
 13 C        0.2110    -1.9340    -1.1200 C.ar  1 <1>  -0.1500 
 14 C        0.4270    -1.4390     1.2020 C.ar  1 <1>  -0.1500 
 15 O       -2.5190    -0.5840    -2.2540 O.3   1 <1>  -0.5600 
 16 C       -4.1920    -1.0810    -0.6470 C.3   1 <1>   0.1200 
 17 C        0.9200     5.2130    -0.0840 C.ar  1 <1>   0.0830 
 18 C        2.0500     3.0870     0.1310 C.ar  1 <1>   0.0830 
 19 C        1.4910    -2.4610    -1.1260 C.ar  1 <1>  -0.1500 
 20 C        1.7060    -1.9690     1.2010 C.ar  1 <1>  -0.1500 
 21 O       -4.5550    -1.9830     0.3490 O.3   1 <1>  -0.6800 
 22 O        0.8190     6.5200    -0.4490 O.3   1 <1>  -0.3630 
 23 C        2.0470     4.4140    -0.3030 C.ar  1 <1>   0.0830 
 24 O        3.1600     2.3280    -0.1050 O.3   1 <1>  -0.3630 
 25 C        2.2410    -2.4800     0.0340 C.ar  1 <1>  -0.1500 
 26 C        1.8930     7.3920    -0.1690 C.3   1 <1>   0.0400 
 27 O        3.1380     4.9140    -0.9460 O.3   1 <1>  -0.3630 
 28 C        3.1490     0.9300     0.0940 C.3   1 <1>   0.0400 
 29 C        3.2330     4.5900    -2.3130 C.3   1 <1>   0.0400 
 30 H       -2.3390     3.2660     1.2000 H     1 <1>   0.0800 
 31 H       -1.4420     3.0320     2.6600 H     1 <1>   0.0800 
 32 H       -2.1920    -1.2150     1.0360 H     1 <1>   0.0800 
 33 H       -2.8490     1.8820    -1.0680 H     1 <1>   0.0800 
 34 H       -1.1440     2.2260    -1.0950 H     1 <1>   0.0800 
 35 H       -2.5550    -2.3050    -1.2270 H     1 <1>   0.0800 
 36 H       -0.6660     0.2300    -2.3500 H     1 <1>   0.0800 
 37 H       -1.9270     1.1050    -3.1650 H     1 <1>   0.0800 
 38 H       -1.0570     5.3000     0.6700 H     1 <1>   0.1500 
 39 H        0.9230     1.5600     1.1270 H     1 <1>   0.1500 
 40 H       -0.3430    -1.9530    -2.0410 H     1 <1>   0.1500 
 41 H        0.0290    -1.0550     2.1250 H     1 <1>   0.1500 
 42 H       -4.8240    -1.2570    -1.5000 H     1 <1>   0.0800 
 43 H       -4.3640    -0.0890    -0.2690 H     1 <1>   0.0800 
 44 H        1.9020    -2.8630    -2.0370 H     1 <1>   0.1500 
 45 H        2.2790    -1.9860     2.1120 H     1 <1>   0.1500 
 46 H       -4.6450    -2.8880    -0.0110 H     1 <1>   0.4000 
 47 H        3.2350    -2.8940     0.0310 H     1 <1>   0.1500 
 48 H        1.5070     8.3940    -0.1150 H     1 <1>   0.0800 
 49 H        2.6140     7.3250    -0.9630 H     1 <1>   0.0800 
 50 H        2.3380     7.1160     0.7710 H     1 <1>   0.0800 
 51 H        4.0840     0.5340    -0.2580 H     1 <1>   0.0800 
 52 H        2.3360     0.5010    -0.4660 H     1 <1>   0.0800 
 53 H        3.0390     0.7270     1.1440 H     1 <1>   0.0800 
 54 H        4.1160     5.0580    -2.7090 H     1 <1>   0.0800 
 55 H        2.3580     4.9600    -2.8170 H     1 <1>   0.0800 
 56 H        3.3050     3.5220    -2.4160 H     1 <1>   0.0800 
@<TRIPOS>BOND
  1   1   2  2   
  2   2   3  am  
  3   2   4  1   
  4   3   5  1   
  5   3   6  1   
  6   4   7  1   
  7   4  30  1   
  8   4  31  1   
  9   5   8  1   
 10   5   9  1   
 11   5  32  1   
 12   6  10  1   
 13   6  33  1   
 14   6  34  1   
 15   7  11  ar  
 16   7  12  ar  
 17   8  13  ar  
 18   8  14  ar  
 19   9  15  1   
 20   9  16  1   
 21   9  35  1   
 22  10  15  1   
 23  10  36  1   
 24  10  37  1   
 25  11  17  ar  
 26  11  38  1   
 27  12  18  ar  
 28  12  39  1   
 29  13  19  ar  
 30  13  40  1   
 31  14  20  ar  
 32  14  41  1   
 33  16  21  1   
 34  16  42  1   
 35  16  43  1   
 36  17  22  1   
 37  17  23  ar  
 38  18  23  ar  
 39  18  24  1   
 40  19  25  ar  
 41  19  44  1   
 42  20  25  ar  
 43  20  45  1   
 44  21  46  1   
 45  22  26  1   
 46  23  27  1   
 47  24  28  1   
 48  25  47  1   
 49  26  48  1   
 50  26  49  1   
 51  26  50  1   
 52  27  29  1   
 53  28  51  1   
 54  28  52  1   
 55  28  53  1   
 56  29  54  1   
 57  29  55  1   
 58  29  56  1   
@<TRIPOS>SUBSTRUCTURE
  1 ****  12 GROUP 4 **** **** 0

# MOE 2024.06 (io_trps.svl 2023.06)
