@<TRIPOS>MOLECULE
NONAME
54 56 1 0 0 
SMALL
USER_CHARGES


@<TRIPOS>ATOM
  1 O       -0.6530    -0.3350    -0.3570 O.2   1 <1>  -0.5700 
  2 C       -1.7130     0.2520    -0.2460 C.2   1 <1>   0.5440 
  3 N       -1.6950     1.6210    -0.0730 N.am  1 <1>  -0.6600 
  4 C       -2.9430    -0.5030    -0.2880 C.ar  1 <1>   0.0860 
  5 C       -2.7510     2.3780     0.6670 C.3   1 <1>   0.1400 
  6 C       -0.4680     2.4350    -0.3320 C.3   1 <1>   0.1400 
  7 C       -3.0420    -1.7280     0.3690 C.ar  1 <1>   0.1600 
  8 C       -4.0730    -0.0710    -0.9790 C.ar  1 <1>  -0.1500 
  9 C       -2.1510     3.0970     1.8880 C.3   1 <1>   0.1200 
 10 C       -0.0010     3.1370     0.9530 C.3   1 <1>   0.1200 
 11 N       -4.1130    -2.5020     0.4180 N.ar  1 <1>  -0.6200 
 12 C       -5.1930    -0.8660    -0.9470 C.ar  1 <1>  -0.1500 
 13 O       -1.0490     3.8760     1.5170 O.3   1 <1>  -0.5600 
 14 C       -5.1720    -2.0680    -0.2440 C.ar  1 <1>   0.4100 
 15 N       -6.2470    -2.8940    -0.1810 N.pl3 1 <1>  -0.8690 
 16 C       -7.0390    -3.3120    -1.3440 C.3   1 <1>   0.4330 
 17 C       -8.1720    -4.2340    -0.8880 C.ar  1 <1>  -0.1430 
 18 C       -6.1380    -4.0010    -2.3670 C.3   1 <1>  -0.2400 
 19 C       -7.9560    -5.3580    -0.0880 C.ar  1 <1>   0.0830 
 20 C       -9.4680    -3.9350    -1.2870 C.ar  1 <1>  -0.1500 
 21 O       -6.6900    -5.6470     0.3060 O.3   1 <1>  -0.3620 
 22 C       -9.0290    -6.1600     0.2900 C.ar  1 <1>  -0.1500 
 23 C      -10.5320    -4.7330    -0.9040 C.ar  1 <1>  -0.1500 
 24 C       -6.4410    -6.3000     1.5290 C.3   1 <1>   0.1200 
 25 C      -10.3120    -5.8470    -0.1160 C.ar  1 <1>  -0.1500 
 26 C       -4.9650    -6.1000     1.8750 C.3   1 <1>  -0.1600 
 27 C       -4.6030    -6.7850     3.1970 C.3   1 <1>  -0.2400 
 28 H       -3.5290     1.7160     1.0040 H     1 <1>   0.0800 
 29 H       -3.1910     3.1070     0.0100 H     1 <1>   0.0800 
 30 H       -0.6880     3.1770    -1.0790 H     1 <1>   0.0800 
 31 H        0.3290     1.8170    -0.7100 H     1 <1>   0.0800 
 32 H       -2.1680    -2.0800     0.8910 H     1 <1>   0.1500 
 33 H       -4.0580     0.8570    -1.5220 H     1 <1>   0.1500 
 34 H       -1.8330     2.3840     2.6290 H     1 <1>   0.0800 
 35 H       -2.8800     3.7520     2.3300 H     1 <1>   0.0800 
 36 H        0.8020     3.8180     0.7340 H     1 <1>   0.0800 
 37 H        0.3430     2.4140     1.6730 H     1 <1>   0.0800 
 38 H       -6.0910    -0.5720    -1.4530 H     1 <1>   0.1500 
 39 H       -6.0590    -3.7250     0.3910 H     1 <1>   0.4000 
 40 H       -7.4660    -2.4340    -1.7970 H     1 <1>   0.0800 
 41 H       -5.6330    -4.8390    -1.9220 H     1 <1>   0.0800 
 42 H       -5.4080    -3.3120    -2.7480 H     1 <1>   0.0800 
 43 H       -6.7330    -4.3570    -3.1880 H     1 <1>   0.0800 
 44 H       -9.6630    -3.0720    -1.9000 H     1 <1>   0.1500 
 45 H       -8.8770    -7.0350     0.8930 H     1 <1>   0.1500 
 46 H      -11.5310    -4.4860    -1.2200 H     1 <1>   0.1500 
 47 H       -6.6700    -7.3450     1.4100 H     1 <1>   0.0800 
 48 H       -7.0710    -5.8630     2.2850 H     1 <1>   0.0800 
 49 H      -11.1390    -6.4690     0.1790 H     1 <1>   0.1500 
 50 H       -4.7600    -5.0460     1.9540 H     1 <1>   0.0800 
 51 H       -4.3580    -6.5060     1.0850 H     1 <1>   0.0800 
 52 H       -5.1870    -6.3790     4.0040 H     1 <1>   0.0800 
 53 H       -3.5620    -6.6260     3.4170 H     1 <1>   0.0800 
 54 H       -4.7810    -7.8440     3.1350 H     1 <1>   0.0800 
@<TRIPOS>BOND
  1   1   2  2   
  2   2   3  am  
  3   2   4  1   
  4   3   5  1   
  5   3   6  1   
  6   4   7  ar  
  7   4   8  ar  
  8   5   9  1   
  9   5  28  1   
 10   5  29  1   
 11   6  10  1   
 12   6  30  1   
 13   6  31  1   
 14   7  11  ar  
 15   7  32  1   
 16   8  12  ar  
 17   8  33  1   
 18   9  13  1   
 19   9  34  1   
 20   9  35  1   
 21  10  13  1   
 22  10  36  1   
 23  10  37  1   
 24  11  14  ar  
 25  12  14  ar  
 26  12  38  1   
 27  14  15  1   
 28  15  16  1   
 29  15  39  1   
 30  16  17  1   
 31  16  18  1   
 32  16  40  1   
 33  17  19  ar  
 34  17  20  ar  
 35  18  41  1   
 36  18  42  1   
 37  18  43  1   
 38  19  21  1   
 39  19  22  ar  
 40  20  23  ar  
 41  20  44  1   
 42  21  24  1   
 43  22  25  ar  
 44  22  45  1   
 45  23  25  ar  
 46  23  46  1   
 47  24  26  1   
 48  24  47  1   
 49  24  48  1   
 50  25  49  1   
 51  26  27  1   
 52  26  50  1   
 53  26  51  1   
 54  27  52  1   
 55  27  53  1   
 56  27  54  1   
@<TRIPOS>SUBSTRUCTURE
  1 ****  14 GROUP 4 **** **** 0

# MOE 2024.06 (io_trps.svl 2023.06)
