@<TRIPOS>MOLECULE
NONAME
53 57 1 0 0 
SMALL
USER_CHARGES


@<TRIPOS>ATOM
  1 CL       0.1790    -1.7220     2.8090 Cl    1 <1>  -0.1770 
  2 C       -0.0890    -2.7120     1.3840 C.ar  1 <1>   0.1770 
  3 C        0.9590    -3.3930     0.7670 C.ar  1 <1>   0.0830 
  4 C       -1.3660    -2.8240     0.8660 C.ar  1 <1>   0.0830 
  5 O        2.2280    -3.3300     1.2170 O.3   1 <1>  -0.3630 
  6 C        0.7010    -4.1900    -0.3420 C.ar  1 <1>  -0.1500 
  7 O       -2.4700    -2.2170     1.3460 O.3   1 <1>  -0.3630 
  8 C       -1.6340    -3.6030    -0.2430 C.ar  1 <1>   0.0860 
  9 C        2.9460    -2.1360     0.9940 C.3   1 <1>   0.0400 
 10 C       -0.5890    -4.2990    -0.8580 C.ar  1 <1>   0.0830 
 11 C       -3.6150    -2.6190     0.5760 C.3   1 <1>   0.4020 
 12 C       -3.0220    -3.4980    -0.5170 C.2   1 <1>   0.4230 
 13 O       -0.8860    -5.0530    -1.9390 O.3   1 <1>  -0.3630 
 14 C       -4.5510    -3.4820     1.4230 C.2   1 <1>   0.4950 
 15 C       -4.3100    -1.3270     0.0690 C.3   1 <1>  -0.0800 
 16 O       -3.6620    -3.9620    -1.4320 O.2   1 <1>  -0.5700 
 17 C        0.0700    -5.8640    -2.5860 C.3   1 <1>   0.0400 
 18 O       -4.0890    -4.2840     2.2090 O.2   1 <1>  -0.5700 
 19 C       -5.9470    -3.3250     1.2490 C.2   1 <1>  -0.1360 
 20 C       -5.6900    -1.6270    -0.5460 C.3   1 <1>  -0.0220 
 21 C       -3.4530    -0.5020    -0.9120 C.3   1 <1>  -0.2400 
 22 C       -6.5590    -2.4920     0.3670 C.2   1 <1>  -0.0380 
 23 N       -7.9270    -2.3760     0.2190 N.pl3 1 <1>  -0.8380 
 24 C       -8.5890    -1.9170    -1.0710 C.3   1 <1>   0.3900 
 25 C       -8.9120    -2.8340     1.2600 C.3   1 <1>   0.2090 
 26 C       -9.7930    -2.7920    -1.4130 C.2   1 <1>   0.0460 
 27 C       -9.7250    -4.0500     0.7740 C.3   1 <1>   0.0200 
 28 N      -10.4940    -2.7250    -2.5630 N.2   1 <1>  -0.5650 
 29 C      -10.2890    -3.7440    -0.6000 C.2   1 <1>  -0.3320 
 30 C      -11.3880    -3.6510    -2.4250 C.2   1 <1>   0.0360 
 31 N      -11.3170    -4.3150    -1.2490 N.pl3 1 <1>   0.0330 
 32 H        1.5280    -4.7130    -0.7820 H     1 <1>   0.1500 
 33 H        3.9530    -2.2820     1.3420 H     1 <1>   0.0800 
 34 H        2.4860    -1.3330     1.5400 H     1 <1>   0.0800 
 35 H        2.9480    -1.9220    -0.0600 H     1 <1>   0.0800 
 36 H       -4.4920    -0.7170     0.9380 H     1 <1>   0.0800 
 37 H       -0.4230    -6.3840    -3.3870 H     1 <1>   0.0800 
 38 H        0.4640    -6.5720    -1.8790 H     1 <1>   0.0800 
 39 H        0.8500    -5.2380    -2.9820 H     1 <1>   0.0800 
 40 H       -6.5250    -3.9640     1.8850 H     1 <1>   0.1500 
 41 H       -5.5780    -2.1260    -1.4940 H     1 <1>   0.0800 
 42 H       -6.1840    -0.6870    -0.7210 H     1 <1>   0.0800 
 43 H       -3.2720    -1.0490    -1.8220 H     1 <1>   0.0800 
 44 H       -2.5070    -0.2460    -0.4680 H     1 <1>   0.0800 
 45 H       -3.9580     0.4140    -1.1660 H     1 <1>   0.0800 
 46 H       -8.9130    -0.8980    -0.9680 H     1 <1>   0.0800 
 47 H       -7.8970    -1.9790    -1.8900 H     1 <1>   0.0800 
 48 H       -8.4180    -3.0640     2.1860 H     1 <1>   0.0800 
 49 H       -9.5920    -2.0230     1.4570 H     1 <1>   0.0800 
 50 H      -10.5190    -4.2460     1.4710 H     1 <1>   0.0800 
 51 H       -9.0860    -4.9130     0.7240 H     1 <1>   0.0800 
 52 H      -12.1290    -3.8880    -3.1690 H     1 <1>   0.1500 
 53 H      -11.9150    -5.0830    -0.9330 H     1 <1>   0.2700 
@<TRIPOS>BOND
  1   1   2  1   
  2   2   3  ar  
  3   2   4  ar  
  4   3   5  1   
  5   3   6  ar  
  6   4   7  1   
  7   4   8  ar  
  8   5   9  1   
  9   6  10  ar  
 10   6  32  1   
 11   7  11  1   
 12   8  10  ar  
 13   8  12  1   
 14   9  33  1   
 15   9  34  1   
 16   9  35  1   
 17  10  13  1   
 18  11  12  1   
 19  11  14  1   
 20  11  15  1   
 21  12  16  2   
 22  13  17  1   
 23  14  18  2   
 24  14  19  1   
 25  15  20  1   
 26  15  21  1   
 27  15  36  1   
 28  17  37  1   
 29  17  38  1   
 30  17  39  1   
 31  19  22  2   
 32  19  40  1   
 33  20  22  1   
 34  20  41  1   
 35  20  42  1   
 36  21  43  1   
 37  21  44  1   
 38  21  45  1   
 39  22  23  1   
 40  23  24  1   
 41  23  25  1   
 42  24  26  1   
 43  24  46  1   
 44  24  47  1   
 45  25  27  1   
 46  25  48  1   
 47  25  49  1   
 48  26  28  1   
 49  26  29  2   
 50  27  29  1   
 51  27  50  1   
 52  27  51  1   
 53  28  30  2   
 54  29  31  1   
 55  30  31  1   
 56  30  52  1   
 57  31  53  1   
@<TRIPOS>SUBSTRUCTURE
  1 ****  11 GROUP 4 **** **** 0

# MOE 2024.06 (io_trps.svl 2023.06)
