@<TRIPOS>MOLECULE
F1900-3977
21 21 1 0 0 
SMALL
USER_CHARGES


@<TRIPOS>ATOM
  1 F        0.0160     1.3430    -0.1680 F     1 <1>  -0.3400 
  2 C       -1.2960     1.3480     0.0550 C.3   1 <1>   1.2010 
  3 F       -1.4630     0.9490     1.3130 F     1 <1>  -0.3400 
  4 F       -1.7960     0.3740    -0.7020 F     1 <1>  -0.3400 
  5 C       -1.9600     2.7200    -0.2440 C.2   1 <1>   0.0460 
  6 N       -1.6230     3.8710     0.4000 N.2   1 <1>  -0.5650 
  7 C       -2.9380     2.9800    -1.1510 C.2   1 <1>  -0.3020 
  8 C       -2.3850     4.7770    -0.1220 C.2   1 <1>   0.0060 
  9 N       -3.2100     4.2940    -1.0740 N.pl3 1 <1>   0.0330 
 10 C       -2.3630     6.2430     0.2910 C.3   1 <1>   0.1000 
 11 C       -3.7170     6.6730     0.8660 C.3   1 <1>  -0.2400 
 12 C       -1.9660     7.1390    -0.8880 C.3   1 <1>  -0.2400 
 13 H       -3.4400     2.3130    -1.8300 H     1 <1>   0.1500 
 14 H       -3.8950     4.8300    -1.6140 H     1 <1>   0.2700 
 15 H       -1.6190     6.3540     1.0630 H     1 <1>   0.0800 
 16 H       -4.4900     6.6100     0.1220 H     1 <1>   0.0800 
 17 H       -3.6630     7.6850     1.2250 H     1 <1>   0.0800 
 18 H       -3.9790     6.0340     1.6910 H     1 <1>   0.0800 
 19 H       -2.6950     7.0880    -1.6750 H     1 <1>   0.0800 
 20 H       -1.0140     6.8220    -1.2780 H     1 <1>   0.0800 
 21 H       -1.8770     8.1610    -0.5640 H     1 <1>   0.0800 
@<TRIPOS>BOND
  1   1   2  1   
  2   2   3  1   
  3   2   4  1   
  4   2   5  1   
  5   5   6  1   
  6   5   7  2   
  7   6   8  2   
  8   7   9  1   
  9   7  13  1   
 10   8   9  1   
 11   8  10  1   
 12   9  14  1   
 13  10  11  1   
 14  10  12  1   
 15  10  15  1   
 16  11  16  1   
 17  11  17  1   
 18  11  18  1   
 19  12  19  1   
 20  12  20  1   
 21  12  21  1   
@<TRIPOS>SUBSTRUCTURE
  1 ****   6 GROUP 4 **** **** 0

# MOE 2024.06 (io_trps.svl 2023.06)
