@<TRIPOS>MOLECULE
NONAME
42 45 1 0 0 
SMALL
USER_CHARGES


@<TRIPOS>ATOM
  1 O       -0.0470    -0.8610    -0.7460 O.2   1 <1>  -0.5700 
  2 C        1.0070    -0.2520    -0.6700 C.2   1 <1>   0.5440 
  3 N        0.9760     1.1220    -0.7530 N.am  1 <1>  -0.6600 
  4 C        2.2450    -0.9700    -0.4960 C.ar  1 <1>   0.0860 
  5 C       -0.2870     1.8710    -0.9400 C.3   1 <1>   0.1400 
  6 C        2.0540     2.0170    -0.2750 C.3   1 <1>   0.1400 
  7 C        2.3950    -1.9120     0.5400 C.ar  1 <1>   0.4100 
  8 C        3.3250    -0.7610    -1.3430 C.ar  1 <1>  -0.1500 
  9 C        0.0950     3.3370    -0.7680 C.3   1 <1>  -0.1600 
 10 C        1.3420     3.3090     0.1110 C.3   1 <1>  -0.1600 
 11 N        3.5130    -2.6010     0.7570 N.ar  1 <1>  -0.6200 
 12 N        1.3540    -2.1730     1.3990 N.pl3 1 <1>  -0.8690 
 13 C        4.4790    -1.4730    -1.1160 C.ar  1 <1>  -0.1500 
 14 C        4.5190    -2.3690    -0.0620 C.ar  1 <1>   0.1600 
 15 C        1.2740    -3.3010     2.3600 C.3   1 <1>   0.3890 
 16 C        0.1470    -4.2370     1.9730 C.2   1 <1>   0.0070 
 17 N       -0.8760    -4.5000     2.7210 N.2   1 <1>  -0.3380 
 18 N        0.1050    -4.8940     0.8090 N.pl3 1 <1>   0.3340 
 19 N       -1.6440    -5.3540     2.0580 N.2   1 <1>  -0.3380 
 20 C       -1.0550    -5.5860     0.9130 C.2   1 <1>   0.1410 
 21 C        0.9130    -5.0090    -0.3210 C.2   1 <1>  -0.1810 
 22 C       -1.4620    -6.4240    -0.1580 C.2   1 <1>  -0.1050 
 23 C        0.5370    -5.8120    -1.3510 C.2   1 <1>  -0.1500 
 24 C       -0.6830    -6.5360    -1.2700 C.2   1 <1>  -0.1500 
 25 H       -0.9900     1.5700    -0.1820 H     1 <1>   0.0800 
 26 H       -0.7040     1.6760    -1.9140 H     1 <1>   0.0800 
 27 H        2.7440     2.2010    -1.0810 H     1 <1>   0.0800 
 28 H        2.5750     1.5910     0.5650 H     1 <1>   0.0800 
 29 H        3.2500    -0.0610    -2.1580 H     1 <1>   0.1500 
 30 H       -0.7050     3.9080    -0.3300 H     1 <1>   0.0800 
 31 H        0.3340     3.7510    -1.7320 H     1 <1>   0.0800 
 32 H        1.9680     4.1710    -0.0350 H     1 <1>   0.0800 
 33 H        1.0570     3.2530     1.1470 H     1 <1>   0.0800 
 34 H        0.4310    -1.8280     1.0930 H     1 <1>   0.4000 
 35 H        5.3420    -1.3420    -1.7460 H     1 <1>   0.1500 
 36 H        5.4280    -2.9210     0.1110 H     1 <1>   0.1500 
 37 H        1.0830    -2.9050     3.3420 H     1 <1>   0.0800 
 38 H        2.1980    -3.8510     2.4000 H     1 <1>   0.0800 
 39 H        1.8230    -4.4370    -0.3220 H     1 <1>   0.1500 
 40 H       -2.3930    -6.9510    -0.0490 H     1 <1>   0.1500 
 41 H        1.1390    -5.9170    -2.2380 H     1 <1>   0.1500 
 42 H       -0.9660    -7.1630    -2.0990 H     1 <1>   0.1500 
@<TRIPOS>BOND
  1   1   2  2   
  2   2   3  am  
  3   2   4  1   
  4   3   5  1   
  5   3   6  1   
  6   4   7  ar  
  7   4   8  ar  
  8   5   9  1   
  9   5  25  1   
 10   5  26  1   
 11   6  10  1   
 12   6  27  1   
 13   6  28  1   
 14   7  11  ar  
 15   7  12  1   
 16   8  13  ar  
 17   8  29  1   
 18   9  10  1   
 19   9  30  1   
 20   9  31  1   
 21  10  32  1   
 22  10  33  1   
 23  11  14  ar  
 24  12  15  1   
 25  12  34  1   
 26  13  14  ar  
 27  13  35  1   
 28  14  36  1   
 29  15  16  1   
 30  15  37  1   
 31  15  38  1   
 32  16  17  2   
 33  16  18  1   
 34  17  19  1   
 35  18  20  1   
 36  18  21  1   
 37  19  20  2   
 38  20  22  1   
 39  21  23  2   
 40  21  39  1   
 41  22  24  2   
 42  22  40  1   
 43  23  24  1   
 44  23  41  1   
 45  24  42  1   
@<TRIPOS>SUBSTRUCTURE
  1 ****  12 GROUP 4 **** **** 0

# MOE 2024.06 (io_trps.svl 2023.06)
