@<TRIPOS>MOLECULE
NONAME
45 47 1 0 0 
SMALL
USER_CHARGES


@<TRIPOS>ATOM
  1 O       -2.8370     0.6160    -2.0820 O.2   1 <1>  -0.5700 
  2 C       -2.4600     0.5600    -0.9380 C.2   1 <1>   0.5690 
  3 N       -2.2160    -0.6220    -0.3240 N.am  1 <1>  -0.7300 
  4 C       -2.2660     1.8420    -0.1550 C.3   1 <1>  -0.0990 
  5 C       -2.2880    -1.9490    -0.9770 C.3   1 <1>   0.2200 
  6 C       -0.8280     2.3780    -0.2550 C.3   1 <1>  -0.0800 
  7 C       -3.4950    -2.7390    -0.4920 C.3   1 <1>  -0.0800 
  8 C       -1.1550    -2.8150    -0.4450 C.3   1 <1>   0.1200 
  9 C        0.2280     1.4670     0.3700 C.3   1 <1>  -0.1600 
 10 C       -0.6360     3.7000     0.4840 C.3   1 <1>  -0.1600 
 11 C       -2.9900    -3.3820     0.8060 C.3   1 <1>   0.1200 
 12 C       -4.8030    -1.9410    -0.3390 C.3   1 <1>  -0.0160 
 13 O       -1.5960    -3.2580     0.8030 O.3   1 <1>  -0.5600 
 14 C        1.4250     2.3790     0.6400 C.3   1 <1>  -0.1600 
 15 C        0.8710     3.8070     0.7210 C.3   1 <1>  -0.1600 
 16 C       -5.9530    -2.8540     0.0550 C.ar  1 <1>  -0.1440 
 17 C       -6.3770    -2.9810     1.3620 C.ar  1 <1>  -0.1500 
 18 C       -6.6330    -3.6070    -0.8810 C.ar  1 <1>  -0.1500 
 19 C       -7.4250    -3.8350     1.6620 C.ar  1 <1>   0.1600 
 20 C       -7.6690    -4.4320    -0.4760 C.ar  1 <1>   0.1600 
 21 N       -8.0800    -4.5650     0.7750 N.ar  1 <1>  -0.6200 
 22 H       -1.8890    -0.6510     0.6430 H     1 <1>   0.3700 
 23 H       -2.9430     2.5780    -0.5500 H     1 <1>   0.0800 
 24 H       -2.5310     1.6730     0.8720 H     1 <1>   0.0800 
 25 H       -2.2580    -1.8490    -2.0490 H     1 <1>   0.0800 
 26 H       -0.5790     2.5290    -1.2930 H     1 <1>   0.0800 
 27 H       -3.6690    -3.5340    -1.1960 H     1 <1>   0.0800 
 28 H       -0.2310    -2.2760    -0.3360 H     1 <1>   0.0800 
 29 H       -1.0080    -3.6790    -1.0690 H     1 <1>   0.0800 
 30 H       -0.1330     1.0770     1.3060 H     1 <1>   0.0800 
 31 H        0.4890     0.6480    -0.2790 H     1 <1>   0.0800 
 32 H       -1.0130     4.5350    -0.0820 H     1 <1>   0.0800 
 33 H       -1.1390     3.6650     1.4350 H     1 <1>   0.0800 
 34 H       -3.2490    -4.4250     0.8610 H     1 <1>   0.0800 
 35 H       -3.3600    -2.8690     1.6760 H     1 <1>   0.0800 
 36 H       -5.0350    -1.4550    -1.2720 H     1 <1>   0.0800 
 37 H       -4.6900    -1.1710     0.4040 H     1 <1>   0.0800 
 38 H        1.9260     2.0980     1.5510 H     1 <1>   0.0800 
 39 H        2.1250     2.3120    -0.1760 H     1 <1>   0.0800 
 40 H        1.3200     4.4100    -0.0500 H     1 <1>   0.0800 
 41 H        1.0780     4.2560     1.6770 H     1 <1>   0.0800 
 42 H       -5.9040    -2.4250     2.1510 H     1 <1>   0.1500 
 43 H       -6.3660    -3.5600    -1.9210 H     1 <1>   0.1500 
 44 H       -7.7420    -3.9210     2.6880 H     1 <1>   0.1500 
 45 H       -8.1880    -5.0110    -1.2200 H     1 <1>   0.1500 
@<TRIPOS>BOND
  1   1   2  2   
  2   2   3  am  
  3   2   4  1   
  4   3   5  1   
  5   3  22  1   
  6   4   6  1   
  7   4  23  1   
  8   4  24  1   
  9   5   7  1   
 10   5   8  1   
 11   5  25  1   
 12   6   9  1   
 13   6  10  1   
 14   6  26  1   
 15   7  11  1   
 16   7  12  1   
 17   7  27  1   
 18   8  13  1   
 19   8  28  1   
 20   8  29  1   
 21   9  14  1   
 22   9  30  1   
 23   9  31  1   
 24  10  15  1   
 25  10  32  1   
 26  10  33  1   
 27  11  13  1   
 28  11  34  1   
 29  11  35  1   
 30  12  16  1   
 31  12  36  1   
 32  12  37  1   
 33  14  15  1   
 34  14  38  1   
 35  14  39  1   
 36  15  40  1   
 37  15  41  1   
 38  16  17  ar  
 39  16  18  ar  
 40  17  19  ar  
 41  17  42  1   
 42  18  20  ar  
 43  18  43  1   
 44  19  21  ar  
 45  19  44  1   
 46  20  21  ar  
 47  20  45  1   
@<TRIPOS>SUBSTRUCTURE
  1 ****   3 GROUP 4 **** **** 0

# MOE 2024.06 (io_trps.svl 2023.06)
