@<TRIPOS>MOLECULE
NONAME
35 35 1 0 0 
SMALL
USER_CHARGES


@<TRIPOS>ATOM
  1 O       -1.2270    -0.8090    -0.0770 O.2   1 <1>  -0.5700 
  2 C       -2.0610     0.0670    -0.0200 C.2   1 <1>   0.5690 
  3 N       -3.2750    -0.1610     0.5750 N.am  1 <1>  -0.6600 
  4 C       -1.7050     1.4080    -0.6520 C.3   1 <1>  -0.0990 
  5 C       -3.5030    -1.4310     1.3260 C.3   1 <1>   0.3200 
  6 C       -4.5110     0.6450     0.3570 C.3   1 <1>   0.1400 
  7 C       -0.4900     2.0810     0.0160 C.3   1 <1>  -0.0800 
  8 C       -3.9130    -2.5410     0.3750 C.2   1 <1>   0.0060 
  9 C       -4.6740     1.6870     1.4690 C.3   1 <1>   0.1200 
 10 C       -0.7730     2.4400     1.4810 C.3   1 <1>  -0.2400 
 11 C       -0.0910     3.3440    -0.7560 C.3   1 <1>  -0.2400 
 12 N       -5.0510    -3.1610     0.3900 N.2   1 <1>  -0.5650 
 13 N       -3.0750    -2.9710    -0.5910 N.pl3 1 <1>   0.0330 
 14 O       -5.8000     2.4590     1.2220 O.3   1 <1>  -0.6800 
 15 C       -4.9460    -4.0430    -0.6240 C.2   1 <1>   0.0770 
 16 C       -3.7460    -3.9420    -1.2350 C.2   1 <1>  -0.3020 
 17 H       -2.5320     2.0880    -0.6250 H     1 <1>   0.0800 
 18 H       -1.4750     1.2190    -1.6850 H     1 <1>   0.0800 
 19 H       -4.2740    -1.2890     2.0640 H     1 <1>   0.0800 
 20 H       -2.6030    -1.7180     1.8410 H     1 <1>   0.0800 
 21 H       -5.3670    -0.0100     0.3550 H     1 <1>   0.0800 
 22 H       -4.4680     1.1270    -0.6030 H     1 <1>   0.0800 
 23 H        0.3400     1.3930    -0.0120 H     1 <1>   0.0800 
 24 H       -3.8220     2.3410     1.5180 H     1 <1>   0.0800 
 25 H       -4.8140     1.2010     2.4190 H     1 <1>   0.0800 
 26 H       -1.5820     3.1430     1.5530 H     1 <1>   0.0800 
 27 H        0.1010     2.8810     1.9270 H     1 <1>   0.0800 
 28 H       -1.0240     1.5600     2.0470 H     1 <1>   0.0800 
 29 H       -0.8910     4.0640    -0.7530 H     1 <1>   0.0800 
 30 H        0.1490     3.0990    -1.7760 H     1 <1>   0.0800 
 31 H        0.7770     3.7950    -0.3080 H     1 <1>   0.0800 
 32 H       -2.1370    -2.5830    -0.7660 H     1 <1>   0.2700 
 33 H       -5.6800     3.0230     0.4330 H     1 <1>   0.4000 
 34 H       -5.7540    -4.7150    -0.8630 H     1 <1>   0.1500 
 35 H       -3.3430    -4.4890    -2.0680 H     1 <1>   0.1500 
@<TRIPOS>BOND
  1   1   2  2   
  2   2   3  am  
  3   2   4  1   
  4   3   5  1   
  5   3   6  1   
  6   4   7  1   
  7   4  17  1   
  8   4  18  1   
  9   5   8  1   
 10   5  19  1   
 11   5  20  1   
 12   6   9  1   
 13   6  21  1   
 14   6  22  1   
 15   7  10  1   
 16   7  11  1   
 17   7  23  1   
 18   8  12  2   
 19   8  13  1   
 20   9  14  1   
 21   9  24  1   
 22   9  25  1   
 23  10  26  1   
 24  10  27  1   
 25  10  28  1   
 26  11  29  1   
 27  11  30  1   
 28  11  31  1   
 29  12  15  1   
 30  13  16  1   
 31  13  32  1   
 32  14  33  1   
 33  15  16  2   
 34  15  34  1   
 35  16  35  1   
@<TRIPOS>SUBSTRUCTURE
  1 ****   3 GROUP 4 **** **** 0

# MOE 2024.06 (io_trps.svl 2023.06)
