@<TRIPOS>MOLECULE
NONAME
44 46 1 0 0 
SMALL
USER_CHARGES


@<TRIPOS>ATOM
  1 S        0.7870    -0.0360     0.4580 S.3   1 <1>  -0.3320 
  2 C       -0.8430    -0.5900    -0.0780 C.ar  1 <1>   0.1020 
  3 C        0.8480     1.7850     0.1670 C.3   1 <1>   0.0700 
  4 C       -1.1350    -1.9320     0.0950 C.ar  1 <1>  -0.1500 
  5 C       -1.7690     0.2780    -0.6400 C.ar  1 <1>  -0.1500 
  6 C        2.2170     2.2830     0.6270 C.3   1 <1>  -0.0990 
  7 C       -2.3700    -2.4140    -0.2980 C.ar  1 <1>   0.0830 
  8 C       -3.0090    -0.2060    -1.0270 C.ar  1 <1>  -0.1500 
  9 C        2.3080     3.7850     0.4910 C.2   1 <1>   0.5690 
 10 O       -2.6390    -3.7350    -0.1390 O.3   1 <1>  -0.3630 
 11 C       -3.3150    -1.5450    -0.8530 C.ar  1 <1>   0.0830 
 12 O        2.0600     4.2980    -0.5730 O.2   1 <1>  -0.5700 
 13 N        2.6760     4.5220     1.5690 N.am  1 <1>  -0.7300 
 14 C       -3.7620    -4.2470    -0.8320 C.3   1 <1>   0.1200 
 15 O       -4.5430    -1.9890    -1.2250 O.3   1 <1>  -0.3630 
 16 C        2.7550     6.0020     1.5620 C.3   1 <1>   0.1400 
 17 C       -4.9350    -3.2610    -0.7450 C.3   1 <1>   0.1200 
 18 C        4.0620     6.4620     0.9130 C.3   1 <1>   0.0200 
 19 C        3.9030     7.8690     0.3730 C.2   1 <1>   0.0070 
 20 N        4.3070     8.9240     0.9810 N.2   1 <1>  -0.5650 
 21 N        3.3110     8.1710    -0.7930 N.pl3 1 <1>   0.3140 
 22 C        3.9330     9.8830     0.1240 C.2   1 <1>   0.3660 
 23 N        3.3330     9.4850    -0.9480 N.2   1 <1>  -0.7070 
 24 C        2.6970     7.2760    -1.7880 C.3   1 <1>   0.0160 
 25 H        0.0520     2.2300     0.7370 H     1 <1>   0.0800 
 26 H        0.7020     1.9540    -0.8860 H     1 <1>   0.0800 
 27 H       -0.4090    -2.5950     0.5260 H     1 <1>   0.1500 
 28 H       -1.5490     1.3180    -0.7830 H     1 <1>   0.1500 
 29 H        2.9830     1.8360     0.0210 H     1 <1>   0.0800 
 30 H        2.3760     1.9970     1.6500 H     1 <1>   0.0800 
 31 H       -3.7430     0.4490    -1.4620 H     1 <1>   0.1500 
 32 H        2.9160     4.0630     2.4510 H     1 <1>   0.3700 
 33 H       -4.0220    -5.1910    -0.3890 H     1 <1>   0.0800 
 34 H       -3.4790    -4.4030    -1.8580 H     1 <1>   0.0800 
 35 H        2.6840     6.3870     2.5650 H     1 <1>   0.0800 
 36 H        1.9180     6.3850     1.0010 H     1 <1>   0.0800 
 37 H       -5.2540    -3.1490     0.2770 H     1 <1>   0.0800 
 38 H       -5.7640    -3.5990    -1.3390 H     1 <1>   0.0800 
 39 H        4.3350     5.8090     0.1040 H     1 <1>   0.0800 
 40 H        4.8520     6.4450     1.6420 H     1 <1>   0.0800 
 41 H        4.1320    10.9210     0.3390 H     1 <1>   0.1500 
 42 H        3.3630     6.4610    -2.0010 H     1 <1>   0.0800 
 43 H        2.5050     7.8280    -2.6890 H     1 <1>   0.0800 
 44 H        1.7730     6.8930    -1.3980 H     1 <1>   0.0800 
@<TRIPOS>BOND
  1   1   2  1   
  2   1   3  1   
  3   2   4  ar  
  4   2   5  ar  
  5   3   6  1   
  6   3  25  1   
  7   3  26  1   
  8   4   7  ar  
  9   4  27  1   
 10   5   8  ar  
 11   5  28  1   
 12   6   9  1   
 13   6  29  1   
 14   6  30  1   
 15   7  10  1   
 16   7  11  ar  
 17   8  11  ar  
 18   8  31  1   
 19   9  12  2   
 20   9  13  am  
 21  10  14  1   
 22  11  15  1   
 23  13  16  1   
 24  13  32  1   
 25  14  17  1   
 26  14  33  1   
 27  14  34  1   
 28  15  17  1   
 29  16  18  1   
 30  16  35  1   
 31  16  36  1   
 32  17  37  1   
 33  17  38  1   
 34  18  19  1   
 35  18  39  1   
 36  18  40  1   
 37  19  20  2   
 38  19  21  1   
 39  20  22  1   
 40  21  23  1   
 41  21  24  1   
 42  22  23  2   
 43  22  41  1   
 44  24  42  1   
 45  24  43  1   
 46  24  44  1   
@<TRIPOS>SUBSTRUCTURE
  1 ****   3 GROUP 4 **** **** 0

# MOE 2024.06 (io_trps.svl 2023.06)
