@<TRIPOS>MOLECULE
NONAME
52 55 1 0 0 
SMALL
USER_CHARGES


@<TRIPOS>ATOM
  1 O        1.2240    -1.4240     1.8660 O.2   1 <1>  -0.5700 
  2 C        1.3110    -1.7560     0.7020 C.2   1 <1>   0.6900 
  3 N        0.4660    -2.5960     0.0330 N.am  1 <1>  -0.4770 
  4 N        2.3200    -1.3500    -0.0850 N.am  1 <1>  -0.7300 
  5 C       -0.6980    -3.2250     0.5040 C.ar  1 <1>   0.1170 
  6 C        0.9900    -2.8370    -1.3320 C.3   1 <1>   0.1400 
  7 C        2.2940    -2.0210    -1.3920 C.3   1 <1>   0.1400 
  8 C       -1.8200    -2.5020     0.9180 C.ar  1 <1>  -0.1430 
  9 C       -0.7420    -4.6120     0.5490 C.ar  1 <1>  -0.1500 
 10 C       -2.9360    -3.1800     1.3770 C.ar  1 <1>  -0.1500 
 11 C       -1.8490    -0.9790     0.8870 C.3   1 <1>  -0.0970 
 12 C       -1.8630    -5.3120     0.9830 C.ar  1 <1>   0.0860 
 13 C       -2.9560    -4.5610     1.4130 C.ar  1 <1>  -0.1500 
 14 C       -1.8780    -6.7640     0.9890 C.2   1 <1>   0.5440 
 15 O       -0.9010    -7.3790     1.3730 O.2   1 <1>  -0.5700 
 16 N       -2.9660    -7.4830     0.5440 N.am  1 <1>  -0.6600 
 17 C       -3.9720    -6.9770    -0.4230 C.3   1 <1>   0.1400 
 18 C       -2.9960    -8.9660     0.5970 C.3   1 <1>   0.1400 
 19 C       -4.4860    -8.2230    -1.1430 C.3   1 <1>   0.2000 
 20 C       -4.2510    -9.3790    -0.1730 C.3   1 <1>  -0.0800 
 21 O       -5.8350    -8.1190    -1.4460 O.3   1 <1>  -0.6800 
 22 C       -4.1230   -10.7370    -0.8790 C.3   1 <1>  -0.0170 
 23 C       -3.9000   -11.8560     0.1260 C.ar  1 <1>  -0.1430 
 24 C       -4.9530   -12.4600     0.7820 C.ar  1 <1>  -0.1500 
 25 C       -2.6390   -12.3240     0.4390 C.ar  1 <1>  -0.1500 
 26 C       -4.7030   -13.4720     1.6940 C.ar  1 <1>   0.1600 
 27 C       -2.4980   -13.3410     1.3690 C.ar  1 <1>   0.1600 
 28 N       -3.5000   -13.9260     2.0050 N.ar  1 <1>  -0.6200 
 29 H        3.1540    -0.9330     0.3290 H     1 <1>   0.3700 
 30 H        1.1850    -3.8830    -1.4850 H     1 <1>   0.0800 
 31 H        0.2830    -2.4860    -2.0630 H     1 <1>   0.0800 
 32 H        2.2680    -1.3010    -2.1910 H     1 <1>   0.0800 
 33 H        3.1480    -2.6670    -1.5020 H     1 <1>   0.0800 
 34 H        0.1240    -5.1730     0.2490 H     1 <1>   0.1500 
 35 H       -3.7980    -2.6310     1.7150 H     1 <1>   0.1500 
 36 H       -2.8570    -0.6110     0.9390 H     1 <1>   0.0800 
 37 H       -1.4030    -0.6110    -0.0190 H     1 <1>   0.0800 
 38 H       -1.3000    -0.5890     1.7250 H     1 <1>   0.0800 
 39 H       -3.8260    -5.0690     1.7880 H     1 <1>   0.1500 
 40 H       -4.7680    -6.4940     0.1150 H     1 <1>   0.0800 
 41 H       -3.5220    -6.2900    -1.1190 H     1 <1>   0.0800 
 42 H       -2.1090    -9.3490     0.1230 H     1 <1>   0.0800 
 43 H       -3.0270    -9.3090     1.6180 H     1 <1>   0.0800 
 44 H       -3.9410    -8.3640    -2.0610 H     1 <1>   0.0800 
 45 H       -5.0590    -9.4200     0.5370 H     1 <1>   0.0800 
 46 H       -6.3630    -8.0350    -0.6290 H     1 <1>   0.4000 
 47 H       -3.3080   -10.7120    -1.5810 H     1 <1>   0.0800 
 48 H       -5.0220   -10.9350    -1.4360 H     1 <1>   0.0800 
 49 H       -5.9660   -12.1550     0.5920 H     1 <1>   0.1500 
 50 H       -1.7650   -11.9100    -0.0280 H     1 <1>   0.1500 
 51 H       -5.5370   -13.9320     2.1960 H     1 <1>   0.1500 
 52 H       -1.5070   -13.6920     1.6010 H     1 <1>   0.1500 
@<TRIPOS>BOND
  1   1   2  2   
  2   2   3  am  
  3   2   4  am  
  4   3   5  1   
  5   3   6  1   
  6   4   7  1   
  7   4  29  1   
  8   5   8  ar  
  9   5   9  ar  
 10   6   7  1   
 11   6  30  1   
 12   6  31  1   
 13   7  32  1   
 14   7  33  1   
 15   8  10  ar  
 16   8  11  1   
 17   9  12  ar  
 18   9  34  1   
 19  10  13  ar  
 20  10  35  1   
 21  11  36  1   
 22  11  37  1   
 23  11  38  1   
 24  12  13  ar  
 25  12  14  1   
 26  13  39  1   
 27  14  15  2   
 28  14  16  am  
 29  16  17  1   
 30  16  18  1   
 31  17  19  1   
 32  17  40  1   
 33  17  41  1   
 34  18  20  1   
 35  18  42  1   
 36  18  43  1   
 37  19  20  1   
 38  19  21  1   
 39  19  44  1   
 40  20  22  1   
 41  20  45  1   
 42  21  46  1   
 43  22  23  1   
 44  22  47  1   
 45  22  48  1   
 46  23  24  ar  
 47  23  25  ar  
 48  24  26  ar  
 49  24  49  1   
 50  25  27  ar  
 51  25  50  1   
 52  26  28  ar  
 53  26  51  1   
 54  27  28  ar  
 55  27  52  1   
@<TRIPOS>SUBSTRUCTURE
  1 ****  14 GROUP 4 **** **** 0

# MOE 2024.06 (io_trps.svl 2023.06)
