@<TRIPOS>MOLECULE
NONAME
50 53 1 0 0 
SMALL
USER_CHARGES


@<TRIPOS>ATOM
  1 S        0.5230    -0.0260    -2.1080 S.3   1 <1>  -0.2420 
  2 C        1.7440    -0.2280    -0.8520 C.2   1 <1>   0.6410 
  3 C       -0.0250    -1.7040    -1.9090 C.2   1 <1>  -0.0490 
  4 N        2.5440     0.7050    -0.4870 N.2   1 <1>  -0.6610 
  5 N        1.6890    -1.5190    -0.3500 N.pl3 1 <1>  -0.1080 
  6 C        0.6940    -2.3230    -0.9550 C.2   1 <1>   0.2090 
  7 C        3.4000     0.3080     0.5050 C.2   1 <1>   0.7810 
  8 N        2.5350    -1.9520     0.6440 N.2   1 <1>  -0.4920 
  9 N        0.5840    -3.6400    -0.4910 N.am  1 <1>  -0.5390 
 10 O        4.2010     1.1400     0.9150 O.2   1 <1>  -0.5700 
 11 C        3.3630    -1.0390     1.0460 C.2   1 <1>   0.3890 
 12 C       -0.2740    -4.6240    -0.8840 C.2   1 <1>   0.5690 
 13 C        4.3430    -1.4180     2.1470 C.3   1 <1>  -0.1790 
 14 O       -1.1010    -4.4500    -1.7460 O.2   1 <1>  -0.5700 
 15 C       -0.1580    -5.9860    -0.1980 C.3   1 <1>  -0.0190 
 16 C        0.8130    -6.9040    -0.9620 C.3   1 <1>  -0.1600 
 17 C       -1.5220    -6.6860    -0.0360 C.3   1 <1>  -0.1600 
 18 C        0.9420    -8.2730    -0.2880 C.3   1 <1>   0.1400 
 19 C       -1.3840    -8.0590     0.6260 C.3   1 <1>   0.1400 
 20 N       -0.4070    -8.8850    -0.1360 N.am  1 <1>  -0.6600 
 21 C       -0.7440   -10.0600    -0.7830 C.2   1 <1>   0.5440 
 22 O        0.0230   -10.5230    -1.6070 O.2   1 <1>  -0.5700 
 23 C       -1.9880   -10.7550    -0.5130 C.ar  1 <1>   0.0860 
 24 C       -2.3040   -11.2130     0.7660 C.ar  1 <1>  -0.1500 
 25 C       -2.9110   -10.9920    -1.5280 C.ar  1 <1>  -0.1500 
 26 C       -3.4980   -11.8620     1.0230 C.ar  1 <1>  -0.1500 
 27 C       -4.1070   -11.6400    -1.2760 C.ar  1 <1>  -0.1500 
 28 C       -4.4090   -12.0760     0.0030 C.ar  1 <1>  -0.1430 
 29 C       -5.7200   -12.7900     0.2800 C.3   1 <1>  -0.0970 
 30 H       -0.8320    -2.0410    -2.5360 H     1 <1>   0.1500 
 31 H        1.2620    -3.8630     0.2390 H     1 <1>   0.3700 
 32 H        4.1930    -0.7840     3.0020 H     1 <1>   0.0800 
 33 H        5.3510    -1.2920     1.7960 H     1 <1>   0.0800 
 34 H        4.2060    -2.4420     2.4470 H     1 <1>   0.0800 
 35 H        0.2400    -5.8240     0.7880 H     1 <1>   0.0800 
 36 H        1.7850    -6.4480    -1.0200 H     1 <1>   0.0800 
 37 H        0.4600    -7.0490    -1.9690 H     1 <1>   0.0800 
 38 H       -1.9820    -6.8170    -1.0010 H     1 <1>   0.0800 
 39 H       -2.1790    -6.0700     0.5530 H     1 <1>   0.0800 
 40 H        1.3870    -8.1660     0.6860 H     1 <1>   0.0800 
 41 H        1.5860    -8.9050    -0.8760 H     1 <1>   0.0800 
 42 H       -2.3510    -8.5290     0.6560 H     1 <1>   0.0800 
 43 H       -1.0340    -7.9480     1.6380 H     1 <1>   0.0800 
 44 H       -1.5980   -11.0570     1.5620 H     1 <1>   0.1500 
 45 H       -2.6780   -10.6620    -2.5250 H     1 <1>   0.1500 
 46 H       -3.7140   -12.2040     2.0200 H     1 <1>   0.1500 
 47 H       -4.8000   -11.8080    -2.0830 H     1 <1>   0.1500 
 48 H       -6.0360   -12.6180     1.2930 H     1 <1>   0.0800 
 49 H       -5.5970   -13.8470     0.1290 H     1 <1>   0.0800 
 50 H       -6.4900   -12.4320    -0.3800 H     1 <1>   0.0800 
@<TRIPOS>BOND
  1   1   2  1   
  2   1   3  1   
  3   2   4  2   
  4   2   5  1   
  5   3   6  2   
  6   3  30  1   
  7   4   7  1   
  8   5   6  1   
  9   5   8  1   
 10   6   9  1   
 11   7  10  2   
 12   7  11  1   
 13   8  11  2   
 14   9  12  am  
 15   9  31  1   
 16  11  13  1   
 17  12  14  2   
 18  12  15  1   
 19  13  32  1   
 20  13  33  1   
 21  13  34  1   
 22  15  16  1   
 23  15  17  1   
 24  15  35  1   
 25  16  18  1   
 26  16  36  1   
 27  16  37  1   
 28  17  19  1   
 29  17  38  1   
 30  17  39  1   
 31  18  20  1   
 32  18  40  1   
 33  18  41  1   
 34  19  20  1   
 35  19  42  1   
 36  19  43  1   
 37  20  21  am  
 38  21  22  2   
 39  21  23  1   
 40  23  24  ar  
 41  23  25  ar  
 42  24  26  ar  
 43  24  44  1   
 44  25  27  ar  
 45  25  45  1   
 46  26  28  ar  
 47  26  46  1   
 48  27  28  ar  
 49  27  47  1   
 50  28  29  1   
 51  29  48  1   
 52  29  49  1   
 53  29  50  1   
@<TRIPOS>SUBSTRUCTURE
  1 ****  15 GROUP 4 **** **** 0

# MOE 2024.06 (io_trps.svl 2023.06)
