@<TRIPOS>MOLECULE
NONAME
51 54 1 0 0 
SMALL
USER_CHARGES


@<TRIPOS>ATOM
  1 O       -0.5560    -0.1340    -1.9210 O.2   1 <1>  -0.5700 
  2 C       -1.4340     0.5460    -1.4470 C.2   1 <1>   0.5690 
  3 N       -2.6670     0.0360    -1.1540 N.am  1 <1>  -0.6600 
  4 C       -1.1200     1.9920    -1.1460 C.3   1 <1>  -0.0990 
  5 C       -3.8120     0.7730    -0.5520 C.3   1 <1>   0.1400 
  6 C       -2.9970    -1.3970    -1.3270 C.3   1 <1>   0.1400 
  7 C       -0.7200     2.1290     0.3270 C.3   1 <1>   0.0960 
  8 C       -4.9380    -0.2590    -0.4610 C.3   1 <1>   0.2000 
  9 C       -4.2470    -1.6210    -0.4750 C.3   1 <1>  -0.0800 
 10 N       -1.2370     3.3920     0.8840 N.pl3 1 <1>   0.3140 
 11 O       -5.6770    -0.1140     0.7020 O.3   1 <1>  -0.6800 
 12 C       -5.1540    -2.7470    -0.9970 C.3   1 <1>  -0.0160 
 13 N       -2.5140     3.4800     1.3020 N.2   1 <1>  -0.7070 
 14 C       -0.5880     4.5700     1.0260 C.2   1 <1>  -0.3320 
 15 C       -4.4370    -4.0930    -0.9640 C.ar  1 <1>  -0.1440 
 16 C       -2.6460     4.7070     1.7060 C.2   1 <1>   0.1390 
 17 C       -1.4750     5.4380     1.5580 C.2   1 <1>  -0.1500 
 18 C        0.8600     4.8240     0.6430 C.3   1 <1>  -0.0600 
 19 C       -4.2690    -4.8300     0.2330 C.ar  1 <1>   0.0000 
 20 C       -3.9220    -4.6250    -2.1100 C.ar  1 <1>  -0.1500 
 21 C       -3.5660    -6.0580     0.1550 C.ar  1 <1>   0.3100 
 22 C       -4.7560    -4.4250     1.4970 C.ar  1 <1>  -0.1500 
 23 C       -3.2490    -5.8520    -2.0770 C.ar  1 <1>   0.1600 
 24 N       -3.0660    -6.5530    -1.0040 N.ar  1 <1>  -0.6200 
 25 C       -3.3720    -6.8050     1.3280 C.ar  1 <1>  -0.1500 
 26 C       -4.5520    -5.1790     2.6210 C.ar  1 <1>  -0.1500 
 27 C       -3.8500    -6.3830     2.5390 C.ar  1 <1>  -0.1500 
 28 H       -0.3100     2.3170    -1.7730 H     1 <1>   0.0800 
 29 H       -1.9790     2.5960    -1.3740 H     1 <1>   0.0800 
 30 H       -3.5380     1.1280     0.4260 H     1 <1>   0.0800 
 31 H       -4.1040     1.5980    -1.1770 H     1 <1>   0.0800 
 32 H       -3.1990    -1.5820    -2.3680 H     1 <1>   0.0800 
 33 H       -2.1820    -2.0240    -1.0050 H     1 <1>   0.0800 
 34 H        0.3470     2.0910     0.4360 H     1 <1>   0.0800 
 35 H       -1.1450     1.3290     0.9060 H     1 <1>   0.0800 
 36 H       -5.6020    -0.1500    -1.3020 H     1 <1>   0.0800 
 37 H       -3.9100    -1.8550     0.5190 H     1 <1>   0.0800 
 38 H       -5.0850    -0.0560     1.4770 H     1 <1>   0.4000 
 39 H       -5.4550    -2.5230    -2.0060 H     1 <1>   0.0800 
 40 H       -6.0550    -2.7980    -0.4110 H     1 <1>   0.0800 
 41 H       -3.5630     5.1040     2.1090 H     1 <1>   0.1500 
 42 H       -1.3400     6.4720     1.8200 H     1 <1>   0.1500 
 43 H        1.1200     5.8490     0.8400 H     1 <1>   0.0800 
 44 H        1.0090     4.6290    -0.4040 H     1 <1>   0.0800 
 45 H        1.5140     4.1910     1.2160 H     1 <1>   0.0800 
 46 H       -4.0130    -4.1240    -3.0560 H     1 <1>   0.1500 
 47 H       -5.3030    -3.5050     1.5840 H     1 <1>   0.1500 
 48 H       -2.8570    -6.2350    -3.0040 H     1 <1>   0.1500 
 49 H       -2.8310    -7.7290     1.2400 H     1 <1>   0.1500 
 50 H       -4.9280    -4.8570     3.5780 H     1 <1>   0.1500 
 51 H       -3.6940    -6.9670     3.4300 H     1 <1>   0.1500 
@<TRIPOS>BOND
  1   1   2  2   
  2   2   3  am  
  3   2   4  1   
  4   3   5  1   
  5   3   6  1   
  6   4   7  1   
  7   4  28  1   
  8   4  29  1   
  9   5   8  1   
 10   5  30  1   
 11   5  31  1   
 12   6   9  1   
 13   6  32  1   
 14   6  33  1   
 15   7  10  1   
 16   7  34  1   
 17   7  35  1   
 18   8   9  1   
 19   8  11  1   
 20   8  36  1   
 21   9  12  1   
 22   9  37  1   
 23  10  13  1   
 24  10  14  1   
 25  11  38  1   
 26  12  15  1   
 27  12  39  1   
 28  12  40  1   
 29  13  16  2   
 30  14  17  2   
 31  14  18  1   
 32  15  19  ar  
 33  15  20  ar  
 34  16  17  1   
 35  16  41  1   
 36  17  42  1   
 37  18  43  1   
 38  18  44  1   
 39  18  45  1   
 40  19  21  ar  
 41  19  22  ar  
 42  20  23  ar  
 43  20  46  1   
 44  21  24  ar  
 45  21  25  ar  
 46  22  26  ar  
 47  22  47  1   
 48  23  24  ar  
 49  23  48  1   
 50  25  27  ar  
 51  25  49  1   
 52  26  27  ar  
 53  26  50  1   
 54  27  51  1   
@<TRIPOS>SUBSTRUCTURE
  1 ****   6 GROUP 4 **** **** 0

# MOE 2024.06 (io_trps.svl 2023.06)
