@<TRIPOS>MOLECULE
NONAME
54 57 1 0 0 
SMALL
USER_CHARGES


@<TRIPOS>ATOM
  1 O        1.0620    -0.4780     1.0620 O.3   1 <1>  -0.5600 
  2 C        2.0460    -1.1460     0.3080 C.3   1 <1>   0.4240 
  3 C       -0.2720    -0.7130     0.7330 C.3   1 <1>   0.1200 
  4 C        1.6290    -2.5970    -0.0160 C.ar  1 <1>  -0.1440 
  5 C        2.3000    -0.3350    -0.9730 C.3   1 <1>  -0.1600 
  6 C        3.3030    -1.1330     1.1900 C.3   1 <1>  -0.1600 
  7 C       -0.6050    -2.1690     1.0420 C.3   1 <1>  -0.0160 
  8 C        0.3760    -3.0820     0.3340 C.ar  1 <1>  -0.1440 
  9 C        2.5030    -3.4520    -0.6740 C.ar  1 <1>  -0.1500 
 10 C        2.7890     1.0800    -0.6610 C.3   1 <1>   0.2090 
 11 C        3.7650     0.2940     1.4770 C.3   1 <1>   0.2090 
 12 C        0.0160    -4.3870     0.0370 C.ar  1 <1>  -0.1500 
 13 C        2.1650    -4.7610    -0.9720 C.ar  1 <1>   0.0820 
 14 N        4.0190     0.9960     0.1840 N.pl3 1 <1>  -0.8380 
 15 C        0.8940    -5.2430    -0.6230 C.ar  1 <1>   0.0820 
 16 O        3.1450    -5.4690    -1.6040 O.3   1 <1>  -0.3630 
 17 C        5.1680     1.6500    -0.1240 C.ar  1 <1>   0.4100 
 18 O        0.5310    -6.5210    -0.9450 O.3   1 <1>  -0.3630 
 19 C        3.2630    -6.8660    -1.4500 C.3   1 <1>   0.0400 
 20 N        5.0810     2.7290    -0.8810 N.ar  1 <1>  -0.6200 
 21 C        6.4140     1.1900     0.3490 C.ar  1 <1>  -0.1500 
 22 C       -0.7800    -7.0030    -0.7530 C.3   1 <1>   0.0400 
 23 C        6.1890     3.3820    -1.1460 C.ar  1 <1>   0.7710 
 24 C        7.5400     1.8830     0.0540 C.ar  1 <1>   0.2180 
 25 N        7.3990     2.9990    -0.7010 N.ar  1 <1>  -0.1790 
 26 N        6.0650     4.4740    -1.8950 N.pl3 1 <1>  -0.9000 
 27 C        8.9280     1.4740     0.5160 C.3   1 <1>  -0.0970 
 28 H       -0.4250    -0.4920    -0.3090 H     1 <1>   0.0800 
 29 H       -0.8800    -0.0530     1.3270 H     1 <1>   0.0800 
 30 H        1.4080    -0.2940    -1.5680 H     1 <1>   0.0800 
 31 H        3.0500    -0.8240    -1.5650 H     1 <1>   0.0800 
 32 H        4.1030    -1.6600     0.7070 H     1 <1>   0.0800 
 33 H        3.0870    -1.6410     2.1120 H     1 <1>   0.0800 
 34 H       -1.6090    -2.3770     0.7190 H     1 <1>   0.0800 
 35 H       -0.5490    -2.3300     2.1040 H     1 <1>   0.0800 
 36 H        3.4780    -3.1140    -0.9700 H     1 <1>   0.1500 
 37 H        2.0280     1.6280    -0.1310 H     1 <1>   0.0800 
 38 H        2.9890     1.5930    -1.5850 H     1 <1>   0.0800 
 39 H        4.6420     0.2810     2.0980 H     1 <1>   0.0800 
 40 H        2.9970     0.8230     2.0180 H     1 <1>   0.0800 
 41 H       -0.9600    -4.7190     0.3310 H     1 <1>   0.1500 
 42 H        4.2590    -7.1520    -1.7370 H     1 <1>   0.0800 
 43 H        2.5480    -7.3470    -2.0920 H     1 <1>   0.0800 
 44 H        3.0870    -7.1220    -0.4210 H     1 <1>   0.0800 
 45 H        6.4450     0.2850     0.9250 H     1 <1>   0.1500 
 46 H       -0.8270    -8.0050    -1.1410 H     1 <1>   0.0800 
 47 H       -1.4670    -6.3720    -1.2900 H     1 <1>   0.0800 
 48 H       -1.0000    -7.0100     0.3000 H     1 <1>   0.0800 
 49 H        8.1910     3.5750    -0.9620 H     1 <1>   0.4570 
 50 H        6.7830     5.1250    -2.2140 H     1 <1>   0.4000 
 51 H        5.1180     4.7220    -2.1990 H     1 <1>   0.4000 
 52 H        8.8780     0.5710     1.1000 H     1 <1>   0.0800 
 53 H        9.3650     2.2440     1.1270 H     1 <1>   0.0800 
 54 H        9.5680     1.2900    -0.3300 H     1 <1>   0.0800 
@<TRIPOS>BOND
  1   1   2  1   
  2   1   3  1   
  3   2   4  1   
  4   2   5  1   
  5   2   6  1   
  6   3   7  1   
  7   3  28  1   
  8   3  29  1   
  9   4   8  ar  
 10   4   9  ar  
 11   5  10  1   
 12   5  30  1   
 13   5  31  1   
 14   6  11  1   
 15   6  32  1   
 16   6  33  1   
 17   7   8  1   
 18   7  34  1   
 19   7  35  1   
 20   8  12  ar  
 21   9  13  ar  
 22   9  36  1   
 23  10  14  1   
 24  10  37  1   
 25  10  38  1   
 26  11  14  1   
 27  11  39  1   
 28  11  40  1   
 29  12  15  ar  
 30  12  41  1   
 31  13  15  ar  
 32  13  16  1   
 33  14  17  1   
 34  15  18  1   
 35  16  19  1   
 36  17  20  ar  
 37  17  21  ar  
 38  18  22  1   
 39  19  42  1   
 40  19  43  1   
 41  19  44  1   
 42  20  23  ar  
 43  21  24  ar  
 44  21  45  1   
 45  22  46  1   
 46  22  47  1   
 47  22  48  1   
 48  23  25  ar  
 49  23  26  1   
 50  24  25  ar  
 51  24  27  1   
 52  25  49  1   
 53  26  50  1   
 54  26  51  1   
 55  27  52  1   
 56  27  53  1   
 57  27  54  1   
@<TRIPOS>SUBSTRUCTURE
  1 ****   2 GROUP 4 **** **** 0

# MOE 2024.06 (io_trps.svl 2023.06)
