@<TRIPOS>MOLECULE
NONAME
41 43 1 0 0 
SMALL
USER_CHARGES


@<TRIPOS>ATOM
  1 O       -0.6530     0.4090     1.6810 O.2   1 <1>  -0.5700 
  2 C       -1.5150     0.9770     1.0400 C.2   1 <1>   0.5440 
  3 N       -2.5880     0.2480     0.5870 N.am  1 <1>  -0.6600 
  4 C       -1.4060     2.3910     0.7590 C.ar  1 <1>   0.0860 
  5 C       -3.5930     0.7240    -0.4000 C.3   1 <1>   0.1400 
  6 C       -2.6980    -1.2200     0.7710 C.3   1 <1>   0.1400 
  7 C       -0.4620     2.9260    -0.1130 C.ar  1 <1>  -0.1440 
  8 C       -2.2900     3.2760     1.3720 C.ar  1 <1>   0.1600 
  9 C       -4.5830    -0.4340    -0.5220 C.3   1 <1>   0.2000 
 10 C       -3.7220    -1.6780    -0.2750 C.3   1 <1>  -0.0800 
 11 C       -0.4890     4.2920    -0.3100 C.ar  1 <1>  -0.1500 
 12 C        0.5630     2.0520    -0.8220 C.3   1 <1>  -0.0970 
 13 N       -2.3350     4.5850     1.1860 N.ar  1 <1>  -0.6200 
 14 O       -5.5190    -0.3090     0.4940 O.3   1 <1>  -0.6800 
 15 C       -4.5060    -2.9410     0.1290 C.3   1 <1>   0.0200 
 16 C       -1.4290     5.0640     0.3500 C.ar  1 <1>   0.1600 
 17 C       -3.6310    -4.1800     0.2270 C.2   1 <1>  -0.0400 
 18 O       -4.1580    -5.2830     0.6870 O.3   1 <1>  -0.0190 
 19 C       -2.3460    -4.4370    -0.0710 C.2   1 <1>  -0.1500 
 20 N       -3.2990    -6.2600     0.7170 N.2   1 <1>  -0.4100 
 21 C       -2.1970    -5.7790     0.2660 C.2   1 <1>   0.1080 
 22 C       -0.9170    -6.5720     0.1250 C.3   1 <1>  -0.0590 
 23 H       -4.0800     1.6300    -0.0810 H     1 <1>   0.0800 
 24 H       -3.1040     0.8900    -1.3440 H     1 <1>   0.0800 
 25 H       -1.7420    -1.6950     0.6300 H     1 <1>   0.0800 
 26 H       -3.0470    -1.4220     1.7700 H     1 <1>   0.0800 
 27 H       -3.0080     2.8640     2.0600 H     1 <1>   0.1500 
 28 H       -5.1020    -0.4500    -1.4650 H     1 <1>   0.0800 
 29 H       -3.1880    -1.8850    -1.1850 H     1 <1>   0.0800 
 30 H        0.2150     4.7680    -0.9690 H     1 <1>   0.1500 
 31 H        1.1780     2.6350    -1.4840 H     1 <1>   0.0800 
 32 H        0.0680     1.2900    -1.3970 H     1 <1>   0.0800 
 33 H        1.2000     1.5760    -0.0970 H     1 <1>   0.0800 
 34 H       -5.0520    -0.1480     1.3390 H     1 <1>   0.4000 
 35 H       -5.2780    -3.1280    -0.5960 H     1 <1>   0.0800 
 36 H       -4.9840    -2.7900     1.0810 H     1 <1>   0.0800 
 37 H       -1.4360     6.1280     0.1830 H     1 <1>   0.1500 
 38 H       -1.5810    -3.8020    -0.4740 H     1 <1>   0.1500 
 39 H       -0.1430    -6.1220     0.7180 H     1 <1>   0.0800 
 40 H       -0.6120    -6.5930    -0.9040 H     1 <1>   0.0800 
 41 H       -1.0720    -7.5810     0.4630 H     1 <1>   0.0800 
@<TRIPOS>BOND
  1   1   2  2   
  2   2   3  am  
  3   2   4  1   
  4   3   5  1   
  5   3   6  1   
  6   4   7  ar  
  7   4   8  ar  
  8   5   9  1   
  9   5  23  1   
 10   5  24  1   
 11   6  10  1   
 12   6  25  1   
 13   6  26  1   
 14   7  11  ar  
 15   7  12  1   
 16   8  13  ar  
 17   8  27  1   
 18   9  10  1   
 19   9  14  1   
 20   9  28  1   
 21  10  15  1   
 22  10  29  1   
 23  11  16  ar  
 24  11  30  1   
 25  12  31  1   
 26  12  32  1   
 27  12  33  1   
 28  13  16  ar  
 29  14  34  1   
 30  15  17  1   
 31  15  35  1   
 32  15  36  1   
 33  16  37  1   
 34  17  18  1   
 35  17  19  2   
 36  18  20  1   
 37  19  21  1   
 38  19  38  1   
 39  20  21  2   
 40  21  22  1   
 41  22  39  1   
 42  22  40  1   
 43  22  41  1   
@<TRIPOS>SUBSTRUCTURE
  1 ****   6 GROUP 4 **** **** 0

# MOE 2024.06 (io_trps.svl 2023.06)
