@<TRIPOS>MOLECULE
NONAME
45 47 1 0 0 
SMALL
USER_CHARGES


@<TRIPOS>ATOM
  1 CL      -2.1990     0.7910    -1.1910 Cl    1 <1>  -0.1770 
  2 C       -1.1070     2.0070    -0.5710 C.ar  1 <1>   0.1770 
  3 C       -1.4600     2.7320     0.5600 C.ar  1 <1>  -0.1440 
  4 C        0.0880     2.2260    -1.2360 C.ar  1 <1>  -0.1500 
  5 C       -0.5820     3.7010     1.0290 C.ar  1 <1>  -0.1500 
  6 C       -2.7750     2.4620     1.2660 C.3   1 <1>   0.4870 
  7 C        0.9570     3.1960    -0.7650 C.ar  1 <1>  -0.1500 
  8 C        0.6110     3.9210     0.3610 C.ar  1 <1>   0.1770 
  9 N       -3.8970     2.9160     0.4040 N.4   1 <1>  -0.9590 
 10 CL       1.6970     5.1460     0.9570 Cl    1 <1>  -0.1770 
 11 C       -5.2260     2.4570     0.9010 C.3   1 <1>   0.3430 
 12 C       -3.8730     4.3900     0.1380 C.3   1 <1>   0.3430 
 13 C       -6.2950     2.5760    -0.2120 C.3   1 <1>   0.0000 
 14 C       -5.2070     4.8780    -0.4480 C.3   1 <1>  -0.1600 
 15 C       -7.6750     2.6420     0.4800 C.3   1 <1>   0.2000 
 16 C       -5.9750     3.7600    -1.1700 C.3   1 <1>  -0.1600 
 17 C       -6.3740     1.2490    -0.9840 C.3   1 <1>  -0.1600 
 18 O       -8.6390     3.0380    -0.4460 O.3   1 <1>  -0.5600 
 19 C       -7.9670     1.1920     0.8860 C.3   1 <1>  -0.1600 
 20 C       -7.2200     0.3050    -0.1210 C.3   1 <1>  -0.1600 
 21 C       -9.8060     3.5810     0.0900 C.3   1 <1>   0.0400 
 22 H        0.3340     1.6460    -2.1100 H     1 <1>   0.1500 
 23 H       -0.7980     4.2890     1.9040 H     1 <1>   0.1500 
 24 H       -2.8000     2.9790     2.2120 H     1 <1>   0.0800 
 25 H       -2.8620     1.4040     1.4540 H     1 <1>   0.0800 
 26 H        1.8930     3.3890    -1.2600 H     1 <1>   0.1500 
 27 H       -3.7660     2.4510    -0.5080 H     1 <1>   0.4500 
 28 H       -5.1740     1.4320     1.2300 H     1 <1>   0.0800 
 29 H       -5.5170     3.0660     1.7410 H     1 <1>   0.0800 
 30 H       -3.6710     4.9320     1.0490 H     1 <1>   0.0800 
 31 H       -3.0790     4.6090    -0.5590 H     1 <1>   0.0800 
 32 H       -5.8190     5.2740     0.3450 H     1 <1>   0.0800 
 33 H       -5.0150     5.6890    -1.1280 H     1 <1>   0.0800 
 34 H       -7.6870     3.3260     1.3130 H     1 <1>   0.0800 
 35 H       -5.3650     3.4070    -1.9850 H     1 <1>   0.0800 
 36 H       -6.8680     4.1630    -1.6170 H     1 <1>   0.0800 
 37 H       -6.9010     1.4140    -1.9110 H     1 <1>   0.0800 
 38 H       -5.4100     0.8300    -1.2140 H     1 <1>   0.0800 
 39 H       -7.5820     1.0100     1.8740 H     1 <1>   0.0800 
 40 H       -9.0210     0.9760     0.8920 H     1 <1>   0.0800 
 41 H       -6.6010    -0.4090     0.3950 H     1 <1>   0.0800 
 42 H       -7.9180    -0.2330    -0.7410 H     1 <1>   0.0800 
 43 H      -10.4680     3.8170    -0.7240 H     1 <1>   0.0800 
 44 H       -9.5650     4.4800     0.6310 H     1 <1>   0.0800 
 45 H      -10.2770     2.8630     0.7380 H     1 <1>   0.0800 
@<TRIPOS>BOND
  1   1   2  1   
  2   2   3  ar  
  3   2   4  ar  
  4   3   5  ar  
  5   3   6  1   
  6   4   7  ar  
  7   4  22  1   
  8   5   8  ar  
  9   5  23  1   
 10   6   9  1   
 11   6  24  1   
 12   6  25  1   
 13   7   8  ar  
 14   7  26  1   
 15   8  10  1   
 16   9  11  1   
 17   9  12  1   
 18   9  27  1   
 19  11  13  1   
 20  11  28  1   
 21  11  29  1   
 22  12  14  1   
 23  12  30  1   
 24  12  31  1   
 25  13  15  1   
 26  13  16  1   
 27  13  17  1   
 28  14  16  1   
 29  14  32  1   
 30  14  33  1   
 31  15  18  1   
 32  15  19  1   
 33  15  34  1   
 34  16  35  1   
 35  16  36  1   
 36  17  20  1   
 37  17  37  1   
 38  17  38  1   
 39  18  21  1   
 40  19  20  1   
 41  19  39  1   
 42  19  40  1   
 43  20  41  1   
 44  20  42  1   
 45  21  43  1   
 46  21  44  1   
 47  21  45  1   
@<TRIPOS>SUBSTRUCTURE
  1 ****   9 GROUP 4 **** **** 0

# MOE 2024.06 (io_trps.svl 2023.06)
