@<TRIPOS>MOLECULE
NONAME
55 58 1 0 0 
SMALL
USER_CHARGES


@<TRIPOS>ATOM
  1 O       -1.3230    -0.1210     2.3240 O.2   1 <1>  -0.5700 
  2 C       -1.4810     0.6150     1.3650 C.2   1 <1>   0.6160 
  3 N       -2.2400     0.1340     0.3210 N.am  1 <1>  -0.6600 
  4 C       -0.9730     1.9710     1.3990 C.2   1 <1>  -0.0140 
  5 C       -2.5780    -1.2990     0.2340 C.3   1 <1>   0.1400 
  6 C       -3.2550     0.9730    -0.3640 C.3   1 <1>   0.1400 
  7 C       -0.2720     2.5520     0.2690 C.ar  1 <1>   0.0280 
  8 C       -1.1640     2.7430     2.5080 C.2   1 <1>  -0.1360 
  9 C       -3.9720    -1.4070     0.8750 C.3   1 <1>   0.4230 
 10 C       -4.6780     0.5900     0.1230 C.3   1 <1>  -0.1600 
 11 C        0.0890     3.9120     0.3280 C.ar  1 <1>   0.1170 
 12 C        0.0870     1.8420    -0.8840 C.ar  1 <1>  -0.1500 
 13 C       -0.7650     4.1010     2.5750 C.2   1 <1>   0.6160 
 14 N       -4.1790    -2.6380     1.7270 N.4   1 <1>  -0.9590 
 15 C       -5.0950    -0.9540    -0.1770 C.3   1 <1>   0.0000 
 16 N       -0.1820     4.6410     1.4770 N.am  1 <1>  -0.5470 
 17 C        0.7250     4.5200    -0.7490 C.ar  1 <1>  -0.1500 
 18 C        0.7230     2.4480    -1.9470 C.ar  1 <1>  -0.1440 
 19 O       -0.9390     4.8020     3.5530 O.2   1 <1>  -0.5700 
 20 C       -3.9850    -3.8890     0.9720 C.3   1 <1>   0.3430 
 21 C       -3.3100    -2.5900     2.9490 C.3   1 <1>   0.2630 
 22 C       -5.4910    -2.4760    -0.5610 C.3   1 <1>  -0.1600 
 23 C       -6.2470    -0.4440    -1.1660 C.3   1 <1>   0.1200 
 24 C        1.0360     3.7980    -1.8790 C.ar  1 <1>  -0.1500 
 25 C        1.0910     1.6620    -3.1940 C.3   1 <1>  -0.0970 
 26 C       -4.5160    -3.6740    -0.4340 C.3   1 <1>  -0.1600 
 27 O       -5.6770    -0.1000    -2.3900 O.3   1 <1>  -0.6800 
 28 H       -2.5980    -1.5950    -0.8000 H     1 <1>   0.0800 
 29 H       -1.8430    -1.8860     0.7540 H     1 <1>   0.0800 
 30 H       -3.0740     2.0170    -0.1700 H     1 <1>   0.0800 
 31 H       -3.1810     0.8220    -1.4300 H     1 <1>   0.0800 
 32 H       -1.6400     2.3590     3.3900 H     1 <1>   0.1500 
 33 H       -3.9300    -0.6570     1.6440 H     1 <1>   0.0800 
 34 H       -4.7900     0.8470     1.1640 H     1 <1>   0.0800 
 35 H       -5.2500     1.3810    -0.3330 H     1 <1>   0.0800 
 36 H       -0.1310     0.7920    -0.9520 H     1 <1>   0.1500 
 37 H       -5.1620    -2.6090     2.0270 H     1 <1>   0.4500 
 38 H        0.0910     5.6200     1.5630 H     1 <1>   0.3700 
 39 H        0.9800     5.5630    -0.6960 H     1 <1>   0.1500 
 40 H       -2.9390    -4.1500     0.9260 H     1 <1>   0.0800 
 41 H       -4.5190    -4.6930     1.4540 H     1 <1>   0.0800 
 42 H       -2.2670    -2.6080     2.6750 H     1 <1>   0.0800 
 43 H       -3.5130    -3.4310     3.5920 H     1 <1>   0.0800 
 44 H       -3.4910    -1.6820     3.5020 H     1 <1>   0.0800 
 45 H       -6.3860    -2.7380    -0.0180 H     1 <1>   0.0800 
 46 H       -5.7240    -2.5800    -1.6140 H     1 <1>   0.0800 
 47 H       -6.8140     0.3950    -0.7970 H     1 <1>   0.0800 
 48 H       -7.0500    -1.1330    -1.3810 H     1 <1>   0.0800 
 49 H        1.5290     4.2780    -2.7080 H     1 <1>   0.1500 
 50 H        2.1440     1.7570    -3.3900 H     1 <1>   0.0800 
 51 H        0.5450     2.0410    -4.0390 H     1 <1>   0.0800 
 52 H        0.8590     0.6190    -3.0770 H     1 <1>   0.0800 
 53 H       -3.6890    -3.5430    -1.1080 H     1 <1>   0.0800 
 54 H       -5.0130    -4.5770    -0.7470 H     1 <1>   0.0800 
 55 H       -6.3580     0.2010    -3.0270 H     1 <1>   0.4000 
@<TRIPOS>BOND
  1   1   2  2   
  2   2   3  am  
  3   2   4  1   
  4   3   5  1   
  5   3   6  1   
  6   4   7  1   
  7   4   8  2   
  8   5   9  1   
  9   5  28  1   
 10   5  29  1   
 11   6  10  1   
 12   6  30  1   
 13   6  31  1   
 14   7  11  ar  
 15   7  12  ar  
 16   8  13  1   
 17   8  32  1   
 18   9  14  1   
 19   9  15  1   
 20   9  33  1   
 21  10  15  1   
 22  10  34  1   
 23  10  35  1   
 24  11  16  1   
 25  11  17  ar  
 26  12  18  ar  
 27  12  36  1   
 28  13  16  am  
 29  13  19  2   
 30  14  20  1   
 31  14  21  1   
 32  14  37  1   
 33  15  22  1   
 34  15  23  1   
 35  16  38  1   
 36  17  24  ar  
 37  17  39  1   
 38  18  24  ar  
 39  18  25  1   
 40  20  26  1   
 41  20  40  1   
 42  20  41  1   
 43  21  42  1   
 44  21  43  1   
 45  21  44  1   
 46  22  26  1   
 47  22  45  1   
 48  22  46  1   
 49  23  27  1   
 50  23  47  1   
 51  23  48  1   
 52  24  49  1   
 53  25  50  1   
 54  25  51  1   
 55  25  52  1   
 56  26  53  1   
 57  26  54  1   
 58  27  55  1   
@<TRIPOS>SUBSTRUCTURE
  1 ****   3 GROUP 4 **** **** 0

# MOE 2024.06 (io_trps.svl 2023.06)
