@<TRIPOS>MOLECULE
NONAME
48 51 1 0 0 
SMALL
USER_CHARGES


@<TRIPOS>ATOM
  1 S        0.4130    -0.0540     1.1850 S.3   1 <1>  -0.2860 
  2 C       -0.8980     1.1410     0.8980 C.2   1 <1>   0.2420 
  3 C       -0.2840    -1.2170     2.4580 C.3   1 <1>   0.1310 
  4 N       -2.0460     1.1180     1.4790 N.2   1 <1>  -0.3380 
  5 N       -0.7620     2.1430     0.0330 N.pl3 1 <1>   0.0480 
  6 C       -0.4820    -2.6080     1.8730 C.2   1 <1>   0.5690 
  7 N       -2.7280     2.1530     0.9790 N.2   1 <1>  -0.3380 
  8 C       -1.9520     2.7440     0.1310 C.2   1 <1>   0.0360 
  9 C        0.3960     2.4930    -0.8110 C.3   1 <1>   0.0160 
 10 O        0.3020    -3.4670     2.2020 O.2   1 <1>  -0.5700 
 11 N       -1.5270    -2.8840     1.0300 N.am  1 <1>  -0.6600 
 12 C       -2.5700    -1.9350     0.5620 C.3   1 <1>   0.1400 
 13 C       -1.7920    -4.2440     0.5060 C.3   1 <1>   0.1400 
 14 C       -3.5450    -2.7830    -0.2600 C.3   1 <1>   0.2000 
 15 C       -3.2750    -4.2330     0.1350 C.3   1 <1>  -0.0800 
 16 O       -4.8660    -2.4610     0.0120 O.3   1 <1>  -0.6800 
 17 C       -3.6470    -5.2300    -0.9740 C.3   1 <1>  -0.0170 
 18 C       -3.3390    -6.6580    -0.5590 C.ar  1 <1>   0.1670 
 19 N       -2.1610    -7.1220    -0.8410 N.ar  1 <1>  -0.6200 
 20 C       -4.3270    -7.3970     0.1120 C.ar  1 <1>  -0.1500 
 21 C       -1.8720    -8.3920    -0.4570 C.ar  1 <1>   0.3100 
 22 C       -4.0660    -8.6740     0.5060 C.ar  1 <1>  -0.1500 
 23 C       -2.7990    -9.2120     0.2230 C.ar  1 <1>   0.0000 
 24 C       -0.6010    -8.9150    -0.7410 C.ar  1 <1>  -0.1500 
 25 C       -2.4190   -10.5190     0.5880 C.ar  1 <1>  -0.1500 
 26 C       -0.2500   -10.1890    -0.3780 C.ar  1 <1>  -0.1500 
 27 C       -1.1710   -10.9990     0.2940 C.ar  1 <1>  -0.1500 
 28 H        0.4300    -1.2570     3.2590 H     1 <1>   0.0800 
 29 H       -1.2090    -0.8200     2.8280 H     1 <1>   0.0800 
 30 H       -2.2190     3.6170    -0.4370 H     1 <1>   0.1500 
 31 H        0.1660     3.3570    -1.4070 H     1 <1>   0.0800 
 32 H        0.6300     1.6640    -1.4540 H     1 <1>   0.0800 
 33 H        1.2420     2.7060    -0.1820 H     1 <1>   0.0800 
 34 H       -3.0620    -1.4850     1.4060 H     1 <1>   0.0800 
 35 H       -2.1290    -1.1770    -0.0600 H     1 <1>   0.0800 
 36 H       -1.1780    -4.4120    -0.3630 H     1 <1>   0.0800 
 37 H       -1.5720    -4.9990     1.2440 H     1 <1>   0.0800 
 38 H       -3.3680    -2.6250    -1.3100 H     1 <1>   0.0800 
 39 H       -3.8250    -4.4710     1.0290 H     1 <1>   0.0800 
 40 H       -5.0280    -2.4800     0.9750 H     1 <1>   0.4000 
 41 H       -3.0980    -5.0010    -1.8710 H     1 <1>   0.0800 
 42 H       -4.6940    -5.1390    -1.2030 H     1 <1>   0.0800 
 43 H       -5.2810    -6.9430     0.3090 H     1 <1>   0.1500 
 44 H       -4.7960    -9.2720     1.0220 H     1 <1>   0.1500 
 45 H        0.0920    -8.2760    -1.2570 H     1 <1>   0.1500 
 46 H       -3.1310   -11.1360     1.1060 H     1 <1>   0.1500 
 47 H        0.7280   -10.5770    -0.6030 H     1 <1>   0.1500 
 48 H       -0.8830   -11.9970     0.5740 H     1 <1>   0.1500 
@<TRIPOS>BOND
  1   1   2  1   
  2   1   3  1   
  3   2   4  2   
  4   2   5  1   
  5   3   6  1   
  6   3  28  1   
  7   3  29  1   
  8   4   7  1   
  9   5   8  1   
 10   5   9  1   
 11   6  10  2   
 12   6  11  am  
 13   7   8  2   
 14   8  30  1   
 15   9  31  1   
 16   9  32  1   
 17   9  33  1   
 18  11  12  1   
 19  11  13  1   
 20  12  14  1   
 21  12  34  1   
 22  12  35  1   
 23  13  15  1   
 24  13  36  1   
 25  13  37  1   
 26  14  15  1   
 27  14  16  1   
 28  14  38  1   
 29  15  17  1   
 30  15  39  1   
 31  16  40  1   
 32  17  18  1   
 33  17  41  1   
 34  17  42  1   
 35  18  19  ar  
 36  18  20  ar  
 37  19  21  ar  
 38  20  22  ar  
 39  20  43  1   
 40  21  23  ar  
 41  21  24  ar  
 42  22  23  ar  
 43  22  44  1   
 44  23  25  ar  
 45  24  26  ar  
 46  24  45  1   
 47  25  27  ar  
 48  25  46  1   
 49  26  27  ar  
 50  26  47  1   
 51  27  48  1   
@<TRIPOS>SUBSTRUCTURE
  1 ****  13 GROUP 4 **** **** 0

# MOE 2024.06 (io_trps.svl 2023.06)
