@<TRIPOS>MOLECULE
NONAME
54 56 1 0 0 
SMALL
USER_CHARGES


@<TRIPOS>ATOM
  1 F       -0.2420     0.6180    -2.0870 F     1 <1>  -0.3400 
  2 C       -0.7660     1.1720    -0.9900 C.3   1 <1>   0.3400 
  3 C       -0.4140     0.3300     0.2580 C.3   1 <1>   0.2200 
  4 C       -2.2940     1.1350    -1.1400 C.3   1 <1>  -0.0800 
  5 C       -0.3450     2.6420    -0.9220 C.3   1 <1>   0.1400 
  6 N        0.7760    -0.5390     0.1010 N.am  1 <1>  -0.7300 
  7 C       -1.6600    -0.5090     0.5280 C.3   1 <1>  -0.1600 
  8 C       -2.7560     2.5910    -1.2520 C.3   1 <1>   0.1400 
  9 C       -2.8140     0.4020     0.1070 C.3   1 <1>  -0.1600 
 10 N       -1.6120     3.4010    -0.7860 N.am  1 <1>  -0.6600 
 11 C        1.7710    -0.6700     0.9980 C.2   1 <1>   0.7800 
 12 C       -1.7100     4.5880    -0.1200 C.2   1 <1>   0.7800 
 13 O        1.7480    -0.1450     2.0920 O.2   1 <1>  -0.5700 
 14 O        2.8030    -1.4080     0.6200 O.3   1 <1>  -0.4300 
 15 O       -0.7320     5.1390     0.3450 O.2   1 <1>  -0.5700 
 16 O       -2.9320     5.1100     0.0050 O.3   1 <1>  -0.4300 
 17 C        3.8890    -1.5970     1.4980 C.3   1 <1>   0.2630 
 18 C       -3.2860     6.3070     0.6630 C.3   1 <1>   0.2800 
 19 C        4.9330    -2.4580     0.8060 C.ar  1 <1>  -0.1440 
 20 C       -2.9380     6.2150     2.1530 C.3   1 <1>  -0.2400 
 21 C       -4.8040     6.4140     0.5060 C.3   1 <1>  -0.2400 
 22 C       -2.6210     7.5060    -0.0230 C.3   1 <1>  -0.2400 
 23 C        5.1650    -3.7600     1.2260 C.ar  1 <1>  -0.1500 
 24 C        5.6680    -1.9450    -0.2520 C.ar  1 <1>  -0.1500 
 25 C        6.1230    -4.5370     0.5970 C.ar  1 <1>  -0.1500 
 26 C        6.6260    -2.7200    -0.8810 C.ar  1 <1>  -0.1500 
 27 C        6.8550    -4.0170    -0.4560 C.ar  1 <1>  -0.1500 
 28 H       -0.2780     0.9920     1.0970 H     1 <1>   0.0800 
 29 H       -2.5810     0.5830    -2.0190 H     1 <1>   0.0800 
 30 H        0.1520     2.9400    -1.8280 H     1 <1>   0.0800 
 31 H        0.2960     2.8310    -0.0770 H     1 <1>   0.0800 
 32 H        0.9130    -0.9460    -0.8260 H     1 <1>   0.3700 
 33 H       -1.6530    -1.3890    -0.0920 H     1 <1>   0.0800 
 34 H       -1.7290    -0.7920     1.5640 H     1 <1>   0.0800 
 35 H       -3.6380     2.7800    -0.6630 H     1 <1>   0.0800 
 36 H       -2.9580     2.8390    -2.2800 H     1 <1>   0.0800 
 37 H       -3.0090     1.1070     0.8990 H     1 <1>   0.0800 
 38 H       -3.7120    -0.1550    -0.0970 H     1 <1>   0.0800 
 39 H        4.3000    -0.6330     1.7460 H     1 <1>   0.0800 
 40 H        3.5240    -2.0710     2.3930 H     1 <1>   0.0800 
 41 H       -3.3330     7.0680     2.6750 H     1 <1>   0.0800 
 42 H       -1.8740     6.2090     2.3040 H     1 <1>   0.0800 
 43 H       -3.3610     5.3260     2.5830 H     1 <1>   0.0800 
 44 H       -5.1670     7.3070     0.9820 H     1 <1>   0.0800 
 45 H       -5.2860     5.5670     0.9590 H     1 <1>   0.0800 
 46 H       -5.0690     6.4550    -0.5350 H     1 <1>   0.0800 
 47 H       -3.0020     8.4230     0.3900 H     1 <1>   0.0800 
 48 H       -2.8270     7.4960    -1.0780 H     1 <1>   0.0800 
 49 H       -1.5580     7.5000     0.1290 H     1 <1>   0.0800 
 50 H        4.6000    -4.1760     2.0410 H     1 <1>   0.1500 
 51 H        5.4910    -0.9380    -0.5900 H     1 <1>   0.1500 
 52 H        6.2990    -5.5460     0.9270 H     1 <1>   0.1500 
 53 H        7.1930    -2.3150    -1.7010 H     1 <1>   0.1500 
 54 H        7.6000    -4.6210    -0.9440 H     1 <1>   0.1500 
@<TRIPOS>BOND
  1   1   2  1   
  2   2   3  1   
  3   2   4  1   
  4   2   5  1   
  5   3   6  1   
  6   3   7  1   
  7   3  28  1   
  8   4   8  1   
  9   4   9  1   
 10   4  29  1   
 11   5  10  1   
 12   5  30  1   
 13   5  31  1   
 14   6  11  am  
 15   6  32  1   
 16   7   9  1   
 17   7  33  1   
 18   7  34  1   
 19   8  10  1   
 20   8  35  1   
 21   8  36  1   
 22   9  37  1   
 23   9  38  1   
 24  10  12  am  
 25  11  13  2   
 26  11  14  1   
 27  12  15  2   
 28  12  16  1   
 29  14  17  1   
 30  16  18  1   
 31  17  19  1   
 32  17  39  1   
 33  17  40  1   
 34  18  20  1   
 35  18  21  1   
 36  18  22  1   
 37  19  23  ar  
 38  19  24  ar  
 39  20  41  1   
 40  20  42  1   
 41  20  43  1   
 42  21  44  1   
 43  21  45  1   
 44  21  46  1   
 45  22  47  1   
 46  22  48  1   
 47  22  49  1   
 48  23  25  ar  
 49  23  50  1   
 50  24  26  ar  
 51  24  51  1   
 52  25  27  ar  
 53  25  52  1   
 54  26  27  ar  
 55  26  53  1   
 56  27  54  1   
@<TRIPOS>SUBSTRUCTURE
  1 ****   3 GROUP 4 **** **** 0

# MOE 2024.06 (io_trps.svl 2023.06)
