@<TRIPOS>MOLECULE
NONAME
51 53 1 0 0 
SMALL
USER_CHARGES


@<TRIPOS>ATOM
  1 S        0.0420     0.1450    -2.0250 S.3   1 <1>  -0.0800 
  2 C        1.0060    -1.0250    -1.1570 C.2   1 <1>   0.1980 
  3 C        0.7930     1.4110    -1.0970 C.2   1 <1>  -0.1400 
  4 N        1.7780    -0.5260    -0.2790 N.2   1 <1>  -0.5650 
  5 C        0.8050    -2.4890    -1.5110 C.3   1 <1>   0.5230 
  6 C        1.6690     0.8550    -0.2410 C.2   1 <1>   0.0460 
  7 C        0.3550     2.8320    -1.4020 C.3   1 <1>  -0.0600 
  8 N       -0.2840    -3.1030    -0.6810 N.4   1 <1>  -0.9590 
  9 C        2.5560     1.5670     0.7590 C.3   1 <1>  -0.0590 
 10 C       -0.6250    -4.4750    -1.1970 C.3   1 <1>   0.3430 
 11 C        0.1100    -3.0900     0.7590 C.3   1 <1>   0.3430 
 12 C       -1.3500    -5.4100    -0.1980 C.3   1 <1>   0.0000 
 13 C       -1.0570    -3.5500     1.6300 C.3   1 <1>  -0.1600 
 14 C       -1.9810    -4.5570     0.9330 C.3   1 <1>   0.2000 
 15 C       -2.5180    -6.0880    -0.9540 C.3   1 <1>   0.1200 
 16 C       -0.3940    -6.5470     0.2890 C.3   1 <1>  -0.0170 
 17 O       -2.5670    -5.3620     1.8890 O.3   1 <1>  -0.6800 
 18 O       -2.0650    -6.5860    -2.1690 O.3   1 <1>  -0.6800 
 19 C        0.9390    -6.1020     0.8770 C.ar  1 <1>  -0.1440 
 20 C        2.0270    -5.8630     0.0480 C.ar  1 <1>  -0.1500 
 21 C        1.0890    -5.9470     2.2470 C.ar  1 <1>  -0.1500 
 22 C        3.2280    -5.4210     0.5750 C.ar  1 <1>  -0.1500 
 23 C        2.2890    -5.5050     2.7760 C.ar  1 <1>  -0.1500 
 24 C        3.3560    -5.2330     1.9390 C.ar  1 <1>  -0.1500 
 25 H        1.7310    -3.0130    -1.3380 H     1 <1>   0.0800 
 26 H        0.5640    -2.5630    -2.5580 H     1 <1>   0.0800 
 27 H        0.8770     3.5360    -0.7810 H     1 <1>   0.0800 
 28 H       -0.7010     2.9370    -1.2280 H     1 <1>   0.0800 
 29 H        0.5620     3.0660    -2.4310 H     1 <1>   0.0800 
 30 H       -1.1050    -2.4910    -0.7720 H     1 <1>   0.4500 
 31 H        2.4120     2.6290     0.7180 H     1 <1>   0.0800 
 32 H        3.5870     1.3510     0.5440 H     1 <1>   0.0800 
 33 H        2.3310     1.2240     1.7520 H     1 <1>   0.0800 
 34 H       -1.2460    -4.3630    -2.0710 H     1 <1>   0.0800 
 35 H        0.2700    -4.9730    -1.5260 H     1 <1>   0.0800 
 36 H        0.9590    -3.7350     0.9090 H     1 <1>   0.0800 
 37 H        0.4060    -2.0980     1.0640 H     1 <1>   0.0800 
 38 H       -1.6390    -2.6860     1.9000 H     1 <1>   0.0800 
 39 H       -0.6580    -3.9490     2.5430 H     1 <1>   0.0800 
 40 H       -2.7870    -3.9880     0.4980 H     1 <1>   0.0800 
 41 H       -3.3090    -5.3870    -1.1640 H     1 <1>   0.0800 
 42 H       -2.9260    -6.9030    -0.3780 H     1 <1>   0.0800 
 43 H       -0.9020    -7.1690     1.0060 H     1 <1>   0.0800 
 44 H       -0.1680    -7.1950    -0.5400 H     1 <1>   0.0800 
 45 H       -1.8970    -5.7970     2.4510 H     1 <1>   0.4000 
 46 H       -2.7540    -7.1430    -2.5940 H     1 <1>   0.4000 
 47 H        1.9580    -6.0310    -1.0120 H     1 <1>   0.1500 
 48 H        0.2790    -6.1710     2.9180 H     1 <1>   0.1500 
 49 H        4.0700    -5.2340    -0.0700 H     1 <1>   0.1500 
 50 H        2.3990    -5.3800     3.8400 H     1 <1>   0.1500 
 51 H        4.2910    -4.8910     2.3520 H     1 <1>   0.1500 
@<TRIPOS>BOND
  1   1   2  1   
  2   1   3  1   
  3   2   4  2   
  4   2   5  1   
  5   3   6  2   
  6   3   7  1   
  7   4   6  1   
  8   5   8  1   
  9   5  25  1   
 10   5  26  1   
 11   6   9  1   
 12   7  27  1   
 13   7  28  1   
 14   7  29  1   
 15   8  10  1   
 16   8  11  1   
 17   8  30  1   
 18   9  31  1   
 19   9  32  1   
 20   9  33  1   
 21  10  12  1   
 22  10  34  1   
 23  10  35  1   
 24  11  13  1   
 25  11  36  1   
 26  11  37  1   
 27  12  14  1   
 28  12  15  1   
 29  12  16  1   
 30  13  14  1   
 31  13  38  1   
 32  13  39  1   
 33  14  17  1   
 34  14  40  1   
 35  15  18  1   
 36  15  41  1   
 37  15  42  1   
 38  16  19  1   
 39  16  43  1   
 40  16  44  1   
 41  17  45  1   
 42  18  46  1   
 43  19  20  ar  
 44  19  21  ar  
 45  20  22  ar  
 46  20  47  1   
 47  21  23  ar  
 48  21  48  1   
 49  22  24  ar  
 50  22  49  1   
 51  23  24  ar  
 52  23  50  1   
 53  24  51  1   
@<TRIPOS>SUBSTRUCTURE
  1 ****  11 GROUP 4 **** **** 0

# MOE 2024.06 (io_trps.svl 2023.06)
