@<TRIPOS>MOLECULE
NONAME
37 38 1 0 0 
SMALL
USER_CHARGES


@<TRIPOS>ATOM
  1 S        0.4710     0.5580    -1.0380 S.3   1 <1>  -0.0800 
  2 C        1.6310    -0.4650    -0.1960 C.2   1 <1>   0.4620 
  3 C       -0.2980    -0.8580    -1.6770 C.2   1 <1>  -0.1100 
  4 N        1.4330    -1.7180    -0.3930 N.2   1 <1>  -0.5650 
  5 N        2.6210     0.1060     0.5810 N.pl3 1 <1>  -0.8220 
  6 C        0.3380    -1.9640    -1.2350 C.2   1 <1>   0.1410 
  7 C        2.6940     1.5670     0.8630 C.3   1 <1>   0.2090 
  8 C        3.4600    -0.7700     1.4490 C.3   1 <1>   0.1290 
  9 C       -0.0410    -3.3300    -1.5730 C.2   1 <1>   0.7160 
 10 C        3.4000     2.3140    -0.2780 C.3   1 <1>  -0.0800 
 11 O       -0.9750    -3.5780    -2.3070 O.2   1 <1>  -0.5700 
 12 N        0.6420    -4.3850    -1.0750 N.am  1 <1>  -0.8000 
 13 C        4.7950     1.7610    -0.6130 C.3   1 <1>   0.1400 
 14 C        3.6050     3.8120     0.0240 C.3   1 <1>  -0.0990 
 15 N        5.6000     2.9650    -0.8850 N.am  1 <1>  -0.6600 
 16 C        4.9580     4.1080    -0.5580 C.2   1 <1>   0.5690 
 17 C        6.9390     2.8790    -1.5060 C.3   1 <1>   0.1400 
 18 O        5.3810     5.2290    -0.6940 O.2   1 <1>  -0.5700 
 19 C        7.9280     2.2720    -0.5150 C.3   1 <1>  -0.2400 
 20 H       -1.1500    -0.7360    -2.3210 H     1 <1>   0.1500 
 21 H        3.2310     1.7270     1.7830 H     1 <1>   0.0800 
 22 H        1.7010     1.9620     0.9990 H     1 <1>   0.0800 
 23 H        3.6080    -1.7280     0.9820 H     1 <1>   0.0800 
 24 H        2.9680    -0.9170     2.3940 H     1 <1>   0.0800 
 25 H        4.4230    -0.3230     1.6180 H     1 <1>   0.0800 
 26 H        2.8020     2.2360    -1.1690 H     1 <1>   0.0800 
 27 H        0.3730    -5.3370    -1.3130 H     1 <1>   0.3700 
 28 H        1.4390    -4.2340    -0.4550 H     1 <1>   0.3700 
 29 H        4.7600     1.1140    -1.4720 H     1 <1>   0.0800 
 30 H        5.2210     1.2360     0.2230 H     1 <1>   0.0800 
 31 H        3.6400     4.0120     1.0790 H     1 <1>   0.0800 
 32 H        2.8530     4.4210    -0.4410 H     1 <1>   0.0800 
 33 H        7.2660     3.8680    -1.7830 H     1 <1>   0.0800 
 34 H        6.8830     2.2800    -2.3980 H     1 <1>   0.0800 
 35 H        7.9630     2.8680     0.3800 H     1 <1>   0.0800 
 36 H        8.9100     2.2560    -0.9520 H     1 <1>   0.0800 
 37 H        7.6490     1.2650    -0.2680 H     1 <1>   0.0800 
@<TRIPOS>BOND
  1   1   2  1   
  2   1   3  1   
  3   2   4  2   
  4   2   5  1   
  5   3   6  2   
  6   3  20  1   
  7   4   6  1   
  8   5   7  1   
  9   5   8  1   
 10   6   9  1   
 11   7  10  1   
 12   7  21  1   
 13   7  22  1   
 14   8  23  1   
 15   8  24  1   
 16   8  25  1   
 17   9  11  2   
 18   9  12  am  
 19  10  13  1   
 20  10  14  1   
 21  10  26  1   
 22  12  27  1   
 23  12  28  1   
 24  13  15  1   
 25  13  29  1   
 26  13  30  1   
 27  14  16  1   
 28  14  31  1   
 29  14  32  1   
 30  15  16  am  
 31  15  17  1   
 32  16  18  2   
 33  17  19  1   
 34  17  33  1   
 35  17  34  1   
 36  19  35  1   
 37  19  36  1   
 38  19  37  1   
@<TRIPOS>SUBSTRUCTURE
  1 ****   5 GROUP 4 **** **** 0

# MOE 2024.06 (io_trps.svl 2023.06)
