@<TRIPOS>MOLECULE
NONAME
51 55 1 0 0 
SMALL
USER_CHARGES


@<TRIPOS>ATOM
  1 S        0.1740     1.0630     1.3080 S.o2  1 <1>   1.4470 
  2 O       -0.4940     0.3870     2.4010 O.2   1 <1>  -0.6500 
  3 O        0.4460     2.4800     1.4200 O.2   1 <1>  -0.6500 
  4 N       -0.7660     0.8410    -0.0870 N.am  1 <1>  -0.8490 
  5 C        1.7140     0.1980     0.8960 C.ar  1 <1>  -0.0090 
  6 C       -1.7970     1.8720    -0.3200 C.3   1 <1>   0.1960 
  7 C       -1.2340    -0.5400    -0.3120 C.3   1 <1>   0.1960 
  8 C        2.3520     0.4240    -0.3190 C.ar  1 <1>  -0.1500 
  9 C        2.2950    -0.7050     1.7830 C.ar  1 <1>  -0.1500 
 10 C       -3.0800     1.6990     0.5360 C.3   1 <1>   0.1440 
 11 C       -2.7640    -0.6960    -0.2550 C.3   1 <1>  -0.1600 
 12 C        3.5250    -0.2330    -0.6440 C.ar  1 <1>   0.0830 
 13 C        3.4680    -1.3730     1.4680 C.ar  1 <1>  -0.1500 
 14 C       -4.2100     2.3830    -0.2210 C.ar  1 <1>   0.1660 
 15 C       -3.3900     0.2080     0.8160 C.3   1 <1>  -0.1600 
 16 C       -3.0450     2.5220     1.8540 C.3   1 <1>  -0.1600 
 17 O        4.1150     0.0310    -1.8360 O.3   1 <1>  -0.3630 
 18 C        4.0830    -1.1450     0.2520 C.ar  1 <1>   0.0830 
 19 N       -4.7940     1.9190    -1.3050 N.ar  1 <1>  -0.6200 
 20 C       -4.5530     3.5730     0.3480 C.ar  1 <1>  -0.1430 
 21 C       -3.7200     3.8730     1.5670 C.3   1 <1>  -0.0170 
 22 C        5.4570    -0.3910    -1.9910 C.3   1 <1>   0.1200 
 23 O        5.2190    -1.8210    -0.0490 O.3   1 <1>  -0.3630 
 24 C       -5.7500     2.6990    -1.7910 C.ar  1 <1>   0.4770 
 25 C       -5.5570     4.3010    -0.2400 C.ar  1 <1>   0.1600 
 26 C        5.6460    -1.7940    -1.3990 C.3   1 <1>   0.1200 
 27 N       -6.1690     3.8670    -1.3220 N.ar  1 <1>  -0.6200 
 28 C       -6.4510     2.1940    -3.0280 C.3   1 <1>  -0.0970 
 29 H       -2.0770     1.8070    -1.3590 H     1 <1>   0.0800 
 30 H       -1.3870     2.8570    -0.1800 H     1 <1>   0.0800 
 31 H       -0.7930    -1.1980     0.4200 H     1 <1>   0.0800 
 32 H       -0.8880    -0.8670    -1.2780 H     1 <1>   0.0800 
 33 H        1.9320     1.1220    -1.0220 H     1 <1>   0.1500 
 34 H        1.8220    -0.8900     2.7340 H     1 <1>   0.1500 
 35 H       -3.0070    -1.7240    -0.0540 H     1 <1>   0.0800 
 36 H       -3.1810    -0.4520    -1.2170 H     1 <1>   0.0800 
 37 H        3.9070    -2.0700     2.1590 H     1 <1>   0.1500 
 38 H       -4.4540     0.0540     0.8570 H     1 <1>   0.0800 
 39 H       -2.9830    -0.0770     1.7700 H     1 <1>   0.0800 
 40 H       -2.0530     2.6570     2.2430 H     1 <1>   0.0800 
 41 H       -3.6290     2.0160     2.6030 H     1 <1>   0.0800 
 42 H       -2.9840     4.6220     1.3300 H     1 <1>   0.0800 
 43 H       -4.3230     4.1980     2.3960 H     1 <1>   0.0800 
 44 H        6.0910     0.3170    -1.4860 H     1 <1>   0.0800 
 45 H        5.6880    -0.3840    -3.0410 H     1 <1>   0.0800 
 46 H       -5.8620     5.2460     0.1760 H     1 <1>   0.1500 
 47 H        6.6810    -2.0840    -1.4240 H     1 <1>   0.0800 
 48 H        5.0640    -2.5130    -1.9480 H     1 <1>   0.0800 
 49 H       -5.7910     1.5670    -3.5990 H     1 <1>   0.0800 
 50 H       -6.7610     3.0210    -3.6390 H     1 <1>   0.0800 
 51 H       -7.3140     1.6270    -2.7380 H     1 <1>   0.0800 
@<TRIPOS>BOND
  1   1   2  2   
  2   1   3  2   
  3   1   4  am  
  4   1   5  1   
  5   4   6  1   
  6   4   7  1   
  7   5   8  ar  
  8   5   9  ar  
  9   6  10  1   
 10   6  29  1   
 11   6  30  1   
 12   7  11  1   
 13   7  31  1   
 14   7  32  1   
 15   8  12  ar  
 16   8  33  1   
 17   9  13  ar  
 18   9  34  1   
 19  10  14  1   
 20  10  15  1   
 21  10  16  1   
 22  11  15  1   
 23  11  35  1   
 24  11  36  1   
 25  12  17  1   
 26  12  18  ar  
 27  13  18  ar  
 28  13  37  1   
 29  14  19  ar  
 30  14  20  ar  
 31  15  38  1   
 32  15  39  1   
 33  16  21  1   
 34  16  40  1   
 35  16  41  1   
 36  17  22  1   
 37  18  23  1   
 38  19  24  ar  
 39  20  21  1   
 40  20  25  ar  
 41  21  42  1   
 42  21  43  1   
 43  22  26  1   
 44  22  44  1   
 45  22  45  1   
 46  23  26  1   
 47  24  27  ar  
 48  24  28  1   
 49  25  27  ar  
 50  25  46  1   
 51  26  47  1   
 52  26  48  1   
 53  28  49  1   
 54  28  50  1   
 55  28  51  1   
@<TRIPOS>SUBSTRUCTURE
  1 ****   4 GROUP 4 **** **** 0

# MOE 2024.06 (io_trps.svl 2023.06)
