@<TRIPOS>MOLECULE
NONAME
58 61 1 0 0 
SMALL
USER_CHARGES


@<TRIPOS>ATOM
  1 O       -1.0390     3.1860    -2.4920 O.co2 1 <1>  -0.9000 
  2 C       -1.3800     2.6530    -1.4290 C.2   1 <1>   0.9060 
  3 O       -2.5480     2.6430    -1.0450 O.co2 1 <1>  -0.9000 
  4 C       -0.2870     2.1420    -0.5130 C.3   1 <1>  -0.1060 
  5 C       -0.7040     2.1680     0.9750 C.3   1 <1>   0.2000 
  6 C        0.8730     3.1250    -0.6430 C.3   1 <1>   0.3430 
  7 C        0.0690     0.7280    -1.0440 C.3   1 <1>  -0.0170 
  8 O        0.3780     1.7770     1.7540 O.3   1 <1>  -0.6800 
  9 C       -1.0870     3.5650     1.4910 C.3   1 <1>  -0.1600 
 10 N        0.5610     4.5330    -0.1780 N.4   1 <1>  -0.9590 
 11 C        1.2380     0.0330    -0.3570 C.ar  1 <1>  -0.1430 
 12 C       -0.7630     4.6990     0.5200 C.3   1 <1>   0.3430 
 13 C        0.5840     5.4180    -1.3790 C.3   1 <1>   0.4860 
 14 C        1.0000    -0.9000     0.6420 C.ar  1 <1>  -0.1500 
 15 C        2.5450     0.3160    -0.7240 C.ar  1 <1>  -0.1500 
 16 C        0.5180     6.8660    -0.9560 C.ar  1 <1>  -0.1430 
 17 C        2.0570    -1.5190     1.2870 C.ar  1 <1>  -0.1500 
 18 C        3.6020    -0.3040    -0.0810 C.ar  1 <1>  -0.1500 
 19 C       -0.6360     7.5970    -1.1030 C.ar  1 <1>   0.1600 
 20 C        1.6000     7.5150    -0.4110 C.ar  1 <1>   0.1600 
 21 C        3.3580    -1.2180     0.9280 C.ar  1 <1>  -0.1500 
 22 N       -0.7180     8.8470    -0.7230 N.ar  1 <1>  -0.6200 
 23 N        1.5420     8.7640    -0.0260 N.ar  1 <1>  -0.6200 
 24 C        0.3790     9.3910    -0.1970 C.ar  1 <1>   0.7200 
 25 N        0.3030    10.7070     0.2070 N.pl3 1 <1>  -0.8380 
 26 C        1.4410    11.4520     0.8330 C.3   1 <1>   0.2090 
 27 C       -0.9220    11.5540     0.0460 C.3   1 <1>   0.2090 
 28 C        1.6520    12.8100     0.1410 C.3   1 <1>   0.1200 
 29 C       -0.5690    12.9070    -0.5980 C.3   1 <1>   0.1200 
 30 O        0.4610    13.5480     0.1020 O.3   1 <1>  -0.5600 
 31 H       -1.5090     1.4730     1.1530 H     1 <1>   0.0800 
 32 H        1.1850     3.1410    -1.6760 H     1 <1>   0.0800 
 33 H        1.6950     2.7440    -0.0600 H     1 <1>   0.0800 
 34 H       -0.8060     0.1040    -0.9650 H     1 <1>   0.0800 
 35 H        0.2910     0.7950    -2.0970 H     1 <1>   0.0800 
 36 H        0.7170     0.9040     1.4450 H     1 <1>   0.4000 
 37 H       -2.1530     3.5780     1.6340 H     1 <1>   0.0800 
 38 H       -0.6420     3.7650     2.4490 H     1 <1>   0.0800 
 39 H        1.2920     4.8090     0.4840 H     1 <1>   0.4500 
 40 H       -0.7930     5.6420     1.0420 H     1 <1>   0.0800 
 41 H       -1.5460     4.7220    -0.2240 H     1 <1>   0.0800 
 42 H        1.4850     5.2490    -1.9450 H     1 <1>   0.0800 
 43 H       -0.2540     5.1890    -2.0200 H     1 <1>   0.0800 
 44 H       -0.0080    -1.1520     0.9250 H     1 <1>   0.1500 
 45 H        2.7500     1.0130    -1.5180 H     1 <1>   0.1500 
 46 H        1.8670    -2.2380     2.0650 H     1 <1>   0.1500 
 47 H        4.6150    -0.0800    -0.3670 H     1 <1>   0.1500 
 48 H       -1.5160     7.1490    -1.5370 H     1 <1>   0.1500 
 49 H        2.5390     7.0040    -0.2830 H     1 <1>   0.1500 
 50 H        4.1800    -1.7000     1.4300 H     1 <1>   0.1500 
 51 H        1.2220    11.6190     1.8730 H     1 <1>   0.0800 
 52 H        2.3580    10.8940     0.7780 H     1 <1>   0.0800 
 53 H       -1.6610    11.0680    -0.5640 H     1 <1>   0.0800 
 54 H       -1.3580    11.7280     1.0130 H     1 <1>   0.0800 
 55 H        2.0010    12.6640    -0.8670 H     1 <1>   0.0800 
 56 H        2.3800    13.3900     0.6780 H     1 <1>   0.0800 
 57 H       -1.4260    13.5560    -0.5870 H     1 <1>   0.0800 
 58 H       -0.2570    12.7640    -1.6180 H     1 <1>   0.0800 
@<TRIPOS>BOND
  1   1   2  ar  
  2   2   3  ar  
  3   2   4  1   
  4   4   5  1   
  5   4   6  1   
  6   4   7  1   
  7   5   8  1   
  8   5   9  1   
  9   5  31  1   
 10   6  10  1   
 11   6  32  1   
 12   6  33  1   
 13   7  11  1   
 14   7  34  1   
 15   7  35  1   
 16   8  36  1   
 17   9  12  1   
 18   9  37  1   
 19   9  38  1   
 20  10  12  1   
 21  10  13  1   
 22  10  39  1   
 23  11  14  ar  
 24  11  15  ar  
 25  12  40  1   
 26  12  41  1   
 27  13  16  1   
 28  13  42  1   
 29  13  43  1   
 30  14  17  ar  
 31  14  44  1   
 32  15  18  ar  
 33  15  45  1   
 34  16  19  ar  
 35  16  20  ar  
 36  17  21  ar  
 37  17  46  1   
 38  18  21  ar  
 39  18  47  1   
 40  19  22  ar  
 41  19  48  1   
 42  20  23  ar  
 43  20  49  1   
 44  21  50  1   
 45  22  24  ar  
 46  23  24  ar  
 47  24  25  1   
 48  25  26  1   
 49  25  27  1   
 50  26  28  1   
 51  26  51  1   
 52  26  52  1   
 53  27  29  1   
 54  27  53  1   
 55  27  54  1   
 56  28  30  1   
 57  28  55  1   
 58  28  56  1   
 59  29  30  1   
 60  29  57  1   
 61  29  58  1   
@<TRIPOS>SUBSTRUCTURE
  1 ****  10 GROUP 4 **** **** 0

# MOE 2024.06 (io_trps.svl 2023.06)
