@<TRIPOS>MOLECULE
NONAME
40 42 1 0 0 
SMALL
USER_CHARGES


@<TRIPOS>ATOM
  1 S        0.9120    -0.7950     1.8040 S.o2  1 <1>   1.5010 
  2 O        0.5850     0.1180     2.8710 O.2   1 <1>  -0.6500 
  3 O        2.0130    -1.7220     1.9480 O.2   1 <1>  -0.6500 
  4 N       -0.4730    -1.7160     1.6020 N.am  1 <1>  -0.9140 
  5 C        1.0220     0.0720     0.2370 C.2   1 <1>  -0.0630 
  6 C       -0.2700    -2.9870     0.9180 C.3   1 <1>   0.2760 
  7 C       -0.0370     0.7510    -0.3500 C.2   1 <1>   0.1390 
  8 C        2.0420     0.2500    -0.6410 C.2   1 <1>  -0.3020 
  9 C       -1.6000    -3.5100     0.3930 C.3   1 <1>  -0.0800 
 10 C        0.0620    -4.0800     1.9330 C.3   1 <1>   0.1200 
 11 N        0.2800     1.2900    -1.4880 N.2   1 <1>  -0.7070 
 12 N        1.5730     0.9850    -1.6640 N.pl3 1 <1>   0.3140 
 13 C       -2.2010    -4.2150     1.6160 C.3   1 <1>   0.1200 
 14 C       -2.5310    -2.4660    -0.2540 C.3   1 <1>  -0.0160 
 15 O       -1.1580    -4.3900     2.5310 O.3   1 <1>  -0.5600 
 16 C        2.3160     1.4400    -2.8460 C.3   1 <1>   0.0160 
 17 C       -3.7920    -3.1270    -0.7870 C.ar  1 <1>  -0.1430 
 18 C       -3.8120    -3.7790    -2.0030 C.ar  1 <1>  -0.1500 
 19 C       -4.9790    -3.1140    -0.0820 C.ar  1 <1>  -0.1500 
 20 C       -4.9820    -4.3760    -2.4400 C.ar  1 <1>   0.1600 
 21 C       -6.0940    -3.7430    -0.6090 C.ar  1 <1>   0.1600 
 22 N       -6.1230    -4.3770    -1.7700 N.ar  1 <1>  -0.6200 
 23 H       -0.7630    -1.9580     2.5510 H     1 <1>   0.4200 
 24 H        0.4670    -2.9010     0.1350 H     1 <1>   0.0800 
 25 H       -1.0200     0.8240     0.0870 H     1 <1>   0.1500 
 26 H        3.0560    -0.1040    -0.5800 H     1 <1>   0.1500 
 27 H       -1.3890    -4.2690    -0.3400 H     1 <1>   0.0800 
 28 H        0.7670    -3.7760     2.6860 H     1 <1>   0.0800 
 29 H        0.4220    -4.9650     1.4370 H     1 <1>   0.0800 
 30 H       -2.6110    -5.1780     1.3610 H     1 <1>   0.0800 
 31 H       -2.9540    -3.6140     2.0940 H     1 <1>   0.0800 
 32 H       -2.0170    -1.9750    -1.0610 H     1 <1>   0.0800 
 33 H       -2.8050    -1.7090     0.4610 H     1 <1>   0.0800 
 34 H        3.2240     0.8760    -2.9420 H     1 <1>   0.0800 
 35 H        2.5420     2.4840    -2.7330 H     1 <1>   0.0800 
 36 H        1.7050     1.2980    -3.7180 H     1 <1>   0.0800 
 37 H       -2.9300    -3.8290    -2.6160 H     1 <1>   0.1500 
 38 H       -5.0490    -2.6210     0.8700 H     1 <1>   0.1500 
 39 H       -4.9810    -4.8810    -3.3920 H     1 <1>   0.1500 
 40 H       -7.0120    -3.7230    -0.0470 H     1 <1>   0.1500 
@<TRIPOS>BOND
  1   1   2  2   
  2   1   3  2   
  3   1   4  am  
  4   1   5  1   
  5   4   6  1   
  6   4  23  1   
  7   5   7  1   
  8   5   8  2   
  9   6   9  1   
 10   6  10  1   
 11   6  24  1   
 12   7  11  2   
 13   7  25  1   
 14   8  12  1   
 15   8  26  1   
 16   9  13  1   
 17   9  14  1   
 18   9  27  1   
 19  10  15  1   
 20  10  28  1   
 21  10  29  1   
 22  11  12  1   
 23  12  16  1   
 24  13  15  1   
 25  13  30  1   
 26  13  31  1   
 27  14  17  1   
 28  14  32  1   
 29  14  33  1   
 30  16  34  1   
 31  16  35  1   
 32  16  36  1   
 33  17  18  ar  
 34  17  19  ar  
 35  18  20  ar  
 36  18  37  1   
 37  19  21  ar  
 38  19  38  1   
 39  20  22  ar  
 40  20  39  1   
 41  21  22  ar  
 42  21  40  1   
@<TRIPOS>SUBSTRUCTURE
  1 ****  14 GROUP 4 **** **** 0

# MOE 2024.06 (io_trps.svl 2023.06)
