@<TRIPOS>MOLECULE
NONAME
51 54 1 0 0 
SMALL
USER_CHARGES


@<TRIPOS>ATOM
  1 O       -0.9120    -1.1250    -2.3120 O.2   1 <1>  -0.5700 
  2 C       -1.5320    -1.3370    -1.3070 C.2   1 <1>   0.5690 
  3 N       -1.7160    -0.3600    -0.4030 N.am  1 <1>  -0.7300 
  4 C       -2.1410    -2.6940    -1.0790 C.3   1 <1>  -0.0190 
  5 C       -2.4680    -0.4860     0.8660 C.3   1 <1>   0.2200 
  6 C       -1.5790    -3.3650     0.1950 C.3   1 <1>   0.1200 
  7 C       -3.6680    -2.5650    -1.1770 C.3   1 <1>   0.3430 
  8 C       -1.8260    -1.5710     1.7680 C.3   1 <1>   0.1200 
  9 C       -3.9790    -0.7260     0.5810 C.3   1 <1>   0.3430 
 10 O       -2.1590    -2.8800     1.3780 O.3   1 <1>  -0.5600 
 11 N       -4.3270    -2.1110     0.0960 N.4   1 <1>  -0.9590 
 12 C       -5.7900    -2.3740     0.1070 C.3   1 <1>   0.4860 
 13 C       -6.0110    -3.8650    -0.0600 C.ar  1 <1>  -0.1430 
 14 C       -5.6430    -4.7500     0.9450 C.ar  1 <1>  -0.1500 
 15 C       -6.5710    -4.3570    -1.2300 C.ar  1 <1>  -0.1500 
 16 C       -5.8200    -6.1120     0.7780 C.ar  1 <1>  -0.1500 
 17 C       -6.7460    -5.7190    -1.3960 C.ar  1 <1>  -0.1500 
 18 C       -6.3720    -6.6050    -0.4000 C.ar  1 <1>   0.0820 
 19 O       -6.5790    -7.9200    -0.6540 O.3   1 <1>  -0.3620 
 20 C       -6.3580    -8.9360     0.3060 C.3   1 <1>   0.2000 
 21 C       -6.4560   -10.2780    -0.4100 C.3   1 <1>  -0.1600 
 22 C       -7.5280    -8.9730     1.2890 C.3   1 <1>  -0.1600 
 23 C       -7.9550   -10.5820    -0.5140 C.3   1 <1>  -0.1600 
 24 C       -8.6420    -9.7380     0.5670 C.3   1 <1>  -0.1600 
 25 H       -1.2290     0.5240    -0.5920 H     1 <1>   0.3700 
 26 H       -1.8260    -3.2980    -1.9110 H     1 <1>   0.0800 
 27 H       -2.3770     0.4570     1.3780 H     1 <1>   0.0800 
 28 H       -0.5100    -3.2400     0.2560 H     1 <1>   0.0800 
 29 H       -1.7870    -4.4210     0.1600 H     1 <1>   0.0800 
 30 H       -4.0510    -3.5380    -1.4380 H     1 <1>   0.0800 
 31 H       -3.9170    -1.8920    -1.9820 H     1 <1>   0.0800 
 32 H       -2.1860    -1.4500     2.7760 H     1 <1>   0.0800 
 33 H       -0.7530    -1.4710     1.7880 H     1 <1>   0.0800 
 34 H       -4.3140     0.0060    -0.1350 H     1 <1>   0.0800 
 35 H       -4.5110    -0.5460     1.5000 H     1 <1>   0.0800 
 36 H       -3.9080    -2.7450     0.8060 H     1 <1>   0.4500 
 37 H       -6.2200    -2.0580     1.0440 H     1 <1>   0.0800 
 38 H       -6.2730    -1.8360    -0.6920 H     1 <1>   0.0800 
 39 H       -5.2150    -4.3960     1.8680 H     1 <1>   0.1500 
 40 H       -6.8780    -3.6960    -2.0240 H     1 <1>   0.1500 
 41 H       -5.5280    -6.7740     1.5710 H     1 <1>   0.1500 
 42 H       -7.1800    -6.1100    -2.3000 H     1 <1>   0.1500 
 43 H       -5.3960    -8.7960     0.7660 H     1 <1>   0.0800 
 44 H       -5.9700   -10.2580    -1.3690 H     1 <1>   0.0800 
 45 H       -5.9890   -11.0290     0.2020 H     1 <1>   0.0800 
 46 H       -7.2280    -9.5310     2.1570 H     1 <1>   0.0800 
 47 H       -7.8430    -7.9930     1.5990 H     1 <1>   0.0800 
 48 H       -8.3170   -10.2840    -1.4830 H     1 <1>   0.0800 
 49 H       -8.1460   -11.6320    -0.3780 H     1 <1>   0.0800 
 50 H       -9.2010   -10.3500     1.2540 H     1 <1>   0.0800 
 51 H       -9.3140    -9.0380     0.0980 H     1 <1>   0.0800 
@<TRIPOS>BOND
  1   1   2  2   
  2   2   3  am  
  3   2   4  1   
  4   3   5  1   
  5   3  25  1   
  6   4   6  1   
  7   4   7  1   
  8   4  26  1   
  9   5   8  1   
 10   5   9  1   
 11   5  27  1   
 12   6  10  1   
 13   6  28  1   
 14   6  29  1   
 15   7  11  1   
 16   7  30  1   
 17   7  31  1   
 18   8  10  1   
 19   8  32  1   
 20   8  33  1   
 21   9  11  1   
 22   9  34  1   
 23   9  35  1   
 24  11  12  1   
 25  11  36  1   
 26  12  13  1   
 27  12  37  1   
 28  12  38  1   
 29  13  14  ar  
 30  13  15  ar  
 31  14  16  ar  
 32  14  39  1   
 33  15  17  ar  
 34  15  40  1   
 35  16  18  ar  
 36  16  41  1   
 37  17  18  ar  
 38  17  42  1   
 39  18  19  1   
 40  19  20  1   
 41  20  21  1   
 42  20  22  1   
 43  20  43  1   
 44  21  23  1   
 45  21  44  1   
 46  21  45  1   
 47  22  24  1   
 48  22  46  1   
 49  22  47  1   
 50  23  24  1   
 51  23  48  1   
 52  23  49  1   
 53  24  50  1   
 54  24  51  1   
@<TRIPOS>SUBSTRUCTURE
  1 ****  14 GROUP 4 **** **** 0

# MOE 2024.06 (io_trps.svl 2023.06)
