@<TRIPOS>MOLECULE
NONAME
41 43 1 0 0 
SMALL
USER_CHARGES


@<TRIPOS>ATOM
  1 CL       0.2750     0.0790     1.7720 Cl    1 <1>  -0.1230 
  2 C        1.0390    -1.3730     1.1530 C.2   1 <1>   0.1230 
  3 C        2.0970    -1.4350     0.3100 C.2   1 <1>  -0.3020 
  4 C        0.6430    -2.6650     1.4640 C.2   1 <1>  -0.1500 
  5 N        2.3810    -2.7420     0.0790 N.pl3 1 <1>   0.0480 
  6 C        1.4800    -3.5170     0.7800 C.2   1 <1>  -0.2370 
  7 C        3.4810    -3.2270    -0.7770 C.3   1 <1>   0.0160 
  8 C        1.4910    -4.9570     0.7600 C.2   1 <1>   0.7150 
  9 O        2.5470    -5.5580     0.8330 O.2   1 <1>  -0.5700 
 10 N        0.3290    -5.6820     0.6400 N.am  1 <1>  -0.6600 
 11 C       -0.9690    -5.1350     0.1630 C.3   1 <1>   0.1400 
 12 C        0.3260    -7.1650     0.5200 C.3   1 <1>   0.1400 
 13 C       -1.9230    -6.3270     0.2010 C.3   1 <1>   0.2000 
 14 C       -1.0190    -7.5160    -0.1260 C.3   1 <1>  -0.0800 
 15 O       -2.4000    -6.4480     1.4980 O.3   1 <1>  -0.6800 
 16 C       -1.5610    -8.8990     0.2780 C.3   1 <1>   0.0210 
 17 C       -0.5730    -9.9920    -0.0780 C.2   1 <1>   0.1080 
 18 N       -0.1590   -10.2010    -1.2890 N.2   1 <1>  -0.7070 
 19 C        0.0010   -10.8730     0.8320 C.2   1 <1>  -0.1500 
 20 N        0.6990   -11.2330    -1.1830 N.pl3 1 <1>   0.3000 
 21 C        0.8140   -11.6570     0.0930 C.2   1 <1>  -0.3320 
 22 C        1.7070   -12.8010     0.5340 C.3   1 <1>  -0.0600 
 23 H        2.6500    -0.6220    -0.1220 H     1 <1>   0.1500 
 24 H       -0.1640    -2.9150     2.1280 H     1 <1>   0.1500 
 25 H        3.9230    -2.4030    -1.3050 H     1 <1>   0.0800 
 26 H        3.0980    -3.9420    -1.4820 H     1 <1>   0.0800 
 27 H        4.2240    -3.7000    -0.1610 H     1 <1>   0.0800 
 28 H       -1.3280    -4.3320     0.7810 H     1 <1>   0.0800 
 29 H       -0.8520    -4.7880    -0.8490 H     1 <1>   0.0800 
 30 H        1.1470    -7.5110    -0.0860 H     1 <1>   0.0800 
 31 H        0.4070    -7.5970     1.5030 H     1 <1>   0.0800 
 32 H       -2.7610    -6.2250    -0.4680 H     1 <1>   0.0800 
 33 H       -0.8630    -7.5230    -1.1910 H     1 <1>   0.0800 
 34 H       -1.6420    -6.3870     2.1130 H     1 <1>   0.4000 
 35 H       -2.4840    -9.0870    -0.2390 H     1 <1>   0.0800 
 36 H       -1.7580    -8.9360     1.3340 H     1 <1>   0.0800 
 37 H       -0.1820   -10.9010     1.8920 H     1 <1>   0.1500 
 38 H        1.1880   -11.6220    -1.9970 H     1 <1>   0.2700 
 39 H        1.6250   -12.9470     1.5960 H     1 <1>   0.0800 
 40 H        2.7340   -12.5850     0.2970 H     1 <1>   0.0800 
 41 H        1.4160   -13.7120     0.0400 H     1 <1>   0.0800 
@<TRIPOS>BOND
  1   1   2  1   
  2   2   3  2   
  3   2   4  1   
  4   3   5  1   
  5   3  23  1   
  6   4   6  2   
  7   4  24  1   
  8   5   6  1   
  9   5   7  1   
 10   6   8  1   
 11   7  25  1   
 12   7  26  1   
 13   7  27  1   
 14   8   9  2   
 15   8  10  am  
 16  10  11  1   
 17  10  12  1   
 18  11  13  1   
 19  11  28  1   
 20  11  29  1   
 21  12  14  1   
 22  12  30  1   
 23  12  31  1   
 24  13  14  1   
 25  13  15  1   
 26  13  32  1   
 27  14  16  1   
 28  14  33  1   
 29  15  34  1   
 30  16  17  1   
 31  16  35  1   
 32  16  36  1   
 33  17  18  2   
 34  17  19  1   
 35  18  20  1   
 36  19  21  2   
 37  19  37  1   
 38  20  21  1   
 39  20  38  1   
 40  21  22  1   
 41  22  39  1   
 42  22  40  1   
 43  22  41  1   
@<TRIPOS>SUBSTRUCTURE
  1 ****  10 GROUP 4 **** **** 0

# MOE 2024.06 (io_trps.svl 2023.06)
