@<TRIPOS>MOLECULE
NONAME
58 61 1 0 0 
SMALL
USER_CHARGES


@<TRIPOS>ATOM
  1 O        0.7020    -0.1140     1.3570 O.3   1 <1>  -0.5600 
  2 C        1.8160     0.6860     1.0760 C.3   1 <1>   0.1200 
  3 C        0.5460    -1.2290     0.5230 C.3   1 <1>   0.1200 
  4 C        3.1210    -0.1380     1.1680 C.3   1 <1>   0.4230 
  5 C        1.7880    -2.1480     0.6090 C.3   1 <1>   0.4230 
  6 N        3.0430    -1.3840     0.3130 N.4   1 <1>  -0.9590 
  7 C        4.3520     0.7340     0.8090 C.3   1 <1>   0.1100 
  8 C        1.6810    -3.3870    -0.2940 C.3   1 <1>  -0.1600 
  9 C        3.2760    -1.0300    -1.1290 C.3   1 <1>   0.3430 
 10 N        5.3180     0.0310    -0.0740 N.3   1 <1>  -0.8100 
 11 C        0.6290    -4.3900     0.2060 C.3   1 <1>  -0.1600 
 12 C        4.6890    -0.4410    -1.3350 C.3   1 <1>   0.1100 
 13 C        6.5470     0.8320    -0.3240 C.3   1 <1>   0.2900 
 14 C        0.6110    -5.6440    -0.6710 C.3   1 <1>  -0.2400 
 15 C        6.3550     2.1830    -1.0330 C.2   1 <1>   0.0060 
 16 N        5.2490     2.6770    -1.5070 N.2   1 <1>  -0.5650 
 17 N        7.4360     2.9950    -1.2130 N.pl3 1 <1>   0.3260 
 18 C        5.6160     3.8660    -2.0210 C.2   1 <1>   0.0770 
 19 C        8.7800     2.7800    -0.8210 C.ar  1 <1>  -0.0230 
 20 C        6.9360     4.0730    -1.8510 C.2   1 <1>  -0.3020 
 21 C        9.2400     3.2530     0.4030 C.ar  1 <1>  -0.1500 
 22 C        9.6540     2.0880    -1.6510 C.ar  1 <1>  -0.1500 
 23 C       10.5480     3.0310     0.7960 C.ar  1 <1>  -0.1500 
 24 C       10.9610     1.8660    -1.2580 C.ar  1 <1>  -0.1500 
 25 C       11.4170     2.3320    -0.0360 C.ar  1 <1>   0.0820 
 26 O       12.7120     2.0690     0.2710 O.3   1 <1>  -0.3620 
 27 C       13.2810     2.5090     1.4850 C.3   1 <1>   0.0400 
 28 H        1.6930     1.1180     0.0980 H     1 <1>   0.0800 
 29 H        1.8320     1.4840     1.7990 H     1 <1>   0.0800 
 30 H       -0.3320    -1.7530     0.8570 H     1 <1>   0.0800 
 31 H        0.3770    -0.8890    -0.4840 H     1 <1>   0.0800 
 32 H        3.2300    -0.4370     2.1970 H     1 <1>   0.0800 
 33 H        1.8440    -2.4980     1.6270 H     1 <1>   0.0800 
 34 H        3.8670    -1.9350     0.5860 H     1 <1>   0.4500 
 35 H        4.8450     1.0260     1.7210 H     1 <1>   0.0800 
 36 H        4.0110     1.6370     0.3360 H     1 <1>   0.0800 
 37 H        1.4260    -3.0960    -1.2980 H     1 <1>   0.0800 
 38 H        2.6340    -3.8890    -0.3120 H     1 <1>   0.0800 
 39 H        3.1700    -1.8980    -1.7580 H     1 <1>   0.0800 
 40 H        2.5470    -0.3030    -1.4460 H     1 <1>   0.0800 
 41 H        0.8480    -4.6790     1.2210 H     1 <1>   0.0800 
 42 H       -0.3540    -3.9480     0.1900 H     1 <1>   0.0800 
 43 H        4.6160     0.3540    -2.0560 H     1 <1>   0.0800 
 44 H        5.3210    -1.1970    -1.7690 H     1 <1>   0.0800 
 45 H        7.0280     1.0130     0.6220 H     1 <1>   0.0800 
 46 H        7.2270     0.2370    -0.9090 H     1 <1>   0.0800 
 47 H        1.5670    -6.1380    -0.6520 H     1 <1>   0.0800 
 48 H        0.3680    -5.3950    -1.6900 H     1 <1>   0.0800 
 49 H       -0.1310    -6.3350    -0.3080 H     1 <1>   0.0800 
 50 H        4.9000     4.5190    -2.4950 H     1 <1>   0.1500 
 51 H        7.5490     4.9080    -2.1390 H     1 <1>   0.1500 
 52 H        8.5750     3.7980     1.0500 H     1 <1>   0.1500 
 53 H        9.3170     1.7240    -2.6070 H     1 <1>   0.1500 
 54 H       10.8730     3.4090     1.7470 H     1 <1>   0.1500 
 55 H       11.6400     1.3310    -1.8980 H     1 <1>   0.1500 
 56 H       14.3080     2.1930     1.5060 H     1 <1>   0.0800 
 57 H       12.7440     2.0630     2.3030 H     1 <1>   0.0800 
 58 H       13.2280     3.5820     1.5260 H     1 <1>   0.0800 
@<TRIPOS>BOND
  1   1   2  1   
  2   1   3  1   
  3   2   4  1   
  4   2  28  1   
  5   2  29  1   
  6   3   5  1   
  7   3  30  1   
  8   3  31  1   
  9   4   6  1   
 10   4   7  1   
 11   4  32  1   
 12   5   6  1   
 13   5   8  1   
 14   5  33  1   
 15   6   9  1   
 16   6  34  1   
 17   7  10  1   
 18   7  35  1   
 19   7  36  1   
 20   8  11  1   
 21   8  37  1   
 22   8  38  1   
 23   9  12  1   
 24   9  39  1   
 25   9  40  1   
 26  10  12  1   
 27  10  13  1   
 28  11  14  1   
 29  11  41  1   
 30  11  42  1   
 31  12  43  1   
 32  12  44  1   
 33  13  15  1   
 34  13  45  1   
 35  13  46  1   
 36  14  47  1   
 37  14  48  1   
 38  14  49  1   
 39  15  16  2   
 40  15  17  1   
 41  16  18  1   
 42  17  19  1   
 43  17  20  1   
 44  18  20  2   
 45  18  50  1   
 46  19  21  ar  
 47  19  22  ar  
 48  20  51  1   
 49  21  23  ar  
 50  21  52  1   
 51  22  24  ar  
 52  22  53  1   
 53  23  25  ar  
 54  23  54  1   
 55  24  25  ar  
 56  24  55  1   
 57  25  26  1   
 58  26  27  1   
 59  27  56  1   
 60  27  57  1   
 61  27  58  1   
@<TRIPOS>SUBSTRUCTURE
  1 ****  13 GROUP 4 **** **** 0

# MOE 2024.06 (io_trps.svl 2023.06)
