@<TRIPOS>MOLECULE
NONAME
43 45 1 0 0 
SMALL
USER_CHARGES


@<TRIPOS>ATOM
  1 CL      -0.1420    -1.2560    -0.0650 Cl    1 <1>  -0.1770 
  2 C       -1.7960    -1.7060     0.2480 C.ar  1 <1>   0.1770 
  3 C       -2.4130    -2.6380    -0.5650 C.ar  1 <1>  -0.1500 
  4 C       -2.4690    -1.1270     1.3050 C.ar  1 <1>  -0.1500 
  5 C       -3.7290    -3.0000    -0.3240 C.ar  1 <1>  -0.1440 
  6 C       -3.7830    -1.4880     1.5430 C.ar  1 <1>  -0.1500 
  7 C       -4.4380    -2.4220     0.7390 C.ar  1 <1>   0.0860 
  8 C       -4.3960    -4.0320    -1.2240 C.3   1 <1>  -0.0960 
  9 C       -5.8220    -2.7560     1.0180 C.2   1 <1>   0.5440 
 10 O       -6.0730    -3.7570     1.6630 O.2   1 <1>  -0.5700 
 11 N       -6.8570    -1.9620     0.5690 N.am  1 <1>  -0.6600 
 12 C       -8.2850    -2.2700     0.8850 C.3   1 <1>   0.1400 
 13 C       -6.6800    -0.7780    -0.3150 C.3   1 <1>   0.1400 
 14 C       -9.0970    -2.5300    -0.4090 C.3   1 <1>   0.0000 
 15 C       -7.4600    -0.9840    -1.6190 C.3   1 <1>  -0.1600 
 16 C      -10.5830    -2.8240    -0.1150 C.3   1 <1>   0.2000 
 17 C       -8.9380    -1.3220    -1.3590 C.3   1 <1>  -0.1600 
 18 C       -8.6480    -3.8480    -1.0650 C.3   1 <1>  -0.1600 
 19 O      -11.0900    -2.0760     0.9340 O.3   1 <1>  -0.6800 
 20 C      -10.6860    -4.3170     0.2050 C.3   1 <1>  -0.1600 
 21 C       -9.3870    -4.9530    -0.3070 C.3   1 <1>  -0.1600 
 22 H       -1.8550    -3.0710    -1.3760 H     1 <1>   0.1500 
 23 H       -1.9690    -0.4070     1.9280 H     1 <1>   0.1500 
 24 H       -4.3190    -1.0480     2.3670 H     1 <1>   0.1500 
 25 H       -3.6980    -4.4410    -1.9320 H     1 <1>   0.0800 
 26 H       -5.2070    -3.5800    -1.7650 H     1 <1>   0.0800 
 27 H       -4.7860    -4.8410    -0.6300 H     1 <1>   0.0800 
 28 H       -8.3530    -3.1190     1.5410 H     1 <1>   0.0800 
 29 H       -8.6960    -1.4230     1.4060 H     1 <1>   0.0800 
 30 H       -7.0520     0.0940     0.1950 H     1 <1>   0.0800 
 31 H       -5.6410    -0.6140    -0.5420 H     1 <1>   0.0800 
 32 H       -7.3970    -0.0890    -2.2110 H     1 <1>   0.0800 
 33 H       -6.9960    -1.7760    -2.1810 H     1 <1>   0.0800 
 34 H      -11.1740    -2.6060    -0.9890 H     1 <1>   0.0800 
 35 H       -9.4330    -1.5170    -2.2950 H     1 <1>   0.0800 
 36 H       -9.4170    -0.4670    -0.9120 H     1 <1>   0.0800 
 37 H       -8.9610    -3.8660    -2.0950 H     1 <1>   0.0800 
 38 H       -7.5840    -3.9940    -1.0290 H     1 <1>   0.0800 
 39 H      -10.7170    -2.3950     1.7770 H     1 <1>   0.4000 
 40 H      -10.7840    -4.4940     1.2620 H     1 <1>   0.0800 
 41 H      -11.5340    -4.7380    -0.3050 H     1 <1>   0.0800 
 42 H       -8.7870    -5.2730     0.5290 H     1 <1>   0.0800 
 43 H       -9.5780    -5.8030    -0.9390 H     1 <1>   0.0800 
@<TRIPOS>BOND
  1   1   2  1   
  2   2   3  ar  
  3   2   4  ar  
  4   3   5  ar  
  5   3  22  1   
  6   4   6  ar  
  7   4  23  1   
  8   5   7  ar  
  9   5   8  1   
 10   6   7  ar  
 11   6  24  1   
 12   7   9  1   
 13   8  25  1   
 14   8  26  1   
 15   8  27  1   
 16   9  10  2   
 17   9  11  am  
 18  11  12  1   
 19  11  13  1   
 20  12  14  1   
 21  12  28  1   
 22  12  29  1   
 23  13  15  1   
 24  13  30  1   
 25  13  31  1   
 26  14  16  1   
 27  14  17  1   
 28  14  18  1   
 29  15  17  1   
 30  15  32  1   
 31  15  33  1   
 32  16  19  1   
 33  16  20  1   
 34  16  34  1   
 35  17  35  1   
 36  17  36  1   
 37  18  21  1   
 38  18  37  1   
 39  18  38  1   
 40  19  39  1   
 41  20  21  1   
 42  20  40  1   
 43  20  41  1   
 44  21  42  1   
 45  21  43  1   
@<TRIPOS>SUBSTRUCTURE
  1 ****  11 GROUP 4 **** **** 0

# MOE 2024.06 (io_trps.svl 2023.06)
