@<TRIPOS>MOLECULE
NONAME
48 50 1 0 0 
SMALL
USER_CHARGES


@<TRIPOS>ATOM
  1 O        2.1110    -0.1040     2.6100 O.2   1 <1>  -0.5700 
  2 C        2.8400     0.0080     1.6510 C.2   1 <1>   0.7150 
  3 N        3.4460    -1.1160     1.1950 N.am  1 <1>  -0.7300 
  4 C        3.1040     1.2750     1.0350 C.2   1 <1>  -0.2370 
  5 C        4.6770    -1.0810     0.3630 C.3   1 <1>   0.1400 
  6 N        3.4010     1.4320    -0.2790 N.pl3 1 <1>   0.3140 
  7 C        3.1420     2.5250     1.5620 C.2   1 <1>  -0.1500 
  8 C        4.3450    -0.7570    -1.1060 C.3   1 <1>   0.2000 
  9 N        3.6510     2.7050    -0.5980 N.2   1 <1>  -0.7070 
 10 C        3.3290     0.3800    -1.3170 C.3   1 <1>   0.0960 
 11 C        3.4920     3.3880     0.5270 C.2   1 <1>   0.2030 
 12 O        3.8120    -1.9020    -1.6780 O.3   1 <1>  -0.6800 
 13 C        3.6530     4.8280     0.6680 C.2   1 <1>   0.7160 
 14 O        3.5340     5.3910     1.7420 O.2   1 <1>  -0.5700 
 15 N        3.9570     5.5790    -0.4320 N.am  1 <1>  -0.7300 
 16 C        4.0670     7.0580    -0.4830 C.3   1 <1>   0.1400 
 17 C        5.3960     7.5150     0.1150 C.3   1 <1>   0.1200 
 18 O        5.5360     8.9000    -0.1160 O.3   1 <1>  -0.3630 
 19 C        6.6450     9.5780     0.2820 C.ar  1 <1>   0.0830 
 20 C        6.7360    10.9230    -0.0650 C.ar  1 <1>  -0.1430 
 21 C        7.6730     8.9840     1.0110 C.ar  1 <1>  -0.1500 
 22 C        7.8500    11.6520     0.3170 C.ar  1 <1>  -0.1500 
 23 C        5.6260    11.5980    -0.8580 C.3   1 <1>  -0.0970 
 24 C        8.7850     9.7180     1.3880 C.ar  1 <1>  -0.1430 
 25 C        8.8680    11.0540     1.0380 C.ar  1 <1>  -0.1500 
 26 C        9.9060     9.0720     2.1840 C.3   1 <1>  -0.0970 
 27 H        3.3040    -1.9390     1.7860 H     1 <1>   0.3700 
 28 H        5.1940    -2.0240     0.4220 H     1 <1>   0.0800 
 29 H        5.3390    -0.3240     0.7510 H     1 <1>   0.0800 
 30 H        2.9500     2.8180     2.5800 H     1 <1>   0.1500 
 31 H        5.2540    -0.5320    -1.6390 H     1 <1>   0.0800 
 32 H        3.4940     0.8350    -2.2760 H     1 <1>   0.0800 
 33 H        2.3300    -0.0140    -1.2960 H     1 <1>   0.0800 
 34 H        3.0810    -2.2420    -1.1220 H     1 <1>   0.4000 
 35 H        4.0430     5.0600    -1.3110 H     1 <1>   0.3700 
 36 H        3.2570     7.4930     0.0780 H     1 <1>   0.0800 
 37 H        4.0000     7.3810    -1.5070 H     1 <1>   0.0800 
 38 H        6.2170     7.0110    -0.3620 H     1 <1>   0.0800 
 39 H        5.4040     7.3440     1.1780 H     1 <1>   0.0800 
 40 H        7.6210     7.9520     1.2960 H     1 <1>   0.1500 
 41 H        7.9330    12.6920     0.0550 H     1 <1>   0.1500 
 42 H        5.5020    11.1010    -1.8030 H     1 <1>   0.0800 
 43 H        5.8500    12.6330    -1.0390 H     1 <1>   0.0800 
 44 H        4.7020    11.5360    -0.3110 H     1 <1>   0.0800 
 45 H        9.7260    11.6360     1.3270 H     1 <1>   0.1500 
 46 H        9.8740     8.0020     2.0890 H     1 <1>   0.0800 
 47 H        9.8090     9.3310     3.2230 H     1 <1>   0.0800 
 48 H       10.8600     9.4160     1.8270 H     1 <1>   0.0800 
@<TRIPOS>BOND
  1   1   2  2   
  2   2   3  am  
  3   2   4  1   
  4   3   5  1   
  5   3  27  1   
  6   4   6  1   
  7   4   7  2   
  8   5   8  1   
  9   5  28  1   
 10   5  29  1   
 11   6   9  1   
 12   6  10  1   
 13   7  11  1   
 14   7  30  1   
 15   8  10  1   
 16   8  12  1   
 17   8  31  1   
 18   9  11  2   
 19  10  32  1   
 20  10  33  1   
 21  11  13  1   
 22  12  34  1   
 23  13  14  2   
 24  13  15  am  
 25  15  16  1   
 26  15  35  1   
 27  16  17  1   
 28  16  36  1   
 29  16  37  1   
 30  17  18  1   
 31  17  38  1   
 32  17  39  1   
 33  18  19  1   
 34  19  20  ar  
 35  19  21  ar  
 36  20  22  ar  
 37  20  23  1   
 38  21  24  ar  
 39  21  40  1   
 40  22  25  ar  
 41  22  41  1   
 42  23  42  1   
 43  23  43  1   
 44  23  44  1   
 45  24  25  ar  
 46  24  26  1   
 47  25  45  1   
 48  26  46  1   
 49  26  47  1   
 50  26  48  1   
@<TRIPOS>SUBSTRUCTURE
  1 ****  13 GROUP 4 **** **** 0

# MOE 2024.06 (io_trps.svl 2023.06)
