@<TRIPOS>MOLECULE
NONAME
51 54 1 0 0 
SMALL
USER_CHARGES


@<TRIPOS>ATOM
  1 S        0.0500    -1.3100     0.7920 S.o2  1 <1>   1.5010 
  2 O        0.9800    -2.4240     0.7830 O.2   1 <1>  -0.6500 
  3 O       -0.7800    -1.1440     1.9700 O.2   1 <1>  -0.6500 
  4 N       -0.9890    -1.5670    -0.5320 N.am  1 <1>  -0.8490 
  5 C        0.9740     0.2300     0.3830 C.2   1 <1>   0.1640 
  6 C       -2.0690    -0.5830    -0.6400 C.3   1 <1>   0.1960 
  7 C       -1.6490    -2.8670    -0.4980 C.3   1 <1>   0.1960 
  8 N        0.4390     1.4870     0.3960 N.2   1 <1>  -0.5650 
  9 C        2.2750     0.3210    -0.0030 C.2   1 <1>  -0.3020 
 10 C       -3.2600    -1.1630     0.1230 C.3   1 <1>  -0.0800 
 11 C       -2.9800    -2.6710     0.2350 C.3   1 <1>  -0.0800 
 12 C        1.4000     2.2700     0.0350 C.2   1 <1>   0.0060 
 13 N        2.5490     1.6170    -0.2230 N.pl3 1 <1>   0.0330 
 14 C       -4.6410    -0.7660    -0.4430 C.3   1 <1>   0.4240 
 15 C       -4.1020    -3.5850    -0.2920 C.3   1 <1>  -0.1600 
 16 C        1.2580     3.7750    -0.0950 C.3   1 <1>   0.0200 
 17 O       -4.6900    -1.1040    -1.7840 O.3   1 <1>  -0.6800 
 18 C       -4.9020     0.7470    -0.2830 C.ar  1 <1>  -0.1430 
 19 C       -5.7260    -1.6140     0.2420 C.3   1 <1>  -0.1600 
 20 C       -5.4990    -3.1460     0.1890 C.3   1 <1>  -0.1600 
 21 C        2.0780     4.5080     0.9710 C.3   1 <1>  -0.2400 
 22 C       -4.9370     1.3140     0.9880 C.ar  1 <1>  -0.1500 
 23 C       -5.1020     1.5900    -1.3740 C.ar  1 <1>  -0.1500 
 24 C       -5.1620     2.6680     1.1650 C.ar  1 <1>  -0.1500 
 25 C       -5.3290     2.9450    -1.2010 C.ar  1 <1>  -0.1500 
 26 C       -5.3590     3.4870     0.0700 C.ar  1 <1>  -0.1500 
 27 H       -1.7910     0.3820    -0.2530 H     1 <1>   0.0800 
 28 H       -2.3110    -0.4640    -1.6830 H     1 <1>   0.0800 
 29 H       -1.8340    -3.1690    -1.5150 H     1 <1>   0.0800 
 30 H       -1.0400    -3.6220    -0.0280 H     1 <1>   0.0800 
 31 H        2.9930    -0.4700    -0.1270 H     1 <1>   0.1500 
 32 H       -3.2050    -0.7710     1.1210 H     1 <1>   0.0800 
 33 H       -2.8230    -2.9030     1.2760 H     1 <1>   0.0800 
 34 H        3.4360     2.0310    -0.5230 H     1 <1>   0.2700 
 35 H       -4.0860    -3.5950    -1.3680 H     1 <1>   0.0800 
 36 H       -3.9180    -4.5970     0.0260 H     1 <1>   0.0800 
 37 H        1.5680     4.0830    -1.0770 H     1 <1>   0.0800 
 38 H        0.2190     4.0350     0.0180 H     1 <1>   0.0800 
 39 H       -4.7080    -2.0750    -1.8380 H     1 <1>   0.4000 
 40 H       -5.7630    -1.3290     1.2780 H     1 <1>   0.0800 
 41 H       -6.6850    -1.3650    -0.1770 H     1 <1>   0.0800 
 42 H       -5.6620    -3.5430     1.1770 H     1 <1>   0.0800 
 43 H       -6.2400    -3.5930    -0.4520 H     1 <1>   0.0800 
 44 H        3.1260     4.2970     0.8580 H     1 <1>   0.0800 
 45 H        1.7650     4.1940     1.9520 H     1 <1>   0.0800 
 46 H        1.9280     5.5700     0.8870 H     1 <1>   0.0800 
 47 H       -4.7870     0.7070     1.8630 H     1 <1>   0.1500 
 48 H       -5.0840     1.2040    -2.3780 H     1 <1>   0.1500 
 49 H       -5.1810     3.0840     2.1570 H     1 <1>   0.1500 
 50 H       -5.4800     3.5760    -2.0590 H     1 <1>   0.1500 
 51 H       -5.5330     4.5400     0.2050 H     1 <1>   0.1500 
@<TRIPOS>BOND
  1   1   2  2   
  2   1   3  2   
  3   1   4  am  
  4   1   5  1   
  5   4   6  1   
  6   4   7  1   
  7   5   8  1   
  8   5   9  2   
  9   6  10  1   
 10   6  27  1   
 11   6  28  1   
 12   7  11  1   
 13   7  29  1   
 14   7  30  1   
 15   8  12  2   
 16   9  13  1   
 17   9  31  1   
 18  10  11  1   
 19  10  14  1   
 20  10  32  1   
 21  11  15  1   
 22  11  33  1   
 23  12  13  1   
 24  12  16  1   
 25  13  34  1   
 26  14  17  1   
 27  14  18  1   
 28  14  19  1   
 29  15  20  1   
 30  15  35  1   
 31  15  36  1   
 32  16  21  1   
 33  16  37  1   
 34  16  38  1   
 35  17  39  1   
 36  18  22  ar  
 37  18  23  ar  
 38  19  20  1   
 39  19  40  1   
 40  19  41  1   
 41  20  42  1   
 42  20  43  1   
 43  21  44  1   
 44  21  45  1   
 45  21  46  1   
 46  22  24  ar  
 47  22  47  1   
 48  23  25  ar  
 49  23  48  1   
 50  24  26  ar  
 51  24  49  1   
 52  25  26  ar  
 53  25  50  1   
 54  26  51  1   
@<TRIPOS>SUBSTRUCTURE
  1 ****   6 GROUP 4 **** **** 0

# MOE 2024.06 (io_trps.svl 2023.06)
