@<TRIPOS>MOLECULE
NONAME
20 19 1 0 0 
SMALL
USER_CHARGES


@<TRIPOS>ATOM
  1 O        8.0540     0.2950    -0.0320 O.3   1 <1>  -0.5600 
  2 C        9.2720    -0.3870    -0.0770 C.3   1 <1>   0.1200 
  3 C        6.9370    -0.5260     0.0220 C.3   1 <1>   0.1200 
  4 C       10.4000     0.6380    -0.1950 C.3   1 <1>   0.0860 
  5 C        5.7080     0.3910     0.0500 C.3   1 <1>   0.3430 
  6 N       11.6840    -0.0540    -0.2530 N.2   1 <1>  -0.5640 
  7 N        4.4320    -0.3810     0.0890 N.4   1 <1>  -0.8530 
  8 N       12.5770     0.2730     0.5630 N.1   1 <1>   0.6880 
  9 N       13.4420     0.6040     1.3760 N.1   1 <1>  -0.3700 
 10 H        9.2780    -1.0370    -0.9360 H     1 <1>   0.0800 
 11 H        9.3840    -0.9600     0.8280 H     1 <1>   0.0800 
 12 H        6.9990    -1.1230     0.9160 H     1 <1>   0.0800 
 13 H        6.9350    -1.1500    -0.8560 H     1 <1>   0.0800 
 14 H       10.3700     1.3110     0.6460 H     1 <1>   0.0800 
 15 H       10.2740     1.2030    -1.1030 H     1 <1>   0.0800 
 16 H        5.7280     1.0160    -0.8280 H     1 <1>   0.0800 
 17 H        5.7750     1.0260     0.9190 H     1 <1>   0.0800 
 18 H        4.3300    -0.9780    -0.7420 H     1 <1>   0.4500 
 19 H        3.6280     0.2590     0.1100 H     1 <1>   0.4500 
 20 H        4.3770    -0.9740     0.9250 H     1 <1>   0.4500 
@<TRIPOS>BOND
  1   1   2  1   
  2   1   3  1   
  3   2   4  1   
  4   2  10  1   
  5   2  11  1   
  6   3   5  1   
  7   3  12  1   
  8   3  13  1   
  9   4   6  1   
 10   4  14  1   
 11   4  15  1   
 12   5   7  1   
 13   5  16  1   
 14   5  17  1   
 15   6   8  2   
 16   7  18  1   
 17   7  19  1   
 18   7  20  1   
 19   8   9  3   
@<TRIPOS>SUBSTRUCTURE
  1 ****   2 GROUP 4 **** **** 0

# MOE 2024.06 (io_trps.svl 2023.06)
