@<TRIPOS>MOLECULE
NONAME
51 53 1 0 0 
SMALL
USER_CHARGES


@<TRIPOS>ATOM
  1 O       -4.5000     1.7030    -2.3390 O.2   1 <1>  -0.5700 
  2 C       -3.8190     1.3360    -1.3990 C.2   1 <1>   0.5440 
  3 N       -3.9280     0.0270    -0.9750 N.am  1 <1>  -0.6600 
  4 C       -2.9310     2.2870    -0.7620 C.ar  1 <1>   0.0860 
  5 C       -2.9970    -0.5550     0.0600 C.3   1 <1>   0.3640 
  6 C       -5.0540    -0.8150    -1.4820 C.3   1 <1>   0.1400 
  7 C       -3.1600     2.7410     0.5370 C.ar  1 <1>  -0.1500 
  8 C       -1.8070     2.7730    -1.4280 C.ar  1 <1>  -0.1500 
  9 C       -1.5530    -0.4320    -0.4380 C.ar  1 <1>  -0.1430 
 10 C       -3.2600    -2.0410     0.4630 C.3   1 <1>   0.2000 
 11 C       -4.8320    -2.3090    -1.2490 C.3   1 <1>   0.1200 
 12 C       -2.2910     3.6240     1.1500 C.ar  1 <1>  -0.1500 
 13 C       -0.9340     3.6580    -0.8230 C.ar  1 <1>  -0.1500 
 14 C       -0.5800     0.1300     0.3780 C.ar  1 <1>  -0.1500 
 15 C       -1.1930    -0.8700    -1.7060 C.ar  1 <1>  -0.1500 
 16 O       -4.5240    -2.5190     0.0900 O.3   1 <1>  -0.5600 
 17 C       -3.1460    -2.2680     1.9790 C.3   1 <1>   0.1200 
 18 C       -1.1700     4.0880     0.4800 C.ar  1 <1>   0.0830 
 19 C        0.7260     0.2480    -0.0620 C.ar  1 <1>  -0.1500 
 20 C        0.1130    -0.7550    -2.1470 C.ar  1 <1>  -0.1500 
 21 O       -1.9260    -1.8170     2.4730 O.3   1 <1>  -0.6800 
 22 O       -0.3660     4.9430     1.1500 O.3   1 <1>  -0.3630 
 23 C        1.0750    -0.1960    -1.3250 C.ar  1 <1>  -0.1500 
 24 C        0.7950     5.4820     0.5610 C.3   1 <1>   0.1200 
 25 C        1.4670     6.4010     1.5810 C.3   1 <1>  -0.1600 
 26 C        2.7450     7.0270     1.0140 C.3   1 <1>  -0.2400 
 27 H       -3.0980     0.0400     0.9500 H     1 <1>   0.0800 
 28 H       -5.9600    -0.5140    -0.9860 H     1 <1>   0.0800 
 29 H       -5.1860    -0.6450    -2.5360 H     1 <1>   0.0800 
 30 H       -4.0300     2.3930     1.0650 H     1 <1>   0.1500 
 31 H       -1.6210     2.4380    -2.4340 H     1 <1>   0.1500 
 32 H       -2.5400    -2.6740    -0.0260 H     1 <1>   0.0800 
 33 H       -4.0340    -2.6860    -1.8640 H     1 <1>   0.0800 
 34 H       -5.7320    -2.8540    -1.4710 H     1 <1>   0.0800 
 35 H       -2.4750     3.9650     2.1530 H     1 <1>   0.1500 
 36 H       -0.0790     3.9960    -1.3770 H     1 <1>   0.1500 
 37 H       -0.8360     0.4850     1.3620 H     1 <1>   0.1500 
 38 H       -1.9350    -1.2970    -2.3590 H     1 <1>   0.1500 
 39 H       -3.2330    -3.3160     2.2070 H     1 <1>   0.0800 
 40 H       -3.9230    -1.7270     2.4900 H     1 <1>   0.0800 
 41 H        1.4690     0.6880     0.5800 H     1 <1>   0.1500 
 42 H        0.3810    -1.0970    -3.1320 H     1 <1>   0.1500 
 43 H       -1.1800    -2.3150     2.0800 H     1 <1>   0.4000 
 44 H        2.0910    -0.1050    -1.6670 H     1 <1>   0.1500 
 45 H        1.4480     4.6690     0.2940 H     1 <1>   0.0800 
 46 H        0.5060     6.0330    -0.3170 H     1 <1>   0.0800 
 47 H        0.7800     7.1830     1.8560 H     1 <1>   0.0800 
 48 H        1.7100     5.8320     2.4620 H     1 <1>   0.0800 
 49 H        2.5220     7.6150     0.1410 H     1 <1>   0.0800 
 50 H        3.4540     6.2620     0.7470 H     1 <1>   0.0800 
 51 H        3.1970     7.6690     1.7500 H     1 <1>   0.0800 
@<TRIPOS>BOND
  1   1   2  2   
  2   2   3  am  
  3   2   4  1   
  4   3   5  1   
  5   3   6  1   
  6   4   7  ar  
  7   4   8  ar  
  8   5   9  1   
  9   5  10  1   
 10   5  27  1   
 11   6  11  1   
 12   6  28  1   
 13   6  29  1   
 14   7  12  ar  
 15   7  30  1   
 16   8  13  ar  
 17   8  31  1   
 18   9  14  ar  
 19   9  15  ar  
 20  10  16  1   
 21  10  17  1   
 22  10  32  1   
 23  11  16  1   
 24  11  33  1   
 25  11  34  1   
 26  12  18  ar  
 27  12  35  1   
 28  13  18  ar  
 29  13  36  1   
 30  14  19  ar  
 31  14  37  1   
 32  15  20  ar  
 33  15  38  1   
 34  17  21  1   
 35  17  39  1   
 36  17  40  1   
 37  18  22  1   
 38  19  23  ar  
 39  19  41  1   
 40  20  23  ar  
 41  20  42  1   
 42  21  43  1   
 43  22  24  1   
 44  23  44  1   
 45  24  25  1   
 46  24  45  1   
 47  24  46  1   
 48  25  26  1   
 49  25  47  1   
 50  25  48  1   
 51  26  49  1   
 52  26  50  1   
 53  26  51  1   
@<TRIPOS>SUBSTRUCTURE
  1 ****   4 GROUP 4 **** **** 0

# MOE 2024.06 (io_trps.svl 2023.06)
