@<TRIPOS>MOLECULE
NONAME
52 55 1 0 0 
SMALL
USER_CHARGES


@<TRIPOS>ATOM
  1 F        1.6800    -2.4670     1.9530 F     1 <1>  -0.1900 
  2 C        2.3940    -1.7330     1.1400 C.ar  1 <1>   0.1900 
  3 C        1.9060    -1.4490    -0.1260 C.ar  1 <1>  -0.1440 
  4 C        3.6170    -1.2710     1.5890 C.ar  1 <1>  -0.1500 
  5 C        2.6920    -0.6680    -0.9590 C.ar  1 <1>  -0.1500 
  6 C        0.5560    -1.9720    -0.5930 C.3   1 <1>  -0.0960 
  7 C        4.3950    -0.4920     0.7460 C.ar  1 <1>  -0.1430 
  8 C        3.9220    -0.1970    -0.5250 C.ar  1 <1>  -0.1500 
  9 C        5.7510     0.0370     1.1970 C.3   1 <1>   0.1270 
 10 C        6.8910    -0.6900     0.4800 C.ar  1 <1>  -0.1430 
 11 C        7.7660    -0.0420    -0.4070 C.ar  1 <1>   0.0860 
 12 C        7.0460    -2.0430     0.7420 C.ar  1 <1>  -0.1500 
 13 C        7.6930     1.3700    -0.7360 C.2   1 <1>   0.5440 
 14 C        8.7770    -0.8050    -0.9940 C.ar  1 <1>  -0.1500 
 15 C        8.0570    -2.7740     0.1460 C.ar  1 <1>  -0.1500 
 16 O        6.6710     1.8670    -1.1720 O.2   1 <1>  -0.5700 
 17 N        8.7910     2.1650    -0.5660 N.am  1 <1>  -0.5100 
 18 C        8.9270    -2.1510    -0.7260 C.ar  1 <1>  -0.1500 
 19 C        9.7180     2.1090     0.6120 C.3   1 <1>   0.2250 
 20 C        8.7690     3.6620    -0.4710 C.3   1 <1>   0.2250 
 21 C       10.0940     3.5930     0.3410 C.3   1 <1>   0.2100 
 22 N       11.3350     3.7770    -0.4540 N.3   1 <1>  -0.7500 
 23 C       11.4560     5.1650    -0.9440 C.3   1 <1>   0.1100 
 24 C       12.5330     3.4400     0.3410 C.3   1 <1>   0.1100 
 25 C       12.7770     5.3730    -1.7060 C.3   1 <1>   0.1200 
 26 C       13.8210     3.6960    -0.4600 C.3   1 <1>   0.1200 
 27 O       13.8650     5.0230    -0.9000 O.3   1 <1>  -0.5600 
 28 H        3.9430    -1.5250     2.5810 H     1 <1>   0.1500 
 29 H        2.3570    -0.4210    -1.9510 H     1 <1>   0.1500 
 30 H       -0.2210    -1.6080     0.0550 H     1 <1>   0.0800 
 31 H        0.5520    -3.0470    -0.5680 H     1 <1>   0.0800 
 32 H        0.3440    -1.6510    -1.5970 H     1 <1>   0.0800 
 33 H        4.5190     0.4070    -1.1900 H     1 <1>   0.1500 
 34 H        5.8620    -0.1140     2.2560 H     1 <1>   0.0800 
 35 H        5.7800     1.0980     1.0360 H     1 <1>   0.0800 
 36 H        6.3700    -2.5420     1.4150 H     1 <1>   0.1500 
 37 H        9.4570    -0.3270    -1.6790 H     1 <1>   0.1500 
 38 H        8.1620    -3.8240     0.3590 H     1 <1>   0.1500 
 39 H        9.7150    -2.7140    -1.1960 H     1 <1>   0.1500 
 40 H       10.5160     1.4040     0.4610 H     1 <1>   0.0000 
 41 H        9.1700     1.9630     1.5260 H     1 <1>   0.0000 
 42 H        7.9280     4.0000     0.1090 H     1 <1>   0.0000 
 43 H        8.8510     4.1250    -1.4380 H     1 <1>   0.0000 
 44 H       10.0870     4.2070     1.2250 H     1 <1>   0.0000 
 45 H       11.4190     5.8540    -0.1170 H     1 <1>   0.0800 
 46 H       10.6400     5.3910    -1.6070 H     1 <1>   0.0800 
 47 H       12.5040     2.4020     0.6210 H     1 <1>   0.0800 
 48 H       12.5590     4.0310     1.2400 H     1 <1>   0.0800 
 49 H       12.8910     6.4060    -1.9820 H     1 <1>   0.0800 
 50 H       12.7970     4.7690    -2.5960 H     1 <1>   0.0800 
 51 H       13.8690     3.0460    -1.3170 H     1 <1>   0.0800 
 52 H       14.6860     3.5260     0.1560 H     1 <1>   0.0800 
@<TRIPOS>BOND
  1   1   2  1   
  2   2   3  ar  
  3   2   4  ar  
  4   3   5  ar  
  5   3   6  1   
  6   4   7  ar  
  7   4  28  1   
  8   5   8  ar  
  9   5  29  1   
 10   6  30  1   
 11   6  31  1   
 12   6  32  1   
 13   7   8  ar  
 14   7   9  1   
 15   8  33  1   
 16   9  10  1   
 17   9  34  1   
 18   9  35  1   
 19  10  11  ar  
 20  10  12  ar  
 21  11  13  1   
 22  11  14  ar  
 23  12  15  ar  
 24  12  36  1   
 25  13  16  2   
 26  13  17  am  
 27  14  18  ar  
 28  14  37  1   
 29  15  18  ar  
 30  15  38  1   
 31  17  19  1   
 32  17  20  1   
 33  18  39  1   
 34  19  21  1   
 35  19  40  1   
 36  19  41  1   
 37  20  21  1   
 38  20  42  1   
 39  20  43  1   
 40  21  22  1   
 41  21  44  1   
 42  22  23  1   
 43  22  24  1   
 44  23  25  1   
 45  23  45  1   
 46  23  46  1   
 47  24  26  1   
 48  24  47  1   
 49  24  48  1   
 50  25  27  1   
 51  25  49  1   
 52  25  50  1   
 53  26  27  1   
 54  26  51  1   
 55  26  52  1   
@<TRIPOS>SUBSTRUCTURE
  1 ****  13 GROUP 4 **** **** 0

# MOE 2024.06 (io_trps.svl 2023.06)
