@<TRIPOS>MOLECULE
NONAME
42 44 1 0 0 
SMALL
USER_CHARGES


@<TRIPOS>ATOM
  1 O       -0.3370     0.4180     0.3080 O.2   1 <1>  -0.5700 
  2 C       -1.4060     0.9830     0.1480 C.2   1 <1>   0.7160 
  3 N       -2.5510     0.2930     0.5100 N.am  1 <1>  -0.6600 
  4 C       -1.4050     2.3290    -0.4150 C.2   1 <1>   0.2030 
  5 C       -2.5860    -1.2010     0.5660 C.3   1 <1>   0.1400 
  6 C       -3.9100     0.8890     0.6800 C.3   1 <1>   0.1400 
  7 N       -2.3580     2.9280    -1.0720 N.2   1 <1>  -0.4100 
  8 C       -0.3220     3.1940    -0.3560 C.2   1 <1>  -0.1500 
  9 C       -3.6510    -1.7530    -0.4020 C.3   1 <1>   0.3440 
 10 C       -4.8930     0.2660    -0.3340 C.3   1 <1>   0.2000 
 11 O       -1.9820     4.1300    -1.4380 O.3   1 <1>  -0.0190 
 12 C       -0.7520     4.2790    -1.0030 C.2   1 <1>  -0.0100 
 13 O       -4.8890    -1.1290    -0.1730 O.3   1 <1>  -0.5600 
 14 C       -3.8010    -3.2620    -0.2330 C.ar  1 <1>  -0.1430 
 15 C       -6.3460     0.7690    -0.1690 C.3   1 <1>  -0.0800 
 16 C       -4.6590    -3.8000     0.7170 C.ar  1 <1>  -0.1500 
 17 C       -3.0590    -4.1210    -1.0320 C.ar  1 <1>  -0.1500 
 18 C       -7.2980     0.0730    -1.1570 C.3   1 <1>  -0.2400 
 19 C       -6.4570     2.2910    -0.3710 C.3   1 <1>  -0.2400 
 20 C       -4.7720    -5.1720     0.8670 C.ar  1 <1>  -0.1500 
 21 C       -3.1700    -5.4930    -0.8830 C.ar  1 <1>  -0.1500 
 22 C       -4.0260    -6.0190     0.0680 C.ar  1 <1>  -0.1500 
 23 H       -1.6290    -1.6190     0.3060 H     1 <1>   0.0800 
 24 H       -2.8210    -1.5160     1.5670 H     1 <1>   0.0800 
 25 H       -4.2610     0.6820     1.6760 H     1 <1>   0.0800 
 26 H       -3.8800     1.9550     0.5720 H     1 <1>   0.0800 
 27 H        0.6230     2.9870     0.1130 H     1 <1>   0.1500 
 28 H       -3.3610    -1.5380    -1.4160 H     1 <1>   0.0800 
 29 H       -4.5600     0.4880    -1.3340 H     1 <1>   0.0800 
 30 H       -0.2480     5.2070    -1.2060 H     1 <1>   0.1500 
 31 H       -6.6700     0.5390     0.8320 H     1 <1>   0.0800 
 32 H       -5.2460    -3.1480     1.3400 H     1 <1>   0.1500 
 33 H       -2.3880    -3.7270    -1.7760 H     1 <1>   0.1500 
 34 H       -6.9940     0.2610    -2.1720 H     1 <1>   0.0800 
 35 H       -8.3040     0.4300    -1.0260 H     1 <1>   0.0800 
 36 H       -7.2990    -0.9900    -0.9930 H     1 <1>   0.0800 
 37 H       -6.0650     2.5740    -1.3330 H     1 <1>   0.0800 
 38 H       -5.9190     2.8260     0.3900 H     1 <1>   0.0800 
 39 H       -7.4860     2.5990    -0.3190 H     1 <1>   0.0800 
 40 H       -5.4410    -5.5770     1.6060 H     1 <1>   0.1500 
 41 H       -2.5910    -6.1510    -1.5060 H     1 <1>   0.1500 
 42 H       -4.1140    -7.0850     0.1840 H     1 <1>   0.1500 
@<TRIPOS>BOND
  1   1   2  2   
  2   2   3  am  
  3   2   4  1   
  4   3   5  1   
  5   3   6  1   
  6   4   7  2   
  7   4   8  1   
  8   5   9  1   
  9   5  23  1   
 10   5  24  1   
 11   6  10  1   
 12   6  25  1   
 13   6  26  1   
 14   7  11  1   
 15   8  12  2   
 16   8  27  1   
 17   9  13  1   
 18   9  14  1   
 19   9  28  1   
 20  10  13  1   
 21  10  15  1   
 22  10  29  1   
 23  11  12  1   
 24  12  30  1   
 25  14  16  ar  
 26  14  17  ar  
 27  15  18  1   
 28  15  19  1   
 29  15  31  1   
 30  16  20  ar  
 31  16  32  1   
 32  17  21  ar  
 33  17  33  1   
 34  18  34  1   
 35  18  35  1   
 36  18  36  1   
 37  19  37  1   
 38  19  38  1   
 39  19  39  1   
 40  20  22  ar  
 41  20  40  1   
 42  21  22  ar  
 43  21  41  1   
 44  22  42  1   
@<TRIPOS>SUBSTRUCTURE
  1 ****   3 GROUP 4 **** **** 0

# MOE 2024.06 (io_trps.svl 2023.06)
