@<TRIPOS>MOLECULE
NONAME
56 60 1 0 0 
SMALL
USER_CHARGES


@<TRIPOS>ATOM
  1 S        2.5890    -0.4680    -1.5710 S.3   1 <1>  -0.0800 
  2 C        2.2250    -0.6410     0.1250 C.2   1 <1>  -0.1400 
  3 C        4.2250    -0.0290    -1.1450 C.2   1 <1>   0.2280 
  4 C        3.3290    -0.3430     0.8320 C.2   1 <1>   0.0460 
  5 C        0.8120    -1.0580     0.4950 C.3   1 <1>   0.3200 
  6 N        4.4570    -0.0050     0.1060 N.2   1 <1>  -0.5650 
  7 C        3.4880    -0.3350     2.3380 C.3   1 <1>  -0.0590 
  8 N        0.6000    -2.5190     0.2500 N.am  1 <1>  -0.6600 
  9 C       -0.4130    -2.9320    -0.5790 C.2   1 <1>   0.5690 
 10 C        1.4560    -3.4310     1.0730 C.3   1 <1>   0.1400 
 11 O       -1.1300    -2.1270    -1.1240 O.2   1 <1>  -0.5700 
 12 C       -0.7570    -4.3850    -0.8660 C.3   1 <1>  -0.0990 
 13 C        2.2320    -4.5190     0.2790 C.3   1 <1>   0.2800 
 14 C        0.0800    -5.4840    -0.2140 C.3   1 <1>   0.1200 
 15 O        1.4140    -5.2980    -0.5540 O.3   1 <1>  -0.5600 
 16 C        3.2660    -3.8670    -0.6510 C.3   1 <1>  -0.1600 
 17 C        2.9320    -5.4800     1.2590 C.3   1 <1>  -0.1600 
 18 C        4.1710    -4.8970    -1.3210 C.3   1 <1>   0.2090 
 19 C        3.8510    -6.4710     0.5430 C.3   1 <1>   0.2090 
 20 N        4.8350    -5.7020    -0.2610 N.pl3 1 <1>  -0.8220 
 21 C        6.0770    -6.2960    -0.5530 C.2   1 <1>   0.2710 
 22 N        6.3060    -7.5600    -0.4610 N.2   1 <1>  -0.3380 
 23 N        7.2010    -5.6720    -0.9660 N.pl3 1 <1>   0.5930 
 24 N        7.5690    -7.7340    -0.8370 N.2   1 <1>   0.0000 
 25 N        8.1190    -6.6220    -1.1470 N.2   1 <1>  -0.4180 
 26 C        7.4520    -4.2830    -1.1700 C.ar  1 <1>  -0.0230 
 27 C        7.0000    -3.3320    -0.2570 C.ar  1 <1>  -0.1500 
 28 C        8.1510    -3.8450    -2.2920 C.ar  1 <1>  -0.1500 
 29 C        7.2320    -1.9850    -0.4640 C.ar  1 <1>  -0.1500 
 30 C        8.3840    -2.4970    -2.5000 C.ar  1 <1>  -0.1500 
 31 C        7.9240    -1.5660    -1.5860 C.ar  1 <1>  -0.1500 
 32 H        4.9010     0.1840    -1.9550 H     1 <1>   0.1500 
 33 H        0.1190    -0.4600    -0.0710 H     1 <1>   0.0800 
 34 H        0.6330    -0.8540     1.5350 H     1 <1>   0.0800 
 35 H        2.5710    -0.6030     2.8270 H     1 <1>   0.0800 
 36 H        3.7800     0.6470     2.6610 H     1 <1>   0.0800 
 37 H        4.2540    -1.0330     2.6220 H     1 <1>   0.0800 
 38 H        0.8460    -3.8900     1.8290 H     1 <1>   0.0800 
 39 H        2.1840    -2.8460     1.6040 H     1 <1>   0.0800 
 40 H       -0.7070    -4.5200    -1.9300 H     1 <1>   0.0800 
 41 H       -1.7820    -4.5340    -0.5830 H     1 <1>   0.0800 
 42 H       -0.2160    -6.4370    -0.6180 H     1 <1>   0.0800 
 43 H       -0.0420    -5.5260     0.8530 H     1 <1>   0.0800 
 44 H        3.8810    -3.1800    -0.1000 H     1 <1>   0.0800 
 45 H        2.7520    -3.3100    -1.4110 H     1 <1>   0.0800 
 46 H        2.2010    -6.0210     1.8300 H     1 <1>   0.0800 
 47 H        3.5320    -4.9150     1.9490 H     1 <1>   0.0800 
 48 H        4.8970    -4.3950    -1.9360 H     1 <1>   0.0800 
 49 H        3.5860    -5.5460    -1.9520 H     1 <1>   0.0800 
 50 H        3.2800    -7.1160    -0.1050 H     1 <1>   0.0800 
 51 H        4.3640    -7.0810     1.2670 H     1 <1>   0.0800 
 52 H        6.4590    -3.6450     0.6200 H     1 <1>   0.1500 
 53 H        8.5170    -4.5630    -3.0070 H     1 <1>   0.1500 
 54 H        6.8740    -1.2610     0.2490 H     1 <1>   0.1500 
 55 H        8.9260    -2.1720    -3.3710 H     1 <1>   0.1500 
 56 H        8.1050    -0.5160    -1.7430 H     1 <1>   0.1500 
@<TRIPOS>BOND
  1   1   2  1   
  2   1   3  1   
  3   2   4  2   
  4   2   5  1   
  5   3   6  2   
  6   3  32  1   
  7   4   6  1   
  8   4   7  1   
  9   5   8  1   
 10   5  33  1   
 11   5  34  1   
 12   7  35  1   
 13   7  36  1   
 14   7  37  1   
 15   8   9  am  
 16   8  10  1   
 17   9  11  2   
 18   9  12  1   
 19  10  13  1   
 20  10  38  1   
 21  10  39  1   
 22  12  14  1   
 23  12  40  1   
 24  12  41  1   
 25  13  15  1   
 26  13  16  1   
 27  13  17  1   
 28  14  15  1   
 29  14  42  1   
 30  14  43  1   
 31  16  18  1   
 32  16  44  1   
 33  16  45  1   
 34  17  19  1   
 35  17  46  1   
 36  17  47  1   
 37  18  20  1   
 38  18  48  1   
 39  18  49  1   
 40  19  20  1   
 41  19  50  1   
 42  19  51  1   
 43  20  21  1   
 44  21  22  2   
 45  21  23  1   
 46  22  24  1   
 47  23  25  1   
 48  23  26  1   
 49  24  25  2   
 50  26  27  ar  
 51  26  28  ar  
 52  27  29  ar  
 53  27  52  1   
 54  28  30  ar  
 55  28  53  1   
 56  29  31  ar  
 57  29  54  1   
 58  30  31  ar  
 59  30  55  1   
 60  31  56  1   
@<TRIPOS>SUBSTRUCTURE
  1 ****  16 GROUP 4 **** **** 0

# MOE 2024.06 (io_trps.svl 2023.06)
