@<TRIPOS>MOLECULE
NONAME
44 46 1 0 0 
SMALL
USER_CHARGES


@<TRIPOS>ATOM
  1 O        1.5620    -1.0030     1.9550 O.2   1 <1>  -0.5700 
  2 C        1.7700    -1.2630     0.7920 C.2   1 <1>   0.5690 
  3 N        1.9240    -0.3140    -0.1690 N.am  1 <1>  -0.4930 
  4 C        1.8630    -2.7370     0.3740 C.3   1 <1>   0.1710 
  5 C        1.8570     1.0700    -0.0880 C.2   1 <1>   0.3520 
  6 N        0.6090    -3.3510    -0.1440 N.3   1 <1>  -0.8100 
  7 N        1.9620     1.7610    -1.1770 N.2   1 <1>  -0.7070 
  8 C        1.6850     1.8720     1.0360 C.2   1 <1>  -0.1500 
  9 C       -0.4610    -3.2830     0.8700 C.3   1 <1>   0.2900 
 10 C        0.1730    -2.7610    -1.4220 C.3   1 <1>   0.0300 
 11 N        1.8600     3.0450    -0.7750 N.pl3 1 <1>   0.3140 
 12 C        1.6920     3.1340     0.5590 C.2   1 <1>  -0.3020 
 13 C       -1.6240    -4.1580     0.4460 C.2   1 <1>  -0.3320 
 14 C        1.9360     4.1550    -1.7310 C.3   1 <1>   0.0160 
 15 N       -1.3950    -5.4210    -0.0170 N.pl3 1 <1>   0.0330 
 16 C       -2.9580    -3.9110     0.4280 C.2   1 <1>  -0.1810 
 17 C       -2.5970    -5.9930    -0.3400 C.ar  1 <1>  -0.1520 
 18 C       -3.6010    -5.0690    -0.0690 C.ar  1 <1>   0.0000 
 19 C       -3.7020    -2.6570     0.8430 C.3   1 <1>  -0.0590 
 20 C       -2.8980    -7.2550    -0.8560 C.ar  1 <1>  -0.1500 
 21 C       -4.9340    -5.4130    -0.3150 C.ar  1 <1>  -0.1500 
 22 C       -4.2140    -7.5780    -1.0940 C.ar  1 <1>  -0.1500 
 23 C       -5.2330    -6.6560    -0.8230 C.ar  1 <1>  -0.1500 
 24 H        2.0610    -0.6170    -1.1280 H     1 <1>   0.3700 
 25 H        2.1860    -3.2990     1.2330 H     1 <1>   0.0800 
 26 H        2.6330    -2.8380    -0.3690 H     1 <1>   0.0800 
 27 H        1.5750     1.5260     2.0480 H     1 <1>   0.1500 
 28 H       -0.7850    -2.2650     1.0070 H     1 <1>   0.0800 
 29 H       -0.0860    -3.6450     1.8130 H     1 <1>   0.0800 
 30 H        0.9770    -2.7890    -2.1370 H     1 <1>   0.0800 
 31 H       -0.1500    -1.7430    -1.2840 H     1 <1>   0.0800 
 32 H       -0.6510    -3.3240    -1.8270 H     1 <1>   0.0800 
 33 H        1.5900     4.0660     1.0840 H     1 <1>   0.1500 
 34 H        1.1790     4.0200    -2.4810 H     1 <1>   0.0800 
 35 H        2.9050     4.1500    -2.1930 H     1 <1>   0.0800 
 36 H        1.7810     5.0860    -1.2190 H     1 <1>   0.0800 
 37 H       -0.4630    -5.8210    -0.1670 H     1 <1>   0.2700 
 38 H       -3.0220    -1.9080     1.2030 H     1 <1>   0.0800 
 39 H       -4.4010    -2.8930     1.6250 H     1 <1>   0.0800 
 40 H       -4.2400    -2.2610     0.0010 H     1 <1>   0.0800 
 41 H       -2.1070    -7.9540    -1.0600 H     1 <1>   0.1500 
 42 H       -5.7060    -4.6970    -0.1030 H     1 <1>   0.1500 
 43 H       -4.4730    -8.5440    -1.4910 H     1 <1>   0.1500 
 44 H       -6.2540    -6.9330    -1.0170 H     1 <1>   0.1500 
@<TRIPOS>BOND
  1   1   2  2   
  2   2   3  am  
  3   2   4  1   
  4   3   5  1   
  5   3  24  1   
  6   4   6  1   
  7   4  25  1   
  8   4  26  1   
  9   5   7  2   
 10   5   8  1   
 11   6   9  1   
 12   6  10  1   
 13   7  11  1   
 14   8  12  2   
 15   8  27  1   
 16   9  13  1   
 17   9  28  1   
 18   9  29  1   
 19  10  30  1   
 20  10  31  1   
 21  10  32  1   
 22  11  12  1   
 23  11  14  1   
 24  12  33  1   
 25  13  15  1   
 26  13  16  2   
 27  14  34  1   
 28  14  35  1   
 29  14  36  1   
 30  15  17  1   
 31  15  37  1   
 32  16  18  1   
 33  16  19  1   
 34  17  18  ar  
 35  17  20  ar  
 36  18  21  ar  
 37  19  38  1   
 38  19  39  1   
 39  19  40  1   
 40  20  22  ar  
 41  20  41  1   
 42  21  23  ar  
 43  21  42  1   
 44  22  23  ar  
 45  22  43  1   
 46  23  44  1   
@<TRIPOS>SUBSTRUCTURE
  1 ****   9 GROUP 4 **** **** 0

# MOE 2024.06 (io_trps.svl 2023.06)
