@<TRIPOS>MOLECULE
NONAME
46 48 1 0 0 
SMALL
USER_CHARGES


@<TRIPOS>ATOM
  1 O       -4.8380    -0.1730     1.3380 O.2   1 <1>  -0.5700 
  2 C       -3.8560     0.4660     1.0170 C.2   1 <1>   0.6900 
  3 N       -2.7300    -0.1350     0.4670 N.am  1 <1>  -0.4690 
  4 N       -3.8560     1.8140     1.1880 N.am  1 <1>  -0.4900 
  5 C       -1.6370     0.6350     0.0860 C.2   1 <1>  -0.0410 
  6 C       -2.6940    -1.6110     0.3020 C.3   1 <1>   0.1400 
  7 C       -2.8080     2.6060     0.8330 C.2   1 <1>   0.6160 
  8 C       -1.6660     1.9760     0.2610 C.2   1 <1>  -0.1360 
  9 C       -3.4130    -2.0140    -0.9840 C.3   1 <1>  -0.0990 
 10 O       -2.8880     3.8020     1.0160 O.2   1 <1>  -0.5700 
 11 C       -3.6100    -3.5130    -0.9980 C.2   1 <1>   0.5690 
 12 O       -2.7710    -4.1820    -1.5500 O.2   1 <1>  -0.5700 
 13 N       -4.6930    -4.0750    -0.3820 N.am  1 <1>  -0.6600 
 14 C       -5.7800    -3.3630     0.3440 C.3   1 <1>   0.1400 
 15 C       -4.9080    -5.5420    -0.3390 C.3   1 <1>   0.1400 
 16 C       -6.7940    -4.4520     0.6940 C.3   1 <1>   0.2000 
 17 C       -6.0020    -5.7570     0.7070 C.3   1 <1>  -0.0800 
 18 O       -7.3790    -4.2310     1.9290 O.3   1 <1>  -0.6800 
 19 C       -6.8740    -6.9940     0.4410 C.3   1 <1>   0.0210 
 20 C       -6.0270    -8.2470     0.3390 C.2   1 <1>   0.1080 
 21 N       -5.3650    -8.7340     1.3430 N.2   1 <1>  -0.7070 
 22 C       -5.8530    -8.9990    -0.8190 C.2   1 <1>  -0.1500 
 23 N       -4.7460    -9.8220     0.8470 N.pl3 1 <1>   0.3000 
 24 C       -5.0250   -10.0020    -0.4620 C.2   1 <1>  -0.3320 
 25 C       -4.4720   -11.1380    -1.3020 C.3   1 <1>  -0.0600 
 26 H       -4.6760     2.2490     1.5920 H     1 <1>   0.3700 
 27 H       -0.7900     0.1250    -0.3450 H     1 <1>   0.1500 
 28 H       -1.6750    -1.9560     0.2730 H     1 <1>   0.0800 
 29 H       -3.1720    -2.0700     1.1510 H     1 <1>   0.0800 
 30 H       -0.8530     2.6210    -0.0140 H     1 <1>   0.1500 
 31 H       -2.8190    -1.7330    -1.8340 H     1 <1>   0.0800 
 32 H       -4.3640    -1.5240    -1.0610 H     1 <1>   0.0800 
 33 H       -5.3820    -2.9100     1.2350 H     1 <1>   0.0800 
 34 H       -6.2330    -2.6140    -0.2820 H     1 <1>   0.0800 
 35 H       -5.2290    -5.8750    -1.3110 H     1 <1>   0.0800 
 36 H       -4.0010    -6.0580    -0.0690 H     1 <1>   0.0800 
 37 H       -7.5730    -4.4720    -0.0500 H     1 <1>   0.0800 
 38 H       -5.5100    -5.8740     1.6570 H     1 <1>   0.0800 
 39 H       -6.7090    -4.2930     2.6380 H     1 <1>   0.4000 
 40 H       -7.4300    -6.8670    -0.4700 H     1 <1>   0.0800 
 41 H       -7.5760    -7.1170     1.2460 H     1 <1>   0.0800 
 42 H       -6.2950    -8.8000    -1.7790 H     1 <1>   0.1500 
 43 H       -4.1410   -10.4170     1.4250 H     1 <1>   0.2700 
 44 H       -4.8400   -11.0630    -2.3110 H     1 <1>   0.0800 
 45 H       -4.7780   -12.0850    -0.8950 H     1 <1>   0.0800 
 46 H       -3.3980   -11.0950    -1.3260 H     1 <1>   0.0800 
@<TRIPOS>BOND
  1   1   2  2   
  2   2   3  am  
  3   2   4  am  
  4   3   5  1   
  5   3   6  1   
  6   4   7  am  
  7   4  26  1   
  8   5   8  2   
  9   5  27  1   
 10   6   9  1   
 11   6  28  1   
 12   6  29  1   
 13   7   8  1   
 14   7  10  2   
 15   8  30  1   
 16   9  11  1   
 17   9  31  1   
 18   9  32  1   
 19  11  12  2   
 20  11  13  am  
 21  13  14  1   
 22  13  15  1   
 23  14  16  1   
 24  14  33  1   
 25  14  34  1   
 26  15  17  1   
 27  15  35  1   
 28  15  36  1   
 29  16  17  1   
 30  16  18  1   
 31  16  37  1   
 32  17  19  1   
 33  17  38  1   
 34  18  39  1   
 35  19  20  1   
 36  19  40  1   
 37  19  41  1   
 38  20  21  2   
 39  20  22  1   
 40  21  23  1   
 41  22  24  2   
 42  22  42  1   
 43  23  24  1   
 44  23  43  1   
 45  24  25  1   
 46  25  44  1   
 47  25  45  1   
 48  25  46  1   
@<TRIPOS>SUBSTRUCTURE
  1 ****  13 GROUP 4 **** **** 0

# MOE 2024.06 (io_trps.svl 2023.06)
