@<TRIPOS>MOLECULE
NONAME
56 58 1 0 0 
SMALL
USER_CHARGES


@<TRIPOS>ATOM
  1 O       -3.6080     2.0840    -2.3970 O.2   1 <1>  -0.5700 
  2 C       -3.2820     1.4180    -1.4310 C.2   1 <1>   0.5440 
  3 N       -3.9460     0.2210    -1.2210 N.am  1 <1>  -0.6600 
  4 C       -2.2280     1.9210    -0.5670 C.ar  1 <1>   0.0860 
  5 C       -3.3840    -1.0150    -0.5450 C.3   1 <1>   0.3640 
  6 C       -5.3490     0.0710    -1.7110 C.3   1 <1>   0.1400 
  7 C       -1.0740     2.4830    -1.1130 C.ar  1 <1>  -0.1500 
  8 C       -2.3110     1.8540     0.8230 C.ar  1 <1>  -0.1500 
  9 C       -1.8510    -0.9950    -0.5180 C.ar  1 <1>  -0.1430 
 10 C       -3.8670    -2.3500    -1.2030 C.3   1 <1>   0.2000 
 11 C       -5.5110    -1.2390    -2.4770 C.3   1 <1>   0.1200 
 12 C       -0.0190     2.9070    -0.3260 C.ar  1 <1>  -0.1440 
 13 C       -1.2620     2.2590     1.6260 C.ar  1 <1>  -0.1500 
 14 C       -1.1860    -1.0790     0.6980 C.ar  1 <1>  -0.1500 
 15 C       -1.1040    -0.8880    -1.6850 C.ar  1 <1>  -0.1500 
 16 O       -5.2050    -2.2980    -1.6270 O.3   1 <1>  -0.5600 
 17 C       -3.7970    -3.5750    -0.2700 C.3   1 <1>   0.1200 
 18 C       -0.0970     2.7660     1.0570 C.ar  1 <1>   0.0830 
 19 C        1.2150     3.5080    -0.9840 C.3   1 <1>  -0.0970 
 20 C        0.1950    -1.0400     0.7600 C.ar  1 <1>   0.0830 
 21 C        0.2790    -0.8360    -1.6310 C.ar  1 <1>  -0.1500 
 22 O       -2.5370    -3.7700     0.2840 O.3   1 <1>  -0.6800 
 23 O        0.9810     3.1200     1.7980 O.3   1 <1>  -0.3630 
 24 O        0.7670    -1.1670     1.9810 O.3   1 <1>  -0.3620 
 25 C        0.9390    -0.8880    -0.4150 C.ar  1 <1>   0.0830 
 26 C        1.1580     2.6190     3.1040 C.3   1 <1>   0.0400 
 27 C        1.3150    -2.4370     2.2510 C.3   1 <1>   0.0400 
 28 O        2.2930    -0.7790    -0.4420 O.3   1 <1>  -0.3630 
 29 C        2.8900     0.1610     0.4260 C.3   1 <1>   0.0400 
 30 H       -3.7430    -1.0130     0.4690 H     1 <1>   0.0800 
 31 H       -6.0220     0.0790    -0.8720 H     1 <1>   0.0800 
 32 H       -5.6230     0.8880    -2.3560 H     1 <1>   0.0800 
 33 H       -1.0150     2.5730    -2.1830 H     1 <1>   0.1500 
 34 H       -3.2060     1.4650     1.2730 H     1 <1>   0.1500 
 35 H       -3.2740    -2.5500    -2.0770 H     1 <1>   0.0800 
 36 H       -4.8650    -1.2690    -3.3370 H     1 <1>   0.0800 
 37 H       -6.5310    -1.3580    -2.7970 H     1 <1>   0.0800 
 38 H       -1.3620     2.1720     2.6900 H     1 <1>   0.1500 
 39 H       -1.7350    -1.1820     1.6160 H     1 <1>   0.1500 
 40 H       -1.5970    -0.8220    -2.6400 H     1 <1>   0.1500 
 41 H       -4.0550    -4.4640    -0.8180 H     1 <1>   0.0800 
 42 H       -4.4880    -3.4530     0.5460 H     1 <1>   0.0800 
 43 H        1.0320     3.7240    -2.0210 H     1 <1>   0.0800 
 44 H        2.0380     2.8210    -0.9160 H     1 <1>   0.0800 
 45 H        1.4850     4.4240    -0.4890 H     1 <1>   0.0800 
 46 H        0.8550    -0.7370    -2.5330 H     1 <1>   0.1500 
 47 H       -1.8410    -3.7790    -0.4050 H     1 <1>   0.4000 
 48 H        2.1500     2.8750     3.4280 H     1 <1>   0.0800 
 49 H        1.0420     1.5490     3.0840 H     1 <1>   0.0800 
 50 H        0.4330     3.0740     3.7540 H     1 <1>   0.0800 
 51 H        1.7290    -2.4230     3.2420 H     1 <1>   0.0800 
 52 H        2.0850    -2.6480     1.5300 H     1 <1>   0.0800 
 53 H        0.5320    -3.1730     2.1870 H     1 <1>   0.0800 
 54 H        3.8230     0.4740    -0.0060 H     1 <1>   0.0800 
 55 H        3.0660    -0.3040     1.3780 H     1 <1>   0.0800 
 56 H        2.2340     1.0060     0.5410 H     1 <1>   0.0800 
@<TRIPOS>BOND
  1   1   2  2   
  2   2   3  am  
  3   2   4  1   
  4   3   5  1   
  5   3   6  1   
  6   4   7  ar  
  7   4   8  ar  
  8   5   9  1   
  9   5  10  1   
 10   5  30  1   
 11   6  11  1   
 12   6  31  1   
 13   6  32  1   
 14   7  12  ar  
 15   7  33  1   
 16   8  13  ar  
 17   8  34  1   
 18   9  14  ar  
 19   9  15  ar  
 20  10  16  1   
 21  10  17  1   
 22  10  35  1   
 23  11  16  1   
 24  11  36  1   
 25  11  37  1   
 26  12  18  ar  
 27  12  19  1   
 28  13  18  ar  
 29  13  38  1   
 30  14  20  ar  
 31  14  39  1   
 32  15  21  ar  
 33  15  40  1   
 34  17  22  1   
 35  17  41  1   
 36  17  42  1   
 37  18  23  1   
 38  19  43  1   
 39  19  44  1   
 40  19  45  1   
 41  20  24  1   
 42  20  25  ar  
 43  21  25  ar  
 44  21  46  1   
 45  22  47  1   
 46  23  26  1   
 47  24  27  1   
 48  25  28  1   
 49  26  48  1   
 50  26  49  1   
 51  26  50  1   
 52  27  51  1   
 53  27  52  1   
 54  27  53  1   
 55  28  29  1   
 56  29  54  1   
 57  29  55  1   
 58  29  56  1   
@<TRIPOS>SUBSTRUCTURE
  1 ****   9 GROUP 4 **** **** 0

# MOE 2024.06 (io_trps.svl 2023.06)
