@<TRIPOS>MOLECULE
NONAME
44 47 1 0 0 
SMALL
USER_CHARGES


@<TRIPOS>ATOM
  1 S       -0.1000     0.7520    -2.1120 S.3   1 <1>  -0.0800 
  2 C       -0.0170     2.1000    -0.9980 C.2   1 <1>  -0.1400 
  3 C        1.5580     1.0430    -2.6180 C.2   1 <1>  -0.1100 
  4 C        1.1830     2.6940    -1.0190 C.2   1 <1>  -0.1810 
  5 C       -1.1800     2.5140    -0.1380 C.3   1 <1>   0.0200 
  6 C        2.0880     2.0900    -1.9560 C.2   1 <1>  -0.1500 
  7 C        1.4870     3.8870    -0.1100 C.3   1 <1>   0.4610 
  8 C       -0.8990     3.9450     0.3480 C.3   1 <1>   0.1200 
  9 O        0.4260     4.0760     0.8090 O.3   1 <1>  -0.5600 
 10 C        1.6780     5.1730    -0.9270 C.3   1 <1>  -0.1600 
 11 C        2.7340     3.6100     0.7370 C.3   1 <1>  -0.1600 
 12 C        2.0520     6.3600    -0.0380 C.3   1 <1>   0.1400 
 13 C        3.0990     4.8100     1.6120 C.3   1 <1>   0.1400 
 14 N        3.2700     6.0170     0.7500 N.am  1 <1>  -0.6600 
 15 C        4.4520     6.7540     0.7250 C.2   1 <1>   0.6300 
 16 O        5.4200     6.2720     1.2970 O.2   1 <1>  -0.5700 
 17 C        4.5810     8.0530     0.0440 C.2   1 <1>   0.6550 
 18 O        3.7340     8.9200     0.2070 O.2   1 <1>  -0.5700 
 19 C        5.6930     8.3070    -0.8470 C.2   1 <1>  -0.2370 
 20 N        5.9780     9.5130    -1.4550 N.pl3 1 <1>   0.0480 
 21 C        6.6560     7.4150    -1.2590 C.2   1 <1>  -0.1500 
 22 C        7.0820     9.3500    -2.2200 C.2   1 <1>  -0.3020 
 23 C        5.2600    10.7970    -1.3220 C.3   1 <1>   0.0160 
 24 C        7.5240     8.0700    -2.1220 C.2   1 <1>  -0.1500 
 25 H        1.9650     0.3880    -3.3680 H     1 <1>   0.1500 
 26 H       -1.2730     1.8460     0.6990 H     1 <1>   0.0800 
 27 H       -2.0930     2.4930    -0.7040 H     1 <1>   0.0800 
 28 H        3.0880     2.4650    -2.0900 H     1 <1>   0.1500 
 29 H       -1.5560     4.1970     1.1610 H     1 <1>   0.0800 
 30 H       -1.0540     4.6480    -0.4510 H     1 <1>   0.0800 
 31 H        0.7860     5.3930    -1.4830 H     1 <1>   0.0800 
 32 H        2.4640     5.0210    -1.6430 H     1 <1>   0.0800 
 33 H        3.5690     3.3880     0.1000 H     1 <1>   0.0800 
 34 H        2.5570     2.7490     1.3530 H     1 <1>   0.0800 
 35 H        1.2450     6.5820     0.6410 H     1 <1>   0.0800 
 36 H        2.2120     7.2230    -0.6580 H     1 <1>   0.0800 
 37 H        3.9990     4.5940     2.1620 H     1 <1>   0.0800 
 38 H        2.3140     4.9970     2.3250 H     1 <1>   0.0800 
 39 H        6.7520     6.3790    -0.9770 H     1 <1>   0.1500 
 40 H        7.5100    10.1490    -2.8000 H     1 <1>   0.1500 
 41 H        5.2180    11.0750    -0.2840 H     1 <1>   0.0800 
 42 H        4.2610    10.6870    -1.7030 H     1 <1>   0.0800 
 43 H        5.7730    11.5610    -1.8760 H     1 <1>   0.0800 
 44 H        8.3800     7.6300    -2.6050 H     1 <1>   0.1500 
@<TRIPOS>BOND
  1   1   2  1   
  2   1   3  1   
  3   2   4  2   
  4   2   5  1   
  5   3   6  2   
  6   3  25  1   
  7   4   6  1   
  8   4   7  1   
  9   5   8  1   
 10   5  26  1   
 11   5  27  1   
 12   6  28  1   
 13   7   9  1   
 14   7  10  1   
 15   7  11  1   
 16   8   9  1   
 17   8  29  1   
 18   8  30  1   
 19  10  12  1   
 20  10  31  1   
 21  10  32  1   
 22  11  13  1   
 23  11  33  1   
 24  11  34  1   
 25  12  14  1   
 26  12  35  1   
 27  12  36  1   
 28  13  14  1   
 29  13  37  1   
 30  13  38  1   
 31  14  15  am  
 32  15  16  2   
 33  15  17  1   
 34  17  18  2   
 35  17  19  1   
 36  19  20  1   
 37  19  21  2   
 38  20  22  1   
 39  20  23  1   
 40  21  24  1   
 41  21  39  1   
 42  22  24  2   
 43  22  40  1   
 44  23  41  1   
 45  23  42  1   
 46  23  43  1   
 47  24  44  1   
@<TRIPOS>SUBSTRUCTURE
  1 ****  14 GROUP 4 **** **** 0

# MOE 2024.06 (io_trps.svl 2023.06)
