@<TRIPOS>MOLECULE
NONAME
42 43 1 0 0 
SMALL
USER_CHARGES


@<TRIPOS>ATOM
  1 S       -0.6030     0.4190     0.7020 S.o2  1 <1>   1.4470 
  2 O       -0.1750    -0.5080     1.7280 O.2   1 <1>  -0.6500 
  3 O       -1.4130     1.5530     1.0940 O.2   1 <1>  -0.6500 
  4 N       -1.4210    -0.4530    -0.5010 N.am  1 <1>  -0.8490 
  5 C        0.8670     1.0070    -0.1710 C.ar  1 <1>  -0.0090 
  6 C       -0.9020    -1.8070    -0.7950 C.3   1 <1>   0.1960 
  7 C       -2.8800    -0.4110    -0.4400 C.3   1 <1>   0.1960 
  8 C        0.7770     1.9410    -1.1940 C.ar  1 <1>   0.1900 
  9 C        2.1370     0.5290     0.1380 C.ar  1 <1>  -0.1500 
 10 C       -1.7630    -2.9870    -0.2580 C.3   1 <1>  -0.1060 
 11 C       -3.4100    -1.2510     0.7260 C.3   1 <1>  -0.1600 
 12 F       -0.3900     2.4200    -1.5320 F     1 <1>  -0.1900 
 13 C        1.8740     2.4100    -1.9000 C.ar  1 <1>  -0.1500 
 14 C        3.2350     0.9930    -0.5650 C.ar  1 <1>   0.1900 
 15 C       -2.6990    -3.4440    -1.3940 C.2   1 <1>   0.9060 
 16 C       -2.5700    -2.5130     0.9800 C.3   1 <1>   0.2000 
 17 C       -0.8430    -4.1980     0.0870 C.3   1 <1>  -0.1600 
 18 C        3.1320     1.9270    -1.5800 C.ar  1 <1>  -0.1500 
 19 F        4.4150     0.5300    -0.2590 F     1 <1>  -0.1900 
 20 O       -3.8930    -3.6920    -1.1620 O.co2 1 <1>  -0.9000 
 21 O       -2.2340    -3.5930    -2.5300 O.co2 1 <1>  -0.9000 
 22 O       -3.4280    -3.5110     1.3970 O.3   1 <1>  -0.6800 
 23 C        0.0810    -4.0360     1.3100 C.3   1 <1>  -0.1600 
 24 C        1.0220    -5.2370     1.4430 C.3   1 <1>  -0.2400 
 25 H       -0.7960    -1.8910    -1.8630 H     1 <1>   0.0800 
 26 H        0.0960    -1.8840    -0.4090 H     1 <1>   0.0800 
 27 H       -3.2250     0.6060    -0.3550 H     1 <1>   0.0800 
 28 H       -3.2720    -0.8050    -1.3630 H     1 <1>   0.0800 
 29 H        2.2750    -0.2000     0.9190 H     1 <1>   0.1500 
 30 H       -4.4260    -1.5180     0.4970 H     1 <1>   0.0800 
 31 H       -3.4180    -0.6540     1.6190 H     1 <1>   0.0800 
 32 H        1.7400     3.1360    -2.6830 H     1 <1>   0.1500 
 33 H       -1.9020    -2.3090     1.7970 H     1 <1>   0.0800 
 34 H       -1.4720    -5.0560     0.2590 H     1 <1>   0.0800 
 35 H       -0.2480    -4.4240    -0.7810 H     1 <1>   0.0800 
 36 H        4.0110     2.2620    -2.1020 H     1 <1>   0.1500 
 37 H       -3.8920    -3.8060     0.5590 H     1 <1>   0.4000 
 38 H        0.6700    -3.1400     1.2340 H     1 <1>   0.0800 
 39 H       -0.5130    -3.9670     2.2050 H     1 <1>   0.0800 
 40 H        1.6480    -5.3210     0.5730 H     1 <1>   0.0800 
 41 H        0.4530    -6.1440     1.5520 H     1 <1>   0.0800 
 42 H        1.6480    -5.1180     2.3090 H     1 <1>   0.0800 
@<TRIPOS>BOND
  1   1   2  2   
  2   1   3  2   
  3   1   4  am  
  4   1   5  1   
  5   4   6  1   
  6   4   7  1   
  7   5   8  ar  
  8   5   9  ar  
  9   6  10  1   
 10   6  25  1   
 11   6  26  1   
 12   7  11  1   
 13   7  27  1   
 14   7  28  1   
 15   8  12  1   
 16   8  13  ar  
 17   9  14  ar  
 18   9  29  1   
 19  10  15  1   
 20  10  16  1   
 21  10  17  1   
 22  11  16  1   
 23  11  30  1   
 24  11  31  1   
 25  13  18  ar  
 26  13  32  1   
 27  14  18  ar  
 28  14  19  1   
 29  15  20  ar  
 30  15  21  ar  
 31  16  22  1   
 32  16  33  1   
 33  17  23  1   
 34  17  34  1   
 35  17  35  1   
 36  18  36  1   
 37  22  37  1   
 38  23  24  1   
 39  23  38  1   
 40  23  39  1   
 41  24  40  1   
 42  24  41  1   
 43  24  42  1   
@<TRIPOS>SUBSTRUCTURE
  1 ****   6 GROUP 4 **** **** 0

# MOE 2024.06 (io_trps.svl 2023.06)
