@<TRIPOS>MOLECULE
NONAME
50 53 1 0 0 
SMALL
USER_CHARGES


@<TRIPOS>ATOM
  1 O        0.1430     0.2770     1.1120 O.3   1 <1>  -0.6800 
  2 C        1.0670     0.1430     0.0850 C.3   1 <1>   0.2000 
  3 C        1.7820    -1.1950     0.2740 C.3   1 <1>  -0.0800 
  4 C        2.1790     1.1870     0.2980 C.3   1 <1>   0.3430 
  5 C        2.7480    -0.8460     1.4090 C.3   1 <1>   0.3430 
  6 C        2.4840    -1.6300    -1.0390 C.3   1 <1>  -0.0170 
  7 N        3.2810     0.4810     1.0310 N.4   1 <1>  -0.9590 
  8 C        3.7590    -2.4310    -0.8220 C.ar  1 <1>   0.1670 
  9 C        3.8350     1.2630     2.1610 C.3   1 <1>   0.4860 
 10 N        4.8430    -1.7250    -0.5280 N.ar  1 <1>  -0.6200 
 11 C        3.7490    -3.8190    -0.9430 C.ar  1 <1>   0.1600 
 12 C        4.3840     2.5600     1.6120 C.ar  1 <1>  -0.1440 
 13 C        5.9120    -2.4990    -0.3900 C.ar  1 <1>   0.1600 
 14 N        4.8100    -4.5880    -0.7800 N.ar  1 <1>  -0.6200 
 15 C        5.5080     2.5250     0.7750 C.ar  1 <1>   0.0000 
 16 C        3.7950     3.7720     1.8980 C.ar  1 <1>  -0.1500 
 17 C        5.8940    -3.8840    -0.5090 C.ar  1 <1>   0.1600 
 18 C        5.9960     3.7060     0.2240 C.ar  1 <1>  -0.1520 
 19 C        6.3470     1.4930     0.3010 C.2   1 <1>  -0.1500 
 20 C        4.2990     4.9570     1.3510 C.ar  1 <1>  -0.1500 
 21 N        7.0820     3.4060    -0.5660 N.pl3 1 <1>   0.0480 
 22 C        5.3900     4.9320     0.5160 C.ar  1 <1>  -0.1500 
 23 C        7.2770     2.0560    -0.5040 C.2   1 <1>  -0.3020 
 24 C        7.9080     4.3640    -1.3300 C.3   1 <1>   0.0960 
 25 C        8.9870     4.9790    -0.4340 C.3   1 <1>  -0.2400 
 26 H       -0.6880    -0.2060     0.9150 H     1 <1>   0.4000 
 27 H        0.5590     0.2580    -0.8590 H     1 <1>   0.0800 
 28 H        1.1090    -1.9740     0.5880 H     1 <1>   0.0800 
 29 H        1.7950     2.0210     0.8620 H     1 <1>   0.0800 
 30 H        2.5500     1.5420    -0.6490 H     1 <1>   0.0800 
 31 H        3.5330    -1.5770     1.5250 H     1 <1>   0.0800 
 32 H        2.1940    -0.7670     2.3300 H     1 <1>   0.0800 
 33 H        2.7510    -0.7710    -1.6310 H     1 <1>   0.0800 
 34 H        1.7930    -2.2040    -1.6330 H     1 <1>   0.0800 
 35 H        4.0540     0.3150     0.3620 H     1 <1>   0.4500 
 36 H        3.0640     1.4670     2.8850 H     1 <1>   0.0800 
 37 H        4.6280     0.7130     2.6420 H     1 <1>   0.0800 
 38 H        2.8270    -4.3200    -1.1860 H     1 <1>   0.1500 
 39 H        6.8510    -2.0200    -0.1730 H     1 <1>   0.1500 
 40 H        2.9360     3.8380     2.5450 H     1 <1>   0.1500 
 41 H        6.8130    -4.4290    -0.3760 H     1 <1>   0.1500 
 42 H        6.2560     0.4520     0.5500 H     1 <1>   0.1500 
 43 H        3.8240     5.8930     1.5910 H     1 <1>   0.1500 
 44 H        5.7810     5.8400     0.0930 H     1 <1>   0.1500 
 45 H        8.0790     1.5770    -1.0380 H     1 <1>   0.1500 
 46 H        8.3650     3.8460    -2.1540 H     1 <1>   0.0800 
 47 H        7.2690     5.1340    -1.7260 H     1 <1>   0.0800 
 48 H        9.6340     4.2100    -0.0500 H     1 <1>   0.0800 
 49 H        8.5350     5.5060     0.3880 H     1 <1>   0.0800 
 50 H        9.5800     5.6730    -1.0010 H     1 <1>   0.0800 
@<TRIPOS>BOND
  1   1   2  1   
  2   1  26  1   
  3   2   3  1   
  4   2   4  1   
  5   2  27  1   
  6   3   5  1   
  7   3   6  1   
  8   3  28  1   
  9   4   7  1   
 10   4  29  1   
 11   4  30  1   
 12   5   7  1   
 13   5  31  1   
 14   5  32  1   
 15   6   8  1   
 16   6  33  1   
 17   6  34  1   
 18   7   9  1   
 19   7  35  1   
 20   8  10  ar  
 21   8  11  ar  
 22   9  12  1   
 23   9  36  1   
 24   9  37  1   
 25  10  13  ar  
 26  11  14  ar  
 27  11  38  1   
 28  12  15  ar  
 29  12  16  ar  
 30  13  17  ar  
 31  13  39  1   
 32  14  17  ar  
 33  15  18  ar  
 34  15  19  1   
 35  16  20  ar  
 36  16  40  1   
 37  17  41  1   
 38  18  21  1   
 39  18  22  ar  
 40  19  23  2   
 41  19  42  1   
 42  20  22  ar  
 43  20  43  1   
 44  21  23  1   
 45  21  24  1   
 46  22  44  1   
 47  23  45  1   
 48  24  25  1   
 49  24  46  1   
 50  24  47  1   
 51  25  48  1   
 52  25  49  1   
 53  25  50  1   
@<TRIPOS>SUBSTRUCTURE
  1 ****   7 GROUP 4 **** **** 0

# MOE 2024.06 (io_trps.svl 2023.06)
