@<TRIPOS>MOLECULE
NONAME
43 45 1 0 0 
SMALL
USER_CHARGES


@<TRIPOS>ATOM
  1 O       -1.7430    -1.5750    -0.1120 O.3   1 <1>  -0.5600 
  2 C       -1.4820    -0.6270     0.8760 C.3   1 <1>   0.1200 
  3 C       -1.8250    -1.1260    -1.4220 C.3   1 <1>   0.1200 
  4 C       -2.6220     0.3980     1.0690 C.3   1 <1>   0.4230 
  5 C       -3.1470    -0.3840    -1.6710 C.3   1 <1>  -0.0800 
  6 N       -2.5840     1.4920     0.0200 N.4   1 <1>  -0.9590 
  7 C       -4.0050    -0.2850     1.2620 C.3   1 <1>   0.1100 
  8 C       -4.3780    -1.0640    -1.0340 C.3   1 <1>   0.1100 
  9 C       -3.0790     1.1170    -1.3520 C.3   1 <1>   0.3430 
 10 C       -3.3740     2.6650     0.4980 C.3   1 <1>   0.2630 
 11 N       -4.9220    -0.2800     0.0880 N.3   1 <1>  -0.8100 
 12 C       -6.2880    -0.7210     0.4830 C.3   1 <1>   0.2900 
 13 C       -6.3340    -2.0750     1.1900 C.2   1 <1>   0.0060 
 14 N       -6.0990    -2.2390     2.4460 N.2   1 <1>  -0.5650 
 15 N       -6.6510    -3.2400     0.6020 N.pl3 1 <1>   0.3140 
 16 C       -6.2780    -3.5580     2.5850 C.2   1 <1>   0.3660 
 17 N       -6.6050    -4.1990     1.5150 N.2   1 <1>  -0.7070 
 18 C       -7.0420    -3.5360    -0.7940 C.3   1 <1>   0.0960 
 19 C       -8.5380    -3.2830    -1.0180 C.3   1 <1>  -0.2400 
 20 H       -1.3590    -1.1790     1.7910 H     1 <1>   0.0800 
 21 H       -0.5480    -0.1420     0.6560 H     1 <1>   0.0800 
 22 H       -0.9640    -0.5200    -1.6500 H     1 <1>   0.0800 
 23 H       -1.7890    -2.0050    -2.0440 H     1 <1>   0.0800 
 24 H       -2.3980     0.8660     2.0130 H     1 <1>   0.0800 
 25 H       -3.3020    -0.4400    -2.7340 H     1 <1>   0.0800 
 26 H       -1.6020     1.7750    -0.0770 H     1 <1>   0.4500 
 27 H       -4.4980     0.2120     2.0790 H     1 <1>   0.0800 
 28 H       -3.8360    -1.3000     1.5830 H     1 <1>   0.0800 
 29 H       -4.1410    -2.0660    -0.7110 H     1 <1>   0.0800 
 30 H       -5.1380    -1.1380    -1.7940 H     1 <1>   0.0800 
 31 H       -4.0770     1.5060    -1.4780 H     1 <1>   0.0800 
 32 H       -2.4560     1.5980    -2.0870 H     1 <1>   0.0800 
 33 H       -4.4120     2.3890     0.6020 H     1 <1>   0.0800 
 34 H       -3.3030     3.4790    -0.2050 H     1 <1>   0.0800 
 35 H       -3.0090     3.0020     1.4540 H     1 <1>   0.0800 
 36 H       -6.6970     0.0100     1.1590 H     1 <1>   0.0800 
 37 H       -6.9260    -0.7330    -0.3820 H     1 <1>   0.0800 
 38 H       -6.1520    -4.0350     3.5440 H     1 <1>   0.1500 
 39 H       -6.4560    -2.9340    -1.4600 H     1 <1>   0.0800 
 40 H       -6.8180    -4.5700    -0.9890 H     1 <1>   0.0800 
 41 H       -8.7860    -2.2520    -0.8400 H     1 <1>   0.0800 
 42 H       -9.1180    -3.9060    -0.3570 H     1 <1>   0.0800 
 43 H       -8.8020    -3.5280    -2.0310 H     1 <1>   0.0800 
@<TRIPOS>BOND
  1   1   2  1   
  2   1   3  1   
  3   2   4  1   
  4   2  20  1   
  5   2  21  1   
  6   3   5  1   
  7   3  22  1   
  8   3  23  1   
  9   4   6  1   
 10   4   7  1   
 11   4  24  1   
 12   5   8  1   
 13   5   9  1   
 14   5  25  1   
 15   6   9  1   
 16   6  10  1   
 17   6  26  1   
 18   7  11  1   
 19   7  27  1   
 20   7  28  1   
 21   8  11  1   
 22   8  29  1   
 23   8  30  1   
 24   9  31  1   
 25   9  32  1   
 26  10  33  1   
 27  10  34  1   
 28  10  35  1   
 29  11  12  1   
 30  12  13  1   
 31  12  36  1   
 32  12  37  1   
 33  13  14  2   
 34  13  15  1   
 35  14  16  1   
 36  15  17  1   
 37  15  18  1   
 38  16  17  2   
 39  16  38  1   
 40  18  19  1   
 41  18  39  1   
 42  18  40  1   
 43  19  41  1   
 44  19  42  1   
 45  19  43  1   
@<TRIPOS>SUBSTRUCTURE
  1 ****  11 GROUP 4 **** **** 0

# MOE 2024.06 (io_trps.svl 2023.06)
