@<TRIPOS>MOLECULE
NONAME
50 52 1 0 0 
SMALL
USER_CHARGES


@<TRIPOS>ATOM
  1 F       -1.0020     1.6320     0.5610 F     1 <1>  -0.3400 
  2 C       -0.0160     0.7440     0.5990 C.3   1 <1>   0.8800 
  3 F       -0.5130    -0.3270     1.1990 F     1 <1>  -0.3400 
  4 O        1.0200     1.2540     1.4050 O.3   1 <1>  -0.3630 
  5 C        1.8680     2.2070     0.9560 C.ar  1 <1>   0.0830 
  6 C        1.6970     2.9110    -0.2340 C.ar  1 <1>  -0.1500 
  7 C        2.9730     2.4810     1.7440 C.ar  1 <1>  -0.1500 
  8 C        2.6240     3.8660    -0.6110 C.ar  1 <1>  -0.1500 
  9 C        3.8930     3.4370     1.3590 C.ar  1 <1>  -0.1500 
 10 C        3.7410     4.1610     0.1750 C.ar  1 <1>   0.0860 
 11 C        4.7070     5.1750    -0.2150 C.2   1 <1>   0.5440 
 12 O        5.8540     5.1500     0.1950 O.2   1 <1>  -0.5700 
 13 N        4.3640     6.2530    -0.9980 N.am  1 <1>  -0.6600 
 14 C        5.3120     6.7910    -2.0300 C.3   1 <1>   0.1400 
 15 C        3.3070     7.1940    -0.5500 C.3   1 <1>   0.1400 
 16 C        6.5030     7.5690    -1.4280 C.3   1 <1>   0.3430 
 17 C        3.8490     8.1080     0.5580 C.3   1 <1>  -0.1600 
 18 N        6.2660     7.9650    -0.0040 N.4   1 <1>  -0.9590 
 19 C        5.1170     8.8890     0.1950 C.3   1 <1>   0.3430 
 20 C        7.4960     8.3600     0.7530 C.3   1 <1>   0.3430 
 21 C        8.4730     9.2820    -0.0050 C.3   1 <1>  -0.0800 
 22 C        9.5640     9.6700     0.9790 C.3   1 <1>   0.1200 
 23 C        7.9220    10.6660    -0.3500 C.3   1 <1>  -0.1600 
 24 O        8.9680    10.6700     1.7290 O.3   1 <1>  -0.5600 
 25 C        8.2280    11.5030     0.8940 C.3   1 <1>   0.1200 
 26 H        0.3050     0.4930    -0.3970 H     1 <1>   0.0800 
 27 H        0.8520     2.7390    -0.8740 H     1 <1>   0.1500 
 28 H        3.1080     1.9370     2.6630 H     1 <1>   0.1500 
 29 H        2.4800     4.3950    -1.5370 H     1 <1>   0.1500 
 30 H        4.7480     3.6280     1.9850 H     1 <1>   0.1500 
 31 H        4.7770     7.4310    -2.7100 H     1 <1>   0.0800 
 32 H        5.6980     5.9710    -2.6120 H     1 <1>   0.0800 
 33 H        2.4640     6.6390    -0.1720 H     1 <1>   0.0800 
 34 H        2.9630     7.7800    -1.3850 H     1 <1>   0.0800 
 35 H        6.7180     8.4350    -2.0310 H     1 <1>   0.0800 
 36 H        7.3640     6.9220    -1.4660 H     1 <1>   0.0800 
 37 H        4.0220     7.5330     1.4510 H     1 <1>   0.0800 
 38 H        3.0790     8.8210     0.7980 H     1 <1>   0.0800 
 39 H        5.9630     7.0550     0.4070 H     1 <1>   0.4500 
 40 H        5.3420     9.5700     1.0000 H     1 <1>   0.0800 
 41 H        4.9500     9.4720    -0.6970 H     1 <1>   0.0800 
 42 H        8.0320     7.4630     1.0210 H     1 <1>   0.0800 
 43 H        7.2100     8.8410     1.6750 H     1 <1>   0.0800 
 44 H        8.9030     8.7800    -0.8520 H     1 <1>   0.0800 
 45 H       10.4220    10.0900     0.4790 H     1 <1>   0.0800 
 46 H        9.8740     8.8700     1.6300 H     1 <1>   0.0800 
 47 H        6.8800    10.6890    -0.6010 H     1 <1>   0.0800 
 48 H        8.4700    11.0820    -1.1780 H     1 <1>   0.0800 
 49 H        7.3380    11.8030     1.4200 H     1 <1>   0.0800 
 50 H        8.8250    12.3680     0.6570 H     1 <1>   0.0800 
@<TRIPOS>BOND
  1   1   2  1   
  2   2   3  1   
  3   2   4  1   
  4   2  26  1   
  5   4   5  1   
  6   5   6  ar  
  7   5   7  ar  
  8   6   8  ar  
  9   6  27  1   
 10   7   9  ar  
 11   7  28  1   
 12   8  10  ar  
 13   8  29  1   
 14   9  10  ar  
 15   9  30  1   
 16  10  11  1   
 17  11  12  2   
 18  11  13  am  
 19  13  14  1   
 20  13  15  1   
 21  14  16  1   
 22  14  31  1   
 23  14  32  1   
 24  15  17  1   
 25  15  33  1   
 26  15  34  1   
 27  16  18  1   
 28  16  35  1   
 29  16  36  1   
 30  17  19  1   
 31  17  37  1   
 32  17  38  1   
 33  18  19  1   
 34  18  20  1   
 35  18  39  1   
 36  19  40  1   
 37  19  41  1   
 38  20  21  1   
 39  20  42  1   
 40  20  43  1   
 41  21  22  1   
 42  21  23  1   
 43  21  44  1   
 44  22  24  1   
 45  22  45  1   
 46  22  46  1   
 47  23  25  1   
 48  23  47  1   
 49  23  48  1   
 50  24  25  1   
 51  25  49  1   
 52  25  50  1   
@<TRIPOS>SUBSTRUCTURE
  1 ****  11 GROUP 4 **** **** 0

# MOE 2024.06 (io_trps.svl 2023.06)
