@<TRIPOS>MOLECULE
NONAME
48 50 1 0 0 
SMALL
USER_CHARGES


@<TRIPOS>ATOM
  1 S       -1.3190    -0.3750    -1.8320 S.o2  1 <1>   1.2040 
  2 O       -0.5810    -1.2700    -2.6950 O.2   1 <1>  -0.6500 
  3 O       -2.1870     0.6300    -2.4030 O.2   1 <1>  -0.6500 
  4 C       -2.2300    -1.3320    -0.5960 C.ar  1 <1>  -0.0090 
  5 C       -0.1240     0.4810    -0.8240 C.3   1 <1>  -0.1350 
  6 C       -3.3500    -0.8060     0.0370 C.ar  1 <1>  -0.1500 
  7 C       -1.8140    -2.6040    -0.2230 C.ar  1 <1>  -0.1500 
  8 C       -4.0300    -1.5210     1.0080 C.ar  1 <1>  -0.1500 
  9 C       -2.4880    -3.3240     0.7480 C.ar  1 <1>  -0.1500 
 10 C       -3.6030    -2.7880     1.3690 C.ar  1 <1>  -0.1430 
 11 C       -4.3490    -3.5890     2.4350 C.3   1 <1>   0.0440 
 12 C       -4.6560    -5.0190     2.0100 C.2   1 <1>   0.5690 
 13 O       -4.1220    -5.9140     2.6200 O.2   1 <1>  -0.5700 
 14 N       -5.5170    -5.2730     0.9750 N.am  1 <1>  -0.6600 
 15 C       -6.2110    -4.2670     0.1340 C.3   1 <1>   0.1400 
 16 C       -5.8380    -6.6440     0.5170 C.3   1 <1>   0.1400 
 17 C       -7.0900    -5.0760    -0.8240 C.3   1 <1>   0.2000 
 18 C       -7.1460    -6.4960    -0.2600 C.3   1 <1>  -0.0800 
 19 O       -8.3730    -4.5530    -0.8950 O.3   1 <1>  -0.6800 
 20 C       -7.3510    -7.5580    -1.3530 C.3   1 <1>  -0.0160 
 21 C       -7.4160    -8.9600    -0.7710 C.ar  1 <1>   0.1670 
 22 N       -6.2570    -9.5680    -0.5720 N.ar  1 <1>  -0.6200 
 23 C       -8.6480    -9.5250    -0.4760 C.ar  1 <1>  -0.1500 
 24 C       -6.3270   -10.7840    -0.0570 C.ar  1 <1>   0.1600 
 25 C       -8.7070   -10.7940     0.0590 C.ar  1 <1>  -0.1500 
 26 C       -7.5050   -11.4330     0.2720 C.ar  1 <1>  -0.1500 
 27 H        0.5020    -0.2210    -0.3080 H     1 <1>   0.0800 
 28 H       -0.6180     1.1010    -0.1020 H     1 <1>   0.0800 
 29 H        0.4970     1.1020    -1.4400 H     1 <1>   0.0800 
 30 H       -3.6980     0.1770    -0.2360 H     1 <1>   0.1500 
 31 H       -0.9530    -3.0420    -0.7000 H     1 <1>   0.1500 
 32 H       -4.8930    -1.0810     1.4780 H     1 <1>   0.1500 
 33 H       -2.1400    -4.3100     1.0140 H     1 <1>   0.1500 
 34 H       -5.2730    -3.1070     2.6910 H     1 <1>   0.0800 
 35 H       -3.7460    -3.6200     3.3240 H     1 <1>   0.0800 
 36 H       -6.8040    -3.6190     0.7540 H     1 <1>   0.0800 
 37 H       -5.4900    -3.6930    -0.4230 H     1 <1>   0.0800 
 38 H       -5.0460    -6.9950    -0.1240 H     1 <1>   0.0800 
 39 H       -5.9430    -7.3210     1.3490 H     1 <1>   0.0800 
 40 H       -6.6610    -5.0590    -1.8110 H     1 <1>   0.0800 
 41 H       -7.9440    -6.5690     0.4580 H     1 <1>   0.0800 
 42 H       -8.8090    -4.6090    -0.0230 H     1 <1>   0.4000 
 43 H       -6.5470    -7.5140    -2.0660 H     1 <1>   0.0800 
 44 H       -8.2640    -7.3490    -1.8830 H     1 <1>   0.0800 
 45 H       -9.5550    -8.9790    -0.6620 H     1 <1>   0.1500 
 46 H       -5.3930   -11.2930     0.1140 H     1 <1>   0.1500 
 47 H       -9.6460   -11.2620     0.3000 H     1 <1>   0.1500 
 48 H       -7.4770   -12.4230     0.6880 H     1 <1>   0.1500 
@<TRIPOS>BOND
  1   1   2  2   
  2   1   3  2   
  3   1   4  1   
  4   1   5  1   
  5   4   6  ar  
  6   4   7  ar  
  7   5  27  1   
  8   5  28  1   
  9   5  29  1   
 10   6   8  ar  
 11   6  30  1   
 12   7   9  ar  
 13   7  31  1   
 14   8  10  ar  
 15   8  32  1   
 16   9  10  ar  
 17   9  33  1   
 18  10  11  1   
 19  11  12  1   
 20  11  34  1   
 21  11  35  1   
 22  12  13  2   
 23  12  14  am  
 24  14  15  1   
 25  14  16  1   
 26  15  17  1   
 27  15  36  1   
 28  15  37  1   
 29  16  18  1   
 30  16  38  1   
 31  16  39  1   
 32  17  18  1   
 33  17  19  1   
 34  17  40  1   
 35  18  20  1   
 36  18  41  1   
 37  19  42  1   
 38  20  21  1   
 39  20  43  1   
 40  20  44  1   
 41  21  22  ar  
 42  21  23  ar  
 43  22  24  ar  
 44  23  25  ar  
 45  23  45  1   
 46  24  26  ar  
 47  24  46  1   
 48  25  26  ar  
 49  25  47  1   
 50  26  48  1   
@<TRIPOS>SUBSTRUCTURE
  1 ****  14 GROUP 4 **** **** 0

# MOE 2024.06 (io_trps.svl 2023.06)
