@<TRIPOS>MOLECULE
NONAME
44 45 1 0 0 
SMALL
USER_CHARGES


@<TRIPOS>ATOM
  1 S        0.6850     0.0150    -1.6730 S.o2  1 <1>   1.3330 
  2 O        1.0910    -1.3270    -2.0290 O.2   1 <1>  -0.6500 
  3 O       -0.1590     0.7690    -2.5710 O.2   1 <1>  -0.6500 
  4 N       -0.1220    -0.0670    -0.1790 N.am  1 <1>  -0.8490 
  5 C        2.1630     0.9640    -1.3060 C.3   1 <1>  -0.0550 
  6 C       -0.9690    -1.2600    -0.0740 C.3   1 <1>   0.1160 
  7 C       -0.9170     1.1300     0.1160 C.3   1 <1>   0.1160 
  8 C        3.1870     0.2220    -0.4200 C.3   1 <1>  -0.0800 
  9 C        4.5140     0.9420    -0.2350 C.3   1 <1>   0.2200 
 10 C        2.7420    -0.0390     1.0250 C.3   1 <1>   0.1200 
 11 N        4.2990     2.3840     0.0350 N.am  1 <1>  -0.7300 
 12 C        5.0090     0.2790     1.0420 C.3   1 <1>   0.1200 
 13 O        3.8690     0.1420     1.8340 O.3   1 <1>  -0.5600 
 14 C        4.4390     3.3910    -0.8750 C.2   1 <1>   0.5440 
 15 O        4.6910     3.0850    -2.0230 O.2   1 <1>  -0.5700 
 16 C        4.2810     4.7850    -0.4890 C.ar  1 <1>   0.0860 
 17 C        4.7540     5.8060    -1.3130 C.ar  1 <1>  -0.1500 
 18 C        3.6550     5.1650     0.7060 C.ar  1 <1>  -0.1500 
 19 C        4.6030     7.1230    -0.9340 C.ar  1 <1>   0.1900 
 20 C        3.5070     6.4940     1.0780 C.ar  1 <1>  -0.1440 
 21 F        5.0570     8.0600    -1.7210 F     1 <1>  -0.1900 
 22 C        3.9910     7.4890     0.2470 C.ar  1 <1>  -0.1500 
 23 C        2.8270     6.8630     2.3850 C.3   1 <1>  -0.0970 
 24 H        2.6450     1.2060    -2.2340 H     1 <1>   0.0800 
 25 H        1.8830     1.8900    -0.8440 H     1 <1>   0.0800 
 26 H       -1.4590    -1.2880     0.8840 H     1 <1>   0.0800 
 27 H       -0.3680    -2.1490    -0.1700 H     1 <1>   0.0800 
 28 H       -1.7130    -1.2600    -0.8540 H     1 <1>   0.0800 
 29 H       -1.3300     1.0640     1.1090 H     1 <1>   0.0800 
 30 H       -1.7240     1.2320    -0.5920 H     1 <1>   0.0800 
 31 H       -0.3000     2.0100     0.0630 H     1 <1>   0.0800 
 32 H        3.3940    -0.7330    -0.8720 H     1 <1>   0.0800 
 33 H        5.1890     0.8010    -1.0630 H     1 <1>   0.0800 
 34 H        2.3730    -1.0430     1.1540 H     1 <1>   0.0800 
 35 H        1.9950     0.6650     1.3480 H     1 <1>   0.0800 
 36 H        4.1050     2.5870     1.0170 H     1 <1>   0.3700 
 37 H        5.7480     0.8650     1.5600 H     1 <1>   0.0800 
 38 H        5.3940    -0.7050     0.8400 H     1 <1>   0.0800 
 39 H        5.2370     5.5710    -2.2450 H     1 <1>   0.1500 
 40 H        3.2690     4.4060     1.3610 H     1 <1>   0.1500 
 41 H        3.8990     8.5300     0.5010 H     1 <1>   0.1500 
 42 H        2.1720     6.0750     2.7120 H     1 <1>   0.0800 
 43 H        2.2420     7.7570     2.2620 H     1 <1>   0.0800 
 44 H        3.5670     7.0360     3.1460 H     1 <1>   0.0800 
@<TRIPOS>BOND
  1   1   2  2   
  2   1   3  2   
  3   1   4  am  
  4   1   5  1   
  5   4   6  1   
  6   4   7  1   
  7   5   8  1   
  8   5  24  1   
  9   5  25  1   
 10   6  26  1   
 11   6  27  1   
 12   6  28  1   
 13   7  29  1   
 14   7  30  1   
 15   7  31  1   
 16   8   9  1   
 17   8  10  1   
 18   8  32  1   
 19   9  11  1   
 20   9  12  1   
 21   9  33  1   
 22  10  13  1   
 23  10  34  1   
 24  10  35  1   
 25  11  14  am  
 26  11  36  1   
 27  12  13  1   
 28  12  37  1   
 29  12  38  1   
 30  14  15  2   
 31  14  16  1   
 32  16  17  ar  
 33  16  18  ar  
 34  17  19  ar  
 35  17  39  1   
 36  18  20  ar  
 37  18  40  1   
 38  19  21  1   
 39  19  22  ar  
 40  20  22  ar  
 41  20  23  1   
 42  22  41  1   
 43  23  42  1   
 44  23  43  1   
 45  23  44  1   
@<TRIPOS>SUBSTRUCTURE
  1 ****  11 GROUP 4 **** **** 0

# MOE 2024.06 (io_trps.svl 2023.06)
