@<TRIPOS>MOLECULE
NONAME
25 25 1 0 0 
SMALL
USER_CHARGES


@<TRIPOS>ATOM
  1 O       -4.1530    -1.7490     0.2660 O.2   1 <1>  -0.5700 
  2 C       -5.1950    -1.1380     0.0850 C.2   1 <1>   0.6160 
  3 N       -6.3780    -1.8150     0.1160 N.am  1 <1>  -0.5390 
  4 C       -5.2210     0.2580    -0.1340 C.2   1 <1>  -0.1240 
  5 C       -7.5860    -1.1820    -0.0470 C.2   1 <1>  -0.0290 
  6 C       -6.4090     0.9140    -0.2970 C.2   1 <1>   0.0770 
  7 C       -3.8780     0.9410    -0.1900 C.3   1 <1>   0.4810 
  8 C       -7.6210     0.1620    -0.2490 C.2   1 <1>  -0.1500 
  9 C       -8.8250    -2.0530     0.0140 C.3   1 <1>  -0.1020 
 10 O       -6.3970     2.2500    -0.4930 O.3   1 <1>  -0.3570 
 11 N       -3.8760     2.0520     0.7820 N.4   1 <1>  -0.8530 
 12 C       -7.5510     2.9630    -0.9000 C.3   1 <1>   0.0400 
 13 H       -6.3080    -2.8240     0.2690 H     1 <1>   0.3700 
 14 H       -3.7180     1.3190    -1.1870 H     1 <1>   0.0800 
 15 H       -3.0870     0.2420     0.0410 H     1 <1>   0.0800 
 16 H       -8.5650     0.6600    -0.3730 H     1 <1>   0.1500 
 17 H       -8.7890    -2.8010    -0.7590 H     1 <1>   0.0800 
 18 H       -9.7140    -1.4640    -0.1240 H     1 <1>   0.0800 
 19 H       -8.8860    -2.5430     0.9690 H     1 <1>   0.0800 
 20 H       -4.7230     2.6110     0.5960 H     1 <1>   0.4500 
 21 H       -3.0450     2.6430     0.6940 H     1 <1>   0.4500 
 22 H       -3.9450     1.6860     1.7370 H     1 <1>   0.4500 
 23 H       -7.2720     3.9840    -1.0930 H     1 <1>   0.0800 
 24 H       -8.2840     2.9310    -0.1130 H     1 <1>   0.0800 
 25 H       -7.9400     2.5190    -1.8000 H     1 <1>   0.0800 
@<TRIPOS>BOND
  1   1   2  2   
  2   2   3  am  
  3   2   4  1   
  4   3   5  1   
  5   3  13  1   
  6   4   6  2   
  7   4   7  1   
  8   5   8  2   
  9   5   9  1   
 10   6   8  1   
 11   6  10  1   
 12   7  11  1   
 13   7  14  1   
 14   7  15  1   
 15   8  16  1   
 16   9  17  1   
 17   9  18  1   
 18   9  19  1   
 19  10  12  1   
 20  11  20  1   
 21  11  21  1   
 22  11  22  1   
 23  12  23  1   
 24  12  24  1   
 25  12  25  1   
@<TRIPOS>SUBSTRUCTURE
  1 ****   6 GROUP 4 **** **** 0

# MOE 2024.06 (io_trps.svl 2023.06)
