@<TRIPOS>MOLECULE
NONAME
46 48 1 0 0 
SMALL
USER_CHARGES


@<TRIPOS>ATOM
  1 O        2.0400    -2.9410    -2.6640 O.2   1 <1>  -0.5700 
  2 C        1.2910    -2.8190    -1.7080 C.2   1 <1>   0.5440 
  3 N        0.1730    -2.0070    -1.8650 N.am  1 <1>  -0.6600 
  4 C        1.6280    -3.5080    -0.4560 C.ar  1 <1>   0.3960 
  5 C       -0.2370    -1.4770    -3.1970 C.3   1 <1>   0.0600 
  6 C       -0.6840    -1.5590    -0.7340 C.3   1 <1>   0.0600 
  7 N        0.6610    -4.0860     0.2770 N.ar  1 <1>  -0.6200 
  8 C        2.9660    -3.5540    -0.0630 C.ar  1 <1>  -0.1500 
  9 C        1.0310    -4.7010     1.3880 C.ar  1 <1>   0.4100 
 10 C        3.3460    -4.1910     1.0990 C.ar  1 <1>  -0.1500 
 11 N        0.0320    -5.3030     2.1210 N.pl3 1 <1>  -0.8380 
 12 C        2.3440    -4.7740     1.8330 C.ar  1 <1>  -0.1500 
 13 C       -1.0410    -4.3970     2.6130 C.3   1 <1>   0.2090 
 14 C       -0.6080    -6.4780     1.4640 C.3   1 <1>   0.2090 
 15 C       -2.2660    -4.7450     1.7750 C.3   1 <1>   0.2000 
 16 C       -2.1210    -6.2300     1.4680 C.3   1 <1>  -0.0800 
 17 O       -3.4540    -4.5020     2.4520 O.3   1 <1>  -0.6800 
 18 C       -2.8030    -6.6200     0.1490 C.3   1 <1>   0.0200 
 19 C       -2.5360    -8.0720    -0.1980 C.2   1 <1>  -0.0400 
 20 O       -2.9330    -9.0240     0.6040 O.3   1 <1>  -0.0190 
 21 C       -1.9140    -8.6420    -1.2400 C.2   1 <1>  -0.1500 
 22 N       -2.6060   -10.2010     0.1560 N.2   1 <1>  -0.4100 
 23 C       -1.9920   -10.0030    -0.9550 C.2   1 <1>   0.1080 
 24 C       -1.4330   -11.1050    -1.8270 C.3   1 <1>  -0.0590 
 25 H       -1.2950    -1.6140    -3.3330 H     1 <1>   0.0800 
 26 H        0.2760    -1.9930    -3.9900 H     1 <1>   0.0800 
 27 H       -0.0020    -0.4300    -3.2570 H     1 <1>   0.0800 
 28 H       -1.0410    -0.5600    -0.9130 H     1 <1>   0.0800 
 29 H       -0.1260    -1.5580     0.1860 H     1 <1>   0.0800 
 30 H       -1.5240    -2.2230    -0.6340 H     1 <1>   0.0800 
 31 H        3.7080    -3.0850    -0.6840 H     1 <1>   0.1500 
 32 H        4.3760    -4.2300     1.4120 H     1 <1>   0.1500 
 33 H        2.5490    -5.2940     2.7490 H     1 <1>   0.1500 
 34 H       -1.2170    -4.6020     3.6540 H     1 <1>   0.0800 
 35 H       -0.7700    -3.3630     2.4840 H     1 <1>   0.0800 
 36 H       -0.2420    -6.5810     0.4560 H     1 <1>   0.0800 
 37 H       -0.3710    -7.3780     2.0060 H     1 <1>   0.0800 
 38 H       -2.2570    -4.1550     0.8750 H     1 <1>   0.0800 
 39 H       -2.5360    -6.8110     2.2730 H     1 <1>   0.0800 
 40 H       -3.5180    -5.0700     3.2430 H     1 <1>   0.4000 
 41 H       -2.4370    -5.9970    -0.6490 H     1 <1>   0.0800 
 42 H       -3.8650    -6.4670     0.2320 H     1 <1>   0.0800 
 43 H       -1.4540    -8.1920    -2.1000 H     1 <1>   0.1500 
 44 H       -0.4220   -10.8750    -2.1050 H     1 <1>   0.0800 
 45 H       -2.0330   -11.2050    -2.7130 H     1 <1>   0.0800 
 46 H       -1.4450   -12.0370    -1.2910 H     1 <1>   0.0800 
@<TRIPOS>BOND
  1   1   2  2   
  2   2   3  am  
  3   2   4  1   
  4   3   5  1   
  5   3   6  1   
  6   4   7  ar  
  7   4   8  ar  
  8   5  25  1   
  9   5  26  1   
 10   5  27  1   
 11   6  28  1   
 12   6  29  1   
 13   6  30  1   
 14   7   9  ar  
 15   8  10  ar  
 16   8  31  1   
 17   9  11  1   
 18   9  12  ar  
 19  10  12  ar  
 20  10  32  1   
 21  11  13  1   
 22  11  14  1   
 23  12  33  1   
 24  13  15  1   
 25  13  34  1   
 26  13  35  1   
 27  14  16  1   
 28  14  36  1   
 29  14  37  1   
 30  15  16  1   
 31  15  17  1   
 32  15  38  1   
 33  16  18  1   
 34  16  39  1   
 35  17  40  1   
 36  18  19  1   
 37  18  41  1   
 38  18  42  1   
 39  19  20  1   
 40  19  21  2   
 41  20  22  1   
 42  21  23  1   
 43  21  43  1   
 44  22  23  2   
 45  23  24  1   
 46  24  44  1   
 47  24  45  1   
 48  24  46  1   
@<TRIPOS>SUBSTRUCTURE
  1 ****  14 GROUP 4 **** **** 0

# MOE 2024.06 (io_trps.svl 2023.06)
