@<TRIPOS>MOLECULE
NONAME
58 61 1 0 0 
SMALL
USER_CHARGES


@<TRIPOS>ATOM
  1 O       -0.7390     0.8170     2.0890 O.2   1 <1>  -0.5700 
  2 C       -1.4000     1.0700     1.1110 C.2   1 <1>   0.5690 
  3 N       -1.8330     0.0180     0.3700 N.am  1 <1>  -0.7300 
  4 C       -1.6260     2.5610     0.7230 C.3   1 <1>   0.2040 
  5 C       -2.6700    -0.0840    -0.8560 C.3   1 <1>   0.2200 
  6 C       -3.1190     2.8250     0.4310 C.ar  1 <1>  -0.1440 
  7 C       -1.2300     3.5340     1.8660 C.3   1 <1>  -0.1600 
  8 C       -0.6960     2.8870    -0.4680 C.3   1 <1>  -0.1600 
  9 C       -3.7940    -1.0990    -0.6720 C.3   1 <1>  -0.0800 
 10 C       -1.8580    -0.7760    -1.9440 C.3   1 <1>   0.1200 
 11 C       -4.0550     2.4430     1.3870 C.ar  1 <1>  -0.1500 
 12 C       -3.5840     3.4320    -0.7330 C.ar  1 <1>  -0.1500 
 13 C        0.2590     3.5020     2.2200 C.3   1 <1>   0.3430 
 14 C        0.7730     2.7360    -0.0730 C.3   1 <1>   0.3430 
 15 C       -3.1220    -2.4360    -1.0100 C.3   1 <1>   0.1200 
 16 C       -4.5170    -1.0910     0.6880 C.3   1 <1>  -0.0170 
 17 O       -1.9030    -2.1280    -1.6190 O.3   1 <1>  -0.5600 
 18 C       -5.4080     2.6530     1.1900 C.ar  1 <1>  -0.1500 
 19 C       -4.9380     3.6410    -0.9330 C.ar  1 <1>  -0.1500 
 20 N        1.0940     3.7170     1.0020 N.4   1 <1>  -0.9590 
 21 C       -5.6270    -2.1300     0.7210 C.ar  1 <1>  -0.1440 
 22 C       -5.8520     3.2520     0.0270 C.ar  1 <1>  -0.1500 
 23 C        2.5430     3.6390     1.3600 C.3   1 <1>   0.2630 
 24 C       -5.4750    -3.3460     1.3570 C.ar  1 <1>  -0.1500 
 25 C       -6.8470    -1.9080     0.1150 C.ar  1 <1>  -0.1500 
 26 C       -6.5180    -4.2570     1.3500 C.ar  1 <1>   0.1600 
 27 C       -7.8260    -2.8870     0.1670 C.ar  1 <1>   0.1600 
 28 N       -7.6900    -4.0580     0.7680 N.ar  1 <1>  -0.6200 
 29 H       -1.5210    -0.9030     0.6970 H     1 <1>   0.3700 
 30 H       -3.0340     0.8720    -1.1790 H     1 <1>   0.0800 
 31 H       -1.7850     3.2890     2.7540 H     1 <1>   0.0800 
 32 H       -1.5030     4.5390     1.5950 H     1 <1>   0.0800 
 33 H       -0.8500     3.8930    -0.8120 H     1 <1>   0.0800 
 34 H       -0.9050     2.2220    -1.2860 H     1 <1>   0.0800 
 35 H       -4.5290    -0.9140    -1.4370 H     1 <1>   0.0800 
 36 H       -0.8350    -0.4480    -1.9810 H     1 <1>   0.0800 
 37 H       -2.3220    -0.6530    -2.9080 H     1 <1>   0.0800 
 38 H       -3.7440     1.9700     2.3040 H     1 <1>   0.1500 
 39 H       -2.9230     3.7590    -1.5140 H     1 <1>   0.1500 
 40 H        0.5070     2.5510     2.6650 H     1 <1>   0.0800 
 41 H        0.4680     4.2680     2.9500 H     1 <1>   0.0800 
 42 H        1.3980     2.9160    -0.9330 H     1 <1>   0.0800 
 43 H        0.9590     1.7320     0.2770 H     1 <1>   0.0800 
 44 H       -3.7160    -3.0190    -1.6930 H     1 <1>   0.0800 
 45 H       -2.9080    -3.0160    -0.1290 H     1 <1>   0.0800 
 46 H       -4.9470    -0.1210     0.8560 H     1 <1>   0.0800 
 47 H       -3.8250    -1.2840     1.4880 H     1 <1>   0.0800 
 48 H       -6.1170     2.3530     1.9430 H     1 <1>   0.1500 
 49 H       -5.2840     4.1120    -1.8380 H     1 <1>   0.1500 
 50 H        0.8930     4.6620     0.6460 H     1 <1>   0.4500 
 51 H       -6.9040     3.4190    -0.1280 H     1 <1>   0.1500 
 52 H        2.7800     2.6600     1.7450 H     1 <1>   0.0800 
 53 H        2.7820     4.3720     2.1150 H     1 <1>   0.0800 
 54 H        3.1550     3.8280     0.4930 H     1 <1>   0.0800 
 55 H       -4.5580    -3.5960     1.8580 H     1 <1>   0.1500 
 56 H       -7.0470    -0.9850    -0.3970 H     1 <1>   0.1500 
 57 H       -6.3810    -5.2000     1.8510 H     1 <1>   0.1500 
 58 H       -8.7710    -2.6970    -0.3120 H     1 <1>   0.1500 
@<TRIPOS>BOND
  1   1   2  2   
  2   2   3  am  
  3   2   4  1   
  4   3   5  1   
  5   3  29  1   
  6   4   6  1   
  7   4   7  1   
  8   4   8  1   
  9   5   9  1   
 10   5  10  1   
 11   5  30  1   
 12   6  11  ar  
 13   6  12  ar  
 14   7  13  1   
 15   7  31  1   
 16   7  32  1   
 17   8  14  1   
 18   8  33  1   
 19   8  34  1   
 20   9  15  1   
 21   9  16  1   
 22   9  35  1   
 23  10  17  1   
 24  10  36  1   
 25  10  37  1   
 26  11  18  ar  
 27  11  38  1   
 28  12  19  ar  
 29  12  39  1   
 30  13  20  1   
 31  13  40  1   
 32  13  41  1   
 33  14  20  1   
 34  14  42  1   
 35  14  43  1   
 36  15  17  1   
 37  15  44  1   
 38  15  45  1   
 39  16  21  1   
 40  16  46  1   
 41  16  47  1   
 42  18  22  ar  
 43  18  48  1   
 44  19  22  ar  
 45  19  49  1   
 46  20  23  1   
 47  20  50  1   
 48  21  24  ar  
 49  21  25  ar  
 50  22  51  1   
 51  23  52  1   
 52  23  53  1   
 53  23  54  1   
 54  24  26  ar  
 55  24  55  1   
 56  25  27  ar  
 57  25  56  1   
 58  26  28  ar  
 59  26  57  1   
 60  27  28  ar  
 61  27  58  1   
@<TRIPOS>SUBSTRUCTURE
  1 ****   3 GROUP 4 **** **** 0

# MOE 2024.06 (io_trps.svl 2023.06)
