@<TRIPOS>MOLECULE
NONAME
49 51 1 0 0 
SMALL
USER_CHARGES


@<TRIPOS>ATOM
  1 O        1.3860    -0.8910    -1.8260 O.2   1 <1>  -0.5700 
  2 C        1.2740    -0.6520    -0.6470 C.2   1 <1>   0.5690 
  3 N        2.3190    -0.0990     0.0350 N.am  1 <1>  -0.6600 
  4 C       -0.0050    -1.0380     0.0650 C.3   1 <1>  -0.0990 
  5 C        2.9800    -0.9450     1.0960 C.3   1 <1>   0.2200 
  6 C        3.1530     0.9410    -0.6510 C.3   1 <1>   0.1400 
  7 C       -0.4560    -2.4580    -0.3000 C.3   1 <1>   0.0960 
  8 C        3.8660    -0.1400     2.0610 C.3   1 <1>   0.1200 
  9 C        3.7910    -2.0890     0.4350 C.3   1 <1>   0.3430 
 10 C        4.6650     0.6390    -0.7090 C.3   1 <1>  -0.0800 
 11 N        0.5770    -3.4750     0.0110 N.pl3 1 <1>   0.3140 
 12 O        5.1670    -0.0240     1.5620 O.3   1 <1>  -0.5600 
 13 N        4.0780    -1.8380    -1.0230 N.4   1 <1>  -0.9590 
 14 C        5.3660     0.9720     0.6170 C.3   1 <1>   0.1200 
 15 C        5.0690    -0.7460    -1.2620 C.3   1 <1>   0.3430 
 16 N        1.0350    -3.6470     1.2670 N.2   1 <1>  -0.7070 
 17 C        1.1060    -4.4000    -0.8250 C.2   1 <1>  -0.3320 
 18 C        4.4310    -3.1020    -1.7220 C.3   1 <1>   0.2630 
 19 C        1.7800    -4.7040     1.2160 C.2   1 <1>   0.1080 
 20 C        1.8780    -5.2120    -0.0730 C.2   1 <1>  -0.1500 
 21 C        0.8180    -4.4950    -2.3150 C.3   1 <1>  -0.0600 
 22 C        2.4460    -5.2910     2.4400 C.3   1 <1>  -0.0590 
 23 H        0.1050    -0.9540     1.1300 H     1 <1>   0.0800 
 24 H       -0.7710    -0.3460    -0.2330 H     1 <1>   0.0800 
 25 H        2.2140    -1.3900     1.7040 H     1 <1>   0.0800 
 26 H        2.7950     1.0760    -1.6590 H     1 <1>   0.0800 
 27 H        2.9990     1.8800    -0.1480 H     1 <1>   0.0800 
 28 H       -0.6900    -2.5050    -1.3470 H     1 <1>   0.0800 
 29 H       -1.3420    -2.7100     0.2530 H     1 <1>   0.0800 
 30 H        3.9460    -0.6780     2.9900 H     1 <1>   0.0800 
 31 H        3.4550     0.8330     2.2700 H     1 <1>   0.0800 
 32 H        3.2150    -2.9900     0.5200 H     1 <1>   0.0800 
 33 H        4.7090    -2.2450     0.9770 H     1 <1>   0.0800 
 34 H        5.0690     1.3550    -1.4020 H     1 <1>   0.0800 
 35 H        3.1710    -1.4960    -1.4080 H     1 <1>   0.4500 
 36 H        5.0300     1.9120     1.0230 H     1 <1>   0.0800 
 37 H        6.4300     1.0400     0.4600 H     1 <1>   0.0800 
 38 H        6.0210    -1.0250    -0.8390 H     1 <1>   0.0800 
 39 H        5.2050    -0.6470    -2.3270 H     1 <1>   0.0800 
 40 H        5.3550    -3.4990    -1.3350 H     1 <1>   0.0800 
 41 H        4.5420    -2.9240    -2.7790 H     1 <1>   0.0800 
 42 H        3.6510    -3.8320    -1.5780 H     1 <1>   0.0800 
 43 H        2.4400    -6.0790    -0.3720 H     1 <1>   0.1500 
 44 H        1.3780    -5.3030    -2.7530 H     1 <1>   0.0800 
 45 H        1.0880    -3.5790    -2.8110 H     1 <1>   0.0800 
 46 H       -0.2280    -4.6840    -2.4790 H     1 <1>   0.0800 
 47 H        3.0590    -6.1310     2.1710 H     1 <1>   0.0800 
 48 H        1.6910    -5.6180     3.1310 H     1 <1>   0.0800 
 49 H        3.0540    -4.5470     2.9200 H     1 <1>   0.0800 
@<TRIPOS>BOND
  1   1   2  2   
  2   2   3  am  
  3   2   4  1   
  4   3   5  1   
  5   3   6  1   
  6   4   7  1   
  7   4  23  1   
  8   4  24  1   
  9   5   8  1   
 10   5   9  1   
 11   5  25  1   
 12   6  10  1   
 13   6  26  1   
 14   6  27  1   
 15   7  11  1   
 16   7  28  1   
 17   7  29  1   
 18   8  12  1   
 19   8  30  1   
 20   8  31  1   
 21   9  13  1   
 22   9  32  1   
 23   9  33  1   
 24  10  14  1   
 25  10  15  1   
 26  10  34  1   
 27  11  16  1   
 28  11  17  1   
 29  12  14  1   
 30  13  15  1   
 31  13  18  1   
 32  13  35  1   
 33  14  36  1   
 34  14  37  1   
 35  15  38  1   
 36  15  39  1   
 37  16  19  2   
 38  17  20  2   
 39  17  21  1   
 40  18  40  1   
 41  18  41  1   
 42  18  42  1   
 43  19  20  1   
 44  19  22  1   
 45  20  43  1   
 46  21  44  1   
 47  21  45  1   
 48  21  46  1   
 49  22  47  1   
 50  22  48  1   
 51  22  49  1   
@<TRIPOS>SUBSTRUCTURE
  1 ****   9 GROUP 4 **** **** 0

# MOE 2024.06 (io_trps.svl 2023.06)
