@<TRIPOS>MOLECULE
NONAME
45 48 1 0 0 
SMALL
USER_CHARGES


@<TRIPOS>ATOM
  1 CL      -4.4300    -0.4220    -3.6610 Cl    1 <1>  -0.1770 
  2 C       -3.5600     0.4660    -2.4280 C.ar  1 <1>   0.1770 
  3 C       -3.4010    -0.1080    -1.1470 C.ar  1 <1>   0.3100 
  4 C       -3.0660     1.7010    -2.7500 C.ar  1 <1>  -0.1500 
  5 N       -3.9000    -1.3390    -0.8740 N.ar  1 <1>  -0.6200 
  6 C       -2.7130     0.6580    -0.1790 C.ar  1 <1>   0.0000 
  7 C       -2.3780     2.4420    -1.7840 C.ar  1 <1>  -0.1500 
  8 C       -3.7730    -1.8470     0.3360 C.ar  1 <1>   0.3960 
  9 C       -2.5670     0.1100     1.1020 C.ar  1 <1>  -0.1500 
 10 C       -2.2090     1.9280    -0.5260 C.ar  1 <1>  -0.1500 
 11 C       -4.3140    -3.1720     0.6820 C.2   1 <1>   0.5440 
 12 C       -3.0940    -1.1210     1.3420 C.ar  1 <1>  -0.1500 
 13 O       -3.7490    -3.8160     1.5530 O.2   1 <1>  -0.5700 
 14 N       -5.4430    -3.7480     0.1000 N.am  1 <1>  -0.6600 
 15 C       -6.4450    -2.9490    -0.6800 C.3   1 <1>   0.2200 
 16 C       -5.6370    -5.2310     0.1820 C.3   1 <1>   0.0600 
 17 C       -7.6840    -3.7160    -1.1510 C.3   1 <1>  -0.1600 
 18 C       -7.0530    -1.8270     0.1620 C.3   1 <1>  -0.1600 
 19 C       -8.7120    -2.6260    -1.4760 C.3   1 <1>  -0.0800 
 20 C       -8.3390    -1.4270    -0.5730 C.3   1 <1>  -0.0800 
 21 C      -10.1680    -3.1230    -1.3680 C.3   1 <1>   0.1400 
 22 C       -9.4620    -0.9730     0.3780 C.3   1 <1>  -0.0990 
 23 N      -11.0780    -1.9760    -1.1650 N.am  1 <1>  -0.7300 
 24 C      -10.7910    -0.9430    -0.3470 C.2   1 <1>   0.5690 
 25 O      -11.5620    -0.0330    -0.1860 O.2   1 <1>  -0.5700 
 26 H       -3.2030     2.1040    -3.7370 H     1 <1>   0.1500 
 27 H       -1.9900     3.4130    -2.0430 H     1 <1>   0.1500 
 28 H       -2.0470     0.6620     1.8660 H     1 <1>   0.1500 
 29 H       -1.6830     2.4940     0.2230 H     1 <1>   0.1500 
 30 H       -3.0000    -1.5730     2.3140 H     1 <1>   0.1500 
 31 H       -5.9710    -2.5310    -1.5530 H     1 <1>   0.0800 
 32 H       -5.8400    -5.6320    -0.7950 H     1 <1>   0.0800 
 33 H       -6.4510    -5.4550     0.8460 H     1 <1>   0.0800 
 34 H       -4.7520    -5.7160     0.5560 H     1 <1>   0.0800 
 35 H       -7.4710    -4.3260    -2.0110 H     1 <1>   0.0800 
 36 H       -8.0640    -4.3230    -0.3480 H     1 <1>   0.0800 
 37 H       -7.2840    -2.2120     1.1400 H     1 <1>   0.0800 
 38 H       -6.3940    -0.9830     0.2550 H     1 <1>   0.0800 
 39 H       -8.5510    -2.3200    -2.4970 H     1 <1>   0.0800 
 40 H       -8.1110    -0.6000    -1.2260 H     1 <1>   0.0800 
 41 H      -10.2750    -3.7890    -0.5290 H     1 <1>   0.0800 
 42 H      -10.4430    -3.6550    -2.2630 H     1 <1>   0.0800 
 43 H       -9.2440     0.0040     0.7700 H     1 <1>   0.0800 
 44 H       -9.5580    -1.6550     1.2020 H     1 <1>   0.0800 
 45 H      -11.9890    -1.9740    -1.6290 H     1 <1>   0.3700 
@<TRIPOS>BOND
  1   1   2  1   
  2   2   3  ar  
  3   2   4  ar  
  4   3   5  ar  
  5   3   6  ar  
  6   4   7  ar  
  7   4  26  1   
  8   5   8  ar  
  9   6   9  ar  
 10   6  10  ar  
 11   7  10  ar  
 12   7  27  1   
 13   8  11  1   
 14   8  12  ar  
 15   9  12  ar  
 16   9  28  1   
 17  10  29  1   
 18  11  13  2   
 19  11  14  am  
 20  12  30  1   
 21  14  15  1   
 22  14  16  1   
 23  15  17  1   
 24  15  18  1   
 25  15  31  1   
 26  16  32  1   
 27  16  33  1   
 28  16  34  1   
 29  17  19  1   
 30  17  35  1   
 31  17  36  1   
 32  18  20  1   
 33  18  37  1   
 34  18  38  1   
 35  19  20  1   
 36  19  21  1   
 37  19  39  1   
 38  20  22  1   
 39  20  40  1   
 40  21  23  1   
 41  21  41  1   
 42  21  42  1   
 43  22  24  1   
 44  22  43  1   
 45  22  44  1   
 46  23  24  am  
 47  23  45  1   
 48  24  25  2   
@<TRIPOS>SUBSTRUCTURE
  1 ****  18 GROUP 4 **** **** 0

# MOE 2024.06 (io_trps.svl 2023.06)
