@<TRIPOS>MOLECULE
NONAME
52 55 1 0 0 
SMALL
USER_CHARGES


@<TRIPOS>ATOM
  1 O        1.1800     0.5870     0.9880 O.2   1 <1>  -0.5700 
  2 C        2.1380     0.3340     0.3030 C.2   1 <1>   0.5690 
  3 N        2.7990    -0.8560     0.3280 N.am  1 <1>  -0.6600 
  4 C        2.7080     1.4070    -0.5940 C.3   1 <1>  -0.0190 
  5 C        4.0550    -1.0010    -0.4490 C.3   1 <1>   0.2200 
  6 C        2.2830    -2.0340     1.0790 C.3   1 <1>   0.1400 
  7 C        3.8790     2.0210     0.1830 C.3   1 <1>   0.3430 
  8 C        3.0520     0.8260    -1.9850 C.3   1 <1>  -0.1600 
  9 C        5.1870    -0.2150     0.2660 C.3   1 <1>   0.3430 
 10 C        3.7950    -0.5290    -1.8950 C.3   1 <1>  -0.1600 
 11 C        1.5790    -2.9930     0.1160 C.3   1 <1>  -0.1600 
 12 N        5.2100     1.2950     0.1090 N.4   1 <1>  -0.9590 
 13 C        1.0240    -4.2140     0.8570 C.3   1 <1>  -0.2400 
 14 C        6.0400     1.7210    -1.0530 C.3   1 <1>   0.5240 
 15 C        6.2940     3.2050    -0.9330 C.2   1 <1>  -0.1810 
 16 C        5.7850     4.1780    -1.7840 C.2   1 <1>   0.1390 
 17 C        7.0100     3.8970    -0.0180 C.2   1 <1>  -0.3020 
 18 N        6.1350     5.3670    -1.4210 N.2   1 <1>  -0.7070 
 19 N        6.9190     5.2180    -0.3230 N.pl3 1 <1>   0.5930 
 20 C        7.4870     6.3050     0.4030 C.ar  1 <1>  -0.0230 
 21 C        6.8010     7.5110     0.5210 C.ar  1 <1>  -0.1500 
 22 C        8.7340     6.1880     1.0150 C.ar  1 <1>  -0.1500 
 23 C        7.3370     8.5640     1.2390 C.ar  1 <1>  -0.1500 
 24 C        9.2700     7.2420     1.7340 C.ar  1 <1>  -0.1500 
 25 C        8.5710     8.4300     1.8490 C.ar  1 <1>  -0.1500 
 26 H        1.9550     2.1670    -0.7100 H     1 <1>   0.0800 
 27 H        4.3320    -2.0420    -0.4680 H     1 <1>   0.0800 
 28 H        3.0950    -2.5340     1.5780 H     1 <1>   0.0800 
 29 H        1.5820    -1.7080     1.8300 H     1 <1>   0.0800 
 30 H        3.5760     2.0840     1.2170 H     1 <1>   0.0800 
 31 H        4.0100     3.0360    -0.1560 H     1 <1>   0.0800 
 32 H        2.1220     0.6540    -2.5030 H     1 <1>   0.0800 
 33 H        3.5980     1.5400    -2.5750 H     1 <1>   0.0800 
 34 H        6.1290    -0.6090    -0.0790 H     1 <1>   0.0800 
 35 H        5.1170    -0.4550     1.3140 H     1 <1>   0.0800 
 36 H        4.7180    -0.4930    -2.4450 H     1 <1>   0.0800 
 37 H        3.1880    -1.2790    -2.3760 H     1 <1>   0.0800 
 38 H        0.7640    -2.4760    -0.3620 H     1 <1>   0.0800 
 39 H        2.2640    -3.3280    -0.6420 H     1 <1>   0.0800 
 40 H        5.7400     1.6590     0.9130 H     1 <1>   0.4500 
 41 H        0.3120    -3.9090     1.6050 H     1 <1>   0.0800 
 42 H        1.8160    -4.7630     1.3350 H     1 <1>   0.0800 
 43 H        0.5250    -4.8690     0.1640 H     1 <1>   0.0800 
 44 H        6.9850     1.2020    -1.0430 H     1 <1>   0.0800 
 45 H        5.5450     1.5040    -1.9830 H     1 <1>   0.0800 
 46 H        5.1650     3.9950    -2.6480 H     1 <1>   0.1500 
 47 H        7.5780     3.5600     0.8300 H     1 <1>   0.1500 
 48 H        5.8420     7.6280     0.0440 H     1 <1>   0.1500 
 49 H        9.3000     5.2780     0.9290 H     1 <1>   0.1500 
 50 H        6.7940     9.4900     1.3220 H     1 <1>   0.1500 
 51 H       10.2340     7.1420     2.2040 H     1 <1>   0.1500 
 52 H        8.9880     9.2500     2.4080 H     1 <1>   0.1500 
@<TRIPOS>BOND
  1   1   2  2   
  2   2   3  am  
  3   2   4  1   
  4   3   5  1   
  5   3   6  1   
  6   4   7  1   
  7   4   8  1   
  8   4  26  1   
  9   5   9  1   
 10   5  10  1   
 11   5  27  1   
 12   6  11  1   
 13   6  28  1   
 14   6  29  1   
 15   7  12  1   
 16   7  30  1   
 17   7  31  1   
 18   8  10  1   
 19   8  32  1   
 20   8  33  1   
 21   9  12  1   
 22   9  34  1   
 23   9  35  1   
 24  10  36  1   
 25  10  37  1   
 26  11  13  1   
 27  11  38  1   
 28  11  39  1   
 29  12  14  1   
 30  12  40  1   
 31  13  41  1   
 32  13  42  1   
 33  13  43  1   
 34  14  15  1   
 35  14  44  1   
 36  14  45  1   
 37  15  16  1   
 38  15  17  2   
 39  16  18  2   
 40  16  46  1   
 41  17  19  1   
 42  17  47  1   
 43  18  19  1   
 44  19  20  1   
 45  20  21  ar  
 46  20  22  ar  
 47  21  23  ar  
 48  21  48  1   
 49  22  24  ar  
 50  22  49  1   
 51  23  25  ar  
 52  23  50  1   
 53  24  25  ar  
 54  24  51  1   
 55  25  52  1   
@<TRIPOS>SUBSTRUCTURE
  1 ****  12 GROUP 4 **** **** 0

# MOE 2024.06 (io_trps.svl 2023.06)
