@<TRIPOS>MOLECULE
NONAME
57 59 1 0 0 
SMALL
USER_CHARGES


@<TRIPOS>ATOM
  1 O        1.8240    -0.3980    -2.0500 O.2   1 <1>  -0.5700 
  2 C        2.1520    -0.7710    -0.9520 C.2   1 <1>   0.5690 
  3 N        2.7310     0.0930    -0.0520 N.am  1 <1>  -0.6600 
  4 C        1.9150    -2.2320    -0.6240 C.3   1 <1>  -0.0990 
  5 C        3.3470    -0.2840     1.2560 C.3   1 <1>   0.1400 
  6 C        2.7850     1.5490    -0.3560 C.3   1 <1>   0.1400 
  7 C        0.6070    -2.4160     0.1510 C.3   1 <1>   0.0200 
  8 C        4.8880    -0.3560     1.1760 C.3   1 <1>   0.3430 
  9 C        4.0420     1.8830    -1.1630 C.3   1 <1>  -0.1600 
 10 C        0.4220    -3.8720     0.5430 C.2   1 <1>  -0.3320 
 11 N        5.5360     0.8580     0.5680 N.4   1 <1>  -0.9590 
 12 C        5.2540     0.9880    -0.8960 C.3   1 <1>   0.3430 
 13 N        0.0460    -4.8700    -0.2930 N.pl3 1 <1>   0.3140 
 14 C        0.5820    -4.4300     1.7630 C.2   1 <1>  -0.1500 
 15 C        6.9950     0.8690     0.8100 C.3   1 <1>   0.5230 
 16 N       -0.0240    -6.0460     0.3520 N.2   1 <1>  -0.7070 
 17 C       -0.2770    -4.7850    -1.7250 C.3   1 <1>   0.0160 
 18 C        0.2940    -5.7760     1.5790 C.2   1 <1>   0.1390 
 19 C        7.4910     2.2810     0.5740 C.2   1 <1>  -0.3320 
 20 N        8.7880     2.5560     0.2460 N.pl3 1 <1>   0.0480 
 21 C        6.8040     3.4530     0.6490 C.2   1 <1>  -0.1500 
 22 C        8.8890     3.8950     0.1080 C.2   1 <1>  -0.3020 
 23 C        9.9080     1.6080     0.0720 C.3   1 <1>   0.0160 
 24 C        7.6830     4.5050     0.3430 C.2   1 <1>  -0.0860 
 25 C        7.3060     5.8940     0.3080 C.2   1 <1>   0.5950 
 26 O        6.1740     6.2650     0.4900 O.2   1 <1>  -0.5700 
 27 C        8.3630     6.9380     0.0250 C.3   1 <1>  -0.1790 
 28 H        2.7390    -2.6390    -0.0720 H     1 <1>   0.0800 
 29 H        1.8570    -2.7780    -1.5480 H     1 <1>   0.0800 
 30 H        2.9700    -1.2330     1.5910 H     1 <1>   0.0800 
 31 H        3.0630     0.4360     2.0030 H     1 <1>   0.0800 
 32 H        2.7740     2.1120     0.5620 H     1 <1>   0.0800 
 33 H        1.9100     1.8400    -0.9160 H     1 <1>   0.0800 
 34 H       -0.2270    -2.0820    -0.4440 H     1 <1>   0.0800 
 35 H        0.6270    -1.8140     1.0430 H     1 <1>   0.0800 
 36 H        5.1590    -1.2280     0.6040 H     1 <1>   0.0800 
 37 H        5.2640    -0.4980     2.1760 H     1 <1>   0.0800 
 38 H        4.3030     2.9150    -1.0080 H     1 <1>   0.0800 
 39 H        3.7950     1.7880    -2.2060 H     1 <1>   0.0800 
 40 H        5.1870     1.7100     1.0190 H     1 <1>   0.4500 
 41 H        6.1050     1.4170    -1.4010 H     1 <1>   0.0800 
 42 H        5.0720     0.0130    -1.3200 H     1 <1>   0.0800 
 43 H        0.8650    -3.9740     2.6940 H     1 <1>   0.1500 
 44 H        7.4850     0.1810     0.1410 H     1 <1>   0.0800 
 45 H        7.2130     0.5840     1.8270 H     1 <1>   0.0800 
 46 H       -0.8050    -3.8720    -1.9230 H     1 <1>   0.0800 
 47 H       -0.8960    -5.6210    -1.9920 H     1 <1>   0.0800 
 48 H        0.6330    -4.8180    -2.2930 H     1 <1>   0.0800 
 49 H        0.3260    -6.5190     2.3580 H     1 <1>   0.1500 
 50 H        5.7720     3.6390     0.8950 H     1 <1>   0.1500 
 51 H        9.8170     4.3750    -0.1540 H     1 <1>   0.1500 
 52 H       10.0630     1.0610     0.9830 H     1 <1>   0.0800 
 53 H       10.8040     2.1520    -0.1660 H     1 <1>   0.0800 
 54 H        9.6870     0.9310    -0.7320 H     1 <1>   0.0800 
 55 H        9.1620     6.8490     0.7370 H     1 <1>   0.0800 
 56 H        7.9360     7.9210     0.1030 H     1 <1>   0.0800 
 57 H        8.7490     6.8030    -0.9670 H     1 <1>   0.0800 
@<TRIPOS>BOND
  1   1   2  2   
  2   2   3  am  
  3   2   4  1   
  4   3   5  1   
  5   3   6  1   
  6   4   7  1   
  7   4  28  1   
  8   4  29  1   
  9   5   8  1   
 10   5  30  1   
 11   5  31  1   
 12   6   9  1   
 13   6  32  1   
 14   6  33  1   
 15   7  10  1   
 16   7  34  1   
 17   7  35  1   
 18   8  11  1   
 19   8  36  1   
 20   8  37  1   
 21   9  12  1   
 22   9  38  1   
 23   9  39  1   
 24  10  13  1   
 25  10  14  2   
 26  11  12  1   
 27  11  15  1   
 28  11  40  1   
 29  12  41  1   
 30  12  42  1   
 31  13  16  1   
 32  13  17  1   
 33  14  18  1   
 34  14  43  1   
 35  15  19  1   
 36  15  44  1   
 37  15  45  1   
 38  16  18  2   
 39  17  46  1   
 40  17  47  1   
 41  17  48  1   
 42  18  49  1   
 43  19  20  1   
 44  19  21  2   
 45  20  22  1   
 46  20  23  1   
 47  21  24  1   
 48  21  50  1   
 49  22  24  2   
 50  22  51  1   
 51  23  52  1   
 52  23  53  1   
 53  23  54  1   
 54  24  25  1   
 55  25  26  2   
 56  25  27  1   
 57  27  55  1   
 58  27  56  1   
 59  27  57  1   
@<TRIPOS>SUBSTRUCTURE
  1 ****   8 GROUP 4 **** **** 0

# MOE 2024.06 (io_trps.svl 2023.06)
