@<TRIPOS>MOLECULE
NONAME
49 51 1 0 0 
SMALL
USER_CHARGES


@<TRIPOS>ATOM
  1 S       -0.2130    -1.1350     0.6580 S.3   1 <1>  -0.0800 
  2 C       -0.5460    -1.8120    -0.9060 C.2   1 <1>   0.4420 
  3 C       -0.1480     0.4160    -0.1070 C.2   1 <1>   0.1980 
  4 N       -0.5820    -0.9190    -1.8240 N.2   1 <1>  -0.3380 
  5 N       -0.7560    -3.1600    -1.1000 N.am  1 <1>  -0.4940 
  6 N       -0.3530     0.3470    -1.3640 N.2   1 <1>  -0.3380 
  7 C        0.1380     1.6220     0.7890 C.3   1 <1>   0.3800 
  8 C       -0.7460    -4.2190    -0.2360 C.2   1 <1>   0.5690 
  9 O       -0.9610     1.8600     1.6150 O.3   1 <1>  -0.5600 
 10 C        0.3120     2.9390     0.0370 C.3   1 <1>  -0.1600 
 11 O       -0.4500    -4.1250     0.9290 O.2   1 <1>  -0.5700 
 12 C       -1.1470    -5.5950    -0.7830 C.3   1 <1>   0.1710 
 13 C       -1.8920     2.6590     0.9550 C.3   1 <1>   0.1200 
 14 C       -1.1030     3.4900    -0.0550 C.3   1 <1>  -0.1600 
 15 N       -2.6040    -5.8950    -0.7510 N.3   1 <1>  -0.8100 
 16 C       -3.1180    -5.8450     0.6300 C.3   1 <1>   0.2900 
 17 C       -3.3890    -5.0430    -1.6600 C.3   1 <1>   0.0300 
 18 C       -4.4850    -6.4950     0.7190 C.2   1 <1>  -0.3320 
 19 N       -5.3900    -6.1690     1.6630 N.pl3 1 <1>   0.3000 
 20 C       -5.0530    -7.4600    -0.0360 C.2   1 <1>  -0.1500 
 21 N       -6.5240    -6.8830     1.5380 N.2   1 <1>  -0.7070 
 22 C       -6.3130    -7.6570     0.5180 C.2   1 <1>   0.1080 
 23 C       -7.3330    -8.6540     0.0080 C.3   1 <1>   0.0210 
 24 C       -7.1560   -10.0160     0.6910 C.3   1 <1>  -0.1600 
 25 C       -8.1730   -11.0440     0.1830 C.3   1 <1>  -0.2400 
 26 H       -0.9990    -3.3790    -2.0620 H     1 <1>   0.3700 
 27 H        0.9910     1.4150     1.4120 H     1 <1>   0.0800 
 28 H        0.7710     2.8040    -0.9270 H     1 <1>   0.0800 
 29 H        0.9260     3.5950     0.6260 H     1 <1>   0.0800 
 30 H       -0.6340    -6.3420    -0.2010 H     1 <1>   0.0800 
 31 H       -0.7920    -5.6910    -1.7930 H     1 <1>   0.0800 
 32 H       -2.3980     3.2710     1.6820 H     1 <1>   0.0800 
 33 H       -2.5980     2.0130     0.4600 H     1 <1>   0.0800 
 34 H       -1.5130     3.3440    -1.0400 H     1 <1>   0.0800 
 35 H       -1.1390     4.5370     0.1900 H     1 <1>   0.0800 
 36 H       -3.1740    -4.8210     0.9600 H     1 <1>   0.0800 
 37 H       -2.4470    -6.3730     1.2870 H     1 <1>   0.0800 
 38 H       -2.9870    -5.0970    -2.6570 H     1 <1>   0.0800 
 39 H       -3.3880    -4.0190    -1.3260 H     1 <1>   0.0800 
 40 H       -4.4090    -5.3860    -1.6980 H     1 <1>   0.0800 
 41 H       -5.2710    -5.4680     2.4030 H     1 <1>   0.2700 
 42 H       -4.6340    -7.9740    -0.8830 H     1 <1>   0.1500 
 43 H       -7.2210    -8.7580    -1.0560 H     1 <1>   0.0800 
 44 H       -8.3180    -8.2720     0.2060 H     1 <1>   0.0800 
 45 H       -7.2720    -9.8900     1.7540 H     1 <1>   0.0800 
 46 H       -6.1580   -10.3770     0.5090 H     1 <1>   0.0800 
 47 H       -9.1760   -10.7080     0.3790 H     1 <1>   0.0800 
 48 H       -8.0240   -11.9850     0.6830 H     1 <1>   0.0800 
 49 H       -8.0570   -11.1980    -0.8760 H     1 <1>   0.0800 
@<TRIPOS>BOND
  1   1   2  1   
  2   1   3  1   
  3   2   4  2   
  4   2   5  1   
  5   3   6  2   
  6   3   7  1   
  7   4   6  1   
  8   5   8  am  
  9   5  26  1   
 10   7   9  1   
 11   7  10  1   
 12   7  27  1   
 13   8  11  2   
 14   8  12  1   
 15   9  13  1   
 16  10  14  1   
 17  10  28  1   
 18  10  29  1   
 19  12  15  1   
 20  12  30  1   
 21  12  31  1   
 22  13  14  1   
 23  13  32  1   
 24  13  33  1   
 25  14  34  1   
 26  14  35  1   
 27  15  16  1   
 28  15  17  1   
 29  16  18  1   
 30  16  36  1   
 31  16  37  1   
 32  17  38  1   
 33  17  39  1   
 34  17  40  1   
 35  18  19  1   
 36  18  20  2   
 37  19  21  1   
 38  19  41  1   
 39  20  22  1   
 40  20  42  1   
 41  21  22  2   
 42  22  23  1   
 43  23  24  1   
 44  23  43  1   
 45  23  44  1   
 46  24  25  1   
 47  24  45  1   
 48  24  46  1   
 49  25  47  1   
 50  25  48  1   
 51  25  49  1   
@<TRIPOS>SUBSTRUCTURE
  1 ****   8 GROUP 4 **** **** 0

# MOE 2024.06 (io_trps.svl 2023.06)
