@<TRIPOS>MOLECULE
NONAME
45 47 1 0 0 
SMALL
USER_CHARGES


@<TRIPOS>ATOM
  1 O       -0.5370    -0.2890     0.4650 O.2   1 <1>  -0.5700 
  2 C       -1.5280     0.3030     0.1060 C.2   1 <1>   0.5690 
  3 N       -2.6030    -0.3670    -0.4060 N.am  1 <1>  -0.6600 
  4 C       -1.5820     1.8190     0.2230 C.3   1 <1>  -0.0990 
  5 C       -3.8540     0.2330    -0.9310 C.3   1 <1>   0.1400 
  6 C       -2.6310    -1.8430    -0.5300 C.3   1 <1>   0.1400 
  7 C       -0.3230     2.4400     0.8450 C.3   1 <1>  -0.0220 
  8 C       -4.6350    -0.9400    -1.5260 C.3   1 <1>   0.2000 
  9 C       -4.0850    -2.1930    -0.8460 C.3   1 <1>  -0.0800 
 10 C       -0.4640     3.9500     0.9300 C.2   1 <1>  -0.2880 
 11 O       -5.9940    -0.8250    -1.2770 O.3   1 <1>  -0.6800 
 12 C       -4.2380    -3.4560    -1.7090 C.3   1 <1>  -0.0170 
 13 C        0.3080     4.8240     0.2780 C.2   1 <1>  -0.3000 
 14 C       -3.7160    -4.6880    -0.9780 C.ar  1 <1>  -0.1440 
 15 C       -4.4630    -5.3430     0.0310 C.ar  1 <1>   0.0000 
 16 C       -2.4870    -5.1960    -1.2810 C.ar  1 <1>  -0.1500 
 17 C       -3.8730    -6.4650     0.6620 C.ar  1 <1>   0.3100 
 18 C       -5.7570    -4.9520     0.4490 C.ar  1 <1>  -0.1500 
 19 C       -1.9990    -6.3170    -0.6000 C.ar  1 <1>   0.1600 
 20 N       -2.6450    -6.9400     0.3350 N.ar  1 <1>  -0.6200 
 21 C       -4.5850    -7.1270     1.6750 C.ar  1 <1>  -0.1500 
 22 C       -6.4240    -5.6210     1.4390 C.ar  1 <1>  -0.1500 
 23 C       -5.8320    -6.7220     2.0630 C.ar  1 <1>  -0.1500 
 24 H       -1.7180     2.2320    -0.7580 H     1 <1>   0.0800 
 25 H       -2.4320     2.0830     0.8240 H     1 <1>   0.0800 
 26 H       -4.3980     0.6860    -0.1200 H     1 <1>   0.0800 
 27 H       -3.6330     0.9640    -1.6890 H     1 <1>   0.0800 
 28 H       -1.9770    -2.1330    -1.3350 H     1 <1>   0.0800 
 29 H       -2.3000    -2.3120     0.3820 H     1 <1>   0.0800 
 30 H        0.5350     2.1850     0.2460 H     1 <1>   0.0800 
 31 H       -0.1660     2.0390     1.8320 H     1 <1>   0.0800 
 32 H       -4.4860    -0.9730    -2.5920 H     1 <1>   0.0800 
 33 H       -4.5830    -2.3330     0.0970 H     1 <1>   0.0800 
 34 H       -1.2620     4.2620     1.5840 H     1 <1>   0.1500 
 35 H       -6.1640    -0.8150    -0.3150 H     1 <1>   0.4000 
 36 H       -3.6960    -3.3260    -2.6300 H     1 <1>   0.0800 
 37 H       -5.2700    -3.5990    -1.9770 H     1 <1>   0.0800 
 38 H        0.1980     5.8930     0.3490 H     1 <1>   0.1500 
 39 H        1.1140     4.5480    -0.3800 H     1 <1>   0.1500 
 40 H       -1.8630    -4.7550    -2.0380 H     1 <1>   0.1500 
 41 H       -6.2330    -4.1120    -0.0200 H     1 <1>   0.1500 
 42 H       -1.0230    -6.6840    -0.8700 H     1 <1>   0.1500 
 43 H       -4.1100    -7.9720     2.1390 H     1 <1>   0.1500 
 44 H       -7.4090    -5.3130     1.7480 H     1 <1>   0.1500 
 45 H       -6.3660    -7.2390     2.8410 H     1 <1>   0.1500 
@<TRIPOS>BOND
  1   1   2  2   
  2   2   3  am  
  3   2   4  1   
  4   3   5  1   
  5   3   6  1   
  6   4   7  1   
  7   4  24  1   
  8   4  25  1   
  9   5   8  1   
 10   5  26  1   
 11   5  27  1   
 12   6   9  1   
 13   6  28  1   
 14   6  29  1   
 15   7  10  1   
 16   7  30  1   
 17   7  31  1   
 18   8   9  1   
 19   8  11  1   
 20   8  32  1   
 21   9  12  1   
 22   9  33  1   
 23  10  13  2   
 24  10  34  1   
 25  11  35  1   
 26  12  14  1   
 27  12  36  1   
 28  12  37  1   
 29  13  38  1   
 30  13  39  1   
 31  14  15  ar  
 32  14  16  ar  
 33  15  17  ar  
 34  15  18  ar  
 35  16  19  ar  
 36  16  40  1   
 37  17  20  ar  
 38  17  21  ar  
 39  18  22  ar  
 40  18  41  1   
 41  19  20  ar  
 42  19  42  1   
 43  21  23  ar  
 44  21  43  1   
 45  22  23  ar  
 46  22  44  1   
 47  23  45  1   
@<TRIPOS>SUBSTRUCTURE
  1 ****   6 GROUP 4 **** **** 0

# MOE 2024.06 (io_trps.svl 2023.06)
