@<TRIPOS>MOLECULE
NONAME
26 27 1 0 0 
SMALL
USER_CHARGES


@<TRIPOS>ATOM
  1 F        0.3790    -0.1960     1.2750 F     1 <1>  -0.1900 
  2 C        1.3850    -0.7850     0.6760 C.ar  1 <1>   0.1900 
  3 C        2.4170    -0.0190     0.1270 C.ar  1 <1>   0.1170 
  4 C        1.3690    -2.1660     0.6340 C.ar  1 <1>  -0.1500 
  5 N        2.4380     1.3950     0.1420 N.am  1 <1>  -0.4770 
  6 C        3.4620    -0.7210    -0.4650 C.ar  1 <1>  -0.1500 
  7 C        2.4180    -2.8380     0.0270 C.ar  1 <1>  -0.1440 
  8 C        3.4960     2.1960     0.4580 C.2   1 <1>   0.5690 
  9 C        1.3030     2.1910    -0.3690 C.3   1 <1>   0.1400 
 10 C        3.4630    -2.1060    -0.5160 C.ar  1 <1>  -0.1500 
 11 C        2.4330    -4.3550    -0.0340 C.3   1 <1>  -0.0970 
 12 O        4.5800     1.8380     0.8490 O.2   1 <1>  -0.5700 
 13 C        3.1710     3.6480     0.2410 C.3   1 <1>  -0.0990 
 14 C        1.6650     3.6470    -0.0530 C.3   1 <1>  -0.1600 
 15 H        0.5480    -2.7010     1.0740 H     1 <1>   0.1500 
 16 H        4.2870    -0.1750    -0.8870 H     1 <1>   0.1500 
 17 H        0.3810     1.9150     0.1100 H     1 <1>   0.0800 
 18 H        1.2190     2.0390    -1.4310 H     1 <1>   0.0800 
 19 H        4.2900    -2.6140    -0.9820 H     1 <1>   0.1500 
 20 H        1.4360    -4.7480     0.0520 H     1 <1>   0.0800 
 21 H        3.0310    -4.7450     0.7700 H     1 <1>   0.0800 
 22 H        2.8490    -4.6860    -0.9690 H     1 <1>   0.0800 
 23 H        3.7330     4.0070    -0.6020 H     1 <1>   0.0800 
 24 H        3.4100     4.2240     1.1160 H     1 <1>   0.0800 
 25 H        1.1250     3.9560     0.8260 H     1 <1>   0.0800 
 26 H        1.4090     4.3040    -0.8650 H     1 <1>   0.0800 
@<TRIPOS>BOND
  1   1   2  1   
  2   2   3  ar  
  3   2   4  ar  
  4   3   5  1   
  5   3   6  ar  
  6   4   7  ar  
  7   4  15  1   
  8   5   8  am  
  9   5   9  1   
 10   6  10  ar  
 11   6  16  1   
 12   7  10  ar  
 13   7  11  1   
 14   8  12  2   
 15   8  13  1   
 16   9  14  1   
 17   9  17  1   
 18   9  18  1   
 19  10  19  1   
 20  11  20  1   
 21  11  21  1   
 22  11  22  1   
 23  13  14  1   
 24  13  23  1   
 25  13  24  1   
 26  14  25  1   
 27  14  26  1   
@<TRIPOS>SUBSTRUCTURE
  1 ****   3 GROUP 4 **** **** 0

# MOE 2024.06 (io_trps.svl 2023.06)
