@<TRIPOS>MOLECULE
NONAME
38 39 1 0 0 
SMALL
USER_CHARGES


@<TRIPOS>ATOM
  1 O       -0.6920     0.8470     0.6130 O.2   1 <1>  -0.5700 
  2 C        0.2110     0.1230     0.9570 C.2   1 <1>   0.5690 
  3 N        1.5340     0.4270     0.8070 N.am  1 <1>  -0.4940 
  4 C       -0.1350    -1.2370     1.5620 C.3   1 <1>   0.2610 
  5 C        2.1600     1.5200     0.2050 C.2   1 <1>   0.2040 
  6 O        0.9890    -1.7200     2.2890 O.3   1 <1>  -0.2170 
  7 C       -0.3360    -2.3050     0.4880 C.3   1 <1>  -0.0990 
  8 O        1.4900     2.4850    -0.3790 O.3   1 <1>  -0.0190 
  9 C        3.4720     1.7970     0.0790 C.2   1 <1>  -0.1810 
 10 N        1.6360    -2.6540     1.6170 N.2   1 <1>  -0.5130 
 11 C        0.9690    -3.0330     0.6210 C.2   1 <1>   0.3280 
 12 N        2.2890     3.3890    -0.8910 N.2   1 <1>  -0.4100 
 13 C        3.4840     2.9970    -0.6280 C.2   1 <1>   0.1080 
 14 C        4.6640     0.9990     0.5810 C.3   1 <1>   0.0210 
 15 C        1.3480    -4.0950    -0.4150 C.3   1 <1>  -0.0190 
 16 C        4.7190     3.7650    -1.0470 C.3   1 <1>  -0.0590 
 17 C        5.1520     0.0300    -0.4980 C.3   1 <1>  -0.2400 
 18 C        0.4580    -5.3390    -0.2830 C.3   1 <1>  -0.2400 
 19 C        2.8260    -4.5070    -0.3120 C.3   1 <1>  -0.2400 
 20 H        2.1590    -0.2910     1.1860 H     1 <1>   0.3700 
 21 H       -0.9730    -1.1570     2.2290 H     1 <1>   0.0800 
 22 H       -0.4720    -1.8770    -0.4890 H     1 <1>   0.0800 
 23 H       -1.1620    -2.9450     0.7350 H     1 <1>   0.0800 
 24 H        4.3810     0.4420     1.4570 H     1 <1>   0.0800 
 25 H        5.4580     1.6680     0.8620 H     1 <1>   0.0800 
 26 H        1.1970    -3.6680    -1.3920 H     1 <1>   0.0800 
 27 H        5.3530     3.1410    -1.6490 H     1 <1>   0.0800 
 28 H        5.2580     4.0910    -0.1770 H     1 <1>   0.0800 
 29 H        4.4360     4.6290    -1.6220 H     1 <1>   0.0800 
 30 H        4.3660    -0.6540    -0.7650 H     1 <1>   0.0800 
 31 H        5.9930    -0.5340    -0.1350 H     1 <1>   0.0800 
 32 H        5.4520     0.5700    -1.3780 H     1 <1>   0.0800 
 33 H        0.5670    -5.7730     0.6950 H     1 <1>   0.0800 
 34 H        0.7320    -6.0760    -1.0180 H     1 <1>   0.0800 
 35 H       -0.5760    -5.0850    -0.4340 H     1 <1>   0.0800 
 36 H        3.0260    -4.9500     0.6480 H     1 <1>   0.0800 
 37 H        3.4600    -3.6450    -0.4260 H     1 <1>   0.0800 
 38 H        3.0750    -5.2170    -1.0800 H     1 <1>   0.0800 
@<TRIPOS>BOND
  1   1   2  2   
  2   2   3  am  
  3   2   4  1   
  4   3   5  1   
  5   3  20  1   
  6   4   6  1   
  7   4   7  1   
  8   4  21  1   
  9   5   8  1   
 10   5   9  2   
 11   6  10  1   
 12   7  11  1   
 13   7  22  1   
 14   7  23  1   
 15   8  12  1   
 16   9  13  1   
 17   9  14  1   
 18  10  11  2   
 19  11  15  1   
 20  12  13  2   
 21  13  16  1   
 22  14  17  1   
 23  14  24  1   
 24  14  25  1   
 25  15  18  1   
 26  15  19  1   
 27  15  26  1   
 28  16  27  1   
 29  16  28  1   
 30  16  29  1   
 31  17  30  1   
 32  17  31  1   
 33  17  32  1   
 34  18  33  1   
 35  18  34  1   
 36  18  35  1   
 37  19  36  1   
 38  19  37  1   
 39  19  38  1   
@<TRIPOS>SUBSTRUCTURE
  1 ****   3 GROUP 4 **** **** 0

# MOE 2024.06 (io_trps.svl 2023.06)
