@<TRIPOS>MOLECULE
NONAME
37 38 1 0 0 
SMALL
USER_CHARGES


@<TRIPOS>ATOM
  1 CL       0.4840     0.3830    -0.9130 Cl    1 <1>  -0.1770 
  2 C        1.7320    -0.4480    -0.0090 C.ar  1 <1>   0.1770 
  3 C        2.8240     0.2800     0.4580 C.ar  1 <1>   0.0860 
  4 C        1.6030    -1.8180     0.2000 C.ar  1 <1>  -0.1440 
  5 C        3.7950    -0.4480     1.1380 C.ar  1 <1>   0.1900 
  6 C        2.9470     1.6990     0.2570 C.2   1 <1>   0.5440 
  7 C        2.5980    -2.4950     0.8930 C.ar  1 <1>  -0.1500 
  8 C        0.3930    -2.5820    -0.3180 C.3   1 <1>  -0.0970 
  9 F        4.8530     0.1680     1.5900 F     1 <1>  -0.1900 
 10 C        3.7030    -1.8080     1.3640 C.ar  1 <1>  -0.1500 
 11 O        2.2100     2.4730     0.8350 O.2   1 <1>  -0.5700 
 12 N        3.9100     2.2050    -0.5710 N.am  1 <1>  -0.7300 
 13 C        4.0980     3.6510    -0.8460 C.3   1 <1>   0.1400 
 14 C        4.8710     4.3130     0.2980 C.3   1 <1>   0.1400 
 15 N        4.9130     5.7870     0.1040 N.am  1 <1>  -0.6600 
 16 C        5.8480     6.3630    -0.7210 C.2   1 <1>   0.7800 
 17 C        3.8570     6.5630     0.7960 C.3   1 <1>   0.1400 
 18 O        6.6920     5.7110    -1.2990 O.2   1 <1>  -0.5700 
 19 O        5.8260     7.6810    -0.9270 O.3   1 <1>  -0.4300 
 20 C        4.2330     8.0420     0.8270 C.3   1 <1>  -0.1600 
 21 C        4.7320     8.4830    -0.5470 C.3   1 <1>   0.1200 
 22 H        2.5180    -3.5550     1.0670 H     1 <1>   0.1500 
 23 H       -0.5090    -2.1720     0.1020 H     1 <1>   0.0800 
 24 H        0.4460    -3.6230    -0.0520 H     1 <1>   0.0800 
 25 H        0.3390    -2.5080    -1.3890 H     1 <1>   0.0800 
 26 H        4.4830    -2.3190     1.9000 H     1 <1>   0.1500 
 27 H        4.6060     1.5800    -0.9850 H     1 <1>   0.3700 
 28 H        3.1310     4.1150    -0.9400 H     1 <1>   0.0800 
 29 H        4.6360     3.7750    -1.7710 H     1 <1>   0.0800 
 30 H        5.8750     3.9260     0.3230 H     1 <1>   0.0800 
 31 H        4.3940     4.0860     1.2360 H     1 <1>   0.0800 
 32 H        3.7330     6.1990     1.8020 H     1 <1>   0.0800 
 33 H        2.9280     6.4280     0.2680 H     1 <1>   0.0800 
 34 H        5.0030     8.2080     1.5590 H     1 <1>   0.0800 
 35 H        3.3770     8.6260     1.1120 H     1 <1>   0.0800 
 36 H        3.9640     8.3660    -1.2930 H     1 <1>   0.0800 
 37 H        5.0620     9.5070    -0.5310 H     1 <1>   0.0800 
@<TRIPOS>BOND
  1   1   2  1   
  2   2   3  ar  
  3   2   4  ar  
  4   3   5  ar  
  5   3   6  1   
  6   4   7  ar  
  7   4   8  1   
  8   5   9  1   
  9   5  10  ar  
 10   6  11  2   
 11   6  12  am  
 12   7  10  ar  
 13   7  22  1   
 14   8  23  1   
 15   8  24  1   
 16   8  25  1   
 17  10  26  1   
 18  12  13  1   
 19  12  27  1   
 20  13  14  1   
 21  13  28  1   
 22  13  29  1   
 23  14  15  1   
 24  14  30  1   
 25  14  31  1   
 26  15  16  am  
 27  15  17  1   
 28  16  18  2   
 29  16  19  1   
 30  17  20  1   
 31  17  32  1   
 32  17  33  1   
 33  19  21  1   
 34  20  21  1   
 35  20  34  1   
 36  20  35  1   
 37  21  36  1   
 38  21  37  1   
@<TRIPOS>SUBSTRUCTURE
  1 ****  12 GROUP 4 **** **** 0

# MOE 2024.06 (io_trps.svl 2023.06)
