@<TRIPOS>MOLECULE
NONAME
37 38 1 0 0 
SMALL
USER_CHARGES


@<TRIPOS>ATOM
  1 O       -1.1320    -1.0300    -0.5260 O.2   1 <1>  -0.5700 
  2 C       -1.8120    -0.0350    -0.4160 C.2   1 <1>   0.5690 
  3 N       -3.0180    -0.0770     0.2350 N.am  1 <1>  -0.6600 
  4 C       -1.2700     1.2390    -1.0430 C.3   1 <1>  -0.0990 
  5 C       -3.4090    -1.3030     0.9920 C.3   1 <1>   0.3200 
  6 C       -4.1110     0.9330     0.1090 C.3   1 <1>   0.1400 
  7 C       -0.0460     1.7620    -0.2800 C.3   1 <1>   0.0580 
  8 C       -4.0360    -2.3240     0.0580 C.2   1 <1>   0.0060 
  9 C       -4.0140     1.9810     1.2220 C.3   1 <1>   0.1200 
 10 C       -0.4180     2.1760     1.1230 C.2   1 <1>  -0.2880 
 11 C        0.4970     3.0760    -0.8850 C.3   1 <1>  -0.1600 
 12 N       -5.2550    -2.7590     0.1320 N.2   1 <1>  -0.5650 
 13 N       -3.3280    -2.8680    -0.9520 N.pl3 1 <1>   0.0330 
 14 O       -5.0510     2.8940     1.0880 O.3   1 <1>  -0.6800 
 15 C       -0.3330     3.4860     1.3130 C.2   1 <1>  -0.2880 
 16 C        0.1290     4.2190     0.0810 C.3   1 <1>  -0.0220 
 17 C       -5.3430    -3.6350    -0.8880 C.2   1 <1>   0.0770 
 18 C       -4.1750    -3.7150    -1.5630 C.2   1 <1>  -0.3020 
 19 H       -2.0120     2.0100    -1.0800 H     1 <1>   0.0800 
 20 H       -0.9830     1.0120    -2.0530 H     1 <1>   0.0800 
 21 H       -4.1100    -1.0500     1.7680 H     1 <1>   0.0800 
 22 H       -2.5410    -1.7360     1.4590 H     1 <1>   0.0800 
 23 H       -5.0630     0.4320     0.1760 H     1 <1>   0.0800 
 24 H       -4.0610     1.4070    -0.8540 H     1 <1>   0.0800 
 25 H        0.7290     1.0130    -0.2560 H     1 <1>   0.0800 
 26 H       -3.0850     2.5200     1.1750 H     1 <1>   0.0800 
 27 H       -4.1150     1.5140     2.1860 H     1 <1>   0.0800 
 28 H       -0.7130     1.4140     1.8240 H     1 <1>   0.1500 
 29 H        0.1160     3.2630    -1.8740 H     1 <1>   0.0800 
 30 H        1.5690     3.0080    -0.9440 H     1 <1>   0.0800 
 31 H       -2.3510    -2.6300    -1.1760 H     1 <1>   0.2700 
 32 H       -4.9100     3.4770     0.3170 H     1 <1>   0.4000 
 33 H       -0.5450     4.0540     2.2040 H     1 <1>   0.1500 
 34 H       -0.6710     4.8220    -0.3120 H     1 <1>   0.0800 
 35 H        0.9840     4.8380     0.2940 H     1 <1>   0.0800 
 36 H       -6.2570    -4.1700    -1.0860 H     1 <1>   0.1500 
 37 H       -3.9070    -4.3090    -2.4180 H     1 <1>   0.1500 
@<TRIPOS>BOND
  1   1   2  2   
  2   2   3  am  
  3   2   4  1   
  4   3   5  1   
  5   3   6  1   
  6   4   7  1   
  7   4  19  1   
  8   4  20  1   
  9   5   8  1   
 10   5  21  1   
 11   5  22  1   
 12   6   9  1   
 13   6  23  1   
 14   6  24  1   
 15   7  10  1   
 16   7  11  1   
 17   7  25  1   
 18   8  12  2   
 19   8  13  1   
 20   9  14  1   
 21   9  26  1   
 22   9  27  1   
 23  10  15  2   
 24  10  28  1   
 25  11  16  1   
 26  11  29  1   
 27  11  30  1   
 28  12  17  1   
 29  13  18  1   
 30  13  31  1   
 31  14  32  1   
 32  15  16  1   
 33  15  33  1   
 34  16  34  1   
 35  16  35  1   
 36  17  18  2   
 37  17  36  1   
 38  18  37  1   
@<TRIPOS>SUBSTRUCTURE
  1 ****   3 GROUP 4 **** **** 0

# MOE 2024.06 (io_trps.svl 2023.06)
