@<TRIPOS>MOLECULE
NONAME
52 55 1 0 0 
SMALL
USER_CHARGES


@<TRIPOS>ATOM
  1 O        0.3910    -0.2570    -1.8560 O.2   1 <1>  -0.5700 
  2 C        1.1030    -0.8750    -1.1020 C.2   1 <1>   0.5690 
  3 N        2.0510    -0.2100    -0.3520 N.am  1 <1>  -0.6600 
  4 C        0.9020    -2.3850    -1.0640 C.3   1 <1>   0.1570 
  5 C        3.1760    -0.8440     0.4120 C.3   1 <1>   0.1400 
  6 C        1.8580     1.2390    -0.0730 C.3   1 <1>   0.1400 
  7 N        0.7530    -2.8870     0.3190 N.pl3 1 <1>   0.0480 
  8 C        4.5740    -0.4420    -0.1030 C.3   1 <1>   0.3430 
  9 C        2.6320     2.0900    -1.0820 C.3   1 <1>  -0.1600 
 10 C        1.5500    -3.8330     0.9250 C.ar  1 <1>  -0.1520 
 11 C       -0.0520    -2.3450     1.2830 C.2   1 <1>  -0.3020 
 12 N        4.7600     1.0340    -0.3540 N.4   1 <1>  -0.9590 
 13 C        3.9670     1.4960    -1.5290 C.3   1 <1>   0.3430 
 14 C        1.2470    -3.8550     2.2830 C.ar  1 <1>   0.0000 
 15 C        2.5340    -4.6840     0.4070 C.ar  1 <1>  -0.1500 
 16 C        0.2200    -2.9110     2.4810 C.2   1 <1>  -0.1500 
 17 C        6.1930     1.3700    -0.5010 C.3   1 <1>   0.5230 
 18 C        1.9420    -4.7120     3.1410 C.ar  1 <1>  -0.1500 
 19 C        3.2110    -5.5230     1.2610 C.ar  1 <1>  -0.1500 
 20 C        6.8650     1.0970     0.8220 C.2   1 <1>  -0.3320 
 21 C        2.9180    -5.5350     2.6300 C.ar  1 <1>  -0.1500 
 22 N        8.1230     0.6070     0.9240 N.pl3 1 <1>   0.3140 
 23 C        6.4110     1.2680     2.0880 C.2   1 <1>  -0.1500 
 24 N        8.4690     0.4390     2.2040 N.2   1 <1>  -0.7070 
 25 C        9.0800     0.2740    -0.1450 C.3   1 <1>   0.0160 
 26 C        7.4530     0.8410     2.8980 C.2   1 <1>   0.1390 
 27 H        1.7340    -2.8650    -1.5380 H     1 <1>   0.0800 
 28 H        0.0110    -2.6350    -1.6090 H     1 <1>   0.0800 
 29 H        3.1210    -1.9120     0.3520 H     1 <1>   0.0800 
 30 H        3.0860    -0.5890     1.4540 H     1 <1>   0.0800 
 31 H        2.1830     1.4590     0.9290 H     1 <1>   0.0800 
 32 H        0.8090     1.4880    -0.1240 H     1 <1>   0.0800 
 33 H        4.7670    -0.9830    -1.0150 H     1 <1>   0.0800 
 34 H        5.2970    -0.7800     0.6230 H     1 <1>   0.0800 
 35 H        2.7820     3.0740    -0.6770 H     1 <1>   0.0800 
 36 H        2.0160     2.2080    -1.9570 H     1 <1>   0.0800 
 37 H       -0.7770    -1.5800     1.0580 H     1 <1>   0.1500 
 38 H        4.4380     1.5400     0.4760 H     1 <1>   0.4500 
 39 H        4.5100     2.2460    -2.0810 H     1 <1>   0.0800 
 40 H        3.7790     0.6650    -2.1900 H     1 <1>   0.0800 
 41 H        2.7540    -4.6920    -0.6450 H     1 <1>   0.1500 
 42 H       -0.2390    -2.7090     3.4330 H     1 <1>   0.1500 
 43 H        6.3130     2.4120    -0.7570 H     1 <1>   0.0800 
 44 H        6.6330     0.7690    -1.2800 H     1 <1>   0.0800 
 45 H        1.7010    -4.7150     4.1890 H     1 <1>   0.1500 
 46 H        3.9710    -6.1870     0.8860 H     1 <1>   0.1500 
 47 H        3.4610    -6.2010     3.2770 H     1 <1>   0.1500 
 48 H        5.4750     1.6470     2.4590 H     1 <1>   0.1500 
 49 H        9.2850     1.1500    -0.7310 H     1 <1>   0.0800 
 50 H        8.6770    -0.5070    -0.7620 H     1 <1>   0.0800 
 51 H        9.9960    -0.0700     0.3020 H     1 <1>   0.0800 
 52 H        7.4360     0.8370     3.9770 H     1 <1>   0.1500 
@<TRIPOS>BOND
  1   1   2  2   
  2   2   3  am  
  3   2   4  1   
  4   3   5  1   
  5   3   6  1   
  6   4   7  1   
  7   4  27  1   
  8   4  28  1   
  9   5   8  1   
 10   5  29  1   
 11   5  30  1   
 12   6   9  1   
 13   6  31  1   
 14   6  32  1   
 15   7  10  1   
 16   7  11  1   
 17   8  12  1   
 18   8  33  1   
 19   8  34  1   
 20   9  13  1   
 21   9  35  1   
 22   9  36  1   
 23  10  14  ar  
 24  10  15  ar  
 25  11  16  2   
 26  11  37  1   
 27  12  13  1   
 28  12  17  1   
 29  12  38  1   
 30  13  39  1   
 31  13  40  1   
 32  14  16  1   
 33  14  18  ar  
 34  15  19  ar  
 35  15  41  1   
 36  16  42  1   
 37  17  20  1   
 38  17  43  1   
 39  17  44  1   
 40  18  21  ar  
 41  18  45  1   
 42  19  21  ar  
 43  19  46  1   
 44  20  22  1   
 45  20  23  2   
 46  21  47  1   
 47  22  24  1   
 48  22  25  1   
 49  23  26  1   
 50  23  48  1   
 51  24  26  2   
 52  25  49  1   
 53  25  50  1   
 54  25  51  1   
 55  26  52  1   
@<TRIPOS>SUBSTRUCTURE
  1 ****   5 GROUP 4 **** **** 0

# MOE 2024.06 (io_trps.svl 2023.06)
