@<TRIPOS>MOLECULE
NONAME
52 55 1 0 0 
SMALL
USER_CHARGES


@<TRIPOS>ATOM
  1 O       -0.9130     0.7880     0.1220 O.2   1 <1>  -0.5700 
  2 C       -0.4500     1.8800    -0.0720 C.2   1 <1>   0.5690 
  3 N        0.3280     2.1170    -1.1530 N.am  1 <1>  -0.7300 
  4 C       -0.7270     2.9990     0.9160 C.3   1 <1>  -0.0990 
  5 C        0.8200     3.4420    -1.6030 C.3   1 <1>   0.1400 
  6 C       -0.4630     4.4050     0.3420 C.3   1 <1>  -0.1600 
  7 C        0.8740     4.4430    -0.4310 C.3   1 <1>  -0.0190 
  8 C        1.2020     5.8590    -0.9190 C.2   1 <1>   0.5690 
  9 O        1.3240     6.0600    -2.1040 O.2   1 <1>  -0.5700 
 10 N        1.3920     6.8880    -0.0310 N.am  1 <1>  -0.6600 
 11 C        2.1200     6.7350     1.2590 C.3   1 <1>   0.1400 
 12 C        1.0900     8.2870    -0.4450 C.3   1 <1>   0.1400 
 13 C        3.6440     6.6550     1.0180 C.3   1 <1>   0.3430 
 14 C        2.3550     9.1370    -0.5990 C.3   1 <1>  -0.1600 
 15 N        4.2480     7.8810     0.3870 N.4   1 <1>  -0.9590 
 16 C        3.6190     8.3290    -0.8960 C.3   1 <1>   0.3430 
 17 C        5.7290     7.7530     0.2200 C.3   1 <1>   0.5240 
 18 C        6.3500     9.1440     0.2210 C.2   1 <1>   0.1080 
 19 N        5.7990    10.1590     0.7920 N.2   1 <1>  -0.4100 
 20 C        7.5560     9.5070    -0.3760 C.2   1 <1>  -0.1500 
 21 O        6.6010    11.1650     0.5880 O.3   1 <1>  -0.0190 
 22 C        7.6550    10.8170    -0.1010 C.2   1 <1>   0.0550 
 23 C        8.7120    11.8500    -0.4410 C.3   1 <1>  -0.0150 
 24 C       10.1330    11.4550    -0.6920 C.3   1 <1>  -0.2000 
 25 C        9.7660    12.2010     0.5590 C.3   1 <1>  -0.2000 
 26 H        0.4340     1.3330    -1.8020 H     1 <1>   0.3700 
 27 H       -0.1020     2.8330     1.7730 H     1 <1>   0.0800 
 28 H       -1.7500     2.9260     1.2390 H     1 <1>   0.0800 
 29 H        0.1540     3.8090    -2.3680 H     1 <1>   0.0800 
 30 H        1.7990     3.3340    -2.0370 H     1 <1>   0.0800 
 31 H       -0.4660     5.1220     1.1440 H     1 <1>   0.0800 
 32 H       -1.2630     4.6640    -0.3320 H     1 <1>   0.0800 
 33 H        1.6660     4.1260     0.2200 H     1 <1>   0.0800 
 34 H        1.7940     5.8380     1.7550 H     1 <1>   0.0800 
 35 H        1.8920     7.5600     1.9120 H     1 <1>   0.0800 
 36 H        0.4270     8.7400     0.2740 H     1 <1>   0.0800 
 37 H        0.5640     8.2700    -1.3870 H     1 <1>   0.0800 
 38 H        3.8370     5.8000     0.3910 H     1 <1>   0.0800 
 39 H        4.1230     6.4770     1.9660 H     1 <1>   0.0800 
 40 H        2.4980     9.7560     0.2690 H     1 <1>   0.0800 
 41 H        2.1860     9.8080    -1.4230 H     1 <1>   0.0800 
 42 H        4.1560     8.6850     1.0310 H     1 <1>   0.4500 
 43 H        4.3050     8.9740    -1.4230 H     1 <1>   0.0800 
 44 H        3.3880     7.4890    -1.5330 H     1 <1>   0.0800 
 45 H        5.9630     7.2400    -0.6980 H     1 <1>   0.0800 
 46 H        6.1470     7.1980     1.0440 H     1 <1>   0.0800 
 47 H        8.2390     8.8840    -0.9240 H     1 <1>   0.1500 
 48 H        8.3130    12.6570    -1.0310 H     1 <1>   0.1000 
 49 H       10.6850    11.9720    -1.4580 H     1 <1>   0.1000 
 50 H       10.4270    10.4240    -0.5980 H     1 <1>   0.1000 
 51 H        9.7800    11.6780     1.5000 H     1 <1>   0.1000 
 52 H       10.0580    13.2330     0.6560 H     1 <1>   0.1000 
@<TRIPOS>BOND
  1   1   2  2   
  2   2   3  am  
  3   2   4  1   
  4   3   5  1   
  5   3  26  1   
  6   4   6  1   
  7   4  27  1   
  8   4  28  1   
  9   5   7  1   
 10   5  29  1   
 11   5  30  1   
 12   6   7  1   
 13   6  31  1   
 14   6  32  1   
 15   7   8  1   
 16   7  33  1   
 17   8   9  2   
 18   8  10  am  
 19  10  11  1   
 20  10  12  1   
 21  11  13  1   
 22  11  34  1   
 23  11  35  1   
 24  12  14  1   
 25  12  36  1   
 26  12  37  1   
 27  13  15  1   
 28  13  38  1   
 29  13  39  1   
 30  14  16  1   
 31  14  40  1   
 32  14  41  1   
 33  15  16  1   
 34  15  17  1   
 35  15  42  1   
 36  16  43  1   
 37  16  44  1   
 38  17  18  1   
 39  17  45  1   
 40  17  46  1   
 41  18  19  2   
 42  18  20  1   
 43  19  21  1   
 44  20  22  2   
 45  20  47  1   
 46  21  22  1   
 47  22  23  1   
 48  23  24  1   
 49  23  25  1   
 50  23  48  1   
 51  24  25  1   
 52  24  49  1   
 53  24  50  1   
 54  25  51  1   
 55  25  52  1   
@<TRIPOS>SUBSTRUCTURE
  1 ****  15 GROUP 4 **** **** 0

# MOE 2024.06 (io_trps.svl 2023.06)
