@<TRIPOS>MOLECULE
NONAME
33 34 1 0 0 
SMALL
USER_CHARGES


@<TRIPOS>ATOM
  1 F       -0.8400    -0.5180     1.5560 F     1 <1>  -0.1900 
  2 C       -1.9460    -1.0440     1.0710 C.ar  1 <1>   0.1900 
  3 C       -2.8760    -0.2820     0.3630 C.ar  1 <1>   0.4100 
  4 C       -2.1900    -2.3730     1.2790 C.ar  1 <1>   0.1600 
  5 N       -3.9790    -0.8570    -0.0840 N.ar  1 <1>  -0.6200 
  6 N       -2.7220     1.0750     0.0850 N.pl3 1 <1>  -0.8380 
  7 N       -3.2850    -2.9530     0.8270 N.ar  1 <1>  -0.6200 
  8 C       -4.1150    -2.1460     0.1730 C.ar  1 <1>   0.7200 
  9 C       -3.9090     1.9440    -0.1470 C.3   1 <1>   0.1290 
 10 C       -1.4290     1.6200    -0.4090 C.3   1 <1>   0.1290 
 11 N       -5.2600    -2.6780    -0.3140 N.pl3 1 <1>  -0.8690 
 12 C       -5.3540    -4.0790    -0.7860 C.3   1 <1>   0.2090 
 13 C       -5.9780    -4.9540     0.3030 C.3   1 <1>   0.0200 
 14 C       -6.1580    -6.3990    -0.1480 C.2   1 <1>  -0.3320 
 15 N       -6.7000    -7.3440     0.6430 N.pl3 1 <1>   0.0330 
 16 C       -5.8510    -7.0180    -1.3120 C.2   1 <1>   0.0770 
 17 C       -6.6900    -8.4740    -0.0940 C.2   1 <1>   0.0360 
 18 N       -6.1880    -8.3200    -1.2750 N.2   1 <1>  -0.5650 
 19 H       -1.4810    -2.9700     1.8240 H     1 <1>   0.1500 
 20 H       -4.7490     1.5860     0.4230 H     1 <1>   0.0800 
 21 H       -4.1680     1.9340    -1.1920 H     1 <1>   0.0800 
 22 H       -3.6930     2.9530     0.1590 H     1 <1>   0.0800 
 23 H       -0.7440     0.8220    -0.6350 H     1 <1>   0.0800 
 24 H       -0.9930     2.2540     0.3440 H     1 <1>   0.0800 
 25 H       -1.5880     2.1940    -1.3050 H     1 <1>   0.0800 
 26 H       -5.7460    -1.9910    -0.8910 H     1 <1>   0.4000 
 27 H       -4.3740    -4.4520    -1.0340 H     1 <1>   0.0800 
 28 H       -5.9640    -4.1130    -1.6720 H     1 <1>   0.0800 
 29 H       -6.9360    -4.5450     0.5690 H     1 <1>   0.0800 
 30 H       -5.3420    -4.9310     1.1700 H     1 <1>   0.0800 
 31 H       -7.0470    -7.2370     1.6010 H     1 <1>   0.2700 
 32 H       -5.3970    -6.5960    -2.1930 H     1 <1>   0.1500 
 33 H       -7.0680    -9.4080     0.2850 H     1 <1>   0.1500 
@<TRIPOS>BOND
  1   1   2  1   
  2   2   3  ar  
  3   2   4  ar  
  4   3   5  ar  
  5   3   6  1   
  6   4   7  ar  
  7   4  19  1   
  8   5   8  ar  
  9   6   9  1   
 10   6  10  1   
 11   7   8  ar  
 12   8  11  1   
 13   9  20  1   
 14   9  21  1   
 15   9  22  1   
 16  10  23  1   
 17  10  24  1   
 18  10  25  1   
 19  11  12  1   
 20  11  26  1   
 21  12  13  1   
 22  12  27  1   
 23  12  28  1   
 24  13  14  1   
 25  13  29  1   
 26  13  30  1   
 27  14  15  1   
 28  14  16  2   
 29  15  17  1   
 30  15  31  1   
 31  16  18  1   
 32  16  32  1   
 33  17  18  2   
 34  17  33  1   
@<TRIPOS>SUBSTRUCTURE
  1 ****   8 GROUP 4 **** **** 0

# MOE 2024.06 (io_trps.svl 2023.06)
