@<TRIPOS>MOLECULE
NONAME
60 62 1 0 0 
SMALL
USER_CHARGES


@<TRIPOS>ATOM
  1 O       -0.8880     0.3110    -1.7630 O.2   1 <1>  -0.5700 
  2 C       -1.8230     1.0630    -1.5390 C.2   1 <1>   0.5440 
  3 N       -3.0950     0.5270    -1.4820 N.am  1 <1>  -0.6600 
  4 C       -1.5760     2.4600    -1.2770 C.ar  1 <1>   0.0860 
  5 C       -3.2800    -0.9250    -1.6950 C.3   1 <1>   0.1400 
  6 C       -4.1350     1.0910    -0.5700 C.3   1 <1>   0.1400 
  7 C       -1.1400     2.8770    -0.0170 C.ar  1 <1>   0.0830 
  8 C       -1.7600     3.4270    -2.2640 C.ar  1 <1>  -0.1500 
  9 C       -3.2390    -1.5000    -0.2730 C.3   1 <1>   0.4230 
 10 C       -4.2700     0.2200     0.7110 C.3   1 <1>  -0.1600 
 11 O       -0.9640     1.9470     0.9480 O.3   1 <1>  -0.3630 
 12 C       -0.9030     4.2210     0.2420 C.ar  1 <1>  -0.1500 
 13 C       -1.5180     4.7640    -2.0080 C.ar  1 <1>  -0.1500 
 14 N       -2.4630    -2.7750    -0.0740 N.4   1 <1>  -0.9590 
 15 C       -4.6690    -1.3290     0.4180 C.3   1 <1>   0.0000 
 16 C        0.2910     1.8540     1.6000 C.3   1 <1>   0.1200 
 17 C       -1.0900     5.1620    -0.7530 C.ar  1 <1>  -0.1500 
 18 C       -2.9680    -3.9020    -0.8700 C.3   1 <1>   0.3430 
 19 C       -1.0010    -2.5360    -0.3070 C.3   1 <1>   0.2630 
 20 C       -5.1220    -2.8430     0.0760 C.3   1 <1>  -0.1600 
 21 C       -6.0590    -1.1140     1.1880 C.3   1 <1>   0.1200 
 22 C        1.3770     1.4800     0.5890 C.3   1 <1>   0.1200 
 23 C       -4.4700    -3.7450    -1.0040 C.3   1 <1>  -0.1600 
 24 O       -5.7990    -1.1440     2.5570 O.3   1 <1>  -0.6800 
 25 O        2.5460     1.2000     1.2900 O.3   1 <1>  -0.5600 
 26 C        3.6380     0.9340     0.4760 C.3   1 <1>   0.1200 
 27 C        4.8200     0.6200     1.3840 C.3   1 <1>  -0.2400 
 28 H       -4.2300    -1.1000    -2.1670 H     1 <1>   0.0800 
 29 H       -2.5000    -1.3260    -2.3180 H     1 <1>   0.0800 
 30 H       -3.8880     2.1020    -0.2910 H     1 <1>   0.0800 
 31 H       -5.0770     1.1230    -1.0920 H     1 <1>   0.0800 
 32 H       -2.0910     3.1200    -3.2410 H     1 <1>   0.1500 
 33 H       -2.5560    -0.8240     0.2060 H     1 <1>   0.0800 
 34 H       -3.3700     0.3010     1.3020 H     1 <1>   0.0800 
 35 H       -4.9220     0.8140     1.3320 H     1 <1>   0.0800 
 36 H       -0.5820     4.5370     1.2180 H     1 <1>   0.1500 
 37 H       -1.6630     5.4980    -2.7830 H     1 <1>   0.1500 
 38 H       -2.6010    -3.0120     0.9190 H     1 <1>   0.4500 
 39 H        0.5150     2.7900     2.0770 H     1 <1>   0.0800 
 40 H        0.2070     1.0850     2.3460 H     1 <1>   0.0800 
 41 H       -0.9050     6.2050    -0.5530 H     1 <1>   0.1500 
 42 H       -2.5170    -3.9090    -1.8490 H     1 <1>   0.0800 
 43 H       -2.7330    -4.8310    -0.3750 H     1 <1>   0.0800 
 44 H       -0.8230    -2.2550    -1.3320 H     1 <1>   0.0800 
 45 H       -0.4320    -3.4250    -0.0850 H     1 <1>   0.0800 
 46 H       -0.6490    -1.7350     0.3230 H     1 <1>   0.0800 
 47 H       -5.1230    -3.4080     0.9960 H     1 <1>   0.0800 
 48 H       -6.1270    -2.8630    -0.3180 H     1 <1>   0.0800 
 49 H       -6.8600    -1.8240     1.0710 H     1 <1>   0.0800 
 50 H       -6.5520    -0.1860     0.9400 H     1 <1>   0.0800 
 51 H        1.5640     2.3010    -0.0830 H     1 <1>   0.0800 
 52 H        1.0930     0.6020     0.0370 H     1 <1>   0.0800 
 53 H       -4.6860    -3.3530    -1.9830 H     1 <1>   0.0800 
 54 H       -4.9170    -4.7240    -0.9740 H     1 <1>   0.0800 
 55 H       -6.6150    -0.9890     3.0760 H     1 <1>   0.4000 
 56 H        3.4080     0.0920    -0.1550 H     1 <1>   0.0800 
 57 H        3.8440     1.8020    -0.1280 H     1 <1>   0.0800 
 58 H        4.6000    -0.2380     1.9930 H     1 <1>   0.0800 
 59 H        5.0330     1.4630     2.0150 H     1 <1>   0.0800 
 60 H        5.6900     0.4060     0.7890 H     1 <1>   0.0800 
@<TRIPOS>BOND
  1   1   2  2   
  2   2   3  am  
  3   2   4  1   
  4   3   5  1   
  5   3   6  1   
  6   4   7  ar  
  7   4   8  ar  
  8   5   9  1   
  9   5  28  1   
 10   5  29  1   
 11   6  10  1   
 12   6  30  1   
 13   6  31  1   
 14   7  11  1   
 15   7  12  ar  
 16   8  13  ar  
 17   8  32  1   
 18   9  14  1   
 19   9  15  1   
 20   9  33  1   
 21  10  15  1   
 22  10  34  1   
 23  10  35  1   
 24  11  16  1   
 25  12  17  ar  
 26  12  36  1   
 27  13  17  ar  
 28  13  37  1   
 29  14  18  1   
 30  14  19  1   
 31  14  38  1   
 32  15  20  1   
 33  15  21  1   
 34  16  22  1   
 35  16  39  1   
 36  16  40  1   
 37  17  41  1   
 38  18  23  1   
 39  18  42  1   
 40  18  43  1   
 41  19  44  1   
 42  19  45  1   
 43  19  46  1   
 44  20  23  1   
 45  20  47  1   
 46  20  48  1   
 47  21  24  1   
 48  21  49  1   
 49  21  50  1   
 50  22  25  1   
 51  22  51  1   
 52  22  52  1   
 53  23  53  1   
 54  23  54  1   
 55  24  55  1   
 56  25  26  1   
 57  26  27  1   
 58  26  56  1   
 59  26  57  1   
 60  27  58  1   
 61  27  59  1   
 62  27  60  1   
@<TRIPOS>SUBSTRUCTURE
  1 ****   2 GROUP 4 **** **** 0

# MOE 2024.06 (io_trps.svl 2023.06)
