@<TRIPOS>MOLECULE
NONAME
52 55 1 0 0 
SMALL
USER_CHARGES


@<TRIPOS>ATOM
  1 O        0.4310     0.3480     2.6120 O.3   1 <1>  -0.2170 
  2 N        0.1110     0.3520     1.3370 N.2   1 <1>  -0.5130 
  3 C        1.6750    -0.2720     2.8480 C.3   1 <1>   0.2000 
  4 C        1.1150     0.0660     0.6140 C.2   1 <1>   0.3030 
  5 C        2.3270    -0.2030     1.4690 C.3   1 <1>  -0.0990 
  6 C        1.3730    -1.7050     3.3500 C.3   1 <1>   0.3430 
  7 C        1.1470    -0.0690    -0.8260 C.ar  1 <1>   0.0860 
  8 N        0.2490    -2.3230     2.5690 N.4   1 <1>  -0.9590 
  9 C        2.3390    -0.2170    -1.5430 C.ar  1 <1>  -0.1500 
 10 C       -0.0410    -0.0820    -1.5590 C.ar  1 <1>  -0.1500 
 11 C       -0.8030    -2.9260     3.4240 C.3   1 <1>   0.3430 
 12 C        0.6820    -3.2410     1.4850 C.3   1 <1>   0.3430 
 13 C        2.3380    -0.3920    -2.9150 C.ar  1 <1>  -0.1500 
 14 C       -0.0480    -0.2590    -2.9300 C.ar  1 <1>  -0.1500 
 15 C       -2.0330    -3.2040     2.5580 C.3   1 <1>  -0.1600 
 16 C       -0.5080    -3.5260     0.5700 C.3   1 <1>  -0.1600 
 17 C        1.1440    -0.4170    -3.6110 C.ar  1 <1>  -0.1500 
 18 C       -1.7180    -4.0930     1.3390 C.3   1 <1>  -0.0800 
 19 C       -2.9660    -4.1890     0.4400 C.3   1 <1>  -0.1600 
 20 C       -2.8150    -5.1700    -0.7350 C.3   1 <1>   0.0960 
 21 N       -3.9890    -5.0910    -1.6230 N.pl3 1 <1>   0.3140 
 22 N       -4.0900    -4.1370    -2.5660 N.2   1 <1>  -0.7070 
 23 C       -5.0690    -5.8970    -1.6220 C.2   1 <1>  -0.3020 
 24 C       -5.2310    -4.3600    -3.1430 C.2   1 <1>   0.1390 
 25 C       -5.8930    -5.4520    -2.5950 C.2   1 <1>  -0.1500 
 26 H        2.2200     0.3000     3.5790 H     1 <1>   0.0800 
 27 H        2.8370    -1.1120     1.2080 H     1 <1>   0.0800 
 28 H        3.0070     0.6290     1.4150 H     1 <1>   0.0800 
 29 H        1.0920    -1.6350     4.3880 H     1 <1>   0.0800 
 30 H        2.2590    -2.3150     3.2920 H     1 <1>   0.0800 
 31 H       -0.2040    -1.5010     2.1090 H     1 <1>   0.4500 
 32 H        3.2860    -0.1910    -1.0380 H     1 <1>   0.1500 
 33 H       -0.9810     0.0490    -1.0490 H     1 <1>   0.1500 
 34 H       -1.0720    -2.2460     4.2160 H     1 <1>   0.0800 
 35 H       -0.4450    -3.8440     3.8620 H     1 <1>   0.0800 
 36 H        1.0480    -4.1630     1.9070 H     1 <1>   0.0800 
 37 H        1.4710    -2.7910     0.9050 H     1 <1>   0.0800 
 38 H        3.2670    -0.5050    -3.4490 H     1 <1>   0.1500 
 39 H       -0.9810    -0.2710    -3.4690 H     1 <1>   0.1500 
 40 H       -2.4410    -2.2620     2.2310 H     1 <1>   0.0800 
 41 H       -2.7820    -3.6810     3.1660 H     1 <1>   0.0800 
 42 H       -0.1880    -4.2240    -0.1820 H     1 <1>   0.0800 
 43 H       -0.7850    -2.6150     0.0660 H     1 <1>   0.0800 
 44 H        1.1410    -0.5550    -4.6800 H     1 <1>   0.1500 
 45 H       -1.4710    -5.0800     1.6960 H     1 <1>   0.0800 
 46 H       -3.1930    -3.2120     0.0440 H     1 <1>   0.0800 
 47 H       -3.8080    -4.5040     1.0330 H     1 <1>   0.0800 
 48 H       -2.7170    -6.1790    -0.3790 H     1 <1>   0.0800 
 49 H       -1.9550    -4.9270    -1.3300 H     1 <1>   0.0800 
 50 H       -5.1910    -6.7230    -0.9460 H     1 <1>   0.1500 
 51 H       -5.6120    -3.7620    -3.9540 H     1 <1>   0.1500 
 52 H       -6.8500    -5.8330    -2.9010 H     1 <1>   0.1500 
@<TRIPOS>BOND
  1   1   2  1   
  2   1   3  1   
  3   2   4  2   
  4   3   5  1   
  5   3   6  1   
  6   3  26  1   
  7   4   5  1   
  8   4   7  1   
  9   5  27  1   
 10   5  28  1   
 11   6   8  1   
 12   6  29  1   
 13   6  30  1   
 14   7   9  ar  
 15   7  10  ar  
 16   8  11  1   
 17   8  12  1   
 18   8  31  1   
 19   9  13  ar  
 20   9  32  1   
 21  10  14  ar  
 22  10  33  1   
 23  11  15  1   
 24  11  34  1   
 25  11  35  1   
 26  12  16  1   
 27  12  36  1   
 28  12  37  1   
 29  13  17  ar  
 30  13  38  1   
 31  14  17  ar  
 32  14  39  1   
 33  15  18  1   
 34  15  40  1   
 35  15  41  1   
 36  16  18  1   
 37  16  42  1   
 38  16  43  1   
 39  17  44  1   
 40  18  19  1   
 41  18  45  1   
 42  19  20  1   
 43  19  46  1   
 44  19  47  1   
 45  20  21  1   
 46  20  48  1   
 47  20  49  1   
 48  21  22  1   
 49  21  23  1   
 50  22  24  2   
 51  23  25  2   
 52  23  50  1   
 53  24  25  1   
 54  24  51  1   
 55  25  52  1   
@<TRIPOS>SUBSTRUCTURE
  1 ****  16 GROUP 4 **** **** 0

# MOE 2024.06 (io_trps.svl 2023.06)
