@<TRIPOS>MOLECULE
NONAME
52 53 1 0 0 
SMALL
USER_CHARGES


@<TRIPOS>ATOM
  1 O       -0.9690    -0.4100    -0.5330 O.co2 1 <1>  -0.9000 
  2 C       -0.7870     0.6990    -1.0800 C.2   1 <1>   0.9060 
  3 O       -0.6660     0.8030    -2.2980 O.co2 1 <1>  -0.9000 
  4 C       -0.7080     1.8950    -0.0900 C.3   1 <1>   0.4600 
  5 N       -1.1470     1.4250     1.3020 N.4   1 <1>  -0.9590 
  6 C       -1.3670     3.2350    -0.4440 C.ar  1 <1>  -0.1430 
  7 C       -2.6410     1.4870     1.5180 C.3   1 <1>   0.3430 
  8 C       -0.3570     2.0880     2.3780 C.3   1 <1>   0.2630 
  9 C       -2.5760     3.3510    -1.1270 C.ar  1 <1>   0.0830 
 10 C       -0.7120     4.3980    -0.0580 C.ar  1 <1>  -0.1500 
 11 C       -3.3040     0.1130     1.8280 C.3   1 <1>   0.3430 
 12 O       -3.2440     2.2510    -1.5280 O.3   1 <1>  -0.3620 
 13 C       -3.1220     4.6000    -1.3860 C.ar  1 <1>  -0.1500 
 14 C       -1.2490     5.6470    -0.3200 C.ar  1 <1>  -0.1430 
 15 N       -3.3150    -0.8620     0.6860 N.4   1 <1>  -0.9590 
 16 C       -3.3690     2.0870    -2.9290 C.3   1 <1>   0.0400 
 17 C       -2.4610     5.7440    -0.9820 C.ar  1 <1>  -0.1500 
 18 C       -0.5170     6.9070     0.1090 C.3   1 <1>  -0.0970 
 19 C       -4.3320    -0.5420    -0.3560 C.3   1 <1>   0.3430 
 20 C       -3.4080    -2.2790     1.1300 C.3   1 <1>   0.3430 
 21 C       -4.1100    -1.4330    -1.5790 C.3   1 <1>  -0.1600 
 22 C       -3.1670    -3.2030    -0.0650 C.3   1 <1>  -0.1600 
 23 C       -4.1460    -2.9210    -1.2110 C.3   1 <1>  -0.1600 
 24 H        0.3470     2.0940    -0.0440 H     1 <1>   0.0800 
 25 H       -0.8850     0.4180     1.2050 H     1 <1>   0.4500 
 26 H       -3.1300     1.9010     0.6590 H     1 <1>   0.0800 
 27 H       -2.8420     2.1550     2.3380 H     1 <1>   0.0800 
 28 H       -0.5870     3.1410     2.4110 H     1 <1>   0.0800 
 29 H        0.6980     1.9710     2.1910 H     1 <1>   0.0800 
 30 H       -0.5860     1.6520     3.3370 H     1 <1>   0.0800 
 31 H        0.2360     4.3420     0.4470 H     1 <1>   0.1500 
 32 H       -4.3210     0.2880     2.1390 H     1 <1>   0.0800 
 33 H       -2.7850    -0.3240     2.6650 H     1 <1>   0.0800 
 34 H       -4.0610     4.6810    -1.9010 H     1 <1>   0.1500 
 35 H       -2.4000    -0.8110     0.1670 H     1 <1>   0.4500 
 36 H       -3.6620     1.0740    -3.1330 H     1 <1>   0.0800 
 37 H       -2.4160     2.2800    -3.3930 H     1 <1>   0.0800 
 38 H       -4.1100     2.7710    -3.3030 H     1 <1>   0.0800 
 39 H       -2.8910     6.7090    -1.1890 H     1 <1>   0.1500 
 40 H        0.5450     6.7400     0.1310 H     1 <1>   0.0800 
 41 H       -0.8440     7.2060     1.0880 H     1 <1>   0.0800 
 42 H       -0.7150     7.7080    -0.5810 H     1 <1>   0.0800 
 43 H       -4.2520     0.4880    -0.6530 H     1 <1>   0.0800 
 44 H       -5.3230    -0.7080     0.0340 H     1 <1>   0.0800 
 45 H       -4.3820    -2.4720     1.5470 H     1 <1>   0.0800 
 46 H       -2.6630    -2.4790     1.8830 H     1 <1>   0.0800 
 47 H       -3.1580    -1.1890    -2.0230 H     1 <1>   0.0800 
 48 H       -4.8690    -1.2250    -2.3130 H     1 <1>   0.0800 
 49 H       -3.2680    -4.2270     0.2500 H     1 <1>   0.0800 
 50 H       -2.1550    -3.0700    -0.4130 H     1 <1>   0.0800 
 51 H       -3.8790    -3.5130    -2.0710 H     1 <1>   0.0800 
 52 H       -5.1430    -3.1980    -0.9150 H     1 <1>   0.0800 
@<TRIPOS>BOND
  1   1   2  ar  
  2   2   3  ar  
  3   2   4  1   
  4   4   5  1   
  5   4   6  1   
  6   4  24  1   
  7   5   7  1   
  8   5   8  1   
  9   5  25  1   
 10   6   9  ar  
 11   6  10  ar  
 12   7  11  1   
 13   7  26  1   
 14   7  27  1   
 15   8  28  1   
 16   8  29  1   
 17   8  30  1   
 18   9  12  1   
 19   9  13  ar  
 20  10  14  ar  
 21  10  31  1   
 22  11  15  1   
 23  11  32  1   
 24  11  33  1   
 25  12  16  1   
 26  13  17  ar  
 27  13  34  1   
 28  14  17  ar  
 29  14  18  1   
 30  15  19  1   
 31  15  20  1   
 32  15  35  1   
 33  16  36  1   
 34  16  37  1   
 35  16  38  1   
 36  17  39  1   
 37  18  40  1   
 38  18  41  1   
 39  18  42  1   
 40  19  21  1   
 41  19  43  1   
 42  19  44  1   
 43  20  22  1   
 44  20  45  1   
 45  20  46  1   
 46  21  23  1   
 47  21  47  1   
 48  21  48  1   
 49  22  23  1   
 50  22  49  1   
 51  22  50  1   
 52  23  51  1   
 53  23  52  1   
@<TRIPOS>SUBSTRUCTURE
  1 ****   4 GROUP 4 **** **** 0

# MOE 2024.06 (io_trps.svl 2023.06)
