@<TRIPOS>MOLECULE
NONAME
44 46 1 0 0 
SMALL
USER_CHARGES


@<TRIPOS>ATOM
  1 F        0.2620     0.4450     1.8800 F     1 <1>  -0.1900 
  2 C        1.2810     0.8730     1.1780 C.ar  1 <1>   0.1900 
  3 C        1.4770     2.2310     0.9920 C.ar  1 <1>   0.1900 
  4 C        2.1410    -0.0570     0.6220 C.ar  1 <1>  -0.1440 
  5 F        0.6520     3.0950     1.5250 F     1 <1>  -0.1900 
  6 C        2.5400     2.6950     0.2410 C.ar  1 <1>  -0.1500 
  7 C        3.2110     0.4010    -0.1450 C.ar  1 <1>   0.0830 
  8 C        1.9190    -1.5360     0.8540 C.3   1 <1>   0.4860 
  9 C        3.4060     1.7730    -0.3290 C.ar  1 <1>  -0.1500 
 10 O        4.0210    -0.5430    -0.6930 O.3   1 <1>  -0.3630 
 11 N        1.6410    -2.1930    -0.4500 N.4   1 <1>  -0.9590 
 12 C        5.2460    -0.1880    -1.3070 C.3   1 <1>   0.0400 
 13 C        0.3570    -1.7370    -1.0690 C.3   1 <1>   0.3430 
 14 C        1.5460    -3.6710    -0.3200 C.3   1 <1>   0.3430 
 15 C       -0.6610    -2.8660    -0.8500 C.3   1 <1>   0.2000 
 16 C        0.0660    -3.9620    -0.0690 C.3   1 <1>  -0.0800 
 17 O       -1.7600    -2.4280    -0.1260 O.3   1 <1>  -0.6800 
 18 C       -0.3680    -5.3790    -0.4910 C.3   1 <1>  -0.0170 
 19 C        0.3370    -6.4630     0.3140 C.ar  1 <1>   0.1670 
 20 N        1.6520    -6.5410     0.1720 N.ar  1 <1>  -0.6200 
 21 C       -0.4000    -7.3130     1.1390 C.ar  1 <1>   0.1600 
 22 C        2.1710    -7.5260     0.8910 C.ar  1 <1>   0.1600 
 23 N        0.1220    -8.2830     1.8680 N.ar  1 <1>  -0.6200 
 24 C        1.4310    -8.3670     1.7120 C.ar  1 <1>   0.1600 
 25 H        2.6810     3.7530     0.1060 H     1 <1>   0.1500 
 26 H        1.0990    -1.6930     1.5360 H     1 <1>   0.0800 
 27 H        2.8110    -1.9560     1.2910 H     1 <1>   0.0800 
 28 H        4.2260     2.1480    -0.9160 H     1 <1>   0.1500 
 29 H        2.4430    -1.9270    -1.0490 H     1 <1>   0.4500 
 30 H        5.7600    -1.0910    -1.5860 H     1 <1>   0.0800 
 31 H        5.8450     0.3650    -0.6050 H     1 <1>   0.0800 
 32 H        5.0440     0.4000    -2.1850 H     1 <1>   0.0800 
 33 H        0.0080    -0.8150    -0.6320 H     1 <1>   0.0800 
 34 H        0.4970    -1.5930    -2.1280 H     1 <1>   0.0800 
 35 H        1.8480    -4.1380    -1.2440 H     1 <1>   0.0800 
 36 H        2.1670    -4.0520     0.4760 H     1 <1>   0.0800 
 37 H       -1.0180    -3.2170    -1.8040 H     1 <1>   0.0800 
 38 H       -0.1120    -3.8460     0.9860 H     1 <1>   0.0800 
 39 H       -1.5430    -2.1740     0.7940 H     1 <1>   0.4000 
 40 H       -0.1550    -5.5380    -1.5340 H     1 <1>   0.0800 
 41 H       -1.4330    -5.4710    -0.3630 H     1 <1>   0.0800 
 42 H       -1.4670    -7.1880     1.2010 H     1 <1>   0.1500 
 43 H        3.2350    -7.6780     0.8300 H     1 <1>   0.1500 
 44 H        1.9420    -9.1390     2.2600 H     1 <1>   0.1500 
@<TRIPOS>BOND
  1   1   2  1   
  2   2   3  ar  
  3   2   4  ar  
  4   3   5  1   
  5   3   6  ar  
  6   4   7  ar  
  7   4   8  1   
  8   6   9  ar  
  9   6  25  1   
 10   7   9  ar  
 11   7  10  1   
 12   8  11  1   
 13   8  26  1   
 14   8  27  1   
 15   9  28  1   
 16  10  12  1   
 17  11  13  1   
 18  11  14  1   
 19  11  29  1   
 20  12  30  1   
 21  12  31  1   
 22  12  32  1   
 23  13  15  1   
 24  13  33  1   
 25  13  34  1   
 26  14  16  1   
 27  14  35  1   
 28  14  36  1   
 29  15  16  1   
 30  15  17  1   
 31  15  37  1   
 32  16  18  1   
 33  16  38  1   
 34  17  39  1   
 35  18  19  1   
 36  18  40  1   
 37  18  41  1   
 38  19  20  ar  
 39  19  21  ar  
 40  20  22  ar  
 41  21  23  ar  
 42  21  42  1   
 43  22  24  ar  
 44  22  43  1   
 45  23  24  ar  
 46  24  44  1   
@<TRIPOS>SUBSTRUCTURE
  1 ****  11 GROUP 4 **** **** 0

# MOE 2024.06 (io_trps.svl 2023.06)
