@<TRIPOS>MOLECULE
NONAME
52 54 1 0 0 
SMALL
USER_CHARGES


@<TRIPOS>ATOM
  1 O       -0.5770     1.1290    -0.5740 O.2   1 <1>  -0.5700 
  2 C       -1.7080     1.2100    -0.1350 C.2   1 <1>   0.5440 
  3 N       -2.5390     0.1080    -0.2320 N.am  1 <1>  -0.6600 
  4 C       -2.1260     2.4610     0.4670 C.ar  1 <1>   0.0860 
  5 C       -3.9740     0.1330    -0.6460 C.3   1 <1>   0.2200 
  6 C       -1.9250    -1.2490    -0.3160 C.3   1 <1>   0.0600 
  7 C       -2.2260     3.6230    -0.2930 C.ar  1 <1>  -0.1500 
  8 C       -2.4150     2.5480     1.8290 C.ar  1 <1>  -0.1500 
  9 C       -4.2720     1.0870    -1.8040 C.3   1 <1>  -0.1600 
 10 C       -4.9210     0.5210     0.4820 C.3   1 <1>  -0.1600 
 11 C       -2.6430     4.8200     0.2740 C.ar  1 <1>   0.0820 
 12 C       -2.8220     3.7370     2.4050 C.ar  1 <1>  -0.1500 
 13 C       -5.6920     1.6280    -1.5720 C.3   1 <1>  -0.0800 
 14 C       -6.1610     1.1000    -0.2090 C.3   1 <1>  -0.0800 
 15 O       -2.7850     5.9600    -0.4410 O.3   1 <1>  -0.3630 
 16 C       -2.9400     4.8730     1.6260 C.ar  1 <1>  -0.1500 
 17 C       -5.7870     3.1640    -1.5050 C.3   1 <1>  -0.1600 
 18 C       -6.7540     2.2980     0.5370 C.3   1 <1>  -0.1600 
 19 C       -1.9410     6.1960    -1.5510 C.3   1 <1>   0.0400 
 20 C       -6.0070     3.5010    -0.0290 C.3   1 <1>   0.4230 
 21 N       -6.7290     4.7900     0.2160 N.4   1 <1>  -0.9590 
 22 C       -8.0740     4.9160    -0.4350 C.3   1 <1>   0.2630 
 23 C       -5.8670     5.9520    -0.1620 C.3   1 <1>   0.2630 
 24 H       -4.2610    -0.8530    -0.9740 H     1 <1>   0.0800 
 25 H       -2.5140    -1.9560     0.2410 H     1 <1>   0.0800 
 26 H       -0.9290    -1.2360     0.0950 H     1 <1>   0.0800 
 27 H       -1.8680    -1.5590    -1.3450 H     1 <1>   0.0800 
 28 H       -1.9680     3.5640    -1.3340 H     1 <1>   0.1500 
 29 H       -2.3100     1.6640     2.4360 H     1 <1>   0.1500 
 30 H       -3.5580     1.8820    -1.8590 H     1 <1>   0.0800 
 31 H       -4.2270     0.5450    -2.7320 H     1 <1>   0.0800 
 32 H       -5.1730    -0.3360     1.0810 H     1 <1>   0.0800 
 33 H       -4.4740     1.2600     1.1100 H     1 <1>   0.0800 
 34 H       -3.0330     3.7800     3.4610 H     1 <1>   0.1500 
 35 H       -6.3450     1.2590    -2.3480 H     1 <1>   0.0800 
 36 H       -6.8930     0.3190    -0.3410 H     1 <1>   0.0800 
 37 H       -3.2400     5.8070     2.0690 H     1 <1>   0.1500 
 38 H       -6.6240     3.4650    -2.1050 H     1 <1>   0.0800 
 39 H       -4.9030     3.6460    -1.8820 H     1 <1>   0.0800 
 40 H       -6.6280     2.2090     1.6010 H     1 <1>   0.0800 
 41 H       -7.8020     2.3420     0.3040 H     1 <1>   0.0800 
 42 H       -2.0430     7.2270    -1.8400 H     1 <1>   0.0800 
 43 H       -2.2370     5.5590    -2.3650 H     1 <1>   0.0800 
 44 H       -0.9220     5.9990    -1.2650 H     1 <1>   0.0800 
 45 H       -5.0400     3.5360     0.4480 H     1 <1>   0.0800 
 46 H       -6.8730     4.8380     1.2350 H     1 <1>   0.4500 
 47 H       -7.9770     4.9020    -1.5080 H     1 <1>   0.0800 
 48 H       -8.5390     5.8450    -0.1480 H     1 <1>   0.0800 
 49 H       -8.7200     4.1080    -0.1350 H     1 <1>   0.0800 
 50 H       -5.6000     5.9020    -1.2050 H     1 <1>   0.0800 
 51 H       -4.9630     5.9510     0.4220 H     1 <1>   0.0800 
 52 H       -6.3840     6.8800     0.0190 H     1 <1>   0.0800 
@<TRIPOS>BOND
  1   1   2  2   
  2   2   3  am  
  3   2   4  1   
  4   3   5  1   
  5   3   6  1   
  6   4   7  ar  
  7   4   8  ar  
  8   5   9  1   
  9   5  10  1   
 10   5  24  1   
 11   6  25  1   
 12   6  26  1   
 13   6  27  1   
 14   7  11  ar  
 15   7  28  1   
 16   8  12  ar  
 17   8  29  1   
 18   9  13  1   
 19   9  30  1   
 20   9  31  1   
 21  10  14  1   
 22  10  32  1   
 23  10  33  1   
 24  11  15  1   
 25  11  16  ar  
 26  12  16  ar  
 27  12  34  1   
 28  13  14  1   
 29  13  17  1   
 30  13  35  1   
 31  14  18  1   
 32  14  36  1   
 33  15  19  1   
 34  16  37  1   
 35  17  20  1   
 36  17  38  1   
 37  17  39  1   
 38  18  20  1   
 39  18  40  1   
 40  18  41  1   
 41  19  42  1   
 42  19  43  1   
 43  19  44  1   
 44  20  21  1   
 45  20  45  1   
 46  21  22  1   
 47  21  23  1   
 48  21  46  1   
 49  22  47  1   
 50  22  48  1   
 51  22  49  1   
 52  23  50  1   
 53  23  51  1   
 54  23  52  1   
@<TRIPOS>SUBSTRUCTURE
  1 ****   7 GROUP 4 **** **** 0

# MOE 2024.06 (io_trps.svl 2023.06)
