@<TRIPOS>MOLECULE
NONAME
43 46 1 0 0 
SMALL
USER_CHARGES


@<TRIPOS>ATOM
  1 S        0.4540    -1.8120     2.2950 S.3   1 <1>   0.1810 
  2 N        0.4580    -0.1420     2.5480 N.2   1 <1>  -0.2210 
  3 C        0.5150    -1.6650     0.5690 C.2   1 <1>  -0.0450 
  4 N        0.5020     0.4700     1.4500 N.2   1 <1>  -0.2270 
  5 C        0.5360    -0.3370     0.3390 C.2   1 <1>   0.0460 
  6 C        0.5210    -2.8560    -0.2360 C.2   1 <1>   0.7150 
  7 C        0.5920     0.3720    -1.0030 C.3   1 <1>  -0.0590 
  8 O        0.4450    -2.7910    -1.4470 O.2   1 <1>  -0.5700 
  9 N        0.5870    -4.0920     0.3330 N.am  1 <1>  -0.7300 
 10 C        0.5820    -5.3860    -0.3910 C.3   1 <1>   0.2200 
 11 C       -0.7710    -6.0810    -0.2750 C.3   1 <1>  -0.0800 
 12 C        1.4610    -6.3650     0.3730 C.3   1 <1>   0.1200 
 13 C       -0.6730    -6.7830     1.0870 C.3   1 <1>   0.1200 
 14 C       -2.0010    -5.1620    -0.4320 C.3   1 <1>  -0.0160 
 15 O        0.6770    -6.7720     1.4510 O.3   1 <1>  -0.5600 
 16 C       -3.3750    -5.8430    -0.4170 C.ar  1 <1>  -0.1440 
 17 C       -4.5470    -5.0500    -0.3400 C.ar  1 <1>   0.0000 
 18 C       -3.5480    -7.1980    -0.4810 C.ar  1 <1>  -0.1500 
 19 C       -5.7980    -5.7140    -0.2980 C.ar  1 <1>   0.3100 
 20 C       -4.5540    -3.6350    -0.3090 C.ar  1 <1>  -0.1500 
 21 C       -4.8330    -7.7530    -0.4420 C.ar  1 <1>   0.1600 
 22 N       -5.9230    -7.0630    -0.3480 N.ar  1 <1>  -0.6200 
 23 C       -6.9740    -4.9520    -0.2040 C.ar  1 <1>  -0.1500 
 24 C       -5.7180    -2.9210    -0.2210 C.ar  1 <1>  -0.1500 
 25 C       -6.9450    -3.5850    -0.1650 C.ar  1 <1>  -0.1500 
 26 H        0.6380    -0.3240    -1.8190 H     1 <1>   0.0800 
 27 H        1.4630     1.0000    -1.0410 H     1 <1>   0.0800 
 28 H       -0.2810     0.9860    -1.1240 H     1 <1>   0.0800 
 29 H        0.6370    -4.1950     1.3490 H     1 <1>   0.3700 
 30 H        0.9020    -5.2590    -1.4130 H     1 <1>   0.0800 
 31 H       -0.8040    -6.8350    -1.0410 H     1 <1>   0.0800 
 32 H        2.3730    -5.9210     0.7310 H     1 <1>   0.0800 
 33 H        1.6820    -7.2320    -0.2250 H     1 <1>   0.0800 
 34 H       -1.0090    -7.8050     1.0410 H     1 <1>   0.0800 
 35 H       -1.2230    -6.2560     1.8490 H     1 <1>   0.0800 
 36 H       -1.9060    -4.6190    -1.3570 H     1 <1>   0.0800 
 37 H       -1.9860    -4.4450     0.3700 H     1 <1>   0.0800 
 38 H       -2.7320    -7.8880    -0.5620 H     1 <1>   0.1500 
 39 H       -3.6270    -3.0970    -0.3600 H     1 <1>   0.1500 
 40 H       -4.9190    -8.8250    -0.4920 H     1 <1>   0.1500 
 41 H       -7.9050    -5.4850    -0.1670 H     1 <1>   0.1500 
 42 H       -5.7060    -1.8440    -0.1960 H     1 <1>   0.1500 
 43 H       -7.8550    -3.0130    -0.0940 H     1 <1>   0.1500 
@<TRIPOS>BOND
  1   1   2  1   
  2   1   3  1   
  3   2   4  2   
  4   3   5  2   
  5   3   6  1   
  6   4   5  1   
  7   5   7  1   
  8   6   8  2   
  9   6   9  am  
 10   7  26  1   
 11   7  27  1   
 12   7  28  1   
 13   9  10  1   
 14   9  29  1   
 15  10  11  1   
 16  10  12  1   
 17  10  30  1   
 18  11  13  1   
 19  11  14  1   
 20  11  31  1   
 21  12  15  1   
 22  12  32  1   
 23  12  33  1   
 24  13  15  1   
 25  13  34  1   
 26  13  35  1   
 27  14  16  1   
 28  14  36  1   
 29  14  37  1   
 30  16  17  ar  
 31  16  18  ar  
 32  17  19  ar  
 33  17  20  ar  
 34  18  21  ar  
 35  18  38  1   
 36  19  22  ar  
 37  19  23  ar  
 38  20  24  ar  
 39  20  39  1   
 40  21  22  ar  
 41  21  40  1   
 42  23  25  ar  
 43  23  41  1   
 44  24  25  ar  
 45  24  42  1   
 46  25  43  1   
@<TRIPOS>SUBSTRUCTURE
  1 ****  14 GROUP 4 **** **** 0

# MOE 2024.06 (io_trps.svl 2023.06)
