@<TRIPOS>MOLECULE
F1913-0950
24 23 1 0 0 
SMALL
USER_CHARGES


@<TRIPOS>ATOM
  1 N       -5.1940     2.3960    -0.1280 N.4   1 <1>  -0.8530 
  2 C       -6.5180     2.9800     0.1970 C.3   1 <1>   0.3430 
  3 C       -7.6550     2.0610    -0.2830 C.3   1 <1>  -0.0800 
  4 C       -9.0000     2.7570     0.0100 C.3   1 <1>  -0.1600 
  5 C       -7.5860     0.6690     0.3790 C.3   1 <1>  -0.2400 
  6 C      -10.2210     2.0490    -0.5950 C.3   1 <1>  -0.0220 
  7 C      -11.4660     2.8830    -0.3600 C.2   1 <1>  -0.2880 
  8 C      -12.5060     2.5050     0.3880 C.2   1 <1>  -0.3000 
  9 H       -4.4300     3.0020     0.1910 H     1 <1>   0.4500 
 10 H       -5.0960     2.2570    -1.1400 H     1 <1>   0.4500 
 11 H       -5.0920     1.4820     0.3280 H     1 <1>   0.4500 
 12 H       -6.6170     3.9440    -0.2780 H     1 <1>   0.0800 
 13 H       -6.6050     3.1220     1.2630 H     1 <1>   0.0800 
 14 H       -7.5730     1.9460    -1.3510 H     1 <1>   0.0800 
 15 H       -8.9730     3.7570    -0.3920 H     1 <1>   0.0800 
 16 H       -9.1480     2.8430     1.0740 H     1 <1>   0.0800 
 17 H       -7.6980     0.7470     1.4480 H     1 <1>   0.0800 
 18 H       -6.6610     0.1670     0.1630 H     1 <1>   0.0800 
 19 H       -8.3720     0.0350     0.0100 H     1 <1>   0.0800 
 20 H      -10.3590     1.0830    -0.1410 H     1 <1>   0.0800 
 21 H      -10.0890     1.9070    -1.6530 H     1 <1>   0.0800 
 22 H      -11.4410     3.8340    -0.8670 H     1 <1>   0.1500 
 23 H      -13.3840     3.1090     0.5420 H     1 <1>   0.1500 
 24 H      -12.5740     1.5650     0.9080 H     1 <1>   0.1500 
@<TRIPOS>BOND
  1   1   2  1   
  2   1   9  1   
  3   1  10  1   
  4   1  11  1   
  5   2   3  1   
  6   2  12  1   
  7   2  13  1   
  8   3   4  1   
  9   3   5  1   
 10   3  14  1   
 11   4   6  1   
 12   4  15  1   
 13   4  16  1   
 14   5  17  1   
 15   5  18  1   
 16   5  19  1   
 17   6   7  1   
 18   6  20  1   
 19   6  21  1   
 20   7   8  2   
 21   7  22  1   
 22   8  23  1   
 23   8  24  1   
@<TRIPOS>SUBSTRUCTURE
  1 ****   4 GROUP 4 **** **** 0

# MOE 2024.06 (io_trps.svl 2023.06)
