@<TRIPOS>MOLECULE
NONAME
60 63 1 0 0 
SMALL
USER_CHARGES


@<TRIPOS>ATOM
  1 O       -0.8140     1.8290     2.9890 O.2   1 <1>  -0.5700 
  2 C       -0.1990     2.4960     2.1890 C.2   1 <1>   0.5690 
  3 N       -0.8570     3.2000     1.2030 N.am  1 <1>  -0.6600 
  4 C        1.3270     2.4800     2.3550 C.3   1 <1>  -0.0190 
  5 C       -2.3480     3.1380     1.0960 C.3   1 <1>   0.1400 
  6 C       -0.2600     4.0220     0.1110 C.3   1 <1>   0.1400 
  7 C        1.9180     3.8590     2.7320 C.3   1 <1>  -0.1600 
  8 C        2.0560     1.7890     1.1790 C.3   1 <1>  -0.1600 
  9 C       -2.7650     2.4500    -0.2170 C.3   1 <1>   0.0000 
 10 C       -0.6100     3.4080    -1.2500 C.3   1 <1>  -0.1600 
 11 C        3.4450     3.8260     2.8160 C.3   1 <1>   0.1400 
 12 C        3.5760     1.8420     1.3410 C.3   1 <1>   0.1400 
 13 C       -4.2990     2.3610    -0.3110 C.3   1 <1>   0.2000 
 14 C       -2.1280     3.2060    -1.4160 C.3   1 <1>  -0.1600 
 15 C       -2.3770     0.9600    -0.2380 C.3   1 <1>  -0.1600 
 16 N        3.9780     3.2570     1.5510 N.am  1 <1>  -0.6600 
 17 O       -4.8650     3.5610    -0.7500 O.3   1 <1>  -0.5600 
 18 C       -4.5830     1.2130    -1.2830 C.3   1 <1>  -0.1600 
 19 C       -3.3630     0.2850    -1.2000 C.3   1 <1>  -0.1600 
 20 C        4.6630     4.0360     0.6480 C.2   1 <1>   0.5770 
 21 C       -6.2430     3.6570    -0.5800 C.3   1 <1>   0.0400 
 22 O        4.9530     5.1820     0.9040 O.2   1 <1>  -0.5700 
 23 C        5.0660     3.4710    -0.7160 C.3   1 <1>   0.0530 
 24 C        5.6410     4.4790    -1.7540 C.3   1 <1>   0.0000 
 25 C        3.8820     3.2710    -1.7020 C.3   1 <1>   0.0000 
 26 C        4.8520     3.6950    -2.8330 C.3   1 <1>   0.0000 
 27 H        1.5170     1.8530     3.2090 H     1 <1>   0.0800 
 28 H       -2.7720     2.6130     1.9340 H     1 <1>   0.0800 
 29 H       -2.7420     4.1400     1.1120 H     1 <1>   0.0800 
 30 H       -0.6640     5.0180     0.1700 H     1 <1>   0.0800 
 31 H        0.8040     4.0980     0.1990 H     1 <1>   0.0800 
 32 H        1.5210     4.1620     3.6850 H     1 <1>   0.0800 
 33 H        1.6420     4.6170     2.0270 H     1 <1>   0.0800 
 34 H        1.8020     2.2400     0.2420 H     1 <1>   0.0800 
 35 H        1.7420     0.7610     1.1280 H     1 <1>   0.0800 
 36 H       -0.2520     4.0570    -2.0290 H     1 <1>   0.0800 
 37 H       -0.0970     2.4710    -1.3560 H     1 <1>   0.0800 
 38 H        3.7600     3.2110     3.6420 H     1 <1>   0.0800 
 39 H        3.8240     4.8210     2.9820 H     1 <1>   0.0800 
 40 H        4.0550     1.4170     0.4780 H     1 <1>   0.0800 
 41 H        3.8720     1.2630     2.1990 H     1 <1>   0.0800 
 42 H       -4.6980     2.1210     0.6610 H     1 <1>   0.0800 
 43 H       -2.3260     2.6900    -2.3390 H     1 <1>   0.0800 
 44 H       -2.5780     4.1800    -1.4950 H     1 <1>   0.0800 
 45 H       -1.3560     0.7900    -0.5250 H     1 <1>   0.0800 
 46 H       -2.5160     0.5450     0.7460 H     1 <1>   0.0800 
 47 H       -5.4820     0.6930    -1.0070 H     1 <1>   0.0800 
 48 H       -4.6760     1.5960    -2.2850 H     1 <1>   0.0800 
 49 H       -3.6350    -0.6930    -0.8410 H     1 <1>   0.0800 
 50 H       -2.9170     0.1860    -2.1750 H     1 <1>   0.0800 
 51 H       -6.5540     4.6270    -0.9280 H     1 <1>   0.0800 
 52 H       -6.4820     3.5540     0.4640 H     1 <1>   0.0800 
 53 H       -6.7310     2.8930    -1.1590 H     1 <1>   0.0800 
 54 H        5.6860     2.5930    -0.6420 H     1 <1>   0.0000 
 55 H        5.2730     5.4850    -1.6410 H     1 <1>   0.0000 
 56 H        6.7090     4.4230    -1.8710 H     1 <1>   0.0000 
 57 H        3.5440     2.2530    -1.7820 H     1 <1>   0.0000 
 58 H        3.0840     3.9790    -1.5530 H     1 <1>   0.0000 
 59 H        5.4090     2.8660    -3.2360 H     1 <1>   0.0000 
 60 H        4.4010     4.3190    -3.5830 H     1 <1>   0.0000 
@<TRIPOS>BOND
  1   1   2  2   
  2   2   3  am  
  3   2   4  1   
  4   3   5  1   
  5   3   6  1   
  6   4   7  1   
  7   4   8  1   
  8   4  27  1   
  9   5   9  1   
 10   5  28  1   
 11   5  29  1   
 12   6  10  1   
 13   6  30  1   
 14   6  31  1   
 15   7  11  1   
 16   7  32  1   
 17   7  33  1   
 18   8  12  1   
 19   8  34  1   
 20   8  35  1   
 21   9  13  1   
 22   9  14  1   
 23   9  15  1   
 24  10  14  1   
 25  10  36  1   
 26  10  37  1   
 27  11  16  1   
 28  11  38  1   
 29  11  39  1   
 30  12  16  1   
 31  12  40  1   
 32  12  41  1   
 33  13  17  1   
 34  13  18  1   
 35  13  42  1   
 36  14  43  1   
 37  14  44  1   
 38  15  19  1   
 39  15  45  1   
 40  15  46  1   
 41  16  20  am  
 42  17  21  1   
 43  18  19  1   
 44  18  47  1   
 45  18  48  1   
 46  19  49  1   
 47  19  50  1   
 48  20  22  2   
 49  20  23  1   
 50  21  51  1   
 51  21  52  1   
 52  21  53  1   
 53  23  24  1   
 54  23  25  1   
 55  23  54  1   
 56  24  26  1   
 57  24  55  1   
 58  24  56  1   
 59  25  26  1   
 60  25  57  1   
 61  25  58  1   
 62  26  59  1   
 63  26  60  1   
@<TRIPOS>SUBSTRUCTURE
  1 ****   6 GROUP 4 **** **** 0

# MOE 2024.06 (io_trps.svl 2023.06)
