@<TRIPOS>MOLECULE
NONAME
53 57 1 0 0 
SMALL
USER_CHARGES


@<TRIPOS>ATOM
  1 O       -0.1750    -0.7770    -0.1700 O.2   1 <1>  -0.5700 
  2 C        0.4480    -1.7130     0.2730 C.2   1 <1>   0.5690 
  3 N        1.6530    -1.5190     0.9060 N.am  1 <1>  -0.6600 
  4 C       -0.2270    -3.0640     0.0950 C.3   1 <1>  -0.0990 
  5 C        2.4750    -2.5970     1.5420 C.3   1 <1>   0.1400 
  6 C        2.1750    -0.1340     1.1210 C.3   1 <1>   0.1400 
  7 C        0.5140    -4.3180     0.5500 C.3   1 <1>   0.1200 
  8 C        2.8580    -3.7900     0.6220 C.3   1 <1>   0.2800 
  9 C        3.3100     0.1960     0.1440 C.3   1 <1>   0.0000 
 10 O        1.7620    -4.3450    -0.0580 O.3   1 <1>  -0.5600 
 11 C        3.8360    -3.3230    -0.4690 C.3   1 <1>  -0.1600 
 12 C        3.4940    -4.9140     1.4640 C.3   1 <1>  -0.1600 
 13 C        3.7300     1.6900     0.1430 C.3   1 <1>   0.0000 
 14 C        2.8870     0.3960    -1.3370 C.3   1 <1>   0.0000 
 15 C        4.3850    -4.4860    -1.2910 C.3   1 <1>   0.2090 
 16 C        4.0480    -6.0470     0.6000 C.3   1 <1>   0.2090 
 17 C        3.9170     1.5540    -1.3900 C.3   1 <1>   0.0000 
 18 N        5.0100    -5.4600    -0.3640 N.pl3 1 <1>  -0.8380 
 19 C        6.3810    -5.6680    -0.2760 C.ar  1 <1>   0.4100 
 20 N        6.7650    -6.8500     0.1690 N.ar  1 <1>  -0.6200 
 21 C        7.3520    -4.6970    -0.6260 C.ar  1 <1>   0.2270 
 22 C        8.0810    -7.0790     0.2400 C.ar  1 <1>   0.4700 
 23 N        7.3030    -3.3930    -1.0720 N.2   1 <1>  -0.5650 
 24 C        8.6640    -5.0800    -0.4940 C.ar  1 <1>   0.1050 
 25 N        9.0720    -6.2750    -0.0630 N.ar  1 <1>  -0.5670 
 26 C        8.5390    -3.0510    -1.1990 C.2   1 <1>   0.0360 
 27 N        9.4160    -4.0300    -0.8660 N.pl3 1 <1>   0.0330 
 28 H       -0.4480    -3.1740    -0.9500 H     1 <1>   0.0800 
 29 H       -1.1690    -3.0240     0.6090 H     1 <1>   0.0800 
 30 H        1.9570    -2.9550     2.4130 H     1 <1>   0.0800 
 31 H        3.3930    -2.1660     1.9030 H     1 <1>   0.0800 
 32 H        2.5330    -0.0400     2.1310 H     1 <1>   0.0800 
 33 H        1.3820     0.5840     0.9990 H     1 <1>   0.0800 
 34 H       -0.0220    -5.1870     0.2110 H     1 <1>   0.0800 
 35 H        0.6070    -4.3810     1.6190 H     1 <1>   0.0800 
 36 H        4.1700    -0.4430     0.2500 H     1 <1>   0.0000 
 37 H        4.6690    -2.8120    -0.0220 H     1 <1>   0.0800 
 38 H        3.3390    -2.6310    -1.1220 H     1 <1>   0.0800 
 39 H        2.7750    -5.3120     2.1550 H     1 <1>   0.0800 
 40 H        4.3090    -4.5130     2.0370 H     1 <1>   0.0800 
 41 H        4.6420     1.8870     0.6770 H     1 <1>   0.0000 
 42 H        2.9260     2.3600     0.4010 H     1 <1>   0.0000 
 43 H        1.8740     0.7450    -1.4490 H     1 <1>   0.0000 
 44 H        3.1320    -0.4280    -1.9820 H     1 <1>   0.0000 
 45 H        5.0920    -4.1360    -2.0210 H     1 <1>   0.0800 
 46 H        3.5810    -4.9690    -1.8220 H     1 <1>   0.0800 
 47 H        3.2530    -6.5310     0.0580 H     1 <1>   0.0800 
 48 H        4.5260    -6.7810     1.2250 H     1 <1>   0.0800 
 49 H        4.9040     1.2190    -1.6610 H     1 <1>   0.0000 
 50 H        3.5820     2.4100    -1.9490 H     1 <1>   0.0000 
 51 H        8.3530    -8.0580     0.5970 H     1 <1>   0.1500 
 52 H        8.8720    -2.0830    -1.5350 H     1 <1>   0.1500 
 53 H       10.4370    -4.0090    -0.8760 H     1 <1>   0.2700 
@<TRIPOS>BOND
  1   1   2  2   
  2   2   3  am  
  3   2   4  1   
  4   3   5  1   
  5   3   6  1   
  6   4   7  1   
  7   4  28  1   
  8   4  29  1   
  9   5   8  1   
 10   5  30  1   
 11   5  31  1   
 12   6   9  1   
 13   6  32  1   
 14   6  33  1   
 15   7  10  1   
 16   7  34  1   
 17   7  35  1   
 18   8  10  1   
 19   8  11  1   
 20   8  12  1   
 21   9  13  1   
 22   9  14  1   
 23   9  36  1   
 24  11  15  1   
 25  11  37  1   
 26  11  38  1   
 27  12  16  1   
 28  12  39  1   
 29  12  40  1   
 30  13  17  1   
 31  13  41  1   
 32  13  42  1   
 33  14  17  1   
 34  14  43  1   
 35  14  44  1   
 36  15  18  1   
 37  15  45  1   
 38  15  46  1   
 39  16  18  1   
 40  16  47  1   
 41  16  48  1   
 42  17  49  1   
 43  17  50  1   
 44  18  19  1   
 45  19  20  ar  
 46  19  21  ar  
 47  20  22  ar  
 48  21  23  1   
 49  21  24  ar  
 50  22  25  ar  
 51  22  51  1   
 52  23  26  2   
 53  24  25  ar  
 54  24  27  1   
 55  26  27  1   
 56  26  52  1   
 57  27  53  1   
@<TRIPOS>SUBSTRUCTURE
  1 ****  11 GROUP 4 **** **** 0

# MOE 2024.06 (io_trps.svl 2023.06)
