@<TRIPOS>MOLECULE
NONAME
43 45 1 0 0 
SMALL
USER_CHARGES


@<TRIPOS>ATOM
  1 O        0.5110     1.1000    -0.6310 O.2   1 <1>  -0.5700 
  2 C        0.3980     2.2840    -0.4410 C.2   1 <1>   0.5690 
  3 N       -0.6800     2.7770     0.2050 N.am  1 <1>  -0.7300 
  4 C        1.4620     3.2510    -0.9660 C.3   1 <1>   0.1810 
  5 C       -0.8950     4.2210     0.4690 C.3   1 <1>   0.3640 
  6 O        1.3940     4.5260    -0.3660 O.3   1 <1>  -0.5600 
  7 C       -2.3390     4.5630     0.1150 C.ar  1 <1>  -0.1440 
  8 C        0.0990     5.1080    -0.3330 C.3   1 <1>   0.2610 
  9 C       -3.0900     5.3620     0.9680 C.ar  1 <1>   0.1600 
 10 C       -2.9320     4.1000    -1.0460 C.ar  1 <1>  -0.1500 
 11 C        0.1650     6.5430     0.2230 C.2   1 <1>   0.5690 
 12 N       -4.3480     5.7190     0.7620 N.ar  1 <1>  -0.6200 
 13 C       -4.2410     4.4650    -1.2750 C.ar  1 <1>  -0.1500 
 14 O       -0.3230     6.7640     1.3100 O.2   1 <1>  -0.5700 
 15 N        0.7620     7.5540    -0.4950 N.am  1 <1>  -0.6600 
 16 C       -4.8940     5.2630    -0.3520 C.ar  1 <1>   0.1600 
 17 C        0.8720     8.9260     0.0780 C.3   1 <1>   0.3210 
 18 C        1.5540     7.3450    -1.7430 C.3   1 <1>   0.0600 
 19 C        2.3110     9.2050     0.4620 C.2   1 <1>  -0.1810 
 20 C        3.0540     8.4720     1.3800 C.2   1 <1>   0.1390 
 21 C        3.1570    10.1650     0.0300 C.2   1 <1>  -0.3020 
 22 N        4.2610     8.9310     1.5120 N.2   1 <1>  -0.7070 
 23 N        4.3250     9.9800     0.6770 N.pl3 1 <1>   0.3140 
 24 C        5.5490    10.7760     0.5450 C.3   1 <1>   0.0160 
 25 H       -1.3800     2.1240     0.5630 H     1 <1>   0.3700 
 26 H        1.3460     3.3690    -2.0280 H     1 <1>   0.0800 
 27 H        2.4380     2.8480    -0.7660 H     1 <1>   0.0800 
 28 H       -0.7370     4.3820     1.5220 H     1 <1>   0.0800 
 29 H       -0.2520     5.1680    -1.3460 H     1 <1>   0.0800 
 30 H       -2.6330     5.7350     1.8710 H     1 <1>   0.1500 
 31 H       -2.4060     3.4760    -1.7480 H     1 <1>   0.1500 
 32 H       -4.7560     4.1350    -2.1590 H     1 <1>   0.1500 
 33 H       -5.9170     5.5410    -0.5390 H     1 <1>   0.1500 
 34 H        0.5440     9.6430    -0.6540 H     1 <1>   0.0800 
 35 H        0.2450     9.0350     0.9460 H     1 <1>   0.0800 
 36 H        1.4850     8.2150    -2.3730 H     1 <1>   0.0800 
 37 H        1.1980     6.4960    -2.2970 H     1 <1>   0.0800 
 38 H        2.5880     7.1830    -1.4870 H     1 <1>   0.0800 
 39 H        2.6770     7.6180     1.9190 H     1 <1>   0.1500 
 40 H        3.0000    10.9520    -0.6840 H     1 <1>   0.1500 
 41 H        5.4000    11.5510    -0.1820 H     1 <1>   0.0800 
 42 H        6.3490    10.1310     0.2350 H     1 <1>   0.0800 
 43 H        5.7850    11.2080     1.4990 H     1 <1>   0.0800 
@<TRIPOS>BOND
  1   1   2  2   
  2   2   3  am  
  3   2   4  1   
  4   3   5  1   
  5   3  25  1   
  6   4   6  1   
  7   4  26  1   
  8   4  27  1   
  9   5   7  1   
 10   5   8  1   
 11   5  28  1   
 12   6   8  1   
 13   7   9  ar  
 14   7  10  ar  
 15   8  11  1   
 16   8  29  1   
 17   9  12  ar  
 18   9  30  1   
 19  10  13  ar  
 20  10  31  1   
 21  11  14  2   
 22  11  15  am  
 23  12  16  ar  
 24  13  16  ar  
 25  13  32  1   
 26  15  17  1   
 27  15  18  1   
 28  16  33  1   
 29  17  19  1   
 30  17  34  1   
 31  17  35  1   
 32  18  36  1   
 33  18  37  1   
 34  18  38  1   
 35  19  20  1   
 36  19  21  2   
 37  20  22  2   
 38  20  39  1   
 39  21  23  1   
 40  21  40  1   
 41  22  23  1   
 42  23  24  1   
 43  24  41  1   
 44  24  42  1   
 45  24  43  1   
@<TRIPOS>SUBSTRUCTURE
  1 ****  11 GROUP 4 **** **** 0

# MOE 2024.06 (io_trps.svl 2023.06)
