@<TRIPOS>MOLECULE
NONAME
46 48 1 0 0 
SMALL
USER_CHARGES


@<TRIPOS>ATOM
  1 F        0.5860     0.2700    -0.2090 F     1 <1>  -0.1900 
  2 C        1.7010     0.9540    -0.1940 C.ar  1 <1>   0.1900 
  3 C        2.6320     0.7360    -1.1910 C.ar  1 <1>  -0.1500 
  4 C        1.9060     1.8710     0.8200 C.ar  1 <1>  -0.1500 
  5 C        3.8080     1.4650    -1.1670 C.ar  1 <1>  -0.1500 
  6 C        3.0880     2.5920     0.8310 C.ar  1 <1>  -0.1500 
  7 C        4.0470     2.3960    -0.1610 C.ar  1 <1>   0.1000 
  8 N        5.2390     3.1110    -0.1660 N.pl3 1 <1>  -0.8380 
  9 C        6.2210     2.7630     0.9000 C.3   1 <1>   0.2090 
 10 C        5.1330     4.5690    -0.4630 C.3   1 <1>   0.2090 
 11 C        7.6010     3.3860     0.5980 C.3   1 <1>   0.3430 
 12 C        6.5260     5.1740    -0.7470 C.3   1 <1>   0.3430 
 13 N        7.5310     4.8770     0.3500 N.4   1 <1>  -0.9590 
 14 C        8.8900     5.4310     0.0550 C.3   1 <1>   0.3430 
 15 C        8.8900     6.9630     0.0870 C.3   1 <1>  -0.0220 
 16 C       10.2650     7.6140    -0.0870 C.2   1 <1>  -0.1240 
 17 C       10.2830     9.0530    -0.0610 C.2   1 <1>   0.6160 
 18 C       11.4270     6.9370    -0.2570 C.2   1 <1>  -0.0410 
 19 O        9.2500     9.6780     0.1000 O.2   1 <1>  -0.5700 
 20 N       11.4840     9.7240    -0.2200 N.am  1 <1>  -0.4200 
 21 N       12.6010     7.6480    -0.3980 N.am  1 <1>  -0.5390 
 22 C       12.6560     9.0130    -0.3760 C.2   1 <1>   0.6900 
 23 C       11.5180    11.2150    -0.1870 C.3   1 <1>   0.0600 
 24 O       13.7370     9.5500    -0.4920 O.2   1 <1>  -0.5700 
 25 H        2.4350     0.0140    -1.9630 H     1 <1>   0.1500 
 26 H        1.1560     2.0100     1.5780 H     1 <1>   0.1500 
 27 H        4.5500     1.3160    -1.9300 H     1 <1>   0.1500 
 28 H        3.2640     3.3080     1.6110 H     1 <1>   0.1500 
 29 H        6.3170     1.6910     0.9540 H     1 <1>   0.0800 
 30 H        5.8610     3.1100     1.8540 H     1 <1>   0.0800 
 31 H        4.6740     5.0770     0.3670 H     1 <1>   0.0800 
 32 H        4.5020     4.7080    -1.3250 H     1 <1>   0.0800 
 33 H        8.0010     2.8950    -0.2730 H     1 <1>   0.0800 
 34 H        8.2630     3.1820     1.4240 H     1 <1>   0.0800 
 35 H        6.4170     6.2380    -0.8720 H     1 <1>   0.0800 
 36 H        6.8800     4.7660    -1.6790 H     1 <1>   0.0800 
 37 H        7.1760     5.3100     1.2140 H     1 <1>   0.4500 
 38 H        9.2240     5.0900    -0.9120 H     1 <1>   0.0800 
 39 H        9.5870     5.0750     0.7970 H     1 <1>   0.0800 
 40 H        8.4880     7.2920     1.0300 H     1 <1>   0.0800 
 41 H        8.2550     7.3380    -0.6960 H     1 <1>   0.0800 
 42 H       11.5180     5.8640    -0.2910 H     1 <1>   0.1500 
 43 H       13.5160     7.2060    -0.5230 H     1 <1>   0.3700 
 44 H       10.6330    11.6180    -0.6480 H     1 <1>   0.0800 
 45 H       12.3770    11.5850    -0.7200 H     1 <1>   0.0800 
 46 H       11.5670    11.5490     0.8340 H     1 <1>   0.0800 
@<TRIPOS>BOND
  1   1   2  1   
  2   2   3  ar  
  3   2   4  ar  
  4   3   5  ar  
  5   3  25  1   
  6   4   6  ar  
  7   4  26  1   
  8   5   7  ar  
  9   5  27  1   
 10   6   7  ar  
 11   6  28  1   
 12   7   8  1   
 13   8   9  1   
 14   8  10  1   
 15   9  11  1   
 16   9  29  1   
 17   9  30  1   
 18  10  12  1   
 19  10  31  1   
 20  10  32  1   
 21  11  13  1   
 22  11  33  1   
 23  11  34  1   
 24  12  13  1   
 25  12  35  1   
 26  12  36  1   
 27  13  14  1   
 28  13  37  1   
 29  14  15  1   
 30  14  38  1   
 31  14  39  1   
 32  15  16  1   
 33  15  40  1   
 34  15  41  1   
 35  16  17  1   
 36  16  18  2   
 37  17  19  2   
 38  17  20  am  
 39  18  21  1   
 40  18  42  1   
 41  20  22  am  
 42  20  23  1   
 43  21  22  am  
 44  21  43  1   
 45  22  24  2   
 46  23  44  1   
 47  23  45  1   
 48  23  46  1   
@<TRIPOS>SUBSTRUCTURE
  1 ****  13 GROUP 4 **** **** 0

# MOE 2024.06 (io_trps.svl 2023.06)
