@<TRIPOS>MOLECULE
NONAME
47 48 1 0 0 
SMALL
USER_CHARGES


@<TRIPOS>ATOM
  1 S        0.5480    -0.1410    -0.1900 S.o2  1 <1>   1.0900 
  2 O        0.7720    -1.0140    -1.3170 O.2   1 <1>  -0.6500 
  3 O       -0.0860    -0.5830     1.0300 O.2   1 <1>  -0.6500 
  4 C        2.0920     0.6570     0.2220 C.3   1 <1>  -0.0550 
  5 C       -0.2500     1.3620    -0.7370 C.3   1 <1>  -0.0550 
  6 C        1.8340     2.1710     0.3100 C.3   1 <1>  -0.0800 
  7 C        0.8040     2.4810    -0.7910 C.3   1 <1>  -0.1600 
  8 C        3.1370     2.9830     0.1850 C.3   1 <1>  -0.1600 
  9 C        2.8960     4.4870     0.3570 C.3   1 <1>   0.3430 
 10 N        4.1880     5.2290     0.3400 N.4   1 <1>  -0.9590 
 11 C        4.0190     6.6270     0.8880 C.3   1 <1>   0.5230 
 12 C        4.8160     5.2700    -1.0140 C.3   1 <1>   0.3430 
 13 C        5.3420     7.3700     1.0030 C.2   1 <1>   0.2980 
 14 C        6.2130     4.6750    -0.9110 C.3   1 <1>  -0.2400 
 15 O        6.1130     7.1050     2.0230 O.3   1 <1>  -0.0190 
 16 N        5.7970     8.2150     0.1680 N.2   1 <1>  -0.5650 
 17 N        7.1550     7.8480     1.8230 N.2   1 <1>  -0.4100 
 18 C        6.9620     8.4980     0.7440 C.2   1 <1>   0.3350 
 19 C        7.9510     9.5000     0.1450 C.3   1 <1>   0.1010 
 20 C        7.3340    10.9020     0.0430 C.3   1 <1>  -0.2400 
 21 C        8.4490     9.0360    -1.2310 C.3   1 <1>  -0.2400 
 22 H        2.7990     0.4590    -0.5620 H     1 <1>   0.0800 
 23 H        2.4890     0.2720     1.1430 H     1 <1>   0.0800 
 24 H       -1.0110     1.6280    -0.0270 H     1 <1>   0.0800 
 25 H       -0.7160     1.2240    -1.6950 H     1 <1>   0.0800 
 26 H        1.3780     2.3670     1.2690 H     1 <1>   0.0800 
 27 H        0.3380     3.4420    -0.6590 H     1 <1>   0.0800 
 28 H        1.2820     2.4530    -1.7570 H     1 <1>   0.0800 
 29 H        3.5780     2.7850    -0.7760 H     1 <1>   0.0800 
 30 H        3.8180     2.6470     0.9480 H     1 <1>   0.0800 
 31 H        2.3990     4.6480     1.3010 H     1 <1>   0.0800 
 32 H        2.2510     4.8490    -0.4280 H     1 <1>   0.0800 
 33 H        4.8540     4.7470     0.9590 H     1 <1>   0.4500 
 34 H        3.5640     6.5900     1.8630 H     1 <1>   0.0800 
 35 H        3.3730     7.1930     0.2380 H     1 <1>   0.0800 
 36 H        4.8800     6.2850    -1.3760 H     1 <1>   0.0800 
 37 H        4.2330     4.6980    -1.7190 H     1 <1>   0.0800 
 38 H        6.8340     5.2520    -0.2480 H     1 <1>   0.0800 
 39 H        6.6740     4.6900    -1.8830 H     1 <1>   0.0800 
 40 H        6.1770     3.6530    -0.5790 H     1 <1>   0.0800 
 41 H        8.8000     9.5570     0.8060 H     1 <1>   0.0800 
 42 H        6.4890    10.8950    -0.6220 H     1 <1>   0.0800 
 43 H        8.0590    11.6050    -0.3270 H     1 <1>   0.0800 
 44 H        7.0040    11.2290     1.0130 H     1 <1>   0.0800 
 45 H        7.6330     8.9820    -1.9290 H     1 <1>   0.0800 
 46 H        8.9000     8.0630    -1.1510 H     1 <1>   0.0800 
 47 H        9.1850     9.7220    -1.6130 H     1 <1>   0.0800 
@<TRIPOS>BOND
  1   1   2  2   
  2   1   3  2   
  3   1   4  1   
  4   1   5  1   
  5   4   6  1   
  6   4  22  1   
  7   4  23  1   
  8   5   7  1   
  9   5  24  1   
 10   5  25  1   
 11   6   7  1   
 12   6   8  1   
 13   6  26  1   
 14   7  27  1   
 15   7  28  1   
 16   8   9  1   
 17   8  29  1   
 18   8  30  1   
 19   9  10  1   
 20   9  31  1   
 21   9  32  1   
 22  10  11  1   
 23  10  12  1   
 24  10  33  1   
 25  11  13  1   
 26  11  34  1   
 27  11  35  1   
 28  12  14  1   
 29  12  36  1   
 30  12  37  1   
 31  13  15  1   
 32  13  16  2   
 33  14  38  1   
 34  14  39  1   
 35  14  40  1   
 36  15  17  1   
 37  16  18  1   
 38  17  18  2   
 39  18  19  1   
 40  19  20  1   
 41  19  21  1   
 42  19  41  1   
 43  20  42  1   
 44  20  43  1   
 45  20  44  1   
 46  21  45  1   
 47  21  46  1   
 48  21  47  1   
@<TRIPOS>SUBSTRUCTURE
  1 ****  10 GROUP 4 **** **** 0

# MOE 2024.06 (io_trps.svl 2023.06)
