@<TRIPOS>MOLECULE
NONAME
55 57 1 0 0 
SMALL
USER_CHARGES


@<TRIPOS>ATOM
  1 O        1.1790     1.1860    -2.2780 O.3   1 <1>  -0.3630 
  2 C        0.8250     0.3670    -1.2540 C.ar  1 <1>   0.0830 
  3 C        2.4680     1.0420    -2.8420 C.3   1 <1>   0.1200 
  4 C        0.5100     0.9130    -0.0100 C.ar  1 <1>   0.0820 
  5 C        0.7610    -1.0030    -1.4490 C.ar  1 <1>  -0.1500 
  6 C        3.3650     2.1820    -2.3350 C.3   1 <1>   0.3430 
  7 O        0.6010     2.2630     0.1490 O.3   1 <1>  -0.3630 
  8 C        0.1470     0.0710     1.0340 C.ar  1 <1>  -0.1500 
  9 C        0.4020    -1.8330    -0.4010 C.ar  1 <1>  -0.1500 
 10 N        3.3090     2.3130    -0.8490 N.4   1 <1>  -0.9590 
 11 C       -0.3040     2.9210     1.0120 C.3   1 <1>   0.0400 
 12 C        0.0970    -1.3010     0.8420 C.ar  1 <1>  -0.1430 
 13 C        3.7460     3.6760    -0.4050 C.3   1 <1>   0.3430 
 14 C        4.0180     1.2140    -0.1310 C.3   1 <1>   0.3430 
 15 C       -0.3040    -2.2200     1.9830 C.3   1 <1>  -0.0970 
 16 C        3.5870     3.8610     1.1170 C.3   1 <1>   0.2000 
 17 C        3.8580     1.3720     1.3850 C.3   1 <1>  -0.1600 
 18 O        4.1620     5.0760     1.4910 O.3   1 <1>  -0.5600 
 19 C        4.3150     2.7530     1.8800 C.3   1 <1>  -0.1600 
 20 C        3.2630     6.1450     1.6630 C.3   1 <1>   0.2630 
 21 C        2.6070     6.5500     0.3430 C.ar  1 <1>   0.1670 
 22 N        1.4910     5.9140    -0.0010 N.ar  1 <1>  -0.6200 
 23 C        3.1990     7.5390    -0.4290 C.ar  1 <1>  -0.1500 
 24 C        0.9390     6.2950    -1.1430 C.ar  1 <1>   0.1600 
 25 C        2.6180     7.9170    -1.6210 C.ar  1 <1>  -0.1500 
 26 C        1.4540     7.2710    -1.9770 C.ar  1 <1>  -0.1500 
 27 H        2.3650     1.1010    -3.9110 H     1 <1>   0.0800 
 28 H        2.8780     0.0820    -2.5860 H     1 <1>   0.0800 
 29 H        0.9760    -1.4240    -2.4140 H     1 <1>   0.1500 
 30 H        3.0180     3.0970    -2.7850 H     1 <1>   0.0800 
 31 H        4.3800     2.0210    -2.6560 H     1 <1>   0.0800 
 32 H       -0.0950     0.4700     2.0010 H     1 <1>   0.1500 
 33 H        0.3510    -2.8970    -0.5600 H     1 <1>   0.1500 
 34 H        2.2970     2.2370    -0.6030 H     1 <1>   0.4500 
 35 H       -0.2420     3.9780     0.8240 H     1 <1>   0.0800 
 36 H       -0.0320     2.7190     2.0320 H     1 <1>   0.0800 
 37 H       -1.3010     2.5730     0.8060 H     1 <1>   0.0800 
 38 H        3.1590     4.4220    -0.9120 H     1 <1>   0.0800 
 39 H        4.7820     3.8210    -0.6580 H     1 <1>   0.0800 
 40 H        5.0660     1.2350    -0.3820 H     1 <1>   0.0800 
 41 H        3.6130     0.2600    -0.4310 H     1 <1>   0.0800 
 42 H       -0.0220    -1.7940     2.9300 H     1 <1>   0.0800 
 43 H        0.1790    -3.1760     1.8860 H     1 <1>   0.0800 
 44 H       -1.3690    -2.3680     1.9740 H     1 <1>   0.0800 
 45 H        2.5430     3.8570     1.3820 H     1 <1>   0.0800 
 46 H        4.4370     0.6100     1.8760 H     1 <1>   0.0800 
 47 H        2.8290     1.2110     1.6520 H     1 <1>   0.0800 
 48 H        4.1080     2.8470     2.9320 H     1 <1>   0.0800 
 49 H        5.3770     2.8540     1.7320 H     1 <1>   0.0800 
 50 H        3.8230     6.9720     2.0620 H     1 <1>   0.0800 
 51 H        2.5170     5.8630     2.3860 H     1 <1>   0.0800 
 52 H        4.1070     8.0140    -0.1010 H     1 <1>   0.1500 
 53 H        0.0250     5.8030    -1.4320 H     1 <1>   0.1500 
 54 H        3.0510     8.6840    -2.2410 H     1 <1>   0.1500 
 55 H        0.9470     7.5260    -2.8910 H     1 <1>   0.1500 
@<TRIPOS>BOND
  1   1   2  1   
  2   1   3  1   
  3   2   4  ar  
  4   2   5  ar  
  5   3   6  1   
  6   3  27  1   
  7   3  28  1   
  8   4   7  1   
  9   4   8  ar  
 10   5   9  ar  
 11   5  29  1   
 12   6  10  1   
 13   6  30  1   
 14   6  31  1   
 15   7  11  1   
 16   8  12  ar  
 17   8  32  1   
 18   9  12  ar  
 19   9  33  1   
 20  10  13  1   
 21  10  14  1   
 22  10  34  1   
 23  11  35  1   
 24  11  36  1   
 25  11  37  1   
 26  12  15  1   
 27  13  16  1   
 28  13  38  1   
 29  13  39  1   
 30  14  17  1   
 31  14  40  1   
 32  14  41  1   
 33  15  42  1   
 34  15  43  1   
 35  15  44  1   
 36  16  18  1   
 37  16  19  1   
 38  16  45  1   
 39  17  19  1   
 40  17  46  1   
 41  17  47  1   
 42  18  20  1   
 43  19  48  1   
 44  19  49  1   
 45  20  21  1   
 46  20  50  1   
 47  20  51  1   
 48  21  22  ar  
 49  21  23  ar  
 50  22  24  ar  
 51  23  25  ar  
 52  23  52  1   
 53  24  26  ar  
 54  24  53  1   
 55  25  26  ar  
 56  25  54  1   
 57  26  55  1   
@<TRIPOS>SUBSTRUCTURE
  1 ****   7 GROUP 4 **** **** 0

# MOE 2024.06 (io_trps.svl 2023.06)
