@<TRIPOS>MOLECULE
NONAME
50 53 1 0 0 
SMALL
USER_CHARGES


@<TRIPOS>ATOM
  1 O       -1.1770     0.2700     0.0700 O.2   1 <1>  -0.5700 
  2 C       -2.0030     1.0650    -0.3540 C.2   1 <1>   0.7160 
  3 N       -3.2240     0.5270    -0.7300 N.am  1 <1>  -0.6600 
  4 C       -1.6880     2.4910    -0.4220 C.2   1 <1>   0.2030 
  5 C       -3.3380    -0.9170    -1.0550 C.3   1 <1>   0.1400 
  6 C       -4.5160     1.1760    -0.3780 C.3   1 <1>   0.1400 
  7 N       -2.4050     3.4420    -0.9980 N.2   1 <1>  -0.7070 
  8 C       -0.5250     3.0450     0.1310 C.2   1 <1>  -0.1500 
  9 C       -3.8920    -1.6630     0.1770 C.3   1 <1>   0.4230 
 10 C       -5.1020     0.4490     0.8410 C.3   1 <1>  -0.1600 
 11 N       -1.7090     4.5750    -0.8150 N.pl3 1 <1>   0.3000 
 12 C       -0.5690     4.3640    -0.1340 C.2   1 <1>  -0.2370 
 13 N       -3.8660    -3.1800     0.0420 N.4   1 <1>  -0.9590 
 14 C       -5.2650    -1.0880     0.6430 C.3   1 <1>   0.0000 
 15 C        0.4100     5.4660     0.2130 C.3   1 <1>  -0.0150 
 16 C       -4.7570    -3.8950     1.0130 C.3   1 <1>   0.3430 
 17 C       -4.0880    -3.7100    -1.3430 C.3   1 <1>   0.2630 
 18 C       -5.6510    -1.7290     2.0090 C.3   1 <1>  -0.1600 
 19 C       -6.3590    -1.3780    -0.4240 C.3   1 <1>   0.1200 
 20 C        1.2110     5.3890     1.4720 C.3   1 <1>  -0.2000 
 21 C        0.1050     6.3930     1.3440 C.3   1 <1>  -0.2000 
 22 C       -4.9510    -3.0740     2.2860 C.3   1 <1>  -0.1600 
 23 O       -7.5470    -0.7290    -0.1320 O.3   1 <1>  -0.6800 
 24 H       -3.9820    -1.0250    -1.9080 H     1 <1>   0.0800 
 25 H       -2.3680    -1.3050    -1.3130 H     1 <1>   0.0800 
 26 H       -4.3740     2.2130    -0.1310 H     1 <1>   0.0800 
 27 H       -5.1890     1.1280    -1.2170 H     1 <1>   0.0800 
 28 H        0.2350     2.4920     0.6540 H     1 <1>   0.1500 
 29 H       -3.2040    -1.4230     0.9720 H     1 <1>   0.0800 
 30 H       -4.4430     0.6420     1.6700 H     1 <1>   0.0800 
 31 H       -6.0450     0.9030     1.0900 H     1 <1>   0.0800 
 32 H       -2.0310     5.4870    -1.1620 H     1 <1>   0.2700 
 33 H       -2.9020    -3.4360     0.3050 H     1 <1>   0.4500 
 34 H        0.9020     5.8760    -0.6530 H     1 <1>   0.1000 
 35 H       -5.7230    -4.0630     0.5660 H     1 <1>   0.0800 
 36 H       -4.3340    -4.8570     1.2590 H     1 <1>   0.0800 
 37 H       -5.0670    -3.4360    -1.7010 H     1 <1>   0.0800 
 38 H       -4.0100    -4.7860    -1.3480 H     1 <1>   0.0800 
 39 H       -3.3490    -3.3170    -2.0230 H     1 <1>   0.0800 
 40 H       -5.4030    -1.0670     2.8230 H     1 <1>   0.0800 
 41 H       -6.7160    -1.8750     2.0620 H     1 <1>   0.0800 
 42 H       -6.5770    -2.4280    -0.4910 H     1 <1>   0.0800 
 43 H       -6.0600    -1.0310    -1.3970 H     1 <1>   0.0800 
 44 H        1.0700     4.5490     2.1300 H     1 <1>   0.1000 
 45 H        2.2310     5.7300     1.4530 H     1 <1>   0.1000 
 46 H        0.3610     7.4340     1.2460 H     1 <1>   0.1000 
 47 H       -0.7920     6.2380     1.9190 H     1 <1>   0.1000 
 48 H       -5.5410    -3.6400     2.9870 H     1 <1>   0.0800 
 49 H       -3.9920    -2.9060     2.7470 H     1 <1>   0.0800 
 50 H       -7.9270    -1.0140     0.7220 H     1 <1>   0.4000 
@<TRIPOS>BOND
  1   1   2  2   
  2   2   3  am  
  3   2   4  1   
  4   3   5  1   
  5   3   6  1   
  6   4   7  2   
  7   4   8  1   
  8   5   9  1   
  9   5  24  1   
 10   5  25  1   
 11   6  10  1   
 12   6  26  1   
 13   6  27  1   
 14   7  11  1   
 15   8  12  2   
 16   8  28  1   
 17   9  13  1   
 18   9  14  1   
 19   9  29  1   
 20  10  14  1   
 21  10  30  1   
 22  10  31  1   
 23  11  12  1   
 24  11  32  1   
 25  12  15  1   
 26  13  16  1   
 27  13  17  1   
 28  13  33  1   
 29  14  18  1   
 30  14  19  1   
 31  15  20  1   
 32  15  21  1   
 33  15  34  1   
 34  16  22  1   
 35  16  35  1   
 36  16  36  1   
 37  17  37  1   
 38  17  38  1   
 39  17  39  1   
 40  18  22  1   
 41  18  40  1   
 42  18  41  1   
 43  19  23  1   
 44  19  42  1   
 45  19  43  1   
 46  20  21  1   
 47  20  44  1   
 48  20  45  1   
 49  21  46  1   
 50  21  47  1   
 51  22  48  1   
 52  22  49  1   
 53  23  50  1   
@<TRIPOS>SUBSTRUCTURE
  1 ****   3 GROUP 4 **** **** 0

# MOE 2024.06 (io_trps.svl 2023.06)
