@<TRIPOS>MOLECULE
NONAME
44 46 1 0 0 
SMALL
USER_CHARGES


@<TRIPOS>ATOM
  1 F        1.3200     0.9430     2.7630 F     1 <1>  -0.1900 
  2 C        2.0070     1.0470     1.6550 C.ar  1 <1>   0.1900 
  3 C        2.3340    -0.1050     0.9450 C.ar  1 <1>   0.0860 
  4 C        2.3730     2.3050     1.2100 C.ar  1 <1>   0.1900 
  5 C        3.0610     0.0720    -0.2470 C.ar  1 <1>   0.0830 
  6 C        1.9040    -1.3930     1.4200 C.2   1 <1>   0.5440 
  7 F        2.0490     3.3710     1.8990 F     1 <1>  -0.1900 
  8 C        3.0760     2.4720     0.0330 C.ar  1 <1>  -0.1500 
  9 O        3.4460    -0.9550    -1.0390 O.3   1 <1>  -0.3630 
 10 C        3.4120     1.3420    -0.6930 C.ar  1 <1>  -0.1500 
 11 O        2.5310    -1.9570     2.2970 O.2   1 <1>  -0.5700 
 12 N        0.8150    -2.0240     0.8710 N.am  1 <1>  -0.6600 
 13 C        4.1300    -2.0630    -0.4860 C.3   1 <1>   0.0400 
 14 C        0.0270    -1.5210    -0.2830 C.3   1 <1>   0.1400 
 15 C        0.4180    -3.4140     1.2090 C.3   1 <1>   0.1400 
 16 C       -1.0810    -2.5580    -0.4760 C.3   1 <1>   0.2000 
 17 C       -0.4770    -3.8640     0.0470 C.3   1 <1>  -0.0800 
 18 O       -2.1460    -2.2130     0.3410 O.3   1 <1>  -0.6800 
 19 C        0.3380    -4.5700    -1.0550 C.3   1 <1>   0.0210 
 20 C        0.9750    -5.8490    -0.5480 C.2   1 <1>   0.1080 
 21 N        0.2810    -6.8720    -0.1590 N.2   1 <1>  -0.7070 
 22 C        2.3440    -6.0680    -0.4360 C.2   1 <1>  -0.1500 
 23 N        1.1990    -7.7830     0.2170 N.pl3 1 <1>   0.3000 
 24 C        2.4570    -7.3180     0.0590 C.2   1 <1>  -0.3320 
 25 C        3.7070    -8.1090     0.3980 C.3   1 <1>  -0.0600 
 26 H        3.3490     3.4570    -0.3020 H     1 <1>   0.1500 
 27 H        3.9590     1.4380    -1.6160 H     1 <1>   0.1500 
 28 H        4.7720    -2.4740    -1.2440 H     1 <1>   0.0800 
 29 H        3.4140    -2.8040    -0.1800 H     1 <1>   0.0800 
 30 H        4.7190    -1.7390     0.3550 H     1 <1>   0.0800 
 31 H       -0.3750    -0.5410    -0.0950 H     1 <1>   0.0800 
 32 H        0.6580    -1.4930    -1.1540 H     1 <1>   0.0800 
 33 H        1.2820    -4.0430     1.3390 H     1 <1>   0.0800 
 34 H       -0.1410    -3.4030     2.1280 H     1 <1>   0.0800 
 35 H       -1.4400    -2.6170    -1.4890 H     1 <1>   0.0800 
 36 H       -1.2410    -4.5420     0.3880 H     1 <1>   0.0800 
 37 H       -1.8170    -2.0860     1.2540 H     1 <1>   0.4000 
 38 H        1.1080    -3.9200    -1.4290 H     1 <1>   0.0800 
 39 H       -0.3120    -4.8240    -1.8730 H     1 <1>   0.0800 
 40 H        3.1220    -5.3730    -0.6930 H     1 <1>   0.1500 
 41 H        0.9350    -8.7080     0.5750 H     1 <1>   0.2700 
 42 H        4.5840    -7.5230     0.1860 H     1 <1>   0.0800 
 43 H        3.7470    -9.0100    -0.1880 H     1 <1>   0.0800 
 44 H        3.7120    -8.3670     1.4420 H     1 <1>   0.0800 
@<TRIPOS>BOND
  1   1   2  1   
  2   2   3  ar  
  3   2   4  ar  
  4   3   5  ar  
  5   3   6  1   
  6   4   7  1   
  7   4   8  ar  
  8   5   9  1   
  9   5  10  ar  
 10   6  11  2   
 11   6  12  am  
 12   8  10  ar  
 13   8  26  1   
 14   9  13  1   
 15  10  27  1   
 16  12  14  1   
 17  12  15  1   
 18  13  28  1   
 19  13  29  1   
 20  13  30  1   
 21  14  16  1   
 22  14  31  1   
 23  14  32  1   
 24  15  17  1   
 25  15  33  1   
 26  15  34  1   
 27  16  17  1   
 28  16  18  1   
 29  16  35  1   
 30  17  19  1   
 31  17  36  1   
 32  18  37  1   
 33  19  20  1   
 34  19  38  1   
 35  19  39  1   
 36  20  21  2   
 37  20  22  1   
 38  21  23  1   
 39  22  24  2   
 40  22  40  1   
 41  23  24  1   
 42  23  41  1   
 43  24  25  1   
 44  25  42  1   
 45  25  43  1   
 46  25  44  1   
@<TRIPOS>SUBSTRUCTURE
  1 ****  12 GROUP 4 **** **** 0

# MOE 2024.06 (io_trps.svl 2023.06)
