@<TRIPOS>MOLECULE
NONAME
50 53 1 0 0 
SMALL
USER_CHARGES


@<TRIPOS>ATOM
  1 O       -0.6700     0.0160    -0.3120 O.2   1 <1>  -0.5700 
  2 C       -1.3510     0.6460     0.4750 C.2   1 <1>   0.6900 
  3 N       -2.4600     0.0740     1.0320 N.am  1 <1>  -0.6600 
  4 N       -1.0500     1.9260     0.8310 N.am  1 <1>  -0.5470 
  5 C       -2.6130    -1.4150     1.0180 C.3   1 <1>   0.1400 
  6 C       -3.7810     0.7690     0.9600 C.3   1 <1>   0.1400 
  7 C       -0.1220     2.8410     0.3120 C.ar  1 <1>   0.1170 
  8 C       -3.5120    -1.8650    -0.1490 C.3   1 <1>   0.3440 
  9 C       -4.6230     0.2100    -0.2050 C.3   1 <1>   0.2950 
 10 C        0.3090     3.8890     1.1170 C.ar  1 <1>  -0.1500 
 11 C        0.3700     2.7590    -0.9870 C.ar  1 <1>  -0.1500 
 12 O       -4.7380    -1.1790    -0.1010 O.3   1 <1>  -0.5600 
 13 C       -3.7590    -3.3700    -0.0850 C.ar  1 <1>  -0.1440 
 14 C       -6.0390     0.7930    -0.2020 C.3   1 <1>  -0.1950 
 15 C        1.2060     4.8320     0.6450 C.ar  1 <1>  -0.1500 
 16 C        1.2670     3.6980    -1.4640 C.ar  1 <1>  -0.1500 
 17 C       -4.8360    -3.9030     0.6100 C.ar  1 <1>  -0.1500 
 18 C       -2.8790    -4.2310    -0.7250 C.ar  1 <1>  -0.1500 
 19 C       -6.8700     0.8130    -1.4460 C.3   1 <1>  -0.2000 
 20 C       -6.3380     2.0970    -0.8740 C.3   1 <1>  -0.2000 
 21 C        1.6910     4.7400    -0.6570 C.ar  1 <1>   0.0830 
 22 C       -5.0290    -5.2720     0.6660 C.ar  1 <1>  -0.1500 
 23 C       -3.0710    -5.6010    -0.6710 C.ar  1 <1>  -0.1500 
 24 O        2.5710     5.6200    -1.2040 O.3   1 <1>  -0.3630 
 25 C       -4.1460    -6.1230     0.0250 C.ar  1 <1>  -0.1500 
 26 C        3.0860     6.6940    -0.4490 C.3   1 <1>   0.0400 
 27 H       -1.5160     2.2060     1.6870 H     1 <1>   0.3700 
 28 H       -1.6500    -1.8880     0.9280 H     1 <1>   0.0800 
 29 H       -3.0500    -1.7390     1.9460 H     1 <1>   0.0800 
 30 H       -4.3100     0.6250     1.8850 H     1 <1>   0.0800 
 31 H       -3.6460     1.8260     0.8140 H     1 <1>   0.0800 
 32 H       -3.0340    -1.6250    -1.0840 H     1 <1>   0.0800 
 33 H       -4.1430     0.4370    -1.1420 H     1 <1>   0.0800 
 34 H       -0.0560     3.9700     2.1240 H     1 <1>   0.1500 
 35 H        0.0540     1.9610    -1.6330 H     1 <1>   0.1500 
 36 H       -6.5550     0.5890     0.7200 H     1 <1>   0.1000 
 37 H        1.5150     5.6250     1.2990 H     1 <1>   0.1500 
 38 H        1.6440     3.6270    -2.4680 H     1 <1>   0.1500 
 39 H       -5.5310    -3.2500     1.1090 H     1 <1>   0.1500 
 40 H       -2.0370    -3.8390    -1.2700 H     1 <1>   0.1500 
 41 H       -6.4430     0.4250    -2.3560 H     1 <1>   0.1000 
 42 H       -7.9200     0.5950    -1.3620 H     1 <1>   0.1000 
 43 H       -7.0320     2.7760    -0.4090 H     1 <1>   0.1000 
 44 H       -5.5630     2.6100    -1.4180 H     1 <1>   0.1000 
 45 H       -5.8690    -5.6740     1.2060 H     1 <1>   0.1500 
 46 H       -2.3830    -6.2600    -1.1710 H     1 <1>   0.1500 
 47 H       -4.2970    -7.1870     0.0670 H     1 <1>   0.1500 
 48 H        3.7650     7.2450    -1.0740 H     1 <1>   0.0800 
 49 H        3.6100     6.3010     0.4040 H     1 <1>   0.0800 
 50 H        2.2720     7.3290    -0.1460 H     1 <1>   0.0800 
@<TRIPOS>BOND
  1   1   2  2   
  2   2   3  am  
  3   2   4  am  
  4   3   5  1   
  5   3   6  1   
  6   4   7  1   
  7   4  27  1   
  8   5   8  1   
  9   5  28  1   
 10   5  29  1   
 11   6   9  1   
 12   6  30  1   
 13   6  31  1   
 14   7  10  ar  
 15   7  11  ar  
 16   8  12  1   
 17   8  13  1   
 18   8  32  1   
 19   9  12  1   
 20   9  14  1   
 21   9  33  1   
 22  10  15  ar  
 23  10  34  1   
 24  11  16  ar  
 25  11  35  1   
 26  13  17  ar  
 27  13  18  ar  
 28  14  19  1   
 29  14  20  1   
 30  14  36  1   
 31  15  21  ar  
 32  15  37  1   
 33  16  21  ar  
 34  16  38  1   
 35  17  22  ar  
 36  17  39  1   
 37  18  23  ar  
 38  18  40  1   
 39  19  20  1   
 40  19  41  1   
 41  19  42  1   
 42  20  43  1   
 43  20  44  1   
 44  21  24  1   
 45  22  25  ar  
 46  22  45  1   
 47  23  25  ar  
 48  23  46  1   
 49  24  26  1   
 50  25  47  1   
 51  26  48  1   
 52  26  49  1   
 53  26  50  1   
@<TRIPOS>SUBSTRUCTURE
  1 ****   2 GROUP 4 **** **** 0

# MOE 2024.06 (io_trps.svl 2023.06)
