@<TRIPOS>MOLECULE
NONAME
52 54 1 0 0 
SMALL
USER_CHARGES


@<TRIPOS>ATOM
  1 S       -0.1130    -0.2130    -0.2120 S.o2  1 <1>   1.3330 
  2 O       -0.3550    -0.6320     1.1500 O.2   1 <1>  -0.6500 
  3 O       -0.7800     0.9620    -0.7250 O.2   1 <1>  -0.6500 
  4 N       -0.4750    -1.5220    -1.2300 N.am  1 <1>  -0.8490 
  5 C        1.6480     0.0100    -0.4730 C.3   1 <1>  -0.0550 
  6 C       -0.2250    -2.8280    -0.6110 C.3   1 <1>   0.1160 
  7 C       -1.8480    -1.4670    -1.7410 C.3   1 <1>   0.1160 
  8 C        2.2350     1.2150     0.2900 C.3   1 <1>  -0.0800 
  9 C        3.6590     1.5040    -0.1530 C.3   1 <1>   0.2200 
 10 C        2.4170     0.9170     1.7830 C.3   1 <1>   0.1200 
 11 N        3.9830     2.9170     0.1490 N.am  1 <1>  -0.7300 
 12 C        4.4630     0.5910     0.7640 C.3   1 <1>   0.1200 
 13 O        3.7440     0.5130     1.9590 O.3   1 <1>  -0.5600 
 14 C        4.3500     3.8580    -0.7680 C.2   1 <1>   0.5440 
 15 O        4.4170     3.5340    -1.9370 O.2   1 <1>  -0.5700 
 16 C        4.6330     5.2060    -0.3390 C.ar  1 <1>   0.0860 
 17 C        5.8400     5.8680    -0.6270 C.ar  1 <1>   0.0000 
 18 C        3.7300     5.9380     0.4060 C.ar  1 <1>  -0.1500 
 19 C        6.0210     7.1500    -0.1500 C.ar  1 <1>   0.1050 
 20 C        7.0440     5.5910    -1.3060 C.2   1 <1>   0.1080 
 21 C        4.0190     7.2370     0.8340 C.ar  1 <1>   0.1670 
 22 N        5.1400     7.8590     0.5790 N.ar  1 <1>  -0.5670 
 23 N        7.2610     7.5370    -0.5590 N.pl3 1 <1>   0.3140 
 24 N        7.8850     6.5700    -1.2650 N.2   1 <1>  -0.7070 
 25 C        7.3760     4.3020    -2.0250 C.3   1 <1>  -0.0590 
 26 C        2.9950     8.0040     1.6460 C.3   1 <1>  -0.0970 
 27 C        7.8870     8.8370    -0.2920 C.3   1 <1>   0.0160 
 28 H        2.1680    -0.8850    -0.1930 H     1 <1>   0.0800 
 29 H        1.8040     0.1640    -1.5240 H     1 <1>   0.0800 
 30 H       -0.3810    -3.6150    -1.3300 H     1 <1>   0.0800 
 31 H       -0.8870    -2.9820     0.2260 H     1 <1>   0.0800 
 32 H        0.7910    -2.8860    -0.2600 H     1 <1>   0.0800 
 33 H       -2.0380    -2.3010    -2.3940 H     1 <1>   0.0800 
 34 H       -1.9960    -0.5600    -2.3040 H     1 <1>   0.0800 
 35 H       -2.5520    -1.4870    -0.9250 H     1 <1>   0.0800 
 36 H        1.6000     2.0700     0.1320 H     1 <1>   0.0800 
 37 H        3.8340     1.2880    -1.1940 H     1 <1>   0.0800 
 38 H        1.7700     0.1410     2.1520 H     1 <1>   0.0800 
 39 H        2.2710     1.8070     2.3700 H     1 <1>   0.0800 
 40 H        4.0380     3.1320     1.1470 H     1 <1>   0.3700 
 41 H        5.4520     0.9650     0.9590 H     1 <1>   0.0800 
 42 H        4.5230    -0.4020     0.3550 H     1 <1>   0.0800 
 43 H        2.7800     5.5020     0.6570 H     1 <1>   0.1500 
 44 H        7.1660     3.4580    -1.3950 H     1 <1>   0.0800 
 45 H        8.4180     4.2860    -2.2880 H     1 <1>   0.0800 
 46 H        6.7930     4.2290    -2.9250 H     1 <1>   0.0800 
 47 H        2.1140     7.4160     1.8220 H     1 <1>   0.0800 
 48 H        2.7170     8.8970     1.1170 H     1 <1>   0.0800 
 49 H        3.4220     8.2820     2.5920 H     1 <1>   0.0800 
 50 H        7.2750     9.6120    -0.7140 H     1 <1>   0.0800 
 51 H        8.8630     8.8590    -0.7390 H     1 <1>   0.0800 
 52 H        7.9670     8.9750     0.7690 H     1 <1>   0.0800 
@<TRIPOS>BOND
  1   1   2  2   
  2   1   3  2   
  3   1   4  am  
  4   1   5  1   
  5   4   6  1   
  6   4   7  1   
  7   5   8  1   
  8   5  28  1   
  9   5  29  1   
 10   6  30  1   
 11   6  31  1   
 12   6  32  1   
 13   7  33  1   
 14   7  34  1   
 15   7  35  1   
 16   8   9  1   
 17   8  10  1   
 18   8  36  1   
 19   9  11  1   
 20   9  12  1   
 21   9  37  1   
 22  10  13  1   
 23  10  38  1   
 24  10  39  1   
 25  11  14  am  
 26  11  40  1   
 27  12  13  1   
 28  12  41  1   
 29  12  42  1   
 30  14  15  2   
 31  14  16  1   
 32  16  17  ar  
 33  16  18  ar  
 34  17  19  ar  
 35  17  20  1   
 36  18  21  ar  
 37  18  43  1   
 38  19  22  ar  
 39  19  23  1   
 40  20  24  2   
 41  20  25  1   
 42  21  22  ar  
 43  21  26  1   
 44  23  24  1   
 45  23  27  1   
 46  25  44  1   
 47  25  45  1   
 48  25  46  1   
 49  26  47  1   
 50  26  48  1   
 51  26  49  1   
 52  27  50  1   
 53  27  51  1   
 54  27  52  1   
@<TRIPOS>SUBSTRUCTURE
  1 ****  11 GROUP 4 **** **** 0

# MOE 2024.06 (io_trps.svl 2023.06)
