@<TRIPOS>MOLECULE
NONAME
51 54 1 0 0 
SMALL
USER_CHARGES


@<TRIPOS>ATOM
  1 S       -0.8490     0.1270    -1.1420 S.3   1 <1>  -0.0800 
  2 C       -2.1330     0.3120     0.0490 C.2   1 <1>  -0.0450 
  3 C       -0.4250     1.8370    -1.1180 C.2   1 <1>  -0.0450 
  4 C       -2.8840    -0.8580     0.4300 C.2   1 <1>   0.7150 
  5 C       -2.1780     1.6200     0.4190 C.2   1 <1>  -0.1500 
  6 C        0.6260     2.3420    -1.9530 C.2   1 <1>   0.5940 
  7 C       -1.2410     2.4610    -0.2290 C.2   1 <1>  -0.1500 
  8 O       -2.2990    -1.9150     0.5860 O.2   1 <1>  -0.5700 
  9 N       -4.2540    -0.8270     0.6210 N.am  1 <1>  -0.6600 
 10 O        0.9210     3.5100    -1.9850 O.2   1 <1>  -0.5700 
 11 C        1.4140     1.4040    -2.8440 C.3   1 <1>  -0.1790 
 12 C       -5.1440     0.2120     0.0090 C.3   1 <1>   0.1400 
 13 C       -4.9860    -2.0340     1.1080 C.3   1 <1>   0.1400 
 14 C       -6.2520     0.6570     0.9820 C.3   1 <1>   0.1430 
 15 C       -6.1090    -1.6340     2.0740 C.3   1 <1>  -0.1600 
 16 C       -7.1290     1.6690     0.2700 C.ar  1 <1>   0.1670 
 17 C       -7.0440    -0.5780     1.4600 C.3   1 <1>  -0.1600 
 18 C       -5.6950     1.4790     2.1760 C.3   1 <1>  -0.1600 
 19 N       -7.9710     1.3940    -0.6940 N.ar  1 <1>  -0.6200 
 20 C       -6.9230     2.9310     0.7380 C.ar  1 <1>  -0.1430 
 21 C       -5.8820     2.9670     1.8280 C.3   1 <1>  -0.0170 
 22 C       -8.6380     2.4410    -1.1850 C.ar  1 <1>   0.7200 
 23 C       -7.6510     3.9470     0.1720 C.ar  1 <1>   0.1600 
 24 N       -8.5110     3.7130    -0.7900 N.ar  1 <1>  -0.6200 
 25 N       -9.5400     2.1860    -2.2000 N.pl3 1 <1>  -0.8380 
 26 C      -10.1350     3.2770    -3.0210 C.3   1 <1>   0.1290 
 27 C      -10.0140     0.8100    -2.5110 C.3   1 <1>   0.1290 
 28 H       -2.8560     2.0190     1.1490 H     1 <1>   0.1500 
 29 H       -1.1920     3.5160    -0.0180 H     1 <1>   0.1500 
 30 H        0.7580     0.9400    -3.5570 H     1 <1>   0.0800 
 31 H        1.8910     0.6490    -2.2480 H     1 <1>   0.0800 
 32 H        2.1700     1.9530    -3.3760 H     1 <1>   0.0800 
 33 H       -5.6070    -0.2120    -0.8670 H     1 <1>   0.0800 
 34 H       -4.5850     1.0700    -0.3150 H     1 <1>   0.0800 
 35 H       -4.3130    -2.7070     1.6120 H     1 <1>   0.0800 
 36 H       -5.4020    -2.5520     0.2610 H     1 <1>   0.0800 
 37 H       -5.6700    -1.2610     2.9820 H     1 <1>   0.0800 
 38 H       -6.6790    -2.5110     2.3290 H     1 <1>   0.0800 
 39 H       -7.5530    -1.0130     0.6170 H     1 <1>   0.0800 
 40 H       -7.7960    -0.2860     2.1720 H     1 <1>   0.0800 
 41 H       -4.6720     1.2400     2.4020 H     1 <1>   0.0800 
 42 H       -6.2830     1.2740     3.0540 H     1 <1>   0.0800 
 43 H       -4.9710     3.3900     1.4440 H     1 <1>   0.0800 
 44 H       -6.2180     3.5330     2.6800 H     1 <1>   0.0800 
 45 H       -7.5260     4.9610     0.5090 H     1 <1>   0.1500 
 46 H       -9.4530     4.1070    -3.0980 H     1 <1>   0.0800 
 47 H      -11.0470     3.6150    -2.5620 H     1 <1>   0.0800 
 48 H      -10.3450     2.9200    -4.0140 H     1 <1>   0.0800 
 49 H       -9.9790     0.1900    -1.6320 H     1 <1>   0.0800 
 50 H       -9.3850     0.3770    -3.2700 H     1 <1>   0.0800 
 51 H      -11.0300     0.8380    -2.8630 H     1 <1>   0.0800 
@<TRIPOS>BOND
  1   1   2  1   
  2   1   3  1   
  3   2   4  1   
  4   2   5  2   
  5   3   6  1   
  6   3   7  2   
  7   4   8  2   
  8   4   9  am  
  9   5   7  1   
 10   5  28  1   
 11   6  10  2   
 12   6  11  1   
 13   7  29  1   
 14   9  12  1   
 15   9  13  1   
 16  11  30  1   
 17  11  31  1   
 18  11  32  1   
 19  12  14  1   
 20  12  33  1   
 21  12  34  1   
 22  13  15  1   
 23  13  35  1   
 24  13  36  1   
 25  14  16  1   
 26  14  17  1   
 27  14  18  1   
 28  15  17  1   
 29  15  37  1   
 30  15  38  1   
 31  16  19  ar  
 32  16  20  ar  
 33  17  39  1   
 34  17  40  1   
 35  18  21  1   
 36  18  41  1   
 37  18  42  1   
 38  19  22  ar  
 39  20  21  1   
 40  20  23  ar  
 41  21  43  1   
 42  21  44  1   
 43  22  24  ar  
 44  22  25  1   
 45  23  24  ar  
 46  23  45  1   
 47  25  26  1   
 48  25  27  1   
 49  26  46  1   
 50  26  47  1   
 51  26  48  1   
 52  27  49  1   
 53  27  50  1   
 54  27  51  1   
@<TRIPOS>SUBSTRUCTURE
  1 ****  12 GROUP 4 **** **** 0

# MOE 2024.06 (io_trps.svl 2023.06)
