@<TRIPOS>MOLECULE
NONAME
52 54 1 0 0 
SMALL
USER_CHARGES


@<TRIPOS>ATOM
  1 N        0.0280    -0.6470     1.2460 N.2   1 <1>  -0.7070 
  2 N       -0.0070    -1.7230     0.4240 N.pl3 1 <1>   0.5930 
  3 C       -0.9840     0.0870     0.9160 C.2   1 <1>   0.1390 
  4 C        0.9880    -2.7400     0.4680 C.ar  1 <1>  -0.0230 
  5 C       -1.0990    -1.6440    -0.3900 C.2   1 <1>  -0.3320 
  6 C       -1.7280    -0.4820    -0.1080 C.2   1 <1>  -0.1500 
  7 C        1.1940    -3.4690     1.6350 C.ar  1 <1>  -0.1500 
  8 C        1.7680    -3.0330    -0.6480 C.ar  1 <1>  -0.1500 
  9 C       -1.4800    -2.6870    -1.4300 C.3   1 <1>   0.2900 
 10 C        2.1280    -4.4880     1.6770 C.ar  1 <1>  -0.1500 
 11 C        2.7030    -4.0510    -0.6070 C.ar  1 <1>  -0.1500 
 12 N       -2.3520    -3.7430    -0.8800 N.3   1 <1>  -0.8100 
 13 C        2.8800    -4.7830     0.5540 C.ar  1 <1>  -0.1500 
 14 C       -1.6260    -4.6080     0.0720 C.3   1 <1>   0.2900 
 15 C       -3.6230    -3.2160    -0.3280 C.3   1 <1>   0.1100 
 16 C       -2.4890    -5.7980     0.4140 C.2   1 <1>  -0.3320 
 17 C       -4.8100    -4.0980    -0.7610 C.3   1 <1>   0.3430 
 18 N       -2.7650    -6.7980    -0.4430 N.pl3 1 <1>   0.0330 
 19 C       -3.1390    -6.0860     1.5600 C.2   1 <1>   0.0770 
 20 N       -6.0480    -3.8690     0.0560 N.4   1 <1>  -0.9590 
 21 C       -3.6130    -7.6090     0.2270 C.2   1 <1>   0.0060 
 22 N       -3.8780    -7.2010     1.4260 N.2   1 <1>  -0.5650 
 23 C       -5.9290    -4.5510     1.3850 C.3   1 <1>   0.2630 
 24 C       -7.2440    -4.3950    -0.6660 C.3   1 <1>   0.2630 
 25 C       -4.1810    -8.8760    -0.3750 C.3   1 <1>  -0.0600 
 26 H       -1.2130     1.0290     1.3890 H     1 <1>   0.1500 
 27 H       -2.6090    -0.0510    -0.5490 H     1 <1>   0.1500 
 28 H        0.6210    -3.2310     2.5160 H     1 <1>   0.1500 
 29 H        1.6510    -2.4580    -1.5500 H     1 <1>   0.1500 
 30 H       -0.6030    -3.1330    -1.8660 H     1 <1>   0.0800 
 31 H       -2.0060    -2.1960    -2.2320 H     1 <1>   0.0800 
 32 H        2.2740    -5.0480     2.5850 H     1 <1>   0.1500 
 33 H        3.3000    -4.2730    -1.4750 H     1 <1>   0.1500 
 34 H        3.6080    -5.5760     0.5870 H     1 <1>   0.1500 
 35 H       -1.4050    -4.0610     0.9720 H     1 <1>   0.0800 
 36 H       -0.6980    -4.9460    -0.3600 H     1 <1>   0.0800 
 37 H       -3.8010    -2.2240    -0.7030 H     1 <1>   0.0800 
 38 H       -3.5530    -3.1630     0.7450 H     1 <1>   0.0800 
 39 H       -4.5320    -5.1340    -0.6790 H     1 <1>   0.0800 
 40 H       -5.0150    -3.8920    -1.7970 H     1 <1>   0.0800 
 41 H       -2.4050    -6.9180    -1.3950 H     1 <1>   0.2700 
 42 H       -3.1260    -5.5340     2.4870 H     1 <1>   0.1500 
 43 H       -6.1670    -2.8560     0.2040 H     1 <1>   0.4500 
 44 H       -5.7930    -5.6130     1.2500 H     1 <1>   0.0800 
 45 H       -6.8180    -4.3910     1.9730 H     1 <1>   0.0800 
 46 H       -5.0830    -4.1690     1.9310 H     1 <1>   0.0800 
 47 H       -7.1440    -5.4560    -0.8300 H     1 <1>   0.0800 
 48 H       -7.3510    -3.9070    -1.6210 H     1 <1>   0.0800 
 49 H       -8.1380    -4.2200    -0.0890 H     1 <1>   0.0800 
 50 H       -4.7340    -8.6530    -1.2690 H     1 <1>   0.0800 
 51 H       -4.8400    -9.3520     0.3300 H     1 <1>   0.0800 
 52 H       -3.3860    -9.5600    -0.6100 H     1 <1>   0.0800 
@<TRIPOS>BOND
  1   1   2  1   
  2   1   3  2   
  3   2   4  1   
  4   2   5  1   
  5   3   6  1   
  6   3  26  1   
  7   4   7  ar  
  8   4   8  ar  
  9   5   6  2   
 10   5   9  1   
 11   6  27  1   
 12   7  10  ar  
 13   7  28  1   
 14   8  11  ar  
 15   8  29  1   
 16   9  12  1   
 17   9  30  1   
 18   9  31  1   
 19  10  13  ar  
 20  10  32  1   
 21  11  13  ar  
 22  11  33  1   
 23  12  14  1   
 24  12  15  1   
 25  13  34  1   
 26  14  16  1   
 27  14  35  1   
 28  14  36  1   
 29  15  17  1   
 30  15  37  1   
 31  15  38  1   
 32  16  18  1   
 33  16  19  2   
 34  17  20  1   
 35  17  39  1   
 36  17  40  1   
 37  18  21  1   
 38  18  41  1   
 39  19  22  1   
 40  19  42  1   
 41  20  23  1   
 42  20  24  1   
 43  20  43  1   
 44  21  22  2   
 45  21  25  1   
 46  23  44  1   
 47  23  45  1   
 48  23  46  1   
 49  24  47  1   
 50  24  48  1   
 51  24  49  1   
 52  25  50  1   
 53  25  51  1   
 54  25  52  1   
@<TRIPOS>SUBSTRUCTURE
  1 ****  14 GROUP 4 **** **** 0

# MOE 2024.06 (io_trps.svl 2023.06)
