@<TRIPOS>MOLECULE
NONAME
49 51 1 0 0 
SMALL
USER_CHARGES


@<TRIPOS>ATOM
  1 O       -0.7430     0.3110    -0.6450 O.2   1 <1>  -0.5700 
  2 C       -1.7980     0.7620    -0.2370 C.2   1 <1>   0.5440 
  3 N       -1.9330     2.1340    -0.1200 N.am  1 <1>  -0.6600 
  4 C       -2.8680    -0.1500     0.0930 C.ar  1 <1>   0.0860 
  5 C       -0.7510     3.0370    -0.2060 C.3   1 <1>   0.0600 
  6 C       -3.2460     2.8370    -0.1190 C.3   1 <1>   0.0600 
  7 C       -3.1660    -1.2190    -0.7470 C.ar  1 <1>   0.1600 
  8 C       -3.6390    -0.0280     1.2460 C.ar  1 <1>  -0.1500 
  9 N       -4.1290    -2.1080    -0.5670 N.ar  1 <1>  -0.6200 
 10 C       -4.6400    -0.9450     1.4540 C.ar  1 <1>  -0.1500 
 11 C       -4.8600    -1.9640     0.5310 C.ar  1 <1>   0.4100 
 12 N       -5.8650    -2.8680     0.7500 N.pl3 1 <1>  -0.8690 
 13 C       -6.0950    -4.0600    -0.1010 C.3   1 <1>   0.2090 
 14 C       -7.4830    -4.6570     0.1640 C.3   1 <1>  -0.0800 
 15 C       -7.6540    -5.9370    -0.6670 C.3   1 <1>   0.2090 
 16 C       -8.6170    -3.6570    -0.1480 C.3   1 <1>  -0.1600 
 17 N       -9.0030    -6.5200    -0.4240 N.pl3 1 <1>  -0.8380 
 18 C       -9.9930    -4.3140     0.0410 C.3   1 <1>  -0.1600 
 19 C       -9.1910    -7.7650     0.1410 C.ar  1 <1>   0.7200 
 20 C      -10.1300    -5.6100    -0.7640 C.3   1 <1>   0.2090 
 21 N       -8.1530    -8.3090     0.7780 N.ar  1 <1>  -0.6200 
 22 N      -10.3950    -8.3210     0.0030 N.ar  1 <1>  -0.6200 
 23 C       -8.3470    -9.4910     1.3090 C.ar  1 <1>   0.1600 
 24 C      -10.5590    -9.5040     0.5420 C.ar  1 <1>   0.1600 
 25 C       -9.5510   -10.1440     1.2180 C.ar  1 <1>  -0.1500 
 26 H        0.1560     2.4920    -0.0080 H     1 <1>   0.0800 
 27 H       -0.8390     3.8280     0.5170 H     1 <1>   0.0800 
 28 H       -0.6910     3.4600    -1.1940 H     1 <1>   0.0800 
 29 H       -4.0420     2.1650    -0.3910 H     1 <1>   0.0800 
 30 H       -3.2280     3.6420    -0.8320 H     1 <1>   0.0800 
 31 H       -3.4410     3.2390     0.8600 H     1 <1>   0.0800 
 32 H       -2.5600    -1.3360    -1.6300 H     1 <1>   0.1500 
 33 H       -3.4440     0.7640     1.9480 H     1 <1>   0.1500 
 34 H       -5.2630    -0.8880     2.3260 H     1 <1>   0.1500 
 35 H       -6.2620    -2.9280     1.6880 H     1 <1>   0.4000 
 36 H       -5.3320    -4.7900     0.1130 H     1 <1>   0.0800 
 37 H       -6.0110    -3.7810    -1.1390 H     1 <1>   0.0800 
 38 H       -7.5320    -4.9440     1.2000 H     1 <1>   0.0800 
 39 H       -6.8750    -6.6380    -0.4240 H     1 <1>   0.0800 
 40 H       -7.5650    -5.7060    -1.7150 H     1 <1>   0.0800 
 41 H       -8.5220    -3.3140    -1.1640 H     1 <1>   0.0800 
 42 H       -8.5420    -2.7990     0.4970 H     1 <1>   0.0800 
 43 H      -10.7650    -3.6290    -0.2580 H     1 <1>   0.0800 
 44 H      -10.1430    -4.5440     1.0810 H     1 <1>   0.0800 
 45 H      -11.0820    -6.0610    -0.5460 H     1 <1>   0.0800 
 46 H      -10.0990    -5.3950    -1.8190 H     1 <1>   0.0800 
 47 H       -7.5240    -9.9510     1.8290 H     1 <1>   0.1500 
 48 H      -11.5230    -9.9730     0.4420 H     1 <1>   0.1500 
 49 H       -9.6980   -11.1130     1.6560 H     1 <1>   0.1500 
@<TRIPOS>BOND
  1   1   2  2   
  2   2   3  am  
  3   2   4  1   
  4   3   5  1   
  5   3   6  1   
  6   4   7  ar  
  7   4   8  ar  
  8   5  26  1   
  9   5  27  1   
 10   5  28  1   
 11   6  29  1   
 12   6  30  1   
 13   6  31  1   
 14   7   9  ar  
 15   7  32  1   
 16   8  10  ar  
 17   8  33  1   
 18   9  11  ar  
 19  10  11  ar  
 20  10  34  1   
 21  11  12  1   
 22  12  13  1   
 23  12  35  1   
 24  13  14  1   
 25  13  36  1   
 26  13  37  1   
 27  14  15  1   
 28  14  16  1   
 29  14  38  1   
 30  15  17  1   
 31  15  39  1   
 32  15  40  1   
 33  16  18  1   
 34  16  41  1   
 35  16  42  1   
 36  17  19  1   
 37  17  20  1   
 38  18  20  1   
 39  18  43  1   
 40  18  44  1   
 41  19  21  ar  
 42  19  22  ar  
 43  20  45  1   
 44  20  46  1   
 45  21  23  ar  
 46  22  24  ar  
 47  23  25  ar  
 48  23  47  1   
 49  24  25  ar  
 50  24  48  1   
 51  25  49  1   
@<TRIPOS>SUBSTRUCTURE
  1 ****  13 GROUP 4 **** **** 0

# MOE 2024.06 (io_trps.svl 2023.06)
