@<TRIPOS>MOLECULE
NONAME
47 50 1 0 0 
SMALL
USER_CHARGES


@<TRIPOS>ATOM
  1 O        0.5760     0.1790    -1.2870 O.2   1 <1>  -0.5700 
  2 C        1.3520    -0.2650    -0.4600 C.2   1 <1>   0.5440 
  3 N        1.8670     0.5870     0.5000 N.am  1 <1>  -0.6600 
  4 C        1.6920    -1.6730    -0.5030 C.ar  1 <1>   0.0860 
  5 C        2.4400     0.0890     1.7960 C.3   1 <1>   0.1400 
  6 C        1.8240     2.0640     0.3000 C.3   1 <1>   0.1400 
  7 C        0.7000    -2.6520    -0.4350 C.ar  1 <1>  -0.1500 
  8 C        3.0150    -2.0980    -0.6180 C.ar  1 <1>  -0.1500 
  9 C        3.6450     0.8960     2.3090 C.3   1 <1>   0.1400 
 10 C        3.1290     2.5470    -0.3470 C.3   1 <1>  -0.1600 
 11 C        1.0070    -4.0010    -0.4550 C.ar  1 <1>  -0.1440 
 12 C        3.3380    -3.4410    -0.6360 C.ar  1 <1>  -0.1500 
 13 N        4.5910     1.2410     1.2060 N.am  1 <1>  -0.6600 
 14 C        4.3400     2.5750     0.5970 C.3   1 <1>   0.1400 
 15 C        2.3400    -4.3970    -0.5480 C.ar  1 <1>   0.0830 
 16 C       -0.1010    -5.0380    -0.3820 C.3   1 <1>  -0.0170 
 17 C        5.5250     0.3130     0.7670 C.2   1 <1>   0.7160 
 18 O        2.7010    -5.6990    -0.5680 O.3   1 <1>  -0.3630 
 19 C        0.4090    -6.3950    -0.8710 C.3   1 <1>  -0.1600 
 20 O        5.6870    -0.6800     1.4610 O.2   1 <1>  -0.5700 
 21 C        6.3200     0.4200    -0.4490 C.2   1 <1>   0.1410 
 22 C        1.7650    -6.7020    -0.2300 C.3   1 <1>   0.1200 
 23 N        6.0550     1.2190    -1.5120 N.2   1 <1>  -0.2270 
 24 C        7.4420    -0.2770    -0.7530 C.2   1 <1>  -0.3020 
 25 N        6.9530     1.0400    -2.4120 N.2   1 <1>  -0.4180 
 26 N        7.8080     0.1230    -1.9640 N.pl3 1 <1>   0.3000 
 27 H        2.7520    -0.9340     1.6980 H     1 <1>   0.0800 
 28 H        1.6670     0.1100     2.5440 H     1 <1>   0.0800 
 29 H        1.6550     2.5610     1.2390 H     1 <1>   0.0800 
 30 H        1.0020     2.3170    -0.3470 H     1 <1>   0.0800 
 31 H       -0.3250    -2.3310    -0.3680 H     1 <1>   0.1500 
 32 H        3.7940    -1.3600    -0.6950 H     1 <1>   0.1500 
 33 H        4.1540     0.3240     3.0650 H     1 <1>   0.0800 
 34 H        3.2950     1.7950     2.7840 H     1 <1>   0.0800 
 35 H        2.9720     3.5480    -0.7040 H     1 <1>   0.0800 
 36 H        3.3470     1.9400    -1.2080 H     1 <1>   0.0800 
 37 H        4.3620    -3.7570    -0.7170 H     1 <1>   0.1500 
 38 H        4.1600     3.2890     1.3820 H     1 <1>   0.0800 
 39 H        5.2110     2.9170     0.0680 H     1 <1>   0.0800 
 40 H       -0.9400    -4.7280    -0.9800 H     1 <1>   0.0800 
 41 H       -0.4260    -5.1210     0.6410 H     1 <1>   0.0800 
 42 H        0.5240    -6.3810    -1.9410 H     1 <1>   0.0800 
 43 H       -0.2990    -7.1650    -0.6190 H     1 <1>   0.0800 
 44 H        1.6860    -6.7280     0.8420 H     1 <1>   0.0800 
 45 H        2.1530    -7.6420    -0.5810 H     1 <1>   0.0800 
 46 H        7.9600    -1.0170    -0.1710 H     1 <1>   0.1500 
 47 H        8.6130    -0.1980    -2.5140 H     1 <1>   0.2700 
@<TRIPOS>BOND
  1   1   2  2   
  2   2   3  am  
  3   2   4  1   
  4   3   5  1   
  5   3   6  1   
  6   4   7  ar  
  7   4   8  ar  
  8   5   9  1   
  9   5  27  1   
 10   5  28  1   
 11   6  10  1   
 12   6  29  1   
 13   6  30  1   
 14   7  11  ar  
 15   7  31  1   
 16   8  12  ar  
 17   8  32  1   
 18   9  13  1   
 19   9  33  1   
 20   9  34  1   
 21  10  14  1   
 22  10  35  1   
 23  10  36  1   
 24  11  15  ar  
 25  11  16  1   
 26  12  15  ar  
 27  12  37  1   
 28  13  14  1   
 29  13  17  am  
 30  14  38  1   
 31  14  39  1   
 32  15  18  1   
 33  16  19  1   
 34  16  40  1   
 35  16  41  1   
 36  17  20  2   
 37  17  21  1   
 38  18  22  1   
 39  19  22  1   
 40  19  42  1   
 41  19  43  1   
 42  21  23  1   
 43  21  24  2   
 44  22  44  1   
 45  22  45  1   
 46  23  25  2   
 47  24  26  1   
 48  24  46  1   
 49  25  26  1   
 50  26  47  1   
@<TRIPOS>SUBSTRUCTURE
  1 ****   8 GROUP 4 **** **** 0

# MOE 2024.06 (io_trps.svl 2023.06)
