@<TRIPOS>MOLECULE
Untitled Document
27 29 1 0 0 
SMALL
USER_CHARGES


@<TRIPOS>ATOM
  1 CL       0.1830     0.0620    -0.8290 Cl    1 <1>  -0.1770 
  2 C        1.9160     0.0720    -0.6060 C.ar  1 <1>   0.4870 
  3 N        2.4120     1.1160     0.0430 N.ar  1 <1>  -0.6200 
  4 C        2.6740    -0.9800    -1.1010 C.ar  1 <1>   0.1770 
  5 C        3.7260     1.0960     0.1990 C.ar  1 <1>   0.1600 
  6 CL       1.9340    -2.3190    -1.9510 Cl    1 <1>  -0.1770 
  7 C        4.0380    -0.9800    -0.9270 C.ar  1 <1>  -0.1500 
  8 C        4.6020     0.0900    -0.2450 C.ar  1 <1>   0.1000 
  9 N        5.9960     0.1180    -0.0510 N.pl3 1 <1>  -0.8380 
 10 C        6.6620     1.3010     0.5750 C.3   1 <1>   0.2090 
 11 C        6.6540    -1.0980     0.5170 C.3   1 <1>   0.2090 
 12 C        8.1250     0.8650     0.6770 C.3   1 <1>   0.4720 
 13 C        8.0680    -0.6550     0.9270 C.3   1 <1>   0.0000 
 14 N        8.6830     0.5470    -0.6870 N.4   1 <1>  -0.8440 
 15 C        9.1530    -0.7700    -0.1640 C.3   1 <1>   0.4720 
 16 H        4.1360     1.9400     0.7210 H     1 <1>   0.1500 
 17 H        4.6310    -1.7840    -1.3180 H     1 <1>   0.1500 
 18 H        6.5510     2.1860    -0.0280 H     1 <1>   0.0800 
 19 H        6.2610     1.4770     1.5600 H     1 <1>   0.0800 
 20 H        6.1030    -1.4350     1.3810 H     1 <1>   0.0800 
 21 H        6.6870    -1.8940    -0.2100 H     1 <1>   0.0800 
 22 H        8.8040     1.4270     1.2940 H     1 <1>   0.0000 
 23 H        8.3810    -0.9770     1.9040 H     1 <1>   0.0000 
 24 H        7.8830     0.4320    -1.3290 H     1 <1>   0.4500 
 25 H        9.4190     1.1750    -1.0240 H     1 <1>   0.4500 
 26 H        8.9980    -1.5690    -0.8670 H     1 <1>   0.0000 
 27 H       10.1530    -0.6980     0.2250 H     1 <1>   0.0000 
@<TRIPOS>BOND
  1   1   2  1   
  2   2   3  ar  
  3   2   4  ar  
  4   3   5  ar  
  5   4   6  1   
  6   4   7  ar  
  7   5   8  ar  
  8   5  16  1   
  9   7   8  ar  
 10   7  17  1   
 11   8   9  1   
 12   9  10  1   
 13   9  11  1   
 14  10  12  1   
 15  10  18  1   
 16  10  19  1   
 17  11  13  1   
 18  11  20  1   
 19  11  21  1   
 20  12  13  1   
 21  12  14  1   
 22  12  22  1   
 23  13  15  1   
 24  13  23  1   
 25  14  15  1   
 26  14  24  1   
 27  14  25  1   
 28  15  26  1   
 29  15  27  1   
@<TRIPOS>SUBSTRUCTURE
  1 ****   8 GROUP 4 **** **** 0

# MOE 2024.06 (io_trps.svl 2023.06)
