@<TRIPOS>MOLECULE
NONAME
52 55 1 0 0 
SMALL
USER_CHARGES


@<TRIPOS>ATOM
  1 O        1.4130    -0.1210     2.3300 O.3   1 <1>  -0.6800 
  2 C        1.0990    -0.3690     0.9940 C.3   1 <1>   0.2000 
  3 C        1.7860    -1.6550     0.5280 C.3   1 <1>  -0.0800 
  4 C        1.7880     0.6930     0.1330 C.3   1 <1>   0.3430 
  5 C        3.2320    -1.2320     0.2370 C.3   1 <1>   0.3430 
  6 C        1.6890    -2.8700     1.4750 C.3   1 <1>  -0.0170 
  7 N        3.2080     0.2450     0.0260 N.4   1 <1>  -0.9590 
  8 C        2.5540    -4.0150     0.9610 C.ar  1 <1>  -0.1440 
  9 C        4.0610     0.9730     1.0130 C.3   1 <1>   0.4860 
 10 C        2.1920    -4.8000    -0.1600 C.ar  1 <1>   0.0000 
 11 C        3.7380    -4.3040     1.5770 C.ar  1 <1>  -0.1500 
 12 C        4.2860     2.4000     0.5220 C.ar  1 <1>   0.1670 
 13 C        3.1140    -5.7820    -0.6000 C.ar  1 <1>   0.3100 
 14 C        0.9720    -4.6760    -0.8670 C.ar  1 <1>  -0.1500 
 15 C        4.5650    -5.3160     1.0760 C.ar  1 <1>   0.1600 
 16 N        4.4950     2.5450    -0.7830 N.ar  1 <1>  -0.6200 
 17 C        4.2520     3.4510     1.4260 C.ar  1 <1>  -0.1500 
 18 N        4.2920    -6.0210     0.0270 N.ar  1 <1>  -0.6200 
 19 C        2.8020    -6.5500    -1.7320 C.ar  1 <1>  -0.1500 
 20 C        0.6970    -5.4450    -1.9650 C.ar  1 <1>  -0.1500 
 21 C        4.6890     3.7910    -1.1940 C.ar  1 <1>   0.1600 
 22 C        4.4500     4.7390     0.9760 C.ar  1 <1>  -0.1500 
 23 C        1.6240    -6.3900    -2.4090 C.ar  1 <1>  -0.1500 
 24 C        4.6750     4.9090    -0.3740 C.ar  1 <1>  -0.1440 
 25 C        4.9090     6.2980    -0.9470 C.3   1 <1>  -0.0170 
 26 C        6.3990     6.6440    -0.9280 C.3   1 <1>  -0.2400 
 27 H        0.7890    -0.5830     2.9300 H     1 <1>   0.4000 
 28 H        0.0290    -0.3710     0.8740 H     1 <1>   0.0800 
 29 H        1.3540    -1.9280    -0.4170 H     1 <1>   0.0800 
 30 H        1.6980     1.6750     0.5670 H     1 <1>   0.0800 
 31 H        1.3410     0.6980    -0.8470 H     1 <1>   0.0800 
 32 H        3.6090    -1.7470    -0.6320 H     1 <1>   0.0800 
 33 H        3.8540    -1.4730     1.0830 H     1 <1>   0.0800 
 34 H        0.6670    -3.1940     1.5720 H     1 <1>   0.0800 
 35 H        2.0270    -2.6000     2.4610 H     1 <1>   0.0800 
 36 H        3.5930     0.5400    -0.8900 H     1 <1>   0.4500 
 37 H        3.5950     0.9780     1.9840 H     1 <1>   0.0800 
 38 H        5.0200     0.4900     1.0900 H     1 <1>   0.0800 
 39 H        4.0720    -3.7740     2.4510 H     1 <1>   0.1500 
 40 H        0.2340    -3.9720    -0.5370 H     1 <1>   0.1500 
 41 H        5.4900    -5.5160     1.5920 H     1 <1>   0.1500 
 42 H        4.0750     3.2790     2.4730 H     1 <1>   0.1500 
 43 H        3.5260    -7.2780    -2.0500 H     1 <1>   0.1500 
 44 H       -0.2340    -5.3420    -2.4980 H     1 <1>   0.1500 
 45 H        4.8730     3.9320    -2.2460 H     1 <1>   0.1500 
 46 H        4.4330     5.5770     1.6530 H     1 <1>   0.1500 
 47 H        1.3980    -6.9880    -3.2760 H     1 <1>   0.1500 
 48 H        4.5420     6.3440    -1.9590 H     1 <1>   0.0800 
 49 H        4.3630     7.0260    -0.3720 H     1 <1>   0.0800 
 50 H        6.9560     5.9370    -1.5170 H     1 <1>   0.0800 
 51 H        6.7730     6.6230     0.0810 H     1 <1>   0.0800 
 52 H        6.5560     7.6290    -1.3320 H     1 <1>   0.0800 
@<TRIPOS>BOND
  1   1   2  1   
  2   1  27  1   
  3   2   3  1   
  4   2   4  1   
  5   2  28  1   
  6   3   5  1   
  7   3   6  1   
  8   3  29  1   
  9   4   7  1   
 10   4  30  1   
 11   4  31  1   
 12   5   7  1   
 13   5  32  1   
 14   5  33  1   
 15   6   8  1   
 16   6  34  1   
 17   6  35  1   
 18   7   9  1   
 19   7  36  1   
 20   8  10  ar  
 21   8  11  ar  
 22   9  12  1   
 23   9  37  1   
 24   9  38  1   
 25  10  13  ar  
 26  10  14  ar  
 27  11  15  ar  
 28  11  39  1   
 29  12  16  ar  
 30  12  17  ar  
 31  13  18  ar  
 32  13  19  ar  
 33  14  20  ar  
 34  14  40  1   
 35  15  18  ar  
 36  15  41  1   
 37  16  21  ar  
 38  17  22  ar  
 39  17  42  1   
 40  19  23  ar  
 41  19  43  1   
 42  20  23  ar  
 43  20  44  1   
 44  21  24  ar  
 45  21  45  1   
 46  22  24  ar  
 47  22  46  1   
 48  23  47  1   
 49  24  25  1   
 50  25  26  1   
 51  25  48  1   
 52  25  49  1   
 53  26  50  1   
 54  26  51  1   
 55  26  52  1   
@<TRIPOS>SUBSTRUCTURE
  1 ****   5 GROUP 4 **** **** 0

# MOE 2024.06 (io_trps.svl 2023.06)
