@<TRIPOS>MOLECULE
NONAME
35 36 1 0 0 
SMALL
USER_CHARGES


@<TRIPOS>ATOM
  1 F       -0.8580    -0.4250    -0.8850 F     1 <1>  -0.1900 
  2 C       -1.8270    -1.0520    -0.2730 C.ar  1 <1>   0.1900 
  3 C       -1.7370    -2.4200    -0.0570 C.ar  1 <1>  -0.1440 
  4 C       -2.9100    -0.2960     0.1330 C.ar  1 <1>  -0.1500 
  5 C       -2.7930    -3.0600     0.6040 C.ar  1 <1>   0.0860 
  6 C       -0.5240    -3.2280    -0.5190 C.3   1 <1>  -0.0970 
  7 C       -3.9520    -0.9280     0.7840 C.ar  1 <1>  -0.1500 
  8 C       -2.7930    -4.4860     0.8750 C.2   1 <1>   0.5440 
  9 C       -3.8860    -2.2910     1.0130 C.ar  1 <1>  -0.1500 
 10 O       -2.0240    -4.9390     1.7040 O.2   1 <1>  -0.5700 
 11 N       -3.6520    -5.3390     0.2210 N.am  1 <1>  -0.6600 
 12 C       -3.8550    -6.7540     0.6890 C.3   1 <1>   0.1400 
 13 C       -4.5190    -4.9400    -0.9220 C.3   1 <1>   0.1400 
 14 C       -5.2840    -7.2840     0.4350 C.3   1 <1>   0.2000 
 15 C       -6.0010    -5.0170    -0.5230 C.3   1 <1>  -0.1600 
 16 O       -5.3570    -7.8770    -0.8160 O.3   1 <1>  -0.6800 
 17 C       -6.3190    -6.1500     0.4880 C.3   1 <1>  -0.1860 
 18 C       -7.7210    -6.7000     0.3240 C.2   1 <1>   0.9060 
 19 O       -8.5800    -6.3920     1.1530 O.co2 1 <1>  -0.9000 
 20 O       -7.9540    -7.4490    -0.6360 O.co2 1 <1>  -0.9000 
 21 H       -2.9310     0.7620    -0.0580 H     1 <1>   0.1500 
 22 H       -0.8430    -4.0820    -1.0890 H     1 <1>   0.0800 
 23 H        0.0260    -3.5770     0.3380 H     1 <1>   0.0800 
 24 H        0.1400    -2.6460    -1.1320 H     1 <1>   0.0800 
 25 H       -4.8090    -0.3650     1.1120 H     1 <1>   0.1500 
 26 H       -4.6960    -2.7850     1.5230 H     1 <1>   0.1500 
 27 H       -3.1390    -7.4010     0.2140 H     1 <1>   0.0800 
 28 H       -3.6770    -6.7860     1.7490 H     1 <1>   0.0800 
 29 H       -4.2790    -3.9540    -1.2770 H     1 <1>   0.0800 
 30 H       -4.3390    -5.6280    -1.7310 H     1 <1>   0.0800 
 31 H       -5.5290    -8.0450     1.1570 H     1 <1>   0.0800 
 32 H       -6.3180    -4.0780    -0.1070 H     1 <1>   0.0800 
 33 H       -6.5740    -5.1720    -1.4210 H     1 <1>   0.0800 
 34 H       -6.3370    -7.9210    -1.0280 H     1 <1>   0.4000 
 35 H       -6.2680    -5.7310     1.4750 H     1 <1>   0.0800 
@<TRIPOS>BOND
  1   1   2  1   
  2   2   3  ar  
  3   2   4  ar  
  4   3   5  ar  
  5   3   6  1   
  6   4   7  ar  
  7   4  21  1   
  8   5   8  1   
  9   5   9  ar  
 10   6  22  1   
 11   6  23  1   
 12   6  24  1   
 13   7   9  ar  
 14   7  25  1   
 15   8  10  2   
 16   8  11  am  
 17   9  26  1   
 18  11  12  1   
 19  11  13  1   
 20  12  14  1   
 21  12  27  1   
 22  12  28  1   
 23  13  15  1   
 24  13  29  1   
 25  13  30  1   
 26  14  16  1   
 27  14  17  1   
 28  14  31  1   
 29  15  17  1   
 30  15  32  1   
 31  15  33  1   
 32  16  34  1   
 33  17  18  1   
 34  17  35  1   
 35  18  19  ar  
 36  18  20  ar  
@<TRIPOS>SUBSTRUCTURE
  1 ****  11 GROUP 4 **** **** 0

# MOE 2024.06 (io_trps.svl 2023.06)
