@<TRIPOS>MOLECULE
NONAME
54 56 1 0 0 
SMALL
USER_CHARGES


@<TRIPOS>ATOM
  1 O       -1.5010     0.3320     0.8970 O.2   1 <1>  -0.5700 
  2 C       -2.3970     1.1590     0.8860 C.2   1 <1>   0.5440 
  3 N       -3.6900     0.7060     1.0250 N.am  1 <1>  -0.6600 
  4 C       -2.0950     2.5660     0.7070 C.ar  1 <1>   0.0860 
  5 C       -3.9520    -0.6760     1.5190 C.3   1 <1>   0.1400 
  6 C       -4.8080     1.2560     0.2050 C.3   1 <1>   0.1400 
  7 C       -1.1000     2.9860    -0.1730 C.ar  1 <1>  -0.1500 
  8 C       -2.7830     3.5550     1.4080 C.ar  1 <1>  -0.1500 
  9 C       -4.0980    -1.6010     0.2920 C.3   1 <1>   0.4230 
 10 C       -5.0570     0.3230    -0.9940 C.3   1 <1>  -0.1600 
 11 C       -0.8030     4.3220    -0.3690 C.ar  1 <1>   0.0830 
 12 C       -2.5090     4.8980     1.2250 C.ar  1 <1>  -0.1500 
 13 N       -4.2110    -3.0650     0.6040 N.4   1 <1>  -0.9590 
 14 C       -5.3040    -1.1550    -0.5690 C.3   1 <1>  -0.1060 
 15 O        0.1960     4.5620    -1.2640 O.3   1 <1>  -0.3620 
 16 C       -1.5240     5.3060     0.3290 C.ar  1 <1>   0.0830 
 17 C       -4.2570    -3.9410    -0.6040 C.3   1 <1>   0.3430 
 18 C       -3.2790    -3.5720     1.6460 C.3   1 <1>   0.2630 
 19 C       -6.5700    -1.2800     0.3000 C.2   1 <1>   0.9060 
 20 C       -5.4520    -2.0500    -1.8350 C.3   1 <1>  -0.1600 
 21 C        1.0530     5.6740    -1.1200 C.3   1 <1>   0.3200 
 22 O       -1.2660     6.6240     0.1110 O.3   1 <1>  -0.3630 
 23 C       -4.3790    -3.1480    -1.9140 C.3   1 <1>  -0.1600 
 24 O       -6.6890    -2.2830     1.0220 O.co2 1 <1>  -0.9000 
 25 O       -7.4200    -0.3920     0.2860 O.co2 1 <1>  -0.9000 
 26 C        2.3110     5.4030    -1.8750 C.1   1 <1>  -0.2000 
 27 C       -2.0260     7.6570     0.7020 C.3   1 <1>   0.0400 
 28 C        3.3150     5.1880    -2.4770 C.1   1 <1>  -0.1770 
 29 H       -3.1290    -0.9880     2.1350 H     1 <1>   0.0800 
 30 H       -4.8460    -0.6780     2.1200 H     1 <1>   0.0800 
 31 H       -5.6950     1.3310     0.8140 H     1 <1>   0.0800 
 32 H       -4.5730     2.2420    -0.1550 H     1 <1>   0.0800 
 33 H       -0.5400     2.2460    -0.7170 H     1 <1>   0.1500 
 34 H       -3.5470     3.2600     2.1070 H     1 <1>   0.1500 
 35 H       -3.2030    -1.4610    -0.2910 H     1 <1>   0.0800 
 36 H       -5.9150     0.6880    -1.5340 H     1 <1>   0.0800 
 37 H       -4.2110     0.3830    -1.6550 H     1 <1>   0.0800 
 38 H       -3.0790     5.6080     1.7920 H     1 <1>   0.1500 
 39 H       -5.1950    -3.0910     0.9880 H     1 <1>   0.4500 
 40 H       -3.3700    -4.5500    -0.6500 H     1 <1>   0.0800 
 41 H       -5.1080    -4.5980    -0.5160 H     1 <1>   0.0800 
 42 H       -2.2580    -3.4410     1.3260 H     1 <1>   0.0800 
 43 H       -3.4610    -4.6180     1.8280 H     1 <1>   0.0800 
 44 H       -3.4270    -3.0370     2.5690 H     1 <1>   0.0800 
 45 H       -6.4230    -2.5210    -1.8210 H     1 <1>   0.0800 
 46 H       -5.4170    -1.4550    -2.7310 H     1 <1>   0.0800 
 47 H        0.5580     6.5390    -1.5230 H     1 <1>   0.0800 
 48 H        1.2650     5.8150    -0.0760 H     1 <1>   0.0800 
 49 H       -3.4260    -2.7080    -2.1500 H     1 <1>   0.0800 
 50 H       -4.6210    -3.8270    -2.7130 H     1 <1>   0.0800 
 51 H       -1.6520     8.5970     0.3370 H     1 <1>   0.0800 
 52 H       -1.9110     7.6090     1.7700 H     1 <1>   0.0800 
 53 H       -3.0560     7.5390     0.4160 H     1 <1>   0.0800 
 54 H        4.2190     4.9850    -3.0230 H     1 <1>   0.1770 
@<TRIPOS>BOND
  1   1   2  2   
  2   2   3  am  
  3   2   4  1   
  4   3   5  1   
  5   3   6  1   
  6   4   7  ar  
  7   4   8  ar  
  8   5   9  1   
  9   5  29  1   
 10   5  30  1   
 11   6  10  1   
 12   6  31  1   
 13   6  32  1   
 14   7  11  ar  
 15   7  33  1   
 16   8  12  ar  
 17   8  34  1   
 18   9  13  1   
 19   9  14  1   
 20   9  35  1   
 21  10  14  1   
 22  10  36  1   
 23  10  37  1   
 24  11  15  1   
 25  11  16  ar  
 26  12  16  ar  
 27  12  38  1   
 28  13  17  1   
 29  13  18  1   
 30  13  39  1   
 31  14  19  1   
 32  14  20  1   
 33  15  21  1   
 34  16  22  1   
 35  17  23  1   
 36  17  40  1   
 37  17  41  1   
 38  18  42  1   
 39  18  43  1   
 40  18  44  1   
 41  19  24  ar  
 42  19  25  ar  
 43  20  23  1   
 44  20  45  1   
 45  20  46  1   
 46  21  26  1   
 47  21  47  1   
 48  21  48  1   
 49  22  27  1   
 50  23  49  1   
 51  23  50  1   
 52  26  28  3   
 53  27  51  1   
 54  27  52  1   
 55  27  53  1   
 56  28  54  1   
@<TRIPOS>SUBSTRUCTURE
  1 ****   2 GROUP 4 **** **** 0

# MOE 2024.06 (io_trps.svl 2023.06)
