@<TRIPOS>MOLECULE
NONAME
44 45 1 0 0 
SMALL
USER_CHARGES


@<TRIPOS>ATOM
  1 O        0.8370    -0.9160     1.4940 O.2   1 <1>  -0.5700 
  2 C        1.1150    -1.3220     0.3840 C.2   1 <1>   0.5440 
  3 N        1.3160    -0.4130    -0.6180 N.am  1 <1>  -0.7300 
  4 C        1.2150    -2.7450     0.1200 C.ar  1 <1>   0.0860 
  5 C        1.2620     1.0530    -0.4540 C.3   1 <1>   0.1400 
  6 C        0.5060    -3.6820     0.8480 C.ar  1 <1>  -0.1500 
  7 C        2.0280    -3.2770    -0.8750 C.ar  1 <1>  -0.1500 
  8 C        2.3140     1.6820    -1.3600 C.3   1 <1>  -0.2400 
  9 C        0.6050    -5.0380     0.5680 C.ar  1 <1>   0.4100 
 10 C        2.0690    -4.6410    -1.0820 C.ar  1 <1>   0.1600 
 11 N        1.3760    -5.5270    -0.3920 N.ar  1 <1>  -0.6200 
 12 N       -0.1220    -5.9250     1.3200 N.pl3 1 <1>  -0.8690 
 13 C       -0.5960    -7.2170     0.7770 C.3   1 <1>   0.4330 
 14 C       -2.0980    -7.1060     0.4660 C.ar  1 <1>   0.1670 
 15 C       -0.2950    -8.3000     1.8220 C.3   1 <1>  -0.1600 
 16 N       -2.8900    -6.5720     1.3960 N.ar  1 <1>  -0.6200 
 17 C       -2.5580    -7.5580    -0.7640 C.ar  1 <1>  -0.1500 
 18 C       -0.6710    -9.7160     1.3580 C.3   1 <1>  -0.2400 
 19 C       -4.1730    -6.4980     1.0830 C.ar  1 <1>   0.1600 
 20 C       -3.8990    -7.4750    -1.0770 C.ar  1 <1>  -0.1430 
 21 C       -4.7190    -6.9280    -0.1140 C.ar  1 <1>  -0.1500 
 22 C       -4.4440    -7.9620    -2.4070 C.3   1 <1>  -0.0970 
 23 H        1.3910    -0.7400    -1.5800 H     1 <1>   0.3700 
 24 H        1.4560     1.3150     0.5740 H     1 <1>   0.0800 
 25 H        0.2800     1.4060    -0.7170 H     1 <1>   0.0800 
 26 H       -0.1330    -3.3590     1.6480 H     1 <1>   0.1500 
 27 H        2.6350    -2.6300    -1.4800 H     1 <1>   0.1500 
 28 H        3.2930     1.3280    -1.0920 H     1 <1>   0.0800 
 29 H        2.2950     2.7500    -1.2420 H     1 <1>   0.0800 
 30 H        2.1130     1.4500    -2.3900 H     1 <1>   0.0800 
 31 H        2.7080    -5.0280    -1.8570 H     1 <1>   0.1500 
 32 H       -0.9120    -5.5130     1.8260 H     1 <1>   0.4000 
 33 H       -0.0650    -7.4630    -0.1260 H     1 <1>   0.0800 
 34 H       -0.8320    -8.0710     2.7260 H     1 <1>   0.0800 
 35 H        0.7580    -8.2740     2.0400 H     1 <1>   0.0800 
 36 H       -1.8670    -7.9730    -1.4740 H     1 <1>   0.1500 
 37 H       -1.7310    -9.7910     1.1870 H     1 <1>   0.0800 
 38 H       -0.4010   -10.4310     2.1150 H     1 <1>   0.0800 
 39 H       -0.1510    -9.9670     0.4500 H     1 <1>   0.0800 
 40 H       -4.8290    -6.0710     1.8220 H     1 <1>   0.1500 
 41 H       -5.7760    -6.8320    -0.2840 H     1 <1>   0.1500 
 42 H       -3.6790    -7.9340    -3.1620 H     1 <1>   0.0800 
 43 H       -5.2590    -7.3370    -2.7280 H     1 <1>   0.0800 
 44 H       -4.7980    -8.9720    -2.3090 H     1 <1>   0.0800 
@<TRIPOS>BOND
  1   1   2  2   
  2   2   3  am  
  3   2   4  1   
  4   3   5  1   
  5   3  23  1   
  6   4   6  ar  
  7   4   7  ar  
  8   5   8  1   
  9   5  24  1   
 10   5  25  1   
 11   6   9  ar  
 12   6  26  1   
 13   7  10  ar  
 14   7  27  1   
 15   8  28  1   
 16   8  29  1   
 17   8  30  1   
 18   9  11  ar  
 19   9  12  1   
 20  10  11  ar  
 21  10  31  1   
 22  12  13  1   
 23  12  32  1   
 24  13  14  1   
 25  13  15  1   
 26  13  33  1   
 27  14  16  ar  
 28  14  17  ar  
 29  15  18  1   
 30  15  34  1   
 31  15  35  1   
 32  16  19  ar  
 33  17  20  ar  
 34  17  36  1   
 35  18  37  1   
 36  18  38  1   
 37  18  39  1   
 38  19  21  ar  
 39  19  40  1   
 40  20  21  ar  
 41  20  22  1   
 42  21  41  1   
 43  22  42  1   
 44  22  43  1   
 45  22  44  1   
@<TRIPOS>SUBSTRUCTURE
  1 ****   9 GROUP 4 **** **** 0

# MOE 2024.06 (io_trps.svl 2023.06)
