@<TRIPOS>MOLECULE
Untitled Document
31 32 1 0 0 
SMALL
USER_CHARGES


@<TRIPOS>ATOM
  1 S       -0.4610     0.4540     0.1680 S.3   1 <1>  -0.0800 
  2 C       -2.0730    -0.2720     0.1070 C.ar  1 <1>   0.0400 
  3 C        0.3430    -1.1310     0.0920 C.2   1 <1>  -0.1920 
  4 C       -1.9650    -1.6490     0.0330 C.ar  1 <1>   0.0000 
  5 C       -3.2780     0.3990     0.1280 C.ar  1 <1>  -0.1500 
  6 C        1.7860    -1.2080     0.1060 C.2   1 <1>   1.0320 
  7 C       -0.6050    -2.0970     0.0270 C.2   1 <1>  -0.1500 
  8 C       -3.1390    -2.3940    -0.0230 C.ar  1 <1>  -0.1500 
  9 C       -4.4490    -0.3510     0.0720 C.ar  1 <1>   0.0830 
 10 O        2.3390    -2.3220     0.0530 O.co2 1 <1>  -0.9000 
 11 O        2.4970    -0.1890     0.1710 O.co2 1 <1>  -0.9000 
 12 C       -4.3750    -1.7550    -0.0040 C.ar  1 <1>   0.0830 
 13 O       -5.6840     0.2250     0.0870 O.3   1 <1>  -0.3630 
 14 O       -5.5530    -2.4450    -0.0570 O.3   1 <1>  -0.3630 
 15 C       -5.8490     1.6210     0.1610 C.3   1 <1>   0.1200 
 16 C       -5.5810    -3.8500    -0.1350 C.3   1 <1>   0.1200 
 17 C       -7.3450     1.9180     0.1580 C.3   1 <1>  -0.2400 
 18 C       -7.0410    -4.2890    -0.1780 C.3   1 <1>  -0.2400 
 19 H       -3.2690     1.4690     0.1870 H     1 <1>   0.1500 
 20 H       -0.3670    -3.1450    -0.0280 H     1 <1>   0.1500 
 21 H       -3.0450    -3.4600    -0.0800 H     1 <1>   0.1500 
 22 H       -5.3700     2.0660    -0.6940 H     1 <1>   0.0800 
 23 H       -5.3930     1.9700     1.0720 H     1 <1>   0.0800 
 24 H       -5.0890    -4.2490     0.7360 H     1 <1>   0.0800 
 25 H       -5.0660    -4.1520    -1.0300 H     1 <1>   0.0800 
 26 H       -7.7910     1.5470    -0.7470 H     1 <1>   0.0800 
 27 H       -7.5070     2.9790     0.2130 H     1 <1>   0.0800 
 28 H       -7.8140     1.4520     1.0060 H     1 <1>   0.0800 
 29 H       -7.5490    -3.9650     0.7130 H     1 <1>   0.0800 
 30 H       -7.0990    -5.3610    -0.2370 H     1 <1>   0.0800 
 31 H       -7.5260    -3.8680    -1.0400 H     1 <1>   0.0800 
@<TRIPOS>BOND
  1   1   2  1   
  2   1   3  1   
  3   2   4  ar  
  4   2   5  ar  
  5   3   6  1   
  6   3   7  2   
  7   4   7  1   
  8   4   8  ar  
  9   5   9  ar  
 10   5  19  1   
 11   6  10  ar  
 12   6  11  ar  
 13   7  20  1   
 14   8  12  ar  
 15   8  21  1   
 16   9  12  ar  
 17   9  13  1   
 18  12  14  1   
 19  13  15  1   
 20  14  16  1   
 21  15  17  1   
 22  15  22  1   
 23  15  23  1   
 24  16  18  1   
 25  16  24  1   
 26  16  25  1   
 27  17  26  1   
 28  17  27  1   
 29  17  28  1   
 30  18  29  1   
 31  18  30  1   
 32  18  31  1   
@<TRIPOS>SUBSTRUCTURE
  1 ****   4 GROUP 4 **** **** 0

# MOE 2024.06 (io_trps.svl 2023.06)
