@<TRIPOS>MOLECULE
NONAME
49 52 1 0 0 
SMALL
USER_CHARGES


@<TRIPOS>ATOM
  1 O        0.4470     0.5410     0.5840 O.co2 1 <1>  -0.9030 
  2 C        1.0000    -0.4040     0.0020 C.2   1 <1>   0.9770 
  3 O        0.3230    -1.3120    -0.4970 O.co2 1 <1>  -0.9030 
  4 C        2.4400    -0.4350    -0.0930 C.ar  1 <1>  -0.1870 
  5 C        3.0830    -1.5020    -0.7440 C.ar  1 <1>   0.1520 
  6 C        3.2190     0.5790     0.4460 C.ar  1 <1>  -0.1170 
  7 N        4.3900    -1.6370    -0.9050 N.ar  1 <1>  -0.5840 
  8 C        4.5790     0.4480     0.2890 C.ar  1 <1>   0.3020 
  9 C        5.0920    -0.6420    -0.3800 C.ar  1 <1>   0.6140 
 10 N        5.6520     1.2240     0.6490 N.pl3 1 <1>  -0.7040 
 11 N        6.4640    -0.5010    -0.4270 N.pl3 1 <1>  -0.7680 
 12 C        6.7690     0.6560     0.2000 C.cat 1 <1>   1.0690 
 13 C        7.2740    -1.5180    -1.1310 C.3   1 <1>   0.3480 
 14 N        7.9920     1.2100     0.3810 N.pl3 1 <1>  -0.5970 
 15 C        7.6620    -2.6190    -0.1490 C.3   1 <1>  -0.2470 
 16 C        8.2540     2.4390     1.2090 C.3   1 <1>   0.4220 
 17 C        9.2900     0.6690    -0.1050 C.3   1 <1>   0.1600 
 18 C        7.3540     3.6510     0.9430 C.2   1 <1>   0.2910 
 19 C        9.7200     2.7840     0.9520 C.3   1 <1>  -0.1680 
 20 C       10.3750     1.4520     0.6210 C.3   1 <1>  -0.1680 
 21 O        7.3500     4.6090     1.8310 O.3   1 <1>  -0.0280 
 22 N        6.5630     3.8180    -0.0430 N.2   1 <1>  -0.5700 
 23 N        6.4730     5.4490     1.3800 N.2   1 <1>  -0.4160 
 24 C        6.0220     4.9870     0.2810 C.2   1 <1>   0.3290 
 25 C        4.9570     5.6310    -0.6120 C.3   1 <1>   0.0930 
 26 C        4.6920     7.1020    -0.2570 C.3   1 <1>  -0.2470 
 27 C        3.6430     4.8370    -0.5480 C.3   1 <1>  -0.2470 
 28 H        2.4510    -2.2800    -1.1500 H     1 <1>   0.1420 
 29 H        2.7730     1.4180     0.9550 H     1 <1>   0.1420 
 30 H        5.5820     2.2140     0.8940 H     1 <1>   0.4440 
 31 H        6.7020    -1.9480    -1.9380 H     1 <1>   0.0720 
 32 H        8.1460    -1.0760    -1.5750 H     1 <1>   0.0720 
 33 H        6.7800    -3.1190     0.2110 H     1 <1>   0.0720 
 34 H        8.2100    -2.2250     0.6870 H     1 <1>   0.0720 
 35 H        8.2760    -3.3470    -0.6480 H     1 <1>   0.0720 
 36 H        8.1480     2.1620     2.2440 H     1 <1>   0.0720 
 37 H        9.3940    -0.3780     0.1130 H     1 <1>   0.0720 
 38 H        9.3690     0.8370    -1.1670 H     1 <1>   0.0720 
 39 H        9.7920     3.4450     0.1040 H     1 <1>   0.0720 
 40 H       10.1730     3.2630     1.8020 H     1 <1>   0.0720 
 41 H       10.6440     0.9360     1.5270 H     1 <1>   0.0720 
 42 H       11.2570     1.5710     0.0150 H     1 <1>   0.0720 
 43 H        5.3220     5.5980    -1.6240 H     1 <1>   0.0720 
 44 H        4.3060     7.1850     0.7440 H     1 <1>   0.0720 
 45 H        3.9810     7.5320    -0.9390 H     1 <1>   0.0720 
 46 H        5.6060     7.6660    -0.3180 H     1 <1>   0.0720 
 47 H        3.2560     4.8330     0.4560 H     1 <1>   0.0720 
 48 H        3.8030     3.8210    -0.8610 H     1 <1>   0.0720 
 49 H        2.9070     5.2770    -1.1970 H     1 <1>   0.0720 
@<TRIPOS>BOND
  1   1   2  ar  
  2   2   3  ar  
  3   2   4  1   
  4   4   5  ar  
  5   4   6  ar  
  6   5   7  ar  
  7   5  28  1   
  8   6   8  ar  
  9   6  29  1   
 10   7   9  ar  
 11   8   9  ar  
 12   8  10  1   
 13   9  11  1   
 14  10  12  ar  
 15  10  30  1   
 16  11  12  ar  
 17  11  13  1   
 18  12  14  ar  
 19  13  15  1   
 20  13  31  1   
 21  13  32  1   
 22  14  16  1   
 23  14  17  1   
 24  15  33  1   
 25  15  34  1   
 26  15  35  1   
 27  16  18  1   
 28  16  19  1   
 29  16  36  1   
 30  17  20  1   
 31  17  37  1   
 32  17  38  1   
 33  18  21  1   
 34  18  22  2   
 35  19  20  1   
 36  19  39  1   
 37  19  40  1   
 38  20  41  1   
 39  20  42  1   
 40  21  23  1   
 41  22  24  1   
 42  23  24  2   
 43  24  25  1   
 44  25  26  1   
 45  25  27  1   
 46  25  43  1   
 47  26  44  1   
 48  26  45  1   
 49  26  46  1   
 50  27  47  1   
 51  27  48  1   
 52  27  49  1   
@<TRIPOS>SUBSTRUCTURE
  1 ****  10 GROUP 4 **** **** 0

# MOE 2024.06 (io_trps.svl 2023.06)
