@<TRIPOS>MOLECULE
NONAME
47 50 1 0 0 
SMALL
USER_CHARGES


@<TRIPOS>ATOM
  1 S       -0.8200     0.3750     0.7050 S.o2  1 <1>   1.0900 
  2 O       -1.3290     1.6240     1.2180 O.2   1 <1>  -0.6500 
  3 O        0.5460    -0.0410     0.9190 O.2   1 <1>  -0.6500 
  4 C       -1.8640    -0.9710     1.1840 C.3   1 <1>  -0.0550 
  5 C       -1.1760     0.2170    -1.0390 C.3   1 <1>  -0.0550 
  6 C       -1.7450    -1.9620     0.0290 C.3   1 <1>   0.1760 
  7 C       -1.8400    -1.1500    -1.2800 C.3   1 <1>  -0.1600 
  8 N       -2.7920    -3.0130     0.0950 N.pl3 1 <1>   0.3140 
  9 N       -4.0820    -2.6930     0.3040 N.2   1 <1>  -0.7070 
 10 C       -2.6360    -4.3500    -0.0850 C.2   1 <1>  -0.3320 
 11 C       -4.7230    -3.8180     0.2460 C.2   1 <1>   0.1080 
 12 C       -3.8690    -4.8980     0.0010 C.2   1 <1>   0.0630 
 13 C       -1.3010    -5.0330    -0.3510 C.3   1 <1>  -0.0600 
 14 C       -6.2220    -3.8790     0.4430 C.3   1 <1>  -0.0590 
 15 N       -4.1740    -6.2770    -0.1150 N.am  1 <1>  -0.4930 
 16 C       -5.1850    -6.8810    -0.8120 C.2   1 <1>   0.6160 
 17 O       -5.9440    -6.2180    -1.4900 O.2   1 <1>  -0.5700 
 18 C       -5.3220    -8.3130    -0.7790 C.2   1 <1>   0.0290 
 19 C       -5.3210    -9.0990     0.3500 C.2   1 <1>  -0.1690 
 20 C       -5.4610    -8.9490    -2.0530 C.2   1 <1>   0.3760 
 21 N       -5.3980   -10.4700     0.1720 N.pl3 1 <1>   0.6010 
 22 C       -5.2660    -8.5930     1.7940 C.3   1 <1>  -0.1020 
 23 N       -5.5400   -10.2250    -2.2310 N.2   1 <1>  -0.5760 
 24 N       -5.3680   -11.4480     1.1070 N.2   1 <1>  -0.7070 
 25 C       -5.4990   -10.9980    -1.0950 C.2   1 <1>  -0.0260 
 26 C       -5.4570   -12.5550     0.4250 C.2   1 <1>   0.1390 
 27 C       -5.5410   -12.3430    -0.9410 C.2   1 <1>  -0.1500 
 28 H       -2.8780    -0.6260     1.2700 H     1 <1>   0.0800 
 29 H       -1.5480    -1.4050     2.1120 H     1 <1>   0.0800 
 30 H       -0.2670     0.3000    -1.6050 H     1 <1>   0.0800 
 31 H       -1.8430     0.9990    -1.3520 H     1 <1>   0.0800 
 32 H       -0.7780    -2.4290     0.0840 H     1 <1>   0.0800 
 33 H       -1.3650    -1.6740    -2.0910 H     1 <1>   0.0800 
 34 H       -2.8760    -0.9890    -1.5290 H     1 <1>   0.0800 
 35 H       -0.8440    -4.6230    -1.2340 H     1 <1>   0.0800 
 36 H       -1.4350    -6.0880    -0.5040 H     1 <1>   0.0800 
 37 H       -0.6380    -4.8930     0.4850 H     1 <1>   0.0800 
 38 H       -6.5420    -3.0650     1.0670 H     1 <1>   0.0800 
 39 H       -6.5010    -4.8050     0.9070 H     1 <1>   0.0800 
 40 H       -6.7110    -3.8010    -0.5110 H     1 <1>   0.0800 
 41 H       -3.4860    -6.8940     0.3090 H     1 <1>   0.3700 
 42 H       -5.4940    -8.3120    -2.9210 H     1 <1>   0.0600 
 43 H       -6.0510    -9.0550     2.3690 H     1 <1>   0.0800 
 44 H       -5.4010    -7.5300     1.8630 H     1 <1>   0.0800 
 45 H       -4.3250    -8.8590     2.2430 H     1 <1>   0.0800 
 46 H       -5.4630   -13.5290     0.8880 H     1 <1>   0.1500 
 47 H       -5.6220   -13.0870    -1.7120 H     1 <1>   0.1500 
@<TRIPOS>BOND
  1   1   2  2   
  2   1   3  2   
  3   1   4  1   
  4   1   5  1   
  5   4   6  1   
  6   4  28  1   
  7   4  29  1   
  8   5   7  1   
  9   5  30  1   
 10   5  31  1   
 11   6   7  1   
 12   6   8  1   
 13   6  32  1   
 14   7  33  1   
 15   7  34  1   
 16   8   9  1   
 17   8  10  1   
 18   9  11  2   
 19  10  12  2   
 20  10  13  1   
 21  11  12  1   
 22  11  14  1   
 23  12  15  1   
 24  13  35  1   
 25  13  36  1   
 26  13  37  1   
 27  14  38  1   
 28  14  39  1   
 29  14  40  1   
 30  15  16  am  
 31  15  41  1   
 32  16  17  2   
 33  16  18  1   
 34  18  19  2   
 35  18  20  1   
 36  19  21  1   
 37  19  22  1   
 38  20  23  2   
 39  20  42  1   
 40  21  24  1   
 41  21  25  1   
 42  22  43  1   
 43  22  44  1   
 44  22  45  1   
 45  23  25  1   
 46  24  26  2   
 47  25  27  2   
 48  26  27  1   
 49  26  46  1   
 50  27  47  1   
@<TRIPOS>SUBSTRUCTURE
  1 ****  15 GROUP 4 **** **** 0

# MOE 2024.06 (io_trps.svl 2023.06)
