@<TRIPOS>MOLECULE
NONAME
55 59 1 0 0 
SMALL
USER_CHARGES


@<TRIPOS>ATOM
  1 O        0.0430     1.0330    -3.0190 O.2   1 <1>  -0.5700 
  2 C        0.3420     1.8480    -2.1750 C.2   1 <1>   0.5690 
  3 N       -0.6370     2.4370    -1.3990 N.am  1 <1>  -0.6600 
  4 C        1.8470     2.1500    -2.0280 C.3   1 <1>   0.1610 
  5 C       -0.3770     3.3350    -0.2270 C.3   1 <1>   0.1400 
  6 C       -2.0740     2.1390    -1.6940 C.3   1 <1>   0.1400 
  7 C        2.4240     1.7720    -0.6680 C.2   1 <1>  -0.3320 
  8 C        2.2130     3.6150    -2.3720 C.3   1 <1>  -0.1600 
  9 C       -1.4570     3.1280     0.8310 C.3   1 <1>  -0.1600 
 10 C       -2.9810     3.2730    -1.2120 C.3   1 <1>  -0.1600 
 11 N        2.1050     0.6430     0.0310 N.pl3 1 <1>   0.0330 
 12 C        3.3200     2.5020     0.0280 C.2   1 <1>  -0.1810 
 13 C        3.6620     3.9710    -1.9720 C.3   1 <1>  -0.1600 
 14 C       -2.8390     3.5420     0.2970 C.3   1 <1>   0.4180 
 15 C        2.8080     0.6680     1.2110 C.ar  1 <1>  -0.1520 
 16 C        3.5820     1.8260     1.2390 C.ar  1 <1>   0.0000 
 17 C        3.9030     3.8140    -0.4580 C.3   1 <1>   0.0210 
 18 O       -2.9800     4.9350     0.4340 O.3   1 <1>  -0.5600 
 19 C       -3.9460     2.8120     1.0570 C.2   1 <1>  -0.2880 
 20 C        2.8340    -0.2380     2.2740 C.ar  1 <1>  -0.1500 
 21 C        4.3960     2.0850     2.3460 C.ar  1 <1>  -0.1500 
 22 C       -3.3860     5.4340     1.6790 C.3   1 <1>   0.1200 
 23 C       -4.8450     3.4130     1.8390 C.2   1 <1>  -0.2760 
 24 C        3.6400     0.0300     3.3560 C.ar  1 <1>  -0.1500 
 25 C        4.4210     1.1920     3.3930 C.ar  1 <1>  -0.1500 
 26 C       -4.7830     4.9150     2.0440 C.3   1 <1>  -0.0220 
 27 C       -5.9750     2.7010     2.5610 C.3   1 <1>  -0.1020 
 28 H        2.3550     1.5280    -2.7440 H     1 <1>   0.0800 
 29 H       -0.3880     4.3610    -0.5540 H     1 <1>   0.0800 
 30 H        0.5790     3.1310     0.2140 H     1 <1>   0.0800 
 31 H       -2.3460     1.2180    -1.2090 H     1 <1>   0.0800 
 32 H       -2.2070     2.0090    -2.7550 H     1 <1>   0.0800 
 33 H        1.5490     4.2880    -1.8650 H     1 <1>   0.0800 
 34 H        2.0800     3.7680    -3.4290 H     1 <1>   0.0800 
 35 H       -1.2120     3.6790     1.7180 H     1 <1>   0.0800 
 36 H       -1.4650     2.0880     1.0980 H     1 <1>   0.0800 
 37 H       -4.0030     3.0360    -1.4430 H     1 <1>   0.0800 
 38 H       -2.7210     4.1560    -1.7670 H     1 <1>   0.0800 
 39 H        1.4520    -0.0910    -0.2620 H     1 <1>   0.2700 
 40 H        3.8860     4.9810    -2.2660 H     1 <1>   0.0800 
 41 H        4.3360     3.3170    -2.4980 H     1 <1>   0.0800 
 42 H        4.9590     3.8400    -0.2540 H     1 <1>   0.0800 
 43 H        3.4320     4.6190     0.0760 H     1 <1>   0.0800 
 44 H       -3.9360     1.7510     0.8850 H     1 <1>   0.1500 
 45 H        2.2310    -1.1270     2.2370 H     1 <1>   0.1500 
 46 H        4.9890     2.9800     2.3600 H     1 <1>   0.1500 
 47 H       -3.3920     6.5080     1.6170 H     1 <1>   0.0800 
 48 H       -2.6710     5.1350     2.4230 H     1 <1>   0.0800 
 49 H        3.6790    -0.6530     4.1870 H     1 <1>   0.1500 
 50 H        5.0430     1.3780     4.2500 H     1 <1>   0.1500 
 51 H       -5.5240     5.3990     1.4340 H     1 <1>   0.0800 
 52 H       -4.9800     5.1600     3.0730 H     1 <1>   0.0800 
 53 H       -6.9230     3.0930     2.2410 H     1 <1>   0.0800 
 54 H       -5.8820     2.8360     3.6240 H     1 <1>   0.0800 
 55 H       -5.9530     1.6470     2.3490 H     1 <1>   0.0800 
@<TRIPOS>BOND
  1   1   2  2   
  2   2   3  am  
  3   2   4  1   
  4   3   5  1   
  5   3   6  1   
  6   4   7  1   
  7   4   8  1   
  8   4  28  1   
  9   5   9  1   
 10   5  29  1   
 11   5  30  1   
 12   6  10  1   
 13   6  31  1   
 14   6  32  1   
 15   7  11  1   
 16   7  12  2   
 17   8  13  1   
 18   8  33  1   
 19   8  34  1   
 20   9  14  1   
 21   9  35  1   
 22   9  36  1   
 23  10  14  1   
 24  10  37  1   
 25  10  38  1   
 26  11  15  1   
 27  11  39  1   
 28  12  16  1   
 29  12  17  1   
 30  13  17  1   
 31  13  40  1   
 32  13  41  1   
 33  14  18  1   
 34  14  19  1   
 35  15  16  ar  
 36  15  20  ar  
 37  16  21  ar  
 38  17  42  1   
 39  17  43  1   
 40  18  22  1   
 41  19  23  2   
 42  19  44  1   
 43  20  24  ar  
 44  20  45  1   
 45  21  25  ar  
 46  21  46  1   
 47  22  26  1   
 48  22  47  1   
 49  22  48  1   
 50  23  26  1   
 51  23  27  1   
 52  24  25  ar  
 53  24  49  1   
 54  25  50  1   
 55  26  51  1   
 56  26  52  1   
 57  27  53  1   
 58  27  54  1   
 59  27  55  1   
@<TRIPOS>SUBSTRUCTURE
  1 ****   5 GROUP 4 **** **** 0

# MOE 2024.06 (io_trps.svl 2023.06)
