@<TRIPOS>MOLECULE
NONAME
53 56 1 0 0 
SMALL
USER_CHARGES


@<TRIPOS>ATOM
  1 F       -0.9970    -2.0150    -2.7410 F     1 <1>  -0.1900 
  2 C       -0.3430    -2.4820    -1.7070 C.ar  1 <1>   0.1900 
  3 C        0.0510    -3.7960    -1.7100 C.ar  1 <1>  -0.1500 
  4 C       -0.0840    -1.6080    -0.6490 C.ar  1 <1>  -0.1500 
  5 C        0.7390    -4.2800    -0.5900 C.ar  1 <1>   0.0000 
  6 C        0.6020    -2.0750     0.4490 C.ar  1 <1>  -0.1500 
  7 C        1.0120    -3.4140     0.4670 C.ar  1 <1>  -0.1520 
  8 C        1.2600    -5.5420    -0.2170 C.2   1 <1>  -0.1810 
  9 N        1.6960    -4.1140     1.4270 N.pl3 1 <1>   0.0330 
 10 C        1.8390    -5.4040     1.0010 C.2   1 <1>  -0.3320 
 11 C        1.1470    -6.8070    -1.0650 C.3   1 <1>   0.0820 
 12 C        2.5490    -6.4420     1.8540 C.3   1 <1>  -0.0600 
 13 C        0.4150    -7.9620    -0.3790 C.2   1 <1>   0.5690 
 14 O        1.0560    -8.9760    -0.2130 O.2   1 <1>  -0.5700 
 15 N       -0.9100    -7.8880     0.0060 N.am  1 <1>  -0.6600 
 16 C       -1.7440    -6.6640    -0.1840 C.3   1 <1>   0.2200 
 17 C       -1.5450    -9.0570     0.6910 C.3   1 <1>   0.0600 
 18 C       -3.1580    -6.9140    -0.7030 C.3   1 <1>  -0.1600 
 19 C       -1.9610    -5.8890     1.1110 C.3   1 <1>  -0.1600 
 20 C       -3.9030    -5.6100    -0.3840 C.3   1 <1>  -0.0800 
 21 C       -3.1380    -4.9600     0.7930 C.3   1 <1>  -0.0800 
 22 C       -5.4100    -5.8230    -0.1420 C.3   1 <1>   0.1400 
 23 C       -4.0180    -4.6590     2.0190 C.3   1 <1>  -0.0990 
 24 N       -5.9910    -4.6370     0.5370 N.am  1 <1>  -0.6600 
 25 C       -5.3390    -4.0550     1.5900 C.2   1 <1>   0.5690 
 26 C       -7.3060    -4.1550     0.0400 C.3   1 <1>   0.0600 
 27 O       -5.7680    -3.0980     2.1890 O.2   1 <1>  -0.5700 
 28 H       -0.1610    -4.4340    -2.5450 H     1 <1>   0.1500 
 29 H       -0.4230    -0.5900    -0.7110 H     1 <1>   0.1500 
 30 H        0.8230    -1.4310     1.2820 H     1 <1>   0.1500 
 31 H        2.0350    -3.7270     2.3130 H     1 <1>   0.2700 
 32 H        2.1420    -7.1320    -1.3080 H     1 <1>   0.0800 
 33 H        0.6530    -6.5960    -1.9930 H     1 <1>   0.0800 
 34 H        2.6420    -7.3740     1.3270 H     1 <1>   0.0800 
 35 H        1.9940    -6.6180     2.7580 H     1 <1>   0.0800 
 36 H        3.5360    -6.1010     2.1090 H     1 <1>   0.0800 
 37 H       -1.2750    -6.0060    -0.8900 H     1 <1>   0.0800 
 38 H       -2.1880    -8.7290     1.4870 H     1 <1>   0.0800 
 39 H       -0.7970    -9.7040     1.1160 H     1 <1>   0.0800 
 40 H       -2.1200    -9.6230    -0.0200 H     1 <1>   0.0800 
 41 H       -3.1570    -7.1250    -1.7580 H     1 <1>   0.0800 
 42 H       -3.6190    -7.7250    -0.1720 H     1 <1>   0.0800 
 43 H       -2.2230    -6.5620     1.9050 H     1 <1>   0.0800 
 44 H       -1.0870    -5.3320     1.3930 H     1 <1>   0.0800 
 45 H       -3.8020    -4.9540    -1.2340 H     1 <1>   0.0800 
 46 H       -2.7390    -4.0230     0.4370 H     1 <1>   0.0800 
 47 H       -5.5680    -6.6810     0.4880 H     1 <1>   0.0800 
 48 H       -5.9070    -5.9960    -1.0810 H     1 <1>   0.0800 
 49 H       -3.5090    -3.9810     2.6800 H     1 <1>   0.0800 
 50 H       -4.2340    -5.5600     2.5610 H     1 <1>   0.0800 
 51 H       -8.0370    -4.9400     0.1200 H     1 <1>   0.0800 
 52 H       -7.2180    -3.8500    -0.9870 H     1 <1>   0.0800 
 53 H       -7.6430    -3.3120     0.6210 H     1 <1>   0.0800 
@<TRIPOS>BOND
  1   1   2  1   
  2   2   3  ar  
  3   2   4  ar  
  4   3   5  ar  
  5   3  28  1   
  6   4   6  ar  
  7   4  29  1   
  8   5   7  ar  
  9   5   8  1   
 10   6   7  ar  
 11   6  30  1   
 12   7   9  1   
 13   8  10  2   
 14   8  11  1   
 15   9  10  1   
 16   9  31  1   
 17  10  12  1   
 18  11  13  1   
 19  11  32  1   
 20  11  33  1   
 21  12  34  1   
 22  12  35  1   
 23  12  36  1   
 24  13  14  2   
 25  13  15  am  
 26  15  16  1   
 27  15  17  1   
 28  16  18  1   
 29  16  19  1   
 30  16  37  1   
 31  17  38  1   
 32  17  39  1   
 33  17  40  1   
 34  18  20  1   
 35  18  41  1   
 36  18  42  1   
 37  19  21  1   
 38  19  43  1   
 39  19  44  1   
 40  20  21  1   
 41  20  22  1   
 42  20  45  1   
 43  21  23  1   
 44  21  46  1   
 45  22  24  1   
 46  22  47  1   
 47  22  48  1   
 48  23  25  1   
 49  23  49  1   
 50  23  50  1   
 51  24  25  am  
 52  24  26  1   
 53  25  27  2   
 54  26  51  1   
 55  26  52  1   
 56  26  53  1   
@<TRIPOS>SUBSTRUCTURE
  1 ****  19 GROUP 4 **** **** 0

# MOE 2024.06 (io_trps.svl 2023.06)
