@<TRIPOS>MOLECULE
NONAME
47 49 1 0 0 
SMALL
USER_CHARGES


@<TRIPOS>ATOM
  1 S       -0.4740    -0.1400    -0.2160 S.3   1 <1>  -0.3320 
  2 C       -0.2590     1.6380    -0.4100 C.ar  1 <1>   0.1020 
  3 C       -1.2500    -0.7570    -1.7890 C.3   1 <1>   0.1310 
  4 C        0.2060     2.3380     0.6880 C.ar  1 <1>  -0.1500 
  5 C       -0.5420     2.2910    -1.6000 C.ar  1 <1>  -0.1500 
  6 C       -1.5300    -2.2530    -1.7200 C.2   1 <1>   0.5690 
  7 C        0.3900     3.7080     0.6090 C.ar  1 <1>   0.0820 
  8 C       -0.3590     3.6610    -1.6810 C.ar  1 <1>  -0.1500 
  9 O       -0.8710    -2.9770    -2.4280 O.2   1 <1>  -0.5700 
 10 N       -2.5240    -2.7500    -0.9170 N.am  1 <1>  -0.6600 
 11 O        0.8470     4.3290     1.7250 O.3   1 <1>  -0.3630 
 12 C        0.1040     4.3700    -0.5840 C.ar  1 <1>  -0.1500 
 13 C       -3.3570    -1.9780     0.0400 C.3   1 <1>   0.1400 
 14 C       -2.8060    -4.2020    -0.8020 C.3   1 <1>   0.1400 
 15 C        1.0830     5.7200     1.7480 C.3   1 <1>   0.0400 
 16 C       -4.2230    -3.0230     0.7460 C.3   1 <1>   0.2000 
 17 C       -3.5090    -4.3580     0.5470 C.3   1 <1>  -0.0800 
 18 O       -4.3490    -2.7500     2.0990 O.3   1 <1>  -0.6800 
 19 C       -4.4670    -5.5590     0.6240 C.3   1 <1>  -0.0160 
 20 C       -3.7360    -6.8750     0.4190 C.ar  1 <1>   0.1670 
 21 N       -3.5660    -7.2640    -0.8360 N.ar  1 <1>  -0.6200 
 22 C       -3.2870    -7.5900     1.5200 C.ar  1 <1>  -0.1500 
 23 C       -2.9220    -8.4080    -1.0000 C.ar  1 <1>   0.1600 
 24 C       -2.6180    -8.7810     1.3340 C.ar  1 <1>  -0.1500 
 25 C       -2.4350    -9.1920     0.0310 C.ar  1 <1>  -0.1500 
 26 H       -2.1610    -0.2100    -1.9380 H     1 <1>   0.0800 
 27 H       -0.5570    -0.5520    -2.5830 H     1 <1>   0.0800 
 28 H        0.4270     1.8230     1.6040 H     1 <1>   0.1500 
 29 H       -0.8960     1.7610    -2.4620 H     1 <1>   0.1500 
 30 H       -0.5750     4.1780    -2.6000 H     1 <1>   0.1500 
 31 H        0.2360     5.4310    -0.6770 H     1 <1>   0.1500 
 32 H       -2.7220    -1.4750     0.7470 H     1 <1>   0.0800 
 33 H       -3.9710    -1.2670    -0.4840 H     1 <1>   0.0800 
 34 H       -3.4520    -4.5000    -1.6100 H     1 <1>   0.0800 
 35 H       -1.8980    -4.7820    -0.8450 H     1 <1>   0.0800 
 36 H        1.4440     5.9800     2.7260 H     1 <1>   0.0800 
 37 H        0.1600     6.2340     1.5500 H     1 <1>   0.0800 
 38 H        1.8260     5.9600     1.0080 H     1 <1>   0.0800 
 39 H       -5.2070    -3.0370     0.3090 H     1 <1>   0.0800 
 40 H       -2.7390    -4.4690     1.2910 H     1 <1>   0.0800 
 41 H       -3.4660    -2.7040     2.5170 H     1 <1>   0.4000 
 42 H       -5.2350    -5.4670    -0.1240 H     1 <1>   0.0800 
 43 H       -4.9510    -5.5650     1.5840 H     1 <1>   0.0800 
 44 H       -3.4570    -7.2200     2.5140 H     1 <1>   0.1500 
 45 H       -2.7720    -8.7380    -2.0140 H     1 <1>   0.1500 
 46 H       -2.2570    -9.3610     2.1650 H     1 <1>   0.1500 
 47 H       -1.9210   -10.1100    -0.1860 H     1 <1>   0.1500 
@<TRIPOS>BOND
  1   1   2  1   
  2   1   3  1   
  3   2   4  ar  
  4   2   5  ar  
  5   3   6  1   
  6   3  26  1   
  7   3  27  1   
  8   4   7  ar  
  9   4  28  1   
 10   5   8  ar  
 11   5  29  1   
 12   6   9  2   
 13   6  10  am  
 14   7  11  1   
 15   7  12  ar  
 16   8  12  ar  
 17   8  30  1   
 18  10  13  1   
 19  10  14  1   
 20  11  15  1   
 21  12  31  1   
 22  13  16  1   
 23  13  32  1   
 24  13  33  1   
 25  14  17  1   
 26  14  34  1   
 27  14  35  1   
 28  15  36  1   
 29  15  37  1   
 30  15  38  1   
 31  16  17  1   
 32  16  18  1   
 33  16  39  1   
 34  17  19  1   
 35  17  40  1   
 36  18  41  1   
 37  19  20  1   
 38  19  42  1   
 39  19  43  1   
 40  20  21  ar  
 41  20  22  ar  
 42  21  23  ar  
 43  22  24  ar  
 44  22  44  1   
 45  23  25  ar  
 46  23  45  1   
 47  24  25  ar  
 48  24  46  1   
 49  25  47  1   
@<TRIPOS>SUBSTRUCTURE
  1 ****  10 GROUP 4 **** **** 0

# MOE 2024.06 (io_trps.svl 2023.06)
