@<TRIPOS>MOLECULE
NONAME
60 63 1 0 0 
SMALL
USER_CHARGES


@<TRIPOS>ATOM
  1 O       -0.2280     1.4410     1.0880 O.2   1 <1>  -0.5700 
  2 C       -1.3560     1.8470     0.8830 C.2   1 <1>   0.5440 
  3 N       -2.3400     0.9320     0.5860 N.am  1 <1>  -0.6600 
  4 C       -1.6320     3.2710     0.9420 C.ar  1 <1>   0.0860 
  5 C       -3.5980     1.2510    -0.1350 C.3   1 <1>   0.1400 
  6 C       -2.0670    -0.5250     0.5390 C.3   1 <1>   0.1400 
  7 C       -0.8190     4.1820     0.2720 C.ar  1 <1>  -0.1500 
  8 C       -2.7070     3.7810     1.6710 C.ar  1 <1>  -0.1500 
  9 C       -3.9620    -0.0380    -0.8690 C.3   1 <1>   0.2000 
 10 C       -3.3290    -1.1590    -0.0490 C.3   1 <1>  -0.0800 
 11 C       -1.0660     5.5430     0.3100 C.ar  1 <1>   0.0830 
 12 C       -2.9690     5.1380     1.7130 C.ar  1 <1>  -0.1500 
 13 O       -5.3340    -0.2170    -0.9450 O.3   1 <1>  -0.6800 
 14 C       -3.0520    -2.4250    -0.8740 C.3   1 <1>   0.0200 
 15 O       -0.2080     6.3380    -0.3740 O.3   1 <1>  -0.3630 
 16 C       -2.1540     6.0240     1.0320 C.ar  1 <1>  -0.1500 
 17 C       -2.3620    -3.4800    -0.0330 C.2   1 <1>  -0.0400 
 18 C       -0.2210     7.7490    -0.2050 C.3   1 <1>   0.1810 
 19 O       -2.9730    -3.9950     1.0000 O.3   1 <1>  -0.0190 
 20 C       -1.1500    -4.0480    -0.1210 C.2   1 <1>  -0.1500 
 21 C        0.9360     8.4150    -0.9470 C.2   1 <1>   0.5690 
 22 N       -2.2340    -4.8740     1.6120 N.2   1 <1>  -0.4100 
 23 C       -1.1290    -4.9270     0.9580 C.2   1 <1>   0.1080 
 24 O        0.6390     9.2030    -1.8170 O.2   1 <1>  -0.5700 
 25 N        2.2500     8.1650    -0.6190 N.am  1 <1>  -0.6600 
 26 C        0.0320    -5.8260     1.3220 C.3   1 <1>  -0.0590 
 27 C        3.3680     8.8250    -1.3500 C.3   1 <1>   0.1400 
 28 C        2.6980     7.1890     0.4170 C.3   1 <1>   0.1400 
 29 C        4.2880     9.5410    -0.3550 C.3   1 <1>  -0.1600 
 30 C        3.6120     7.8900     1.4280 C.3   1 <1>  -0.1600 
 31 C        4.7930     8.5870     0.7370 C.3   1 <1>  -0.1600 
 32 H       -4.3590     1.5100     0.5800 H     1 <1>   0.0800 
 33 H       -3.4480     2.0590    -0.8310 H     1 <1>   0.0800 
 34 H       -1.2140    -0.7010    -0.0950 H     1 <1>   0.0800 
 35 H       -1.8570    -0.9050     1.5250 H     1 <1>   0.0800 
 36 H        0.0260     3.8190    -0.2860 H     1 <1>   0.1500 
 37 H       -3.3380     3.0990     2.2140 H     1 <1>   0.1500 
 38 H       -3.5660    -0.0090    -1.8700 H     1 <1>   0.0800 
 39 H       -3.9720    -1.4070     0.7780 H     1 <1>   0.0800 
 40 H       -3.8080     5.5070     2.2790 H     1 <1>   0.1500 
 41 H       -5.7150    -0.3320    -0.0530 H     1 <1>   0.4000 
 42 H       -2.4310    -2.1840    -1.7190 H     1 <1>   0.0800 
 43 H       -3.9800    -2.8240    -1.2460 H     1 <1>   0.0800 
 44 H       -2.3820     7.0720     1.0750 H     1 <1>   0.1500 
 45 H       -1.1500     8.1230    -0.5920 H     1 <1>   0.0800 
 46 H       -0.1460     7.9710     0.8430 H     1 <1>   0.0800 
 47 H       -0.3600    -3.8880    -0.8310 H     1 <1>   0.1500 
 48 H        0.2490    -6.4890     0.5050 H     1 <1>   0.0800 
 49 H       -0.2150    -6.4110     2.1900 H     1 <1>   0.0800 
 50 H        0.8990    -5.2310     1.5390 H     1 <1>   0.0800 
 51 H        3.9220     8.0760    -1.8890 H     1 <1>   0.0800 
 52 H        2.9910     9.5370    -2.0650 H     1 <1>   0.0800 
 53 H        1.8650     6.7550     0.9380 H     1 <1>   0.0800 
 54 H        3.2350     6.3920    -0.0680 H     1 <1>   0.0800 
 55 H        5.1240     9.9610    -0.8850 H     1 <1>   0.0800 
 56 H        3.7430    10.3540     0.0930 H     1 <1>   0.0800 
 57 H        3.0350     8.6140     1.9750 H     1 <1>   0.0800 
 58 H        3.9830     7.1660     2.1310 H     1 <1>   0.0800 
 59 H        5.3690     9.1360     1.4620 H     1 <1>   0.0800 
 60 H        5.4350     7.8450     0.2920 H     1 <1>   0.0800 
@<TRIPOS>BOND
  1   1   2  2   
  2   2   3  am  
  3   2   4  1   
  4   3   5  1   
  5   3   6  1   
  6   4   7  ar  
  7   4   8  ar  
  8   5   9  1   
  9   5  32  1   
 10   5  33  1   
 11   6  10  1   
 12   6  34  1   
 13   6  35  1   
 14   7  11  ar  
 15   7  36  1   
 16   8  12  ar  
 17   8  37  1   
 18   9  10  1   
 19   9  13  1   
 20   9  38  1   
 21  10  14  1   
 22  10  39  1   
 23  11  15  1   
 24  11  16  ar  
 25  12  16  ar  
 26  12  40  1   
 27  13  41  1   
 28  14  17  1   
 29  14  42  1   
 30  14  43  1   
 31  15  18  1   
 32  16  44  1   
 33  17  19  1   
 34  17  20  2   
 35  18  21  1   
 36  18  45  1   
 37  18  46  1   
 38  19  22  1   
 39  20  23  1   
 40  20  47  1   
 41  21  24  2   
 42  21  25  am  
 43  22  23  2   
 44  23  26  1   
 45  25  27  1   
 46  25  28  1   
 47  26  48  1   
 48  26  49  1   
 49  26  50  1   
 50  27  29  1   
 51  27  51  1   
 52  27  52  1   
 53  28  30  1   
 54  28  53  1   
 55  28  54  1   
 56  29  31  1   
 57  29  55  1   
 58  29  56  1   
 59  30  31  1   
 60  30  57  1   
 61  30  58  1   
 62  31  59  1   
 63  31  60  1   
@<TRIPOS>SUBSTRUCTURE
  1 ****   2 GROUP 4 **** **** 0

# MOE 2024.06 (io_trps.svl 2023.06)
