@<TRIPOS>MOLECULE
NONAME
39 42 1 0 0 
SMALL
USER_CHARGES


@<TRIPOS>ATOM
  1 S        0.1310    -0.1520     0.6120 S.3   1 <1>  -0.0800 
  2 C        0.0080    -1.7080    -0.2100 C.ar  1 <1>   0.2970 
  3 C       -1.3660    -0.4450     1.5010 C.2   1 <1>  -0.1100 
  4 N        0.8960    -2.1410    -1.0780 N.ar  1 <1>  -0.5670 
  5 C       -1.1250    -2.3700     0.1900 C.ar  1 <1>   0.0000 
  6 C       -1.8880    -1.6390     1.1690 C.2   1 <1>  -0.1500 
  7 C        0.5900    -3.3340    -1.5550 C.ar  1 <1>   0.4700 
  8 C       -1.3280    -3.6140    -0.4060 C.ar  1 <1>   0.4100 
  9 N       -0.4600    -4.0960    -1.2780 N.ar  1 <1>  -0.6200 
 10 N       -2.4460    -4.3660    -0.1230 N.pl3 1 <1>  -0.8380 
 11 C       -3.7490    -3.9230    -0.6860 C.3   1 <1>   0.2090 
 12 C       -2.4070    -5.8620    -0.1370 C.3   1 <1>   0.2090 
 13 C       -4.6850    -5.1080    -0.4600 C.3   1 <1>   0.2000 
 14 C       -3.7680    -6.3110    -0.6790 C.3   1 <1>  -0.0800 
 15 O       -5.0950    -5.0740     0.8650 O.3   1 <1>  -0.6800 
 16 C       -4.2640    -7.6430    -0.0860 C.3   1 <1>   0.0210 
 17 C       -3.2560    -8.7510    -0.3210 C.2   1 <1>   0.1080 
 18 N       -2.8590    -9.1030    -1.5050 N.2   1 <1>  -0.7070 
 19 C       -2.6420    -9.4940     0.6810 C.2   1 <1>  -0.1500 
 20 N       -1.9730   -10.0920    -1.2870 N.pl3 1 <1>   0.3000 
 21 C       -1.8220   -10.3460     0.0300 C.2   1 <1>  -0.3320 
 22 C       -0.8920   -11.4040     0.5930 C.3   1 <1>  -0.0600 
 23 H       -1.6880     0.3210     2.1850 H     1 <1>   0.1500 
 24 H       -2.7900    -2.0650     1.5710 H     1 <1>   0.1500 
 25 H        1.2860    -3.7440    -2.2670 H     1 <1>   0.1500 
 26 H       -4.1150    -3.0320    -0.2070 H     1 <1>   0.0800 
 27 H       -3.6330    -3.7430    -1.7420 H     1 <1>   0.0800 
 28 H       -1.6120    -6.2450    -0.7550 H     1 <1>   0.0800 
 29 H       -2.2620    -6.2140     0.8690 H     1 <1>   0.0800 
 30 H       -5.5520    -5.1010    -1.0970 H     1 <1>   0.0800 
 31 H       -3.6520    -6.4460    -1.7400 H     1 <1>   0.0800 
 32 H       -4.2990    -4.9030     1.4110 H     1 <1>   0.4000 
 33 H       -5.1940    -7.9180    -0.5500 H     1 <1>   0.0800 
 34 H       -4.4360    -7.5480     0.9710 H     1 <1>   0.0800 
 35 H       -2.8040    -9.3900     1.7390 H     1 <1>   0.1500 
 36 H       -1.4890   -10.5700    -2.0560 H     1 <1>   0.2700 
 37 H       -0.9540   -11.4180     1.6670 H     1 <1>   0.0800 
 38 H        0.1250   -11.1940     0.3120 H     1 <1>   0.0800 
 39 H       -1.1660   -12.3760     0.2230 H     1 <1>   0.0800 
@<TRIPOS>BOND
  1   1   2  1   
  2   1   3  1   
  3   2   4  ar  
  4   2   5  ar  
  5   3   6  2   
  6   3  23  1   
  7   4   7  ar  
  8   5   6  1   
  9   5   8  ar  
 10   6  24  1   
 11   7   9  ar  
 12   7  25  1   
 13   8   9  ar  
 14   8  10  1   
 15  10  11  1   
 16  10  12  1   
 17  11  13  1   
 18  11  26  1   
 19  11  27  1   
 20  12  14  1   
 21  12  28  1   
 22  12  29  1   
 23  13  14  1   
 24  13  15  1   
 25  13  30  1   
 26  14  16  1   
 27  14  31  1   
 28  15  32  1   
 29  16  17  1   
 30  16  33  1   
 31  16  34  1   
 32  17  18  2   
 33  17  19  1   
 34  18  20  1   
 35  19  21  2   
 36  19  35  1   
 37  20  21  1   
 38  20  36  1   
 39  21  22  1   
 40  22  37  1   
 41  22  38  1   
 42  22  39  1   
@<TRIPOS>SUBSTRUCTURE
  1 ****  12 GROUP 4 **** **** 0

# MOE 2024.06 (io_trps.svl 2023.06)
