@<TRIPOS>MOLECULE
NONAME
53 55 1 0 0 
SMALL
USER_CHARGES


@<TRIPOS>ATOM
  1 O        0.7070     2.6130    -1.1500 O.2   1 <1>  -0.5700 
  2 C       -0.2170     3.3870    -1.0600 C.2   1 <1>   0.5690 
  3 N       -1.0590     3.4250     0.0140 N.am  1 <1>  -0.6600 
  4 C       -0.4650     4.3800    -2.1990 C.3   1 <1>   0.1810 
  5 C       -2.0670     4.5320     0.0640 C.3   1 <1>   0.3640 
  6 C       -0.8700     2.5430     1.1950 C.3   1 <1>   0.2200 
  7 O       -0.7680     5.6890    -1.7580 O.3   1 <1>  -0.5600 
  8 C       -3.3830     4.1640    -0.6400 C.ar  1 <1>  -0.1440 
  9 C       -1.4540     5.8380    -0.5090 C.3   1 <1>   0.2610 
 10 C       -2.1950     1.9140     1.6280 C.3   1 <1>  -0.2400 
 11 C       -0.2230     3.3340     2.3320 C.3   1 <1>  -0.2400 
 12 C       -3.5350     3.0460    -1.4540 C.ar  1 <1>  -0.1500 
 13 C       -4.4830     4.9900    -0.4400 C.ar  1 <1>  -0.1500 
 14 C       -0.5280     6.4390     0.5520 C.2   1 <1>   0.5690 
 15 C       -4.7470     2.7720    -2.0630 C.ar  1 <1>  -0.1500 
 16 C       -5.6960     4.7180    -1.0480 C.ar  1 <1>  -0.1500 
 17 O       -1.0060     6.8110     1.5980 O.2   1 <1>  -0.5700 
 18 N        0.8070     6.5370     0.3040 N.am  1 <1>  -0.7300 
 19 C       -5.8290     3.6090    -1.8630 C.ar  1 <1>  -0.1500 
 20 C        1.8310     7.0230     1.2460 C.3   1 <1>   0.1400 
 21 C        2.5300     8.2370     0.6390 C.3   1 <1>  -0.1600 
 22 C        3.5670     8.8080     1.6130 C.3   1 <1>   0.0960 
 23 N        4.2680     9.9570     1.0070 N.pl3 1 <1>   0.0480 
 24 C        3.9940    11.2730     1.1600 C.2   1 <1>   0.0360 
 25 C        5.3320     9.9240     0.1850 C.2   1 <1>  -0.3020 
 26 N        4.7920    12.0560     0.5080 N.2   1 <1>  -0.5650 
 27 C        5.6360    11.2070    -0.1070 C.2   1 <1>   0.0770 
 28 H       -1.2900     4.0360    -2.7960 H     1 <1>   0.0800 
 29 H        0.4070     4.4380    -2.8250 H     1 <1>   0.0800 
 30 H       -2.3210     4.7200     1.0920 H     1 <1>   0.0800 
 31 H       -0.2010     1.7420     0.9240 H     1 <1>   0.0800 
 32 H       -2.2390     6.5520    -0.6750 H     1 <1>   0.0800 
 33 H       -2.8900     2.6540     1.9770 H     1 <1>   0.0800 
 34 H       -2.0170     1.2180     2.4270 H     1 <1>   0.0800 
 35 H       -2.6310     1.3730     0.8070 H     1 <1>   0.0800 
 36 H       -0.8740     4.1060     2.6990 H     1 <1>   0.0800 
 37 H        0.6960     3.7750     1.9920 H     1 <1>   0.0800 
 38 H        0.0040     2.6720     3.1470 H     1 <1>   0.0800 
 39 H       -2.7200     2.3660    -1.6230 H     1 <1>   0.1500 
 40 H       -4.4080     5.8560     0.1950 H     1 <1>   0.1500 
 41 H       -4.8490     1.9050    -2.6920 H     1 <1>   0.1500 
 42 H       -6.5380     5.3680    -0.8870 H     1 <1>   0.1500 
 43 H        1.1290     6.2470    -0.6250 H     1 <1>   0.3700 
 44 H       -6.7720     3.3960    -2.3370 H     1 <1>   0.1500 
 45 H        1.3660     7.2920     2.1810 H     1 <1>   0.0800 
 46 H        2.5400     6.2340     1.4330 H     1 <1>   0.0800 
 47 H        1.7950     8.9940     0.4220 H     1 <1>   0.0800 
 48 H        3.0200     7.9460    -0.2740 H     1 <1>   0.0800 
 49 H        4.2970     8.0590     1.8630 H     1 <1>   0.0800 
 50 H        3.0870     9.1350     2.5180 H     1 <1>   0.0800 
 51 H        3.1810    11.6190     1.7720 H     1 <1>   0.1500 
 52 H        5.8050     9.0160    -0.1400 H     1 <1>   0.1500 
 53 H        6.4300    11.5720    -0.7380 H     1 <1>   0.1500 
@<TRIPOS>BOND
  1   1   2  2   
  2   2   3  am  
  3   2   4  1   
  4   3   5  1   
  5   3   6  1   
  6   4   7  1   
  7   4  28  1   
  8   4  29  1   
  9   5   8  1   
 10   5   9  1   
 11   5  30  1   
 12   6  10  1   
 13   6  11  1   
 14   6  31  1   
 15   7   9  1   
 16   8  12  ar  
 17   8  13  ar  
 18   9  14  1   
 19   9  32  1   
 20  10  33  1   
 21  10  34  1   
 22  10  35  1   
 23  11  36  1   
 24  11  37  1   
 25  11  38  1   
 26  12  15  ar  
 27  12  39  1   
 28  13  16  ar  
 29  13  40  1   
 30  14  17  2   
 31  14  18  am  
 32  15  19  ar  
 33  15  41  1   
 34  16  19  ar  
 35  16  42  1   
 36  18  20  1   
 37  18  43  1   
 38  19  44  1   
 39  20  21  1   
 40  20  45  1   
 41  20  46  1   
 42  21  22  1   
 43  21  47  1   
 44  21  48  1   
 45  22  23  1   
 46  22  49  1   
 47  22  50  1   
 48  23  24  1   
 49  23  25  1   
 50  24  26  2   
 51  24  51  1   
 52  25  27  2   
 53  25  52  1   
 54  26  27  1   
 55  27  53  1   
@<TRIPOS>SUBSTRUCTURE
  1 ****  14 GROUP 4 **** **** 0

# MOE 2024.06 (io_trps.svl 2023.06)
