@<TRIPOS>MOLECULE
NONAME
45 47 1 0 0 
SMALL
USER_CHARGES


@<TRIPOS>ATOM
  1 O       -0.5070     0.5420     0.2810 O.co2 1 <1>  -0.9000 
  2 C       -1.1070     1.3190     1.0390 C.2   1 <1>   0.9060 
  3 O       -1.6830     0.9600     2.0670 O.co2 1 <1>  -0.9000 
  4 C       -1.1600     2.7920     0.6070 C.3   1 <1>   0.3170 
  5 N       -1.0770     2.9470    -0.9150 N.4   1 <1>  -0.9590 
  6 C       -0.0010     3.5150     1.3220 C.3   1 <1>   0.1100 
  7 C       -0.8030     4.3520    -1.3440 C.3   1 <1>   0.3430 
  8 C       -2.2790     2.3450    -1.5540 C.3   1 <1>   0.2630 
  9 N        0.1710     4.9190     0.8770 N.3   1 <1>  -0.8100 
 10 C        0.3820     4.9700    -0.5830 C.3   1 <1>   0.1100 
 11 C        1.2900     5.5460     1.6050 C.3   1 <1>   0.2530 
 12 C        1.3620     7.0440     1.3170 C.ar  1 <1>  -0.1440 
 13 C        2.2800     7.6040     0.4160 C.ar  1 <1>   0.0530 
 14 C        0.4610     7.8590     1.9860 C.ar  1 <1>  -0.1500 
 15 C        3.2340     6.8410    -0.3580 C.2   1 <1>   0.0870 
 16 C        2.2530     8.9860     0.2340 C.ar  1 <1>  -0.1500 
 17 C        0.4530     9.2270     1.7870 C.ar  1 <1>  -0.1500 
 18 O        4.0250     5.9400     0.2090 O.3   1 <1>  -0.2800 
 19 C        3.5160     6.8900    -1.6870 C.2   1 <1>  -0.1500 
 20 C        1.3550     9.7920     0.9070 C.ar  1 <1>  -0.1500 
 21 C        4.7960     5.4100    -0.7160 C.2   1 <1>  -0.0400 
 22 C        4.5290     5.9580    -1.9190 C.2   1 <1>  -0.1500 
 23 C        5.7940     4.3490    -0.3100 C.3   1 <1>  -0.0600 
 24 H       -2.0860     3.2000     0.9660 H     1 <1>   0.0800 
 25 H       -0.2830     2.3180    -1.1370 H     1 <1>   0.4500 
 26 H        0.9090     2.9640     1.1540 H     1 <1>   0.0800 
 27 H       -0.2000     3.4960     2.3810 H     1 <1>   0.0800 
 28 H       -1.6730     4.9590    -1.1550 H     1 <1>   0.0800 
 29 H       -0.5990     4.3770    -2.4000 H     1 <1>   0.0800 
 30 H       -3.1670     2.8750    -1.2540 H     1 <1>   0.0800 
 31 H       -2.3730     1.3120    -1.2520 H     1 <1>   0.0800 
 32 H       -2.1900     2.3800    -2.6270 H     1 <1>   0.0800 
 33 H        0.4750     5.9950    -0.8970 H     1 <1>   0.0800 
 34 H        1.2930     4.4590    -0.8450 H     1 <1>   0.0800 
 35 H        2.2080     5.0430     1.3670 H     1 <1>   0.0800 
 36 H        1.1320     5.4190     2.6620 H     1 <1>   0.0800 
 37 H       -0.2490     7.4230     2.6670 H     1 <1>   0.1500 
 38 H        2.9540     9.4380    -0.4450 H     1 <1>   0.1500 
 39 H       -0.2510     9.8480     2.3140 H     1 <1>   0.1500 
 40 H        3.0650     7.5200    -2.4320 H     1 <1>   0.1500 
 41 H        1.3580    10.8560     0.7480 H     1 <1>   0.1500 
 42 H        4.9850     5.7480    -2.8710 H     1 <1>   0.1500 
 43 H        5.2790     3.5100     0.1210 H     1 <1>   0.0800 
 44 H        6.4740     4.7520     0.4180 H     1 <1>   0.0800 
 45 H        6.3530     4.0170    -1.1650 H     1 <1>   0.0800 
@<TRIPOS>BOND
  1   1   2  ar  
  2   2   3  ar  
  3   2   4  1   
  4   4   5  1   
  5   4   6  1   
  6   4  24  1   
  7   5   7  1   
  8   5   8  1   
  9   5  25  1   
 10   6   9  1   
 11   6  26  1   
 12   6  27  1   
 13   7  10  1   
 14   7  28  1   
 15   7  29  1   
 16   8  30  1   
 17   8  31  1   
 18   8  32  1   
 19   9  10  1   
 20   9  11  1   
 21  10  33  1   
 22  10  34  1   
 23  11  12  1   
 24  11  35  1   
 25  11  36  1   
 26  12  13  ar  
 27  12  14  ar  
 28  13  15  1   
 29  13  16  ar  
 30  14  17  ar  
 31  14  37  1   
 32  15  18  1   
 33  15  19  2   
 34  16  20  ar  
 35  16  38  1   
 36  17  20  ar  
 37  17  39  1   
 38  18  21  1   
 39  19  22  1   
 40  19  40  1   
 41  20  41  1   
 42  21  22  2   
 43  21  23  1   
 44  22  42  1   
 45  23  43  1   
 46  23  44  1   
 47  23  45  1   
@<TRIPOS>SUBSTRUCTURE
  1 ****  10 GROUP 4 **** **** 0

# MOE 2024.06 (io_trps.svl 2023.06)
