@<TRIPOS>MOLECULE
NONAME
53 56 1 0 0 
SMALL
USER_CHARGES


@<TRIPOS>ATOM
  1 O       -0.5800     0.0300    -0.5110 O.2   1 <1>  -0.5700 
  2 C       -1.5410     0.7500    -0.7110 C.2   1 <1>   0.5440 
  3 N       -2.7490     0.1690    -1.0350 N.am  1 <1>  -0.6600 
  4 C       -1.3880     2.1870    -0.5900 C.ar  1 <1>   0.0860 
  5 C       -4.0760     0.8050    -0.7640 C.3   1 <1>   0.1400 
  6 C       -2.8580    -1.2720    -1.4220 C.3   1 <1>   0.1400 
  7 C       -1.8900     3.0630    -1.5550 C.ar  1 <1>  -0.1500 
  8 C       -0.7200     2.7480     0.4990 C.ar  1 <1>  -0.1500 
  9 C       -4.8960    -0.0340     0.2370 C.3   1 <1>   0.1900 
 10 C       -3.7140    -2.0520    -0.4120 C.3   1 <1>   0.1100 
 11 C       -1.7500     4.4320    -1.4260 C.ar  1 <1>  -0.1500 
 12 C       -0.5740     4.1170     0.6360 C.ar  1 <1>  -0.1500 
 13 N       -5.0480    -1.4310    -0.2400 N.3   1 <1>  -0.8100 
 14 C       -6.2760     0.6110     0.4720 C.3   1 <1>   0.1200 
 15 C       -1.0950     4.9720    -0.3310 C.ar  1 <1>   0.0820 
 16 C       -5.8930    -2.1980     0.7060 C.3   1 <1>   0.3330 
 17 O       -7.0230    -0.1460     1.3810 O.3   1 <1>  -0.5600 
 18 O       -0.9990     6.3200    -0.2780 O.3   1 <1>  -0.3630 
 19 C       -6.1780    -3.6030     0.1760 C.ar  1 <1>  -0.1430 
 20 C       -7.2300    -1.4680     0.9590 C.3   1 <1>   0.1200 
 21 C       -0.2950     6.9750     0.7510 C.3   1 <1>   0.1200 
 22 C       -6.5910    -3.7990    -1.1350 C.ar  1 <1>  -0.1500 
 23 C       -6.0290    -4.7040     1.0070 C.ar  1 <1>  -0.1500 
 24 C       -0.3600     8.4760     0.4850 C.3   1 <1>  -0.2400 
 25 C       -6.8540    -5.0730    -1.6070 C.ar  1 <1>  -0.1500 
 26 C       -6.2910    -5.9790     0.5370 C.ar  1 <1>  -0.1500 
 27 C       -6.7040    -6.1650    -0.7710 C.ar  1 <1>  -0.1500 
 28 H       -3.9450     1.7920    -0.3600 H     1 <1>   0.0800 
 29 H       -4.6200     0.8880    -1.6880 H     1 <1>   0.0800 
 30 H       -3.3140    -1.3400    -2.3940 H     1 <1>   0.0800 
 31 H       -1.8840    -1.7230    -1.4850 H     1 <1>   0.0800 
 32 H       -2.3900     2.6580    -2.4170 H     1 <1>   0.1500 
 33 H       -0.3100     2.0880     1.2440 H     1 <1>   0.1500 
 34 H       -4.3690    -0.0320     1.1760 H     1 <1>   0.0800 
 35 H       -3.1970    -2.0900     0.5310 H     1 <1>   0.0800 
 36 H       -3.8240    -3.0610    -0.7720 H     1 <1>   0.0800 
 37 H       -2.1430     5.0960    -2.1750 H     1 <1>   0.1500 
 38 H       -0.0550     4.4980     1.4940 H     1 <1>   0.1500 
 39 H       -6.8260     0.6810    -0.4500 H     1 <1>   0.0800 
 40 H       -6.1640     1.5970     0.8870 H     1 <1>   0.0800 
 41 H       -5.3790    -2.2780     1.6480 H     1 <1>   0.0800 
 42 H       -7.7850    -1.9760     1.7270 H     1 <1>   0.0800 
 43 H       -7.8220    -1.4530     0.0610 H     1 <1>   0.0800 
 44 H       -0.7620     6.7350     1.6900 H     1 <1>   0.0800 
 45 H        0.7250     6.6310     0.7390 H     1 <1>   0.0800 
 46 H       -6.7030    -2.9520    -1.7910 H     1 <1>   0.1500 
 47 H       -5.7100    -4.5760     2.0260 H     1 <1>   0.1500 
 48 H       -1.3830     8.8070     0.4820 H     1 <1>   0.0800 
 49 H        0.0940     8.7030    -0.4630 H     1 <1>   0.0800 
 50 H        0.1700     9.0070     1.2550 H     1 <1>   0.0800 
 51 H       -7.1740    -5.2140    -2.6250 H     1 <1>   0.1500 
 52 H       -6.1740    -6.8280     1.1880 H     1 <1>   0.1500 
 53 H       -6.9080    -7.1560    -1.1370 H     1 <1>   0.1500 
@<TRIPOS>BOND
  1   1   2  2   
  2   2   3  am  
  3   2   4  1   
  4   3   5  1   
  5   3   6  1   
  6   4   7  ar  
  7   4   8  ar  
  8   5   9  1   
  9   5  28  1   
 10   5  29  1   
 11   6  10  1   
 12   6  30  1   
 13   6  31  1   
 14   7  11  ar  
 15   7  32  1   
 16   8  12  ar  
 17   8  33  1   
 18   9  13  1   
 19   9  14  1   
 20   9  34  1   
 21  10  13  1   
 22  10  35  1   
 23  10  36  1   
 24  11  15  ar  
 25  11  37  1   
 26  12  15  ar  
 27  12  38  1   
 28  13  16  1   
 29  14  17  1   
 30  14  39  1   
 31  14  40  1   
 32  15  18  1   
 33  16  19  1   
 34  16  20  1   
 35  16  41  1   
 36  17  20  1   
 37  18  21  1   
 38  19  22  ar  
 39  19  23  ar  
 40  20  42  1   
 41  20  43  1   
 42  21  24  1   
 43  21  44  1   
 44  21  45  1   
 45  22  25  ar  
 46  22  46  1   
 47  23  26  ar  
 48  23  47  1   
 49  24  48  1   
 50  24  49  1   
 51  24  50  1   
 52  25  27  ar  
 53  25  51  1   
 54  26  27  ar  
 55  26  52  1   
 56  27  53  1   
@<TRIPOS>SUBSTRUCTURE
  1 ****   5 GROUP 4 **** **** 0

# MOE 2024.06 (io_trps.svl 2023.06)
