@<TRIPOS>MOLECULE
NONAME
62 65 1 0 0 
SMALL
USER_CHARGES


@<TRIPOS>ATOM
  1 O        0.4580     0.0100     0.0230 O.2   1 <1>  -0.5700 
  2 C        0.9440    -1.0800    -0.1690 C.2   1 <1>   0.5690 
  3 N        2.1790    -1.1740    -0.7790 N.am  1 <1>  -0.6600 
  4 C        0.0960    -2.2530     0.3010 C.3   1 <1>  -0.0990 
  5 C        2.7340    -2.4680    -1.3000 C.3   1 <1>   0.1400 
  6 C        2.8380     0.0820    -1.2730 C.3   1 <1>   0.1400 
  7 C        0.6720    -3.6620     0.1920 C.3   1 <1>   0.1200 
  8 C        3.0320    -3.5340    -0.2000 C.3   1 <1>   0.2800 
  9 C        3.1480     1.0680    -0.1200 C.3   1 <1>   0.3430 
 10 O        1.9720    -3.6600     0.6930 O.3   1 <1>  -0.5600 
 11 C        3.2790    -4.9350    -0.7900 C.3   1 <1>  -0.1600 
 12 C        4.2200    -3.1250     0.6860 C.3   1 <1>  -0.1600 
 13 N        2.8140     2.4940    -0.4510 N.4   1 <1>  -0.9590 
 14 C        4.6460    -5.0730    -1.4530 C.3   1 <1>   0.3430 
 15 C        5.5700    -3.2940    -0.0030 C.3   1 <1>   0.3430 
 16 C        3.4340     3.4380     0.5410 C.3   1 <1>   0.3430 
 17 C        1.3180     2.7030    -0.4590 C.3   1 <1>   0.3430 
 18 N        5.7090    -4.6970    -0.4840 N.4   1 <1>  -0.9590 
 19 C        2.9950     4.8930     0.2870 C.3   1 <1>   0.1200 
 20 C        0.9490     4.1860    -0.6580 C.3   1 <1>   0.1200 
 21 C        7.0710    -4.9780    -1.0260 C.3   1 <1>   0.4860 
 22 O        1.6000     4.9860     0.2870 O.3   1 <1>  -0.5600 
 23 C        8.0980    -4.7320     0.0630 C.ar  1 <1>  -0.1440 
 24 C        8.9850    -3.6730    -0.0040 C.ar  1 <1>  -0.1500 
 25 C        8.2010    -5.5470     1.1750 C.ar  1 <1>  -0.1500 
 26 C        9.8920    -3.4760     1.0230 C.ar  1 <1>   0.1600 
 27 C        9.1440    -5.2600     2.1470 C.ar  1 <1>   0.1600 
 28 N        9.9820    -4.2400     2.0960 N.ar  1 <1>  -0.6200 
 29 H       -0.8350    -2.2250    -0.2340 H     1 <1>   0.0800 
 30 H       -0.1410    -2.0790     1.3340 H     1 <1>   0.0800 
 31 H        3.6370    -2.2780    -1.8500 H     1 <1>   0.0800 
 32 H        2.0340    -2.8690    -2.0130 H     1 <1>   0.0800 
 33 H        2.1740     0.5430    -1.9840 H     1 <1>   0.0800 
 34 H        3.7550    -0.1510    -1.7830 H     1 <1>   0.0800 
 35 H        0.6470    -4.0300    -0.8180 H     1 <1>   0.0800 
 36 H        0.0910    -4.3310     0.8050 H     1 <1>   0.0800 
 37 H        4.1930     0.9900     0.1250 H     1 <1>   0.0800 
 38 H        2.5820     0.7730     0.7500 H     1 <1>   0.0800 
 39 H        2.5230    -5.1690    -1.5170 H     1 <1>   0.0800 
 40 H        3.2080    -5.6680    -0.0050 H     1 <1>   0.0800 
 41 H        4.2220    -3.7260     1.5790 H     1 <1>   0.0800 
 42 H        4.1050    -2.1020     0.9940 H     1 <1>   0.0800 
 43 H        3.1690     2.7390    -1.3840 H     1 <1>   0.4500 
 44 H        4.6990    -4.4380    -2.3230 H     1 <1>   0.0800 
 45 H        4.7830    -6.0950    -1.7740 H     1 <1>   0.0800 
 46 H        6.3540    -3.0660     0.7030 H     1 <1>   0.0800 
 47 H        5.6510    -2.6110    -0.8320 H     1 <1>   0.0800 
 48 H        4.5090     3.3780     0.4890 H     1 <1>   0.0800 
 49 H        3.1350     3.1650     1.5400 H     1 <1>   0.0800 
 50 H        0.9000     2.3720     0.4790 H     1 <1>   0.0800 
 51 H        0.8620     2.1130    -1.2360 H     1 <1>   0.0800 
 52 H        5.6060    -5.2970     0.3470 H     1 <1>   0.4500 
 53 H        3.3670     5.2560    -0.6560 H     1 <1>   0.0800 
 54 H        3.3630     5.5340     1.0700 H     1 <1>   0.0800 
 55 H       -0.1110     4.3210    -0.5250 H     1 <1>   0.0800 
 56 H        1.2160     4.5250    -1.6430 H     1 <1>   0.0800 
 57 H        7.2750    -4.3420    -1.8720 H     1 <1>   0.0800 
 58 H        7.1380    -6.0040    -1.3490 H     1 <1>   0.0800 
 59 H        8.9940    -2.9950    -0.8390 H     1 <1>   0.1500 
 60 H        7.5700    -6.4080     1.3080 H     1 <1>   0.1500 
 61 H       10.5810    -2.6490     0.9610 H     1 <1>   0.1500 
 62 H        9.2170    -5.9010     3.0110 H     1 <1>   0.1500 
@<TRIPOS>BOND
  1   1   2  2   
  2   2   3  am  
  3   2   4  1   
  4   3   5  1   
  5   3   6  1   
  6   4   7  1   
  7   4  29  1   
  8   4  30  1   
  9   5   8  1   
 10   5  31  1   
 11   5  32  1   
 12   6   9  1   
 13   6  33  1   
 14   6  34  1   
 15   7  10  1   
 16   7  35  1   
 17   7  36  1   
 18   8  10  1   
 19   8  11  1   
 20   8  12  1   
 21   9  13  1   
 22   9  37  1   
 23   9  38  1   
 24  11  14  1   
 25  11  39  1   
 26  11  40  1   
 27  12  15  1   
 28  12  41  1   
 29  12  42  1   
 30  13  16  1   
 31  13  17  1   
 32  13  43  1   
 33  14  18  1   
 34  14  44  1   
 35  14  45  1   
 36  15  18  1   
 37  15  46  1   
 38  15  47  1   
 39  16  19  1   
 40  16  48  1   
 41  16  49  1   
 42  17  20  1   
 43  17  50  1   
 44  17  51  1   
 45  18  21  1   
 46  18  52  1   
 47  19  22  1   
 48  19  53  1   
 49  19  54  1   
 50  20  22  1   
 51  20  55  1   
 52  20  56  1   
 53  21  23  1   
 54  21  57  1   
 55  21  58  1   
 56  23  24  ar  
 57  23  25  ar  
 58  24  26  ar  
 59  24  59  1   
 60  25  27  ar  
 61  25  60  1   
 62  26  28  ar  
 63  26  61  1   
 64  27  28  ar  
 65  27  62  1   
@<TRIPOS>SUBSTRUCTURE
  1 ****  12 GROUP 4 **** **** 0

# MOE 2024.06 (io_trps.svl 2023.06)
