@<TRIPOS>MOLECULE
NONAME
54 57 1 0 0 
SMALL
USER_CHARGES


@<TRIPOS>ATOM
  1 O       -0.2290    -0.1220     0.3120 O.2   1 <1>  -0.5700 
  2 C       -1.1970     0.5430    -0.0010 C.2   1 <1>   0.7160 
  3 N       -2.2400    -0.0830    -0.6090 N.am  1 <1>  -0.7300 
  4 C       -1.2570     1.9510     0.2580 C.2   1 <1>  -0.0860 
  5 C       -2.3850    -1.5400    -0.8480 C.3   1 <1>   0.1400 
  6 C       -2.4090     2.7510     0.2190 C.2   1 <1>   0.3720 
  7 C       -0.2810     2.8350     0.6090 C.2   1 <1>   0.0870 
  8 C       -3.7790    -2.0430    -0.4150 C.3   1 <1>   0.0000 
  9 N       -2.1410     3.9710     0.5250 N.2   1 <1>  -0.4100 
 10 N       -3.7080     2.3190    -0.0870 N.pl3 1 <1>  -0.8210 
 11 O       -0.8580     4.0000     0.7580 O.3   1 <1>  -0.0190 
 12 C        1.1420     2.7310     0.8160 C.ar  1 <1>   0.0530 
 13 C       -3.8690    -3.5710    -0.5080 C.3   1 <1>  -0.1600 
 14 C       -4.0490    -1.7870     1.0740 C.3   1 <1>  -0.1600 
 15 C       -4.8800    -1.4040    -1.2860 C.3   1 <1>  -0.2400 
 16 C       -4.5810     2.2850     1.1280 C.3   1 <1>   0.2090 
 17 C       -4.3660     3.1490    -1.1470 C.3   1 <1>   0.2090 
 18 C        1.9560     1.9440     0.0010 C.ar  1 <1>  -0.1500 
 19 C        1.7630     3.4430     1.8430 C.ar  1 <1>  -0.1500 
 20 C       -4.9470    -3.9920     0.4950 C.3   1 <1>  -0.1600 
 21 C       -5.0620    -2.8490     1.5090 C.3   1 <1>  -0.1600 
 22 C       -6.0200     1.8590     0.7790 C.3   1 <1>   0.1200 
 23 C       -5.8100     2.6840    -1.4100 C.3   1 <1>   0.1200 
 24 C        3.3210     1.8650     0.2050 C.ar  1 <1>  -0.1500 
 25 C        3.1280     3.3710     2.0520 C.ar  1 <1>  -0.1500 
 26 O       -6.5560     2.6720    -0.2250 O.3   1 <1>  -0.5600 
 27 C        3.9110     2.5790     1.2320 C.ar  1 <1>  -0.1500 
 28 H       -3.0860     0.4920    -0.7200 H     1 <1>   0.3700 
 29 H       -1.6230    -2.0690    -0.3020 H     1 <1>   0.0800 
 30 H       -2.2370    -1.7380    -1.8960 H     1 <1>   0.0800 
 31 H       -2.9330    -4.0070    -0.2000 H     1 <1>   0.0800 
 32 H       -4.0920    -3.9120    -1.5040 H     1 <1>   0.0800 
 33 H       -4.4030    -0.7910     1.2620 H     1 <1>   0.0800 
 34 H       -3.1370    -1.9330     1.6290 H     1 <1>   0.0800 
 35 H       -4.7190    -1.6420    -2.3230 H     1 <1>   0.0800 
 36 H       -4.8740    -0.3360    -1.1830 H     1 <1>   0.0800 
 37 H       -5.8540    -1.7610    -1.0070 H     1 <1>   0.0800 
 38 H       -4.6080     3.2610     1.5840 H     1 <1>   0.0800 
 39 H       -4.1680     1.5970     1.8440 H     1 <1>   0.0800 
 40 H       -3.7960     3.0800    -2.0580 H     1 <1>   0.0800 
 41 H       -4.3850     4.1840    -0.8470 H     1 <1>   0.0800 
 42 H        1.5140     1.3840    -0.8040 H     1 <1>   0.1500 
 43 H        1.1630     4.0620     2.4870 H     1 <1>   0.1500 
 44 H       -4.6820    -4.9190     0.9760 H     1 <1>   0.0800 
 45 H       -5.8880    -4.1230    -0.0110 H     1 <1>   0.0800 
 46 H       -6.0570    -2.4410     1.4820 H     1 <1>   0.0800 
 47 H       -4.8530    -3.1890     2.5090 H     1 <1>   0.0800 
 48 H       -6.6510     1.9510     1.6450 H     1 <1>   0.0800 
 49 H       -6.0440     0.8370     0.4450 H     1 <1>   0.0800 
 50 H       -5.8200     1.6960    -1.8340 H     1 <1>   0.0800 
 51 H       -6.2950     3.3570    -2.0940 H     1 <1>   0.0800 
 52 H        3.9250     1.2450    -0.4360 H     1 <1>   0.1500 
 53 H        3.5810     3.9290     2.8520 H     1 <1>   0.1500 
 54 H        4.9730     2.5180     1.3920 H     1 <1>   0.1500 
@<TRIPOS>BOND
  1   1   2  2   
  2   2   3  am  
  3   2   4  1   
  4   3   5  1   
  5   3  28  1   
  6   4   6  1   
  7   4   7  2   
  8   5   8  1   
  9   5  29  1   
 10   5  30  1   
 11   6   9  2   
 12   6  10  1   
 13   7  11  1   
 14   7  12  1   
 15   8  13  1   
 16   8  14  1   
 17   8  15  1   
 18   9  11  1   
 19  10  16  1   
 20  10  17  1   
 21  12  18  ar  
 22  12  19  ar  
 23  13  20  1   
 24  13  31  1   
 25  13  32  1   
 26  14  21  1   
 27  14  33  1   
 28  14  34  1   
 29  15  35  1   
 30  15  36  1   
 31  15  37  1   
 32  16  22  1   
 33  16  38  1   
 34  16  39  1   
 35  17  23  1   
 36  17  40  1   
 37  17  41  1   
 38  18  24  ar  
 39  18  42  1   
 40  19  25  ar  
 41  19  43  1   
 42  20  21  1   
 43  20  44  1   
 44  20  45  1   
 45  21  46  1   
 46  21  47  1   
 47  22  26  1   
 48  22  48  1   
 49  22  49  1   
 50  23  26  1   
 51  23  50  1   
 52  23  51  1   
 53  24  27  ar  
 54  24  52  1   
 55  25  27  ar  
 56  25  53  1   
 57  27  54  1   
@<TRIPOS>SUBSTRUCTURE
  1 ****   2 GROUP 4 **** **** 0

# MOE 2024.06 (io_trps.svl 2023.06)
