@<TRIPOS>MOLECULE
NONAME
51 54 1 0 0 
SMALL
USER_CHARGES


@<TRIPOS>ATOM
  1 O       -0.7870     0.7780     1.3430 O.2   1 <1>  -0.5700 
  2 C       -1.2900     1.2550     0.3350 C.2   1 <1>   0.7160 
  3 N       -2.3430     0.5460    -0.2300 N.am  1 <1>  -0.6600 
  4 C       -0.7600     2.5270    -0.1680 C.2   1 <1>   0.2030 
  5 C       -2.8030    -0.7550     0.3520 C.3   1 <1>   0.1400 
  6 C       -3.2670     1.0860    -1.2660 C.3   1 <1>   0.1400 
  7 N       -1.0530     3.1600    -1.2940 N.2   1 <1>  -0.7070 
  8 C        0.1960     3.2660     0.5500 C.2   1 <1>  -0.1500 
  9 C       -3.9380    -0.5580     1.3710 C.3   1 <1>   0.1400 
 10 C       -4.2680     2.0800    -0.6610 C.3   1 <1>  -0.1600 
 11 N       -0.2970     4.2780    -1.2840 N.pl3 1 <1>   0.3000 
 12 C        0.4770     4.3640    -0.1790 C.2   1 <1>  -0.0680 
 13 N       -5.0830     0.2290     0.8040 N.am  1 <1>  -0.6600 
 14 C       -4.8260     1.6930     0.7160 C.3   1 <1>   0.1400 
 15 N        1.3690     5.4020     0.1160 N.pl3 1 <1>  -0.8840 
 16 C       -6.2540    -0.3060     0.3350 C.2   1 <1>   0.5690 
 17 O       -7.1430     0.3930    -0.0930 O.2   1 <1>  -0.5700 
 18 C       -6.4470    -1.8130     0.3260 C.3   1 <1>  -0.0990 
 19 C       -7.7050    -2.2710    -0.4290 C.3   1 <1>   0.0200 
 20 C       -7.8350    -3.7870    -0.4700 C.2   1 <1>   0.0060 
 21 N       -6.9430    -4.6210    -0.0550 N.2   1 <1>  -0.5650 
 22 N       -8.9460    -4.3840    -0.9720 N.pl3 1 <1>   0.0330 
 23 C       -7.4870    -5.8470    -0.2920 C.ar  1 <1>   0.2270 
 24 C       -8.7380    -5.7190    -0.8640 C.ar  1 <1>  -0.1520 
 25 C       -6.9640    -7.1150    -0.0420 C.ar  1 <1>  -0.1500 
 26 C       -9.5010    -6.8390    -1.2020 C.ar  1 <1>  -0.1500 
 27 C       -7.7080    -8.2270    -0.3720 C.ar  1 <1>  -0.1500 
 28 C       -8.9760    -8.0880    -0.9520 C.ar  1 <1>  -0.1500 
 29 H       -1.9800    -1.2520     0.8360 H     1 <1>   0.0800 
 30 H       -3.1390    -1.4040    -0.4370 H     1 <1>   0.0800 
 31 H       -3.8190     0.2710    -1.7010 H     1 <1>   0.0800 
 32 H       -2.7160     1.5430    -2.0680 H     1 <1>   0.0800 
 33 H        0.6060     2.9790     1.5010 H     1 <1>   0.1500 
 34 H       -3.5440    -0.0430     2.2300 H     1 <1>   0.0800 
 35 H       -4.2730    -1.5200     1.7120 H     1 <1>   0.0800 
 36 H       -5.0910     2.1880    -1.3450 H     1 <1>   0.0800 
 37 H       -3.8030     3.0460    -0.5840 H     1 <1>   0.0800 
 38 H       -0.3330     4.9850    -2.0250 H     1 <1>   0.2700 
 39 H       -5.7390     2.2350     0.9010 H     1 <1>   0.0800 
 40 H       -4.1210     1.9780     1.4780 H     1 <1>   0.0800 
 41 H        2.0070     5.6710    -0.6430 H     1 <1>   0.4000 
 42 H        1.9100     5.2530     0.9760 H     1 <1>   0.4000 
 43 H       -6.5050    -2.1600     1.3400 H     1 <1>   0.0800 
 44 H       -5.5900    -2.2630    -0.1400 H     1 <1>   0.0800 
 45 H       -7.6670    -1.8980    -1.4380 H     1 <1>   0.0800 
 46 H       -8.5730    -1.8550     0.0510 H     1 <1>   0.0800 
 47 H       -9.7760    -3.9250    -1.3550 H     1 <1>   0.2700 
 48 H       -5.9900    -7.1910     0.4030 H     1 <1>   0.1500 
 49 H      -10.4730    -6.7220    -1.6470 H     1 <1>   0.1500 
 50 H       -7.3200    -9.2140    -0.1860 H     1 <1>   0.1500 
 51 H       -9.5370    -8.9720    -1.2000 H     1 <1>   0.1500 
@<TRIPOS>BOND
  1   1   2  2   
  2   2   3  am  
  3   2   4  1   
  4   3   5  1   
  5   3   6  1   
  6   4   7  2   
  7   4   8  1   
  8   5   9  1   
  9   5  29  1   
 10   5  30  1   
 11   6  10  1   
 12   6  31  1   
 13   6  32  1   
 14   7  11  1   
 15   8  12  2   
 16   8  33  1   
 17   9  13  1   
 18   9  34  1   
 19   9  35  1   
 20  10  14  1   
 21  10  36  1   
 22  10  37  1   
 23  11  12  1   
 24  11  38  1   
 25  12  15  1   
 26  13  14  1   
 27  13  16  am  
 28  14  39  1   
 29  14  40  1   
 30  15  41  1   
 31  15  42  1   
 32  16  17  2   
 33  16  18  1   
 34  18  19  1   
 35  18  43  1   
 36  18  44  1   
 37  19  20  1   
 38  19  45  1   
 39  19  46  1   
 40  20  21  2   
 41  20  22  1   
 42  21  23  1   
 43  22  24  1   
 44  22  47  1   
 45  23  24  ar  
 46  23  25  ar  
 47  24  26  ar  
 48  25  27  ar  
 49  25  48  1   
 50  26  28  ar  
 51  26  49  1   
 52  27  28  ar  
 53  27  50  1   
 54  28  51  1   
@<TRIPOS>SUBSTRUCTURE
  1 ****  13 GROUP 4 **** **** 0

# MOE 2024.06 (io_trps.svl 2023.06)
