@<TRIPOS>MOLECULE
NONAME
45 46 1 0 0 
SMALL
USER_CHARGES


@<TRIPOS>ATOM
  1 CL      -0.4380    -0.7580     1.0830 Cl    1 <1>  -0.1770 
  2 C       -0.5120    -2.3170     0.3080 C.ar  1 <1>   0.1770 
  3 C       -0.7490    -3.4410     1.0690 C.ar  1 <1>  -0.1500 
  4 C       -0.3350    -2.4030    -1.0590 C.ar  1 <1>  -0.1500 
  5 C       -0.8110    -4.6920     0.4580 C.ar  1 <1>   0.0830 
  6 C       -0.3930    -3.6430    -1.6640 C.ar  1 <1>  -0.1500 
  7 O       -1.0630    -5.8120     1.1850 O.3   1 <1>  -0.3630 
  8 C       -0.6220    -4.8130    -0.9330 C.ar  1 <1>   0.0860 
  9 C       -1.0890    -5.8250     2.5970 C.3   1 <1>   0.0400 
 10 C       -0.6530    -6.0840    -1.6350 C.2   1 <1>   0.5440 
 11 O       -1.0520    -6.1560    -2.7810 O.2   1 <1>  -0.5700 
 12 N       -0.2450    -7.2360    -1.0320 N.am  1 <1>  -0.7300 
 13 C       -0.4040    -8.6090    -1.5570 C.3   1 <1>   0.2200 
 14 C       -1.6770    -9.2420    -1.0150 C.3   1 <1>  -0.0800 
 15 C        0.6440    -9.5000    -0.9040 C.3   1 <1>   0.1200 
 16 C       -1.2480    -9.7080     0.3810 C.3   1 <1>   0.1200 
 17 C       -2.9260    -8.3340    -1.0510 C.3   1 <1>  -0.0550 
 18 O        0.1500    -9.7740     0.3730 O.3   1 <1>  -0.5600 
 19 S       -4.4300    -9.1170    -0.4650 S.o2  1 <1>   1.3330 
 20 O       -5.5510    -8.2340    -0.6930 O.2   1 <1>  -0.6500 
 21 O       -4.4660   -10.4680    -0.9790 O.2   1 <1>  -0.6500 
 22 N       -4.2060    -9.2080     1.2170 N.am  1 <1>  -0.8490 
 23 C       -4.4720    -7.9390     1.9040 C.3   1 <1>   0.1160 
 24 C       -5.0110   -10.2740     1.8190 C.3   1 <1>   0.1160 
 25 H       -0.8860    -3.3100     2.1250 H     1 <1>   0.1500 
 26 H       -0.1560    -1.5110    -1.6330 H     1 <1>   0.1500 
 27 H       -0.2580    -3.7160    -2.7310 H     1 <1>   0.1500 
 28 H       -1.2250    -6.8420     2.9200 H     1 <1>   0.0800 
 29 H       -1.9090    -5.2210     2.9400 H     1 <1>   0.0800 
 30 H       -0.1510    -5.4490     2.9680 H     1 <1>   0.0800 
 31 H       -0.0490    -7.1990    -0.0260 H     1 <1>   0.3700 
 32 H       -0.3480    -8.6180    -2.6330 H     1 <1>   0.0800 
 33 H       -1.8840   -10.1220    -1.6000 H     1 <1>   0.0800 
 34 H        1.6060    -9.0250    -0.8290 H     1 <1>   0.0800 
 35 H        0.7330   -10.4340    -1.4310 H     1 <1>   0.0800 
 36 H       -1.6470   -10.6780     0.6220 H     1 <1>   0.0800 
 37 H       -1.5310    -8.9990     1.1390 H     1 <1>   0.0800 
 38 H       -3.0780    -8.0250    -2.0680 H     1 <1>   0.0800 
 39 H       -2.7520    -7.4470    -0.4750 H     1 <1>   0.0800 
 40 H       -4.2390    -8.0300     2.9510 H     1 <1>   0.0800 
 41 H       -5.5080    -7.6620     1.7990 H     1 <1>   0.0800 
 42 H       -3.8620    -7.1540     1.4890 H     1 <1>   0.0800 
 43 H       -4.8420   -10.3180     2.8810 H     1 <1>   0.0800 
 44 H       -4.7370   -11.2270     1.3960 H     1 <1>   0.0800 
 45 H       -6.0590   -10.1030     1.6330 H     1 <1>   0.0800 
@<TRIPOS>BOND
  1   1   2  1   
  2   2   3  ar  
  3   2   4  ar  
  4   3   5  ar  
  5   3  25  1   
  6   4   6  ar  
  7   4  26  1   
  8   5   7  1   
  9   5   8  ar  
 10   6   8  ar  
 11   6  27  1   
 12   7   9  1   
 13   8  10  1   
 14   9  28  1   
 15   9  29  1   
 16   9  30  1   
 17  10  11  2   
 18  10  12  am  
 19  12  13  1   
 20  12  31  1   
 21  13  14  1   
 22  13  15  1   
 23  13  32  1   
 24  14  16  1   
 25  14  17  1   
 26  14  33  1   
 27  15  18  1   
 28  15  34  1   
 29  15  35  1   
 30  16  18  1   
 31  16  36  1   
 32  16  37  1   
 33  17  19  1   
 34  17  38  1   
 35  17  39  1   
 36  19  20  2   
 37  19  21  2   
 38  19  22  am  
 39  22  23  1   
 40  22  24  1   
 41  23  40  1   
 42  23  41  1   
 43  23  42  1   
 44  24  43  1   
 45  24  44  1   
 46  24  45  1   
@<TRIPOS>SUBSTRUCTURE
  1 ****  12 GROUP 4 **** **** 0

# MOE 2024.06 (io_trps.svl 2023.06)
