@<TRIPOS>MOLECULE
NONAME
51 53 1 0 0 
SMALL
USER_CHARGES


@<TRIPOS>ATOM
  1 S       -0.7210    -0.0380     1.2050 S.o2  1 <1>   1.3330 
  2 O       -1.2020    -0.5740     2.4550 O.2   1 <1>  -0.6500 
  3 O       -0.8500     1.3670     0.9030 O.2   1 <1>  -0.6500 
  4 N       -1.4710    -0.9080    -0.0980 N.am  1 <1>  -0.6930 
  5 C        0.9880    -0.4880     0.9970 C.3   1 <1>  -0.1350 
  6 C       -1.4990    -2.2940    -0.1580 C.ar  1 <1>   0.1990 
  7 C       -2.0060    -0.1030    -1.2240 C.3   1 <1>   0.1160 
  8 C       -2.0500    -3.0570     0.8650 C.ar  1 <1>  -0.1500 
  9 C       -0.9640    -2.9660    -1.2530 C.ar  1 <1>  -0.1500 
 10 C       -2.0590    -4.4370     0.8000 C.ar  1 <1>  -0.1500 
 11 C       -0.9780    -4.3450    -1.3180 C.ar  1 <1>  -0.1500 
 12 C       -1.5310    -5.1190    -0.2980 C.ar  1 <1>   0.0860 
 13 C       -1.5400    -6.5660    -0.3830 C.2   1 <1>   0.5440 
 14 O       -0.5500    -7.1510    -0.7840 O.2   1 <1>  -0.5700 
 15 N       -2.6470    -7.3100    -0.0400 N.am  1 <1>  -0.6600 
 16 C       -4.0430    -6.8030    -0.0600 C.3   1 <1>   0.1400 
 17 C       -2.6350    -8.7950    -0.0740 C.3   1 <1>   0.1400 
 18 C       -4.8970    -8.0270    -0.3870 C.3   1 <1>   0.2000 
 19 C       -4.0920    -9.2190     0.1200 C.3   1 <1>  -0.0800 
 20 O       -6.1300    -7.9740     0.2430 O.3   1 <1>  -0.6800 
 21 C       -4.4470   -10.5360    -0.5850 C.3   1 <1>   0.0210 
 22 C       -3.5530   -11.6630    -0.1060 C.2   1 <1>   0.1080 
 23 N       -3.5550   -12.0900     1.1180 N.2   1 <1>  -0.7070 
 24 C       -2.6380   -12.3460    -0.9000 C.2   1 <1>  -0.1500 
 25 N       -2.6320   -13.0700     1.1380 N.pl3 1 <1>   0.3000 
 26 C       -2.0610   -13.2430    -0.0730 C.2   1 <1>  -0.3320 
 27 C       -0.9830   -14.2690    -0.3690 C.3   1 <1>  -0.0600 
 28 H        1.1070    -1.5480     1.1060 H     1 <1>   0.0800 
 29 H        1.5890     0.0030     1.7360 H     1 <1>   0.0800 
 30 H        1.3310    -0.1980     0.0240 H     1 <1>   0.0800 
 31 H       -2.5160    -0.7350    -1.9300 H     1 <1>   0.0800 
 32 H       -1.2020     0.4120    -1.7200 H     1 <1>   0.0800 
 33 H       -2.7040     0.6240    -0.8460 H     1 <1>   0.0800 
 34 H       -2.4770    -2.5620     1.7200 H     1 <1>   0.1500 
 35 H       -0.5270    -2.3990    -2.0550 H     1 <1>   0.1500 
 36 H       -2.4740    -5.0020     1.6160 H     1 <1>   0.1500 
 37 H       -0.5520    -4.8490    -2.1700 H     1 <1>   0.1500 
 38 H       -4.2930    -6.4180     0.9130 H     1 <1>   0.0800 
 39 H       -4.1650    -6.0400    -0.8090 H     1 <1>   0.0800 
 40 H       -2.2610    -9.1220    -1.0290 H     1 <1>   0.0800 
 41 H       -2.0050    -9.1880     0.7060 H     1 <1>   0.0800 
 42 H       -5.0590    -8.0830    -1.4500 H     1 <1>   0.0800 
 43 H       -4.2460    -9.3360     1.1790 H     1 <1>   0.0800 
 44 H       -6.0190    -8.0760     1.2090 H     1 <1>   0.4000 
 45 H       -4.3450   -10.4270    -1.6490 H     1 <1>   0.0800 
 46 H       -5.4690   -10.7940    -0.3710 H     1 <1>   0.0800 
 47 H       -2.4490   -12.1740    -1.9450 H     1 <1>   0.1500 
 48 H       -2.4160   -13.6000     1.9900 H     1 <1>   0.2700 
 49 H       -0.6910   -14.2100    -1.4030 H     1 <1>   0.0800 
 50 H       -1.3490   -15.2610    -0.1720 H     1 <1>   0.0800 
 51 H       -0.1170   -14.0850     0.2420 H     1 <1>   0.0800 
@<TRIPOS>BOND
  1   1   2  2   
  2   1   3  2   
  3   1   4  am  
  4   1   5  1   
  5   4   6  1   
  6   4   7  1   
  7   5  28  1   
  8   5  29  1   
  9   5  30  1   
 10   6   8  ar  
 11   6   9  ar  
 12   7  31  1   
 13   7  32  1   
 14   7  33  1   
 15   8  10  ar  
 16   8  34  1   
 17   9  11  ar  
 18   9  35  1   
 19  10  12  ar  
 20  10  36  1   
 21  11  12  ar  
 22  11  37  1   
 23  12  13  1   
 24  13  14  2   
 25  13  15  am  
 26  15  16  1   
 27  15  17  1   
 28  16  18  1   
 29  16  38  1   
 30  16  39  1   
 31  17  19  1   
 32  17  40  1   
 33  17  41  1   
 34  18  19  1   
 35  18  20  1   
 36  18  42  1   
 37  19  21  1   
 38  19  43  1   
 39  20  44  1   
 40  21  22  1   
 41  21  45  1   
 42  21  46  1   
 43  22  23  2   
 44  22  24  1   
 45  23  25  1   
 46  24  26  2   
 47  24  47  1   
 48  25  26  1   
 49  25  48  1   
 50  26  27  1   
 51  27  49  1   
 52  27  50  1   
 53  27  51  1   
@<TRIPOS>SUBSTRUCTURE
  1 ****  13 GROUP 4 **** **** 0

# MOE 2024.06 (io_trps.svl 2023.06)
