@<TRIPOS>MOLECULE
NONAME
40 41 1 0 0 
SMALL
USER_CHARGES


@<TRIPOS>ATOM
  1 S       -0.9080    -0.4260     0.2380 S.o2  1 <1>   1.3330 
  2 O        0.3170    -0.0460    -0.4150 O.2   1 <1>  -0.6500 
  3 O       -2.1720     0.1590    -0.1340 O.2   1 <1>  -0.6500 
  4 N       -1.0130    -2.0700    -0.0390 N.am  1 <1>  -0.9140 
  5 C       -0.7110    -0.3330     2.0040 C.3   1 <1>  -0.1350 
  6 C       -1.6630    -2.3560    -1.3400 C.3   1 <1>   0.2570 
  7 C       -1.7420    -3.8490    -1.6770 C.2   1 <1>   0.5690 
  8 O       -1.8480    -4.1960    -2.8280 O.2   1 <1>  -0.5700 
  9 N       -1.7020    -4.7510    -0.6640 N.am  1 <1>  -0.7300 
 10 C       -1.7970    -6.2210    -0.7990 C.3   1 <1>   0.2200 
 11 C       -3.1550    -6.7280    -0.3300 C.3   1 <1>  -0.0800 
 12 C       -0.8880    -6.8680     0.2360 C.3   1 <1>   0.1200 
 13 C       -2.9720    -6.8510     1.1880 C.3   1 <1>   0.1200 
 14 C       -4.3720    -5.8870    -0.7570 C.3   1 <1>  -0.0170 
 15 O       -1.5960    -6.7930     1.4360 O.3   1 <1>  -0.5600 
 16 C       -5.6680    -6.5210    -0.2770 C.ar  1 <1>  -0.1430 
 17 C       -6.3320    -6.0680     0.8450 C.ar  1 <1>  -0.1500 
 18 C       -6.2470    -7.5840    -0.9400 C.ar  1 <1>  -0.1500 
 19 C       -7.5070    -6.6860     1.2410 C.ar  1 <1>   0.1600 
 20 C       -7.4250    -8.1310    -0.4600 C.ar  1 <1>   0.1600 
 21 N       -8.0680    -7.7090     0.6170 N.ar  1 <1>  -0.6200 
 22 H       -0.0380    -2.3500    -0.1530 H     1 <1>   0.4200 
 23 H        0.1640    -0.8700     2.3110 H     1 <1>   0.0800 
 24 H       -1.5670    -0.7530     2.4930 H     1 <1>   0.0800 
 25 H       -0.6100     0.6910     2.3080 H     1 <1>   0.0800 
 26 H       -2.6690    -1.9740    -1.3320 H     1 <1>   0.0800 
 27 H       -1.1270    -1.8570    -2.1300 H     1 <1>   0.0800 
 28 H       -1.6290    -4.4100     0.3010 H     1 <1>   0.3700 
 29 H       -1.5610    -6.5280    -1.8040 H     1 <1>   0.0800 
 30 H       -3.2840    -7.7240    -0.7170 H     1 <1>   0.0800 
 31 H        0.0570    -6.3630     0.3380 H     1 <1>   0.0800 
 32 H       -0.7280    -7.9080     0.0100 H     1 <1>   0.0800 
 33 H       -3.3570    -7.7840     1.5620 H     1 <1>   0.0800 
 34 H       -3.4310    -6.0320     1.7130 H     1 <1>   0.0800 
 35 H       -4.3910    -5.8050    -1.8300 H     1 <1>   0.0800 
 36 H       -4.3010    -4.8900    -0.3590 H     1 <1>   0.0800 
 37 H       -5.9510    -5.2410     1.4150 H     1 <1>   0.1500 
 38 H       -5.7930    -7.9910    -1.8250 H     1 <1>   0.1500 
 39 H       -8.0110    -6.3190     2.1180 H     1 <1>   0.1500 
 40 H       -7.8620    -8.9600    -0.9900 H     1 <1>   0.1500 
@<TRIPOS>BOND
  1   1   2  2   
  2   1   3  2   
  3   1   4  am  
  4   1   5  1   
  5   4   6  1   
  6   4  22  1   
  7   5  23  1   
  8   5  24  1   
  9   5  25  1   
 10   6   7  1   
 11   6  26  1   
 12   6  27  1   
 13   7   8  2   
 14   7   9  am  
 15   9  10  1   
 16   9  28  1   
 17  10  11  1   
 18  10  12  1   
 19  10  29  1   
 20  11  13  1   
 21  11  14  1   
 22  11  30  1   
 23  12  15  1   
 24  12  31  1   
 25  12  32  1   
 26  13  15  1   
 27  13  33  1   
 28  13  34  1   
 29  14  16  1   
 30  14  35  1   
 31  14  36  1   
 32  16  17  ar  
 33  16  18  ar  
 34  17  19  ar  
 35  17  37  1   
 36  18  20  ar  
 37  18  38  1   
 38  19  21  ar  
 39  19  39  1   
 40  20  21  ar  
 41  20  40  1   
@<TRIPOS>SUBSTRUCTURE
  1 ****   9 GROUP 4 **** **** 0

# MOE 2024.06 (io_trps.svl 2023.06)
