@<TRIPOS>MOLECULE
NONAME
52 54 1 0 0 
SMALL
USER_CHARGES


@<TRIPOS>ATOM
  1 S       -1.8060    -0.6930    -2.2030 S.3   1 <1>  -0.0800 
  2 C       -3.0310    -1.3350    -1.1110 C.ar  1 <1>   0.2970 
  3 C       -0.6360    -1.9180    -1.6990 C.2   1 <1>  -0.1400 
  4 N       -4.2390    -0.8310    -0.9850 N.ar  1 <1>  -0.5670 
  5 C       -2.5350    -2.4190    -0.4260 C.ar  1 <1>   0.0000 
  6 C       -1.1720    -2.7320    -0.7740 C.2   1 <1>  -0.1500 
  7 C        0.7300    -1.8680    -2.3520 C.3   1 <1>  -0.0600 
  8 C       -4.9850    -1.4760    -0.1120 C.ar  1 <1>   0.4700 
  9 C       -3.4420    -2.9850     0.4520 C.ar  1 <1>   0.4120 
 10 N       -4.6760    -2.5520     0.6170 N.ar  1 <1>  -0.6200 
 11 S       -2.9170    -4.4020     1.4130 S.3   1 <1>  -0.3320 
 12 C       -4.2540    -4.7170     2.6680 C.3   1 <1>   0.1310 
 13 C       -4.7750    -6.1480     2.5860 C.2   1 <1>   0.5690 
 14 O       -4.5930    -6.8430     3.5550 O.2   1 <1>  -0.5700 
 15 N       -5.4790    -6.6320     1.5080 N.am  1 <1>  -0.6600 
 16 C       -5.7390    -8.1170     1.4700 C.3   1 <1>   0.3210 
 17 C       -5.8750    -5.7990     0.3200 C.3   1 <1>   0.1400 
 18 C       -6.6870    -8.5960     0.3660 C.2   1 <1>   0.0460 
 19 C       -7.0890    -4.8850     0.5950 C.3   1 <1>   0.3430 
 20 N       -8.0180    -8.3580     0.4160 N.2   1 <1>  -0.5650 
 21 C       -6.3710    -9.3020    -0.7470 C.2   1 <1>  -0.3320 
 22 N       -8.2380    -5.6070     1.2340 N.4   1 <1>  -0.9590 
 23 C       -8.4790    -8.9420    -0.6430 C.2   1 <1>   0.0360 
 24 N       -7.5280    -9.5310    -1.3950 N.pl3 1 <1>   0.0330 
 25 C       -5.0370    -9.8120    -1.2690 C.3   1 <1>  -0.0600 
 26 C       -9.5580    -5.1250     0.7400 C.3   1 <1>   0.2630 
 27 C       -8.1860    -5.6050     2.7270 C.3   1 <1>   0.2630 
 28 H       -0.6680    -3.5590    -0.3030 H     1 <1>   0.1500 
 29 H        1.2000    -0.9230    -2.1490 H     1 <1>   0.0800 
 30 H        0.6320    -1.9870    -3.4170 H     1 <1>   0.0800 
 31 H        1.3540    -2.6560    -1.9710 H     1 <1>   0.0800 
 32 H       -5.9780    -1.0820     0.0270 H     1 <1>   0.1500 
 33 H       -5.0480    -4.0120     2.5360 H     1 <1>   0.0800 
 34 H       -3.8020    -4.5520     3.6290 H     1 <1>   0.0800 
 35 H       -6.1530    -8.4270     2.4140 H     1 <1>   0.0800 
 36 H       -4.7950    -8.6200     1.3640 H     1 <1>   0.0800 
 37 H       -6.0950    -6.4210    -0.5280 H     1 <1>   0.0800 
 38 H       -5.0480    -5.1910     0.0120 H     1 <1>   0.0800 
 39 H       -7.4050    -4.4730    -0.3490 H     1 <1>   0.0800 
 40 H       -6.7830    -4.0610     1.2170 H     1 <1>   0.0800 
 41 H       -8.1430    -6.6100     0.9450 H     1 <1>   0.4500 
 42 H       -9.5190    -8.9760    -0.9210 H     1 <1>   0.1500 
 43 H       -7.6630   -10.0570    -2.2640 H     1 <1>   0.2700 
 44 H       -4.2260    -9.4910    -0.6410 H     1 <1>   0.0800 
 45 H       -4.8600    -9.4410    -2.2630 H     1 <1>   0.0800 
 46 H       -5.0380   -10.8880    -1.2970 H     1 <1>   0.0800 
 47 H       -9.7100    -4.0940     1.0170 H     1 <1>   0.0800 
 48 H      -10.3510    -5.7190     1.1650 H     1 <1>   0.0800 
 49 H       -9.6070    -5.2100    -0.3330 H     1 <1>   0.0800 
 50 H       -8.2300    -4.5980     3.1050 H     1 <1>   0.0800 
 51 H       -7.2780    -6.0700     3.0730 H     1 <1>   0.0800 
 52 H       -9.0180    -6.1630     3.1250 H     1 <1>   0.0800 
@<TRIPOS>BOND
  1   1   2  1   
  2   1   3  1   
  3   2   4  ar  
  4   2   5  ar  
  5   3   6  2   
  6   3   7  1   
  7   4   8  ar  
  8   5   6  1   
  9   5   9  ar  
 10   6  28  1   
 11   7  29  1   
 12   7  30  1   
 13   7  31  1   
 14   8  10  ar  
 15   8  32  1   
 16   9  10  ar  
 17   9  11  1   
 18  11  12  1   
 19  12  13  1   
 20  12  33  1   
 21  12  34  1   
 22  13  14  2   
 23  13  15  am  
 24  15  16  1   
 25  15  17  1   
 26  16  18  1   
 27  16  35  1   
 28  16  36  1   
 29  17  19  1   
 30  17  37  1   
 31  17  38  1   
 32  18  20  1   
 33  18  21  2   
 34  19  22  1   
 35  19  39  1   
 36  19  40  1   
 37  20  23  2   
 38  21  24  1   
 39  21  25  1   
 40  22  26  1   
 41  22  27  1   
 42  22  41  1   
 43  23  24  1   
 44  23  42  1   
 45  24  43  1   
 46  25  44  1   
 47  25  45  1   
 48  25  46  1   
 49  26  47  1   
 50  26  48  1   
 51  26  49  1   
 52  27  50  1   
 53  27  51  1   
 54  27  52  1   
@<TRIPOS>SUBSTRUCTURE
  1 ****  17 GROUP 4 **** **** 0

# MOE 2024.06 (io_trps.svl 2023.06)
