@<TRIPOS>MOLECULE
NONAME
42 44 1 0 0 
SMALL
USER_CHARGES


@<TRIPOS>ATOM
  1 F        1.5630    -1.1860    -1.8370 F     1 <1>  -0.1900 
  2 C        1.4230    -1.1310    -0.5290 C.ar  1 <1>   0.1900 
  3 C        0.4010    -1.8420     0.0940 C.ar  1 <1>   0.4100 
  4 C        2.2830    -0.3790     0.2330 C.ar  1 <1>   0.1660 
  5 N        0.2690    -1.7990     1.4110 N.ar  1 <1>  -0.6200 
  6 N       -0.5070    -2.6270    -0.5900 N.pl3 1 <1>  -0.8380 
  7 N        2.1460    -0.3310     1.5510 N.ar  1 <1>  -0.6200 
  8 C        3.4270     0.4260    -0.3710 C.3   1 <1>  -0.0170 
  9 C        1.1490    -1.0440     2.0510 C.ar  1 <1>   0.4700 
 10 C       -1.9600    -2.3510    -0.4050 C.3   1 <1>   0.2090 
 11 C       -0.3080    -4.1050    -0.5320 C.3   1 <1>   0.2090 
 12 C        4.7580    -0.3270    -0.2670 C.3   1 <1>  -0.2400 
 13 C       -2.4870    -3.5540     0.3740 C.3   1 <1>   0.2000 
 14 C       -1.6780    -4.7120    -0.2090 C.3   1 <1>  -0.0800 
 15 O       -2.1490    -3.3720     1.7070 O.3   1 <1>  -0.6800 
 16 C       -1.6030    -5.9740     0.6690 C.3   1 <1>   0.0210 
 17 C       -0.7700    -7.0540     0.0050 C.2   1 <1>   0.1080 
 18 N       -1.0470    -7.5410    -1.1650 N.2   1 <1>  -0.7070 
 19 C        0.3690    -7.6310     0.5570 C.2   1 <1>  -0.1500 
 20 N       -0.0850    -8.4560    -1.3900 N.pl3 1 <1>   0.3000 
 21 C        0.7860    -8.5270    -0.3610 C.2   1 <1>  -0.3320 
 22 C        1.9810    -9.4620    -0.3180 C.3   1 <1>  -0.0600 
 23 H        3.2220     0.6480    -1.4030 H     1 <1>   0.0800 
 24 H        3.5050     1.3640     0.1500 H     1 <1>   0.0800 
 25 H        1.0400    -1.0060     3.1230 H     1 <1>   0.1500 
 26 H       -2.1360    -1.4280     0.1220 H     1 <1>   0.0800 
 27 H       -2.4300    -2.3020    -1.3720 H     1 <1>   0.0800 
 28 H        0.0600    -4.4730    -1.4750 H     1 <1>   0.0800 
 29 H        0.4040    -4.3470     0.2400 H     1 <1>   0.0800 
 30 H        4.6980    -1.2620    -0.7960 H     1 <1>   0.0800 
 31 H        4.9880    -0.5280     0.7650 H     1 <1>   0.0800 
 32 H        5.5520     0.2620    -0.6900 H     1 <1>   0.0800 
 33 H       -3.5510    -3.6880     0.2970 H     1 <1>   0.0800 
 34 H       -2.1290    -4.9870    -1.1460 H     1 <1>   0.0800 
 35 H       -1.2630    -2.9280     1.7200 H     1 <1>   0.4000 
 36 H       -2.5940    -6.3560     0.8340 H     1 <1>   0.0800 
 37 H       -1.1740    -5.7410     1.6270 H     1 <1>   0.0800 
 38 H        0.7990    -7.3930     1.5140 H     1 <1>   0.1500 
 39 H       -0.0520    -9.0140    -2.2510 H     1 <1>   0.2700 
 40 H        2.5190    -9.3330     0.6040 H     1 <1>   0.0800 
 41 H        2.6480    -9.2520    -1.1360 H     1 <1>   0.0800 
 42 H        1.6550   -10.4850    -0.3840 H     1 <1>   0.0800 
@<TRIPOS>BOND
  1   1   2  1   
  2   2   3  ar  
  3   2   4  ar  
  4   3   5  ar  
  5   3   6  1   
  6   4   7  ar  
  7   4   8  1   
  8   5   9  ar  
  9   6  10  1   
 10   6  11  1   
 11   7   9  ar  
 12   8  12  1   
 13   8  23  1   
 14   8  24  1   
 15   9  25  1   
 16  10  13  1   
 17  10  26  1   
 18  10  27  1   
 19  11  14  1   
 20  11  28  1   
 21  11  29  1   
 22  12  30  1   
 23  12  31  1   
 24  12  32  1   
 25  13  14  1   
 26  13  15  1   
 27  13  33  1   
 28  14  16  1   
 29  14  34  1   
 30  15  35  1   
 31  16  17  1   
 32  16  36  1   
 33  16  37  1   
 34  17  18  2   
 35  17  19  1   
 36  18  20  1   
 37  19  21  2   
 38  19  38  1   
 39  20  21  1   
 40  20  39  1   
 41  21  22  1   
 42  22  40  1   
 43  22  41  1   
 44  22  42  1   
@<TRIPOS>SUBSTRUCTURE
  1 ****  11 GROUP 4 **** **** 0

# MOE 2024.06 (io_trps.svl 2023.06)
