@<TRIPOS>MOLECULE
NONAME
50 52 1 0 0 
SMALL
USER_CHARGES


@<TRIPOS>ATOM
  1 O       -0.3250    -0.8220     1.0300 O.2   1 <1>  -0.5700 
  2 C        0.3870    -1.7390     0.7040 C.2   1 <1>   0.5690 
  3 N       -0.0360    -2.7920    -0.0600 N.am  1 <1>  -0.6600 
  4 C        1.8330    -1.7440     1.1590 C.3   1 <1>  -0.0990 
  5 C        0.8890    -3.8970    -0.4050 C.3   1 <1>   0.1400 
  6 C       -1.4430    -2.9210    -0.5300 C.3   1 <1>   0.0600 
  7 C        2.7620    -2.1260    -0.0080 C.3   1 <1>  -0.0800 
  8 C        2.2550    -3.3280    -0.8400 C.3   1 <1>  -0.0800 
  9 C        4.1900    -2.4710     0.4390 C.3   1 <1>  -0.1600 
 10 C        3.3830    -4.3690    -0.8060 C.3   1 <1>  -0.1600 
 11 C        4.6410    -3.5480    -0.5450 C.3   1 <1>   0.4230 
 12 N        5.8080    -4.3700    -0.0850 N.4   1 <1>  -0.9590 
 13 C        7.0500    -3.5360     0.0400 C.3   1 <1>   0.3430 
 14 C        5.5900    -5.1030     1.2060 C.3   1 <1>   0.2630 
 15 C        7.5870    -3.0530    -1.3100 C.3   1 <1>  -0.0170 
 16 C        8.7780    -2.1540    -1.0570 C.ar  1 <1>   0.1670 
 17 N        8.5800    -1.1960    -0.1670 N.ar  1 <1>  -0.6200 
 18 C        9.9710    -2.3590    -1.7320 C.ar  1 <1>  -0.1500 
 19 C        9.6110    -0.3980     0.0640 C.ar  1 <1>   0.1670 
 20 C       11.0400    -1.5260    -1.4820 C.ar  1 <1>  -0.1500 
 21 C       10.8430    -0.5230    -0.5590 C.ar  1 <1>  -0.1500 
 22 C        9.3840     0.7050     1.0760 C.3   1 <1>  -0.0970 
 23 H        2.0900    -0.7700     1.5360 H     1 <1>   0.0800 
 24 H        1.9150    -2.4490     1.9650 H     1 <1>   0.0800 
 25 H        0.9990    -4.5230     0.4640 H     1 <1>   0.0800 
 26 H        0.4730    -4.4940    -1.2000 H     1 <1>   0.0800 
 27 H       -1.8780    -3.8230    -0.1360 H     1 <1>   0.0800 
 28 H       -1.4670    -2.9520    -1.6050 H     1 <1>   0.0800 
 29 H       -2.0310    -2.0820    -0.1980 H     1 <1>   0.0800 
 30 H        2.8070    -1.2760    -0.6710 H     1 <1>   0.0800 
 31 H        2.1450    -2.9890    -1.8580 H     1 <1>   0.0800 
 32 H        4.1650    -2.8510     1.4440 H     1 <1>   0.0800 
 33 H        4.8230    -1.6020     0.3990 H     1 <1>   0.0800 
 34 H        3.4420    -4.9050    -1.7370 H     1 <1>   0.0800 
 35 H        3.1980    -5.0570    -0.0030 H     1 <1>   0.0800 
 36 H        4.8950    -3.0540    -1.4700 H     1 <1>   0.0800 
 37 H        5.9810    -5.0760    -0.8140 H     1 <1>   0.4500 
 38 H        6.8500    -2.6800     0.6650 H     1 <1>   0.0800 
 39 H        7.8260    -4.1080     0.5220 H     1 <1>   0.0800 
 40 H        5.4220    -4.4080     2.0120 H     1 <1>   0.0800 
 41 H        6.4560    -5.6970     1.4460 H     1 <1>   0.0800 
 42 H        4.7400    -5.7610     1.1330 H     1 <1>   0.0800 
 43 H        6.8520    -2.4700    -1.8320 H     1 <1>   0.0800 
 44 H        7.8770    -3.8900    -1.9180 H     1 <1>   0.0800 
 45 H       10.0750    -3.1530    -2.4490 H     1 <1>   0.1500 
 46 H       11.9840    -1.6500    -1.9850 H     1 <1>   0.1500 
 47 H       11.6440     0.1570    -0.3290 H     1 <1>   0.1500 
 48 H       10.2650     1.3080     1.1980 H     1 <1>   0.0800 
 49 H        9.1250     0.2760     2.0260 H     1 <1>   0.0800 
 50 H        8.5780     1.3350     0.7470 H     1 <1>   0.0800 
@<TRIPOS>BOND
  1   1   2  2   
  2   2   3  am  
  3   2   4  1   
  4   3   5  1   
  5   3   6  1   
  6   4   7  1   
  7   4  23  1   
  8   4  24  1   
  9   5   8  1   
 10   5  25  1   
 11   5  26  1   
 12   6  27  1   
 13   6  28  1   
 14   6  29  1   
 15   7   8  1   
 16   7   9  1   
 17   7  30  1   
 18   8  10  1   
 19   8  31  1   
 20   9  11  1   
 21   9  32  1   
 22   9  33  1   
 23  10  11  1   
 24  10  34  1   
 25  10  35  1   
 26  11  12  1   
 27  11  36  1   
 28  12  13  1   
 29  12  14  1   
 30  12  37  1   
 31  13  15  1   
 32  13  38  1   
 33  13  39  1   
 34  14  40  1   
 35  14  41  1   
 36  14  42  1   
 37  15  16  1   
 38  15  43  1   
 39  15  44  1   
 40  16  17  ar  
 41  16  18  ar  
 42  17  19  ar  
 43  18  20  ar  
 44  18  45  1   
 45  19  21  ar  
 46  19  22  1   
 47  20  21  ar  
 48  20  46  1   
 49  21  47  1   
 50  22  48  1   
 51  22  49  1   
 52  22  50  1   
@<TRIPOS>SUBSTRUCTURE
  1 ****   9 GROUP 4 **** **** 0

# MOE 2024.06 (io_trps.svl 2023.06)
