@<TRIPOS>MOLECULE
NONAME
51 55 1 0 0 
SMALL
USER_CHARGES


@<TRIPOS>ATOM
  1 O       -0.3330     0.1740     0.0890 O.2   1 <1>  -0.5700 
  2 C       -1.3410     0.7730     0.4220 C.2   1 <1>   0.7160 
  3 N       -2.3590     0.0140     0.9890 N.am  1 <1>  -0.6600 
  4 C       -1.4380     2.2110     0.1790 C.2   1 <1>   0.2030 
  5 C       -3.5230     0.5690     1.7450 C.3   1 <1>   0.1400 
  6 C       -2.4280    -1.4660     0.8020 C.3   1 <1>   0.1400 
  7 N       -2.5450     2.9260     0.0300 N.2   1 <1>  -0.7070 
  8 C       -0.3200     3.0370     0.0360 C.2   1 <1>  -0.1500 
  9 C       -4.8580     0.2040     1.0580 C.3   1 <1>   0.4230 
 10 C       -3.7490    -1.8490     0.1110 C.3   1 <1>   0.3430 
 11 N       -2.1180     4.1800    -0.2040 N.pl3 1 <1>   0.3000 
 12 C       -0.7730     4.2900    -0.2040 C.2   1 <1>  -0.1520 
 13 N       -4.9680    -1.2940     0.8180 N.4   1 <1>  -0.9590 
 14 C       -5.0520     0.9960    -0.2560 C.3   1 <1>   0.1200 
 15 C       -0.0560     5.5140    -0.4230 C.2   1 <1>   0.1400 
 16 C       -6.2480    -1.5900     0.0880 C.3   1 <1>   0.5180 
 17 O       -6.2610     0.6380    -0.8670 O.3   1 <1>  -0.5600 
 18 O        1.2670     5.5100    -0.3690 O.3   1 <1>  -0.2800 
 19 C       -0.4800     6.7780    -0.6950 C.2   1 <1>  -0.1500 
 20 C       -6.3570    -3.1090    -0.1590 C.3   1 <1>  -0.1950 
 21 C       -6.3820    -0.7200    -1.1870 C.3   1 <1>   0.1200 
 22 C        1.7030     6.7310    -0.5980 C.2   1 <1>  -0.0400 
 23 C        0.6660     7.5670    -0.8080 C.2   1 <1>  -0.1500 
 24 C       -5.8040    -3.8260    -1.3570 C.3   1 <1>  -0.2000 
 25 C       -7.2900    -3.7050    -1.1700 C.3   1 <1>  -0.2000 
 26 C        3.1950     6.9800    -0.5890 C.3   1 <1>  -0.0600 
 27 H       -3.5170     0.1520     2.7370 H     1 <1>   0.0800 
 28 H       -3.4470     1.6330     1.8670 H     1 <1>   0.0800 
 29 H       -1.6080    -1.8150     0.1970 H     1 <1>   0.0800 
 30 H       -2.3530    -1.9520     1.7590 H     1 <1>   0.0800 
 31 H        0.7060     2.7170     0.1030 H     1 <1>   0.1500 
 32 H       -5.6520     0.5100     1.7190 H     1 <1>   0.0800 
 33 H       -3.8110    -2.9240     0.0600 H     1 <1>   0.0800 
 34 H       -3.7170    -1.4770    -0.9000 H     1 <1>   0.0800 
 35 H       -2.7570     4.9670    -0.3690 H     1 <1>   0.2700 
 36 H       -5.0320    -1.7550     1.7310 H     1 <1>   0.4500 
 37 H       -4.2450     0.8240    -0.9470 H     1 <1>   0.0800 
 38 H       -5.0960     2.0510    -0.0480 H     1 <1>   0.0800 
 39 H       -7.0730    -1.3170     0.7260 H     1 <1>   0.0800 
 40 H       -1.4850     7.1390    -0.8080 H     1 <1>   0.1500 
 41 H       -6.3380    -3.6400     0.7780 H     1 <1>   0.1000 
 42 H       -7.3540    -0.8560    -1.6270 H     1 <1>   0.0800 
 43 H       -5.6370    -0.9700    -1.9210 H     1 <1>   0.0800 
 44 H        0.6870     8.6220    -1.0200 H     1 <1>   0.1500 
 45 H       -5.3740    -3.2960    -2.1900 H     1 <1>   0.1000 
 46 H       -5.3640    -4.8020    -1.2320 H     1 <1>   0.1000 
 47 H       -7.8430    -4.5940    -0.9100 H     1 <1>   0.1000 
 48 H       -7.8330    -3.0910    -1.8690 H     1 <1>   0.1000 
 49 H        3.4010     8.0160    -0.7900 H     1 <1>   0.0800 
 50 H        3.6670     6.3750    -1.3420 H     1 <1>   0.0800 
 51 H        3.5990     6.7210     0.3720 H     1 <1>   0.0800 
@<TRIPOS>BOND
  1   1   2  2   
  2   2   3  am  
  3   2   4  1   
  4   3   5  1   
  5   3   6  1   
  6   4   7  2   
  7   4   8  1   
  8   5   9  1   
  9   5  27  1   
 10   5  28  1   
 11   6  10  1   
 12   6  29  1   
 13   6  30  1   
 14   7  11  1   
 15   8  12  2   
 16   8  31  1   
 17   9  13  1   
 18   9  14  1   
 19   9  32  1   
 20  10  13  1   
 21  10  33  1   
 22  10  34  1   
 23  11  12  1   
 24  11  35  1   
 25  12  15  1   
 26  13  16  1   
 27  13  36  1   
 28  14  17  1   
 29  14  37  1   
 30  14  38  1   
 31  15  18  1   
 32  15  19  2   
 33  16  20  1   
 34  16  21  1   
 35  16  39  1   
 36  17  21  1   
 37  18  22  1   
 38  19  23  1   
 39  19  40  1   
 40  20  24  1   
 41  20  25  1   
 42  20  41  1   
 43  21  42  1   
 44  21  43  1   
 45  22  23  2   
 46  22  26  1   
 47  23  44  1   
 48  24  25  1   
 49  24  45  1   
 50  24  46  1   
 51  25  47  1   
 52  25  48  1   
 53  26  49  1   
 54  26  50  1   
 55  26  51  1   
@<TRIPOS>SUBSTRUCTURE
  1 ****   7 GROUP 4 **** **** 0

# MOE 2024.06 (io_trps.svl 2023.06)
