@<TRIPOS>MOLECULE
NONAME
45 46 1 0 0 
SMALL
USER_CHARGES


@<TRIPOS>ATOM
  1 S        0.3660     0.3130     0.5860 S.o2  1 <1>   1.3330 
  2 O       -0.9300    -0.2380     0.9090 O.2   1 <1>  -0.6500 
  3 O        1.3160     0.5800     1.6440 O.2   1 <1>  -0.6500 
  4 N        1.1190    -0.7210    -0.5300 N.am  1 <1>  -0.8490 
  5 C        0.1080     1.8000    -0.3840 C.3   1 <1>  -0.0550 
  6 C        2.5700    -0.5240    -0.6240 C.3   1 <1>   0.1160 
  7 C        0.8230    -2.1330    -0.2690 C.3   1 <1>   0.1160 
  8 C       -0.7150     2.8890     0.3340 C.3   1 <1>  -0.0800 
  9 C       -1.0230     4.0350    -0.6240 C.3   1 <1>   0.2000 
 10 C        0.0770     3.5660     1.4690 C.3   1 <1>   0.1100 
 11 O       -2.1140     4.7230    -0.1310 O.3   1 <1>  -0.6800 
 12 C        0.1970     4.9340    -0.4710 C.3   1 <1>   0.1100 
 13 N        0.5170     4.8800     0.9650 N.3   1 <1>  -0.8100 
 14 C        1.9240     5.1710     1.2750 C.3   1 <1>   0.2530 
 15 C        2.3060     6.5740     0.7840 C.ar  1 <1>  -0.1440 
 16 C        3.3540     6.8400    -0.1120 C.ar  1 <1>  -0.1440 
 17 C        1.5430     7.6230     1.2850 C.ar  1 <1>  -0.1500 
 18 C        3.5630     8.1740    -0.4600 C.ar  1 <1>   0.1900 
 19 C        4.2330     5.7110    -0.6820 C.3   1 <1>   1.1630 
 20 C        1.7820     8.9340     0.9200 C.ar  1 <1>  -0.1500 
 21 F        4.5070     8.5160    -1.2930 F     1 <1>  -0.1900 
 22 C        2.8020     9.2150     0.0360 C.ar  1 <1>  -0.1500 
 23 F        5.2190     6.0710    -1.4910 F     1 <1>  -0.3400 
 24 F        3.5120     4.8360    -1.3760 F     1 <1>  -0.3400 
 25 F        4.8130     5.0120     0.2870 F     1 <1>  -0.3400 
 26 H        1.0580     2.2000    -0.6770 H     1 <1>   0.0800 
 27 H       -0.4160     1.5190    -1.2770 H     1 <1>   0.0800 
 28 H        2.9760    -1.1370    -1.4110 H     1 <1>   0.0800 
 29 H        3.0470    -0.7870     0.3070 H     1 <1>   0.0800 
 30 H        2.7930     0.5050    -0.8460 H     1 <1>   0.0800 
 31 H        1.3030    -2.7580    -1.0030 H     1 <1>   0.0800 
 32 H       -0.2390    -2.3040    -0.3270 H     1 <1>   0.0800 
 33 H        1.1650    -2.4120     0.7140 H     1 <1>   0.0800 
 34 H       -1.6240     2.4460     0.7050 H     1 <1>   0.0800 
 35 H       -1.2290     3.7350    -1.6370 H     1 <1>   0.0800 
 36 H        0.9150     2.9710     1.7880 H     1 <1>   0.0800 
 37 H       -0.5660     3.7220     2.3190 H     1 <1>   0.0800 
 38 H       -1.8140     5.1740     0.6870 H     1 <1>   0.4000 
 39 H       -0.0030     5.9420    -0.7940 H     1 <1>   0.0800 
 40 H        1.0080     4.5300    -1.0490 H     1 <1>   0.0800 
 41 H        2.0550     5.1380     2.3440 H     1 <1>   0.0800 
 42 H        2.5400     4.4000     0.8540 H     1 <1>   0.0800 
 43 H        0.7380     7.4100     1.9700 H     1 <1>   0.1500 
 44 H        1.1740     9.7280     1.3210 H     1 <1>   0.1500 
 45 H        3.0090    10.2260    -0.2660 H     1 <1>   0.1500 
@<TRIPOS>BOND
  1   1   2  2   
  2   1   3  2   
  3   1   4  am  
  4   1   5  1   
  5   4   6  1   
  6   4   7  1   
  7   5   8  1   
  8   5  26  1   
  9   5  27  1   
 10   6  28  1   
 11   6  29  1   
 12   6  30  1   
 13   7  31  1   
 14   7  32  1   
 15   7  33  1   
 16   8   9  1   
 17   8  10  1   
 18   8  34  1   
 19   9  11  1   
 20   9  12  1   
 21   9  35  1   
 22  10  13  1   
 23  10  36  1   
 24  10  37  1   
 25  11  38  1   
 26  12  13  1   
 27  12  39  1   
 28  12  40  1   
 29  13  14  1   
 30  14  15  1   
 31  14  41  1   
 32  14  42  1   
 33  15  16  ar  
 34  15  17  ar  
 35  16  18  ar  
 36  16  19  1   
 37  17  20  ar  
 38  17  43  1   
 39  18  21  1   
 40  18  22  ar  
 41  19  23  1   
 42  19  24  1   
 43  19  25  1   
 44  20  22  ar  
 45  20  44  1   
 46  22  45  1   
@<TRIPOS>SUBSTRUCTURE
  1 ****  14 GROUP 4 **** **** 0

# MOE 2024.06 (io_trps.svl 2023.06)
