@<TRIPOS>MOLECULE
NONAME
41 43 1 0 0 
SMALL
USER_CHARGES


@<TRIPOS>ATOM
  1 CL      -0.7880    -0.0270    -0.3880 Cl    1 <1>  -0.1230 
  2 C       -1.2860    -1.6160     0.1470 C.2   1 <1>   0.4120 
  3 N       -2.1270    -1.8220     1.0930 N.2   1 <1>  -0.4100 
  4 C       -0.8120    -2.7950    -0.4120 C.2   1 <1>  -0.1500 
  5 O       -2.2220    -3.1210     1.1790 O.3   1 <1>  -0.0190 
  6 C       -1.4590    -3.7300     0.3030 C.2   1 <1>  -0.0400 
  7 C       -1.4300    -5.2460     0.2420 C.3   1 <1>   0.0200 
  8 C       -2.8200    -5.8120    -0.0890 C.3   1 <1>  -0.0990 
  9 C       -2.8450    -7.3300    -0.1830 C.2   1 <1>   0.5690 
 10 O       -1.8010    -7.9360    -0.1410 O.2   1 <1>  -0.5700 
 11 N       -4.0410    -7.9750    -0.3210 N.am  1 <1>  -0.6600 
 12 C       -5.3860    -7.3490    -0.3750 C.3   1 <1>   0.1400 
 13 C       -4.1480    -9.4520    -0.4130 C.3   1 <1>   0.1400 
 14 C       -6.3620    -8.5150    -0.5490 C.3   1 <1>   0.2000 
 15 C       -5.6100    -9.7620    -0.0870 C.3   1 <1>  -0.0800 
 16 O       -7.5040    -8.3400     0.2170 O.3   1 <1>  -0.6800 
 17 C       -6.1420   -11.0490    -0.7390 C.3   1 <1>  -0.0170 
 18 C       -5.3960   -12.2790    -0.2500 C.ar  1 <1>   0.1670 
 19 N       -4.2570   -12.5590    -0.8640 N.ar  1 <1>  -0.6200 
 20 C       -5.9210   -13.0330     0.7900 C.ar  1 <1>  -0.1500 
 21 C       -3.6140   -13.6290    -0.4240 C.ar  1 <1>   0.1600 
 22 C       -5.2420   -14.1450     1.2380 C.ar  1 <1>  -0.1500 
 23 C       -4.0550   -14.4430     0.6060 C.ar  1 <1>  -0.1500 
 24 H       -0.1040    -2.8810    -1.2130 H     1 <1>   0.1500 
 25 H       -0.7250    -5.5570    -0.5090 H     1 <1>   0.0800 
 26 H       -1.0980    -5.6320     1.1900 H     1 <1>   0.0800 
 27 H       -3.1510    -5.4090    -1.0280 H     1 <1>   0.0800 
 28 H       -3.5090    -5.5050     0.6750 H     1 <1>   0.0800 
 29 H       -5.5740    -6.8250     0.5450 H     1 <1>   0.0800 
 30 H       -5.4510    -6.6750    -1.2110 H     1 <1>   0.0800 
 31 H       -3.9020    -9.7600    -1.4150 H     1 <1>   0.0800 
 32 H       -3.4760    -9.9360     0.2770 H     1 <1>   0.0800 
 33 H       -6.6540    -8.5940    -1.5830 H     1 <1>   0.0800 
 34 H       -5.6810    -9.8500     0.9830 H     1 <1>   0.0800 
 35 H       -7.2750    -8.3070     1.1660 H     1 <1>   0.4000 
 36 H       -6.0470   -10.9880    -1.8090 H     1 <1>   0.0800 
 37 H       -7.1880   -11.1540    -0.5150 H     1 <1>   0.0800 
 38 H       -6.8530   -12.7530     1.2470 H     1 <1>   0.1500 
 39 H       -2.6850   -13.8700    -0.9110 H     1 <1>   0.1500 
 40 H       -5.6210   -14.7520     2.0420 H     1 <1>   0.1500 
 41 H       -3.4730   -15.2960     0.9050 H     1 <1>   0.1500 
@<TRIPOS>BOND
  1   1   2  1   
  2   2   3  2   
  3   2   4  1   
  4   3   5  1   
  5   4   6  2   
  6   4  24  1   
  7   5   6  1   
  8   6   7  1   
  9   7   8  1   
 10   7  25  1   
 11   7  26  1   
 12   8   9  1   
 13   8  27  1   
 14   8  28  1   
 15   9  10  2   
 16   9  11  am  
 17  11  12  1   
 18  11  13  1   
 19  12  14  1   
 20  12  29  1   
 21  12  30  1   
 22  13  15  1   
 23  13  31  1   
 24  13  32  1   
 25  14  15  1   
 26  14  16  1   
 27  14  33  1   
 28  15  17  1   
 29  15  34  1   
 30  16  35  1   
 31  17  18  1   
 32  17  36  1   
 33  17  37  1   
 34  18  19  ar  
 35  18  20  ar  
 36  19  21  ar  
 37  20  22  ar  
 38  20  38  1   
 39  21  23  ar  
 40  21  39  1   
 41  22  23  ar  
 42  22  40  1   
 43  23  41  1   
@<TRIPOS>SUBSTRUCTURE
  1 ****  11 GROUP 4 **** **** 0

# MOE 2024.06 (io_trps.svl 2023.06)
