@<TRIPOS>MOLECULE
NONAME
43 45 1 0 0 
SMALL
USER_CHARGES


@<TRIPOS>ATOM
  1 N       -0.3060    -0.0160    -0.2730 N.ar  1 <1>  -0.6200 
  2 C        0.7880     0.6570    -0.0040 C.ar  1 <1>   0.7710 
  3 C       -1.4460     0.6450    -0.2810 C.ar  1 <1>   0.4100 
  4 N        0.7960     1.9700     0.2710 N.ar  1 <1>  -0.1790 
  5 N        1.9250    -0.0340    -0.0150 N.pl3 1 <1>  -0.9000 
  6 N       -2.5630    -0.0540    -0.5750 N.pl3 1 <1>  -0.8690 
  7 C       -1.5210     2.0320     0.0070 C.ar  1 <1>  -0.1430 
  8 C       -0.3580     2.6800     0.2830 C.ar  1 <1>   0.2110 
  9 C       -2.6430    -1.4920    -0.9850 C.3   1 <1>   0.2090 
 10 C       -2.8880     2.7280    -0.0090 C.3   1 <1>  -0.0170 
 11 C       -2.9960    -2.3850     0.2090 C.3   1 <1>   0.2090 
 12 C       -2.8620     4.2250     0.3250 C.3   1 <1>  -0.2400 
 13 N       -3.2170    -3.7840    -0.2540 N.pl3 1 <1>  -0.8380 
 14 C       -4.5180    -4.2620    -0.3460 C.ar  1 <1>   0.1000 
 15 C       -2.3860    -4.8410     0.3980 C.3   1 <1>   0.2090 
 16 C       -4.6320    -5.5670     0.0780 C.ar  1 <1>  -0.1430 
 17 C       -5.6450    -3.5890    -0.7990 C.ar  1 <1>  -0.1500 
 18 C       -3.2850    -6.0820     0.5110 C.3   1 <1>  -0.0170 
 19 C       -5.8460    -6.2250     0.0730 C.ar  1 <1>  -0.1500 
 20 C       -6.8700    -4.2350    -0.8090 C.ar  1 <1>  -0.1500 
 21 C       -6.9720    -5.5500    -0.3740 C.ar  1 <1>  -0.1500 
 22 H        1.6960     2.3970     0.4650 H     1 <1>   0.4570 
 23 H        2.8780     0.2880     0.1590 H     1 <1>   0.4000 
 24 H        1.8620    -1.0320    -0.2410 H     1 <1>   0.4000 
 25 H       -3.4740     0.4100    -0.5640 H     1 <1>   0.4000 
 26 H       -0.3040     3.7320     0.5130 H     1 <1>   0.1500 
 27 H       -1.7060    -1.8170    -1.4000 H     1 <1>   0.0800 
 28 H       -3.3990    -1.6000    -1.7430 H     1 <1>   0.0800 
 29 H       -3.5360     2.2380     0.6990 H     1 <1>   0.0800 
 30 H       -3.3270     2.6090    -0.9860 H     1 <1>   0.0800 
 31 H       -3.8900    -2.0200     0.6830 H     1 <1>   0.0800 
 32 H       -2.1910    -2.3500     0.9200 H     1 <1>   0.0800 
 33 H       -2.4770     4.3920     1.3160 H     1 <1>   0.0800 
 34 H       -3.8640     4.6180     0.2900 H     1 <1>   0.0800 
 35 H       -2.2700     4.7690    -0.3910 H     1 <1>   0.0800 
 36 H       -2.0770    -4.5240     1.3780 H     1 <1>   0.0800 
 37 H       -1.5200    -5.0510    -0.2060 H     1 <1>   0.0800 
 38 H       -5.5610    -2.5770    -1.1420 H     1 <1>   0.1500 
 39 H       -3.3100    -6.4500     1.5200 H     1 <1>   0.0800 
 40 H       -2.9470    -6.8550    -0.1550 H     1 <1>   0.0800 
 41 H       -5.9180    -7.2440     0.4090 H     1 <1>   0.1500 
 42 H       -7.7460    -3.7180    -1.1580 H     1 <1>   0.1500 
 43 H       -7.9260    -6.0460    -0.3850 H     1 <1>   0.1500 
@<TRIPOS>BOND
  1   1   2  ar  
  2   1   3  ar  
  3   2   4  ar  
  4   2   5  1   
  5   3   6  1   
  6   3   7  ar  
  7   4   8  ar  
  8   4  22  1   
  9   5  23  1   
 10   5  24  1   
 11   6   9  1   
 12   6  25  1   
 13   7   8  ar  
 14   7  10  1   
 15   8  26  1   
 16   9  11  1   
 17   9  27  1   
 18   9  28  1   
 19  10  12  1   
 20  10  29  1   
 21  10  30  1   
 22  11  13  1   
 23  11  31  1   
 24  11  32  1   
 25  12  33  1   
 26  12  34  1   
 27  12  35  1   
 28  13  14  1   
 29  13  15  1   
 30  14  16  ar  
 31  14  17  ar  
 32  15  18  1   
 33  15  36  1   
 34  15  37  1   
 35  16  18  1   
 36  16  19  ar  
 37  17  20  ar  
 38  17  38  1   
 39  18  39  1   
 40  18  40  1   
 41  19  21  ar  
 42  19  41  1   
 43  20  21  ar  
 44  20  42  1   
 45  21  43  1   
@<TRIPOS>SUBSTRUCTURE
  1 ****   9 GROUP 4 **** **** 0

# MOE 2024.06 (io_trps.svl 2023.06)
