@<TRIPOS>MOLECULE
NONAME
52 56 1 0 0 
SMALL
USER_CHARGES


@<TRIPOS>ATOM
  1 CL      -0.8880    -2.6560     1.1660 Cl    1 <1>  -0.1770 
  2 C       -2.4630    -2.6180     0.4050 C.ar  1 <1>   0.1770 
  3 C       -3.1580    -1.3920     0.2970 C.ar  1 <1>   0.3100 
  4 C       -2.9720    -3.7970    -0.0670 C.ar  1 <1>  -0.1500 
  5 N       -2.5950    -0.2450     0.7610 N.ar  1 <1>  -0.6200 
  6 C       -4.4360    -1.4130    -0.3090 C.ar  1 <1>   0.0000 
  7 C       -4.2240    -3.8070    -0.6830 C.ar  1 <1>  -0.1500 
  8 C       -3.2520     0.8620     0.6280 C.ar  1 <1>   0.1670 
  9 C       -5.1530    -0.1940    -0.3980 C.ar  1 <1>   0.0860 
 10 C       -4.9320    -2.6420    -0.8020 C.ar  1 <1>  -0.1500 
 11 C       -4.5230     0.9340     0.0580 C.ar  1 <1>  -0.1500 
 12 C       -2.5810     2.1220     1.1320 C.3   1 <1>  -0.0960 
 13 C       -6.4930    -0.1220    -0.9340 C.2   1 <1>   0.5440 
 14 O       -6.6930     0.5310    -1.9400 O.2   1 <1>  -0.5700 
 15 N       -7.5570    -0.7490    -0.3190 N.am  1 <1>  -0.6600 
 16 C       -8.9170    -0.7980    -0.9430 C.3   1 <1>   0.1400 
 17 C       -7.5270    -1.2680     1.0760 C.3   1 <1>   0.1400 
 18 C       -9.9140     0.0500    -0.1330 C.3   1 <1>   0.1440 
 19 C       -8.4860    -0.4460     1.9450 C.3   1 <1>  -0.1600 
 20 C      -11.3140    -0.0890    -0.7010 C.ar  1 <1>   0.1670 
 21 C       -9.9070    -0.3920     1.3490 C.3   1 <1>  -0.1600 
 22 C       -9.6410     1.5720    -0.2870 C.3   1 <1>  -0.1600 
 23 N      -11.9120    -1.2270    -0.9790 N.ar  1 <1>  -0.6200 
 24 C      -11.9050     1.1230    -0.8930 C.ar  1 <1>  -0.1440 
 25 C      -11.0030     2.2600    -0.4840 C.3   1 <1>  -0.0170 
 26 C      -13.1370    -1.0960    -1.4680 C.ar  1 <1>   0.4770 
 27 C      -13.1780     1.1410    -1.4040 C.ar  1 <1>   0.1600 
 28 N      -13.8100     0.0230    -1.6980 N.ar  1 <1>  -0.6200 
 29 C      -13.8580    -2.3800    -1.7990 C.3   1 <1>  -0.0970 
 30 H       -2.4130    -4.7110     0.0320 H     1 <1>   0.1500 
 31 H       -4.6180    -4.7360    -1.0620 H     1 <1>   0.1500 
 32 H       -5.8930    -2.6630    -1.2880 H     1 <1>   0.1500 
 33 H       -5.0160     1.8860    -0.0190 H     1 <1>   0.1500 
 34 H       -1.6390     2.2500     0.6310 H     1 <1>   0.0800 
 35 H       -2.3990     2.0340     2.1880 H     1 <1>   0.0800 
 36 H       -3.1890     2.9890     0.9530 H     1 <1>   0.0800 
 37 H       -9.2520    -1.8210    -0.9590 H     1 <1>   0.0800 
 38 H       -8.8870    -0.4540    -1.9620 H     1 <1>   0.0800 
 39 H       -6.5360    -1.2170     1.4910 H     1 <1>   0.0800 
 40 H       -7.8340    -2.3010     1.0710 H     1 <1>   0.0800 
 41 H       -8.0890     0.5480     2.0510 H     1 <1>   0.0800 
 42 H       -8.5290    -0.8800     2.9280 H     1 <1>   0.0800 
 43 H      -10.3400    -1.3760     1.4120 H     1 <1>   0.0800 
 44 H      -10.5250     0.2680     1.9320 H     1 <1>   0.0800 
 45 H       -9.0520     1.7390    -1.1730 H     1 <1>   0.0800 
 46 H       -9.1070     1.9870     0.5470 H     1 <1>   0.0800 
 47 H      -10.9530     3.0220    -1.2430 H     1 <1>   0.0800 
 48 H      -11.3530     2.6840     0.4410 H     1 <1>   0.0800 
 49 H      -13.6860     2.0750    -1.5740 H     1 <1>   0.1500 
 50 H      -13.1510    -3.1470    -2.0550 H     1 <1>   0.0800 
 51 H      -14.5210    -2.2260    -2.6300 H     1 <1>   0.0800 
 52 H      -14.4280    -2.6950    -0.9460 H     1 <1>   0.0800 
@<TRIPOS>BOND
  1   1   2  1   
  2   2   3  ar  
  3   2   4  ar  
  4   3   5  ar  
  5   3   6  ar  
  6   4   7  ar  
  7   4  30  1   
  8   5   8  ar  
  9   6   9  ar  
 10   6  10  ar  
 11   7  10  ar  
 12   7  31  1   
 13   8  11  ar  
 14   8  12  1   
 15   9  11  ar  
 16   9  13  1   
 17  10  32  1   
 18  11  33  1   
 19  12  34  1   
 20  12  35  1   
 21  12  36  1   
 22  13  14  2   
 23  13  15  am  
 24  15  16  1   
 25  15  17  1   
 26  16  18  1   
 27  16  37  1   
 28  16  38  1   
 29  17  19  1   
 30  17  39  1   
 31  17  40  1   
 32  18  20  1   
 33  18  21  1   
 34  18  22  1   
 35  19  21  1   
 36  19  41  1   
 37  19  42  1   
 38  20  23  ar  
 39  20  24  ar  
 40  21  43  1   
 41  21  44  1   
 42  22  25  1   
 43  22  45  1   
 44  22  46  1   
 45  23  26  ar  
 46  24  25  1   
 47  24  27  ar  
 48  25  47  1   
 49  25  48  1   
 50  26  28  ar  
 51  26  29  1   
 52  27  28  ar  
 53  27  49  1   
 54  29  50  1   
 55  29  51  1   
 56  29  52  1   
@<TRIPOS>SUBSTRUCTURE
  1 ****  15 GROUP 4 **** **** 0

# MOE 2024.06 (io_trps.svl 2023.06)
