@<TRIPOS>MOLECULE
NONAME
50 52 1 0 0 
SMALL
USER_CHARGES


@<TRIPOS>ATOM
  1 CL      -0.0400     0.8180    -0.7500 Cl    1 <1>  -0.1770 
  2 C       -1.5990     1.5580    -0.4910 C.ar  1 <1>   0.1770 
  3 C       -1.7620     2.4570     0.5430 C.ar  1 <1>  -0.1500 
  4 C       -2.6510     1.2350    -1.3220 C.ar  1 <1>  -0.1500 
  5 C       -3.0010     3.0400     0.7410 C.ar  1 <1>  -0.1500 
  6 C       -3.8880     1.8230    -1.1170 C.ar  1 <1>  -0.1500 
  7 C       -4.0830     2.7420    -0.0870 C.ar  1 <1>  -0.1430 
  8 C       -5.4370     3.4450     0.1990 C.3   1 <1>   0.2040 
  9 C       -5.1980     4.9760     0.2620 C.2   1 <1>   0.5690 
 10 C       -5.9460     2.8750     1.5580 C.3   1 <1>  -0.1600 
 11 C       -6.5100     3.2190    -0.9090 C.3   1 <1>  -0.1600 
 12 O       -5.7680     5.6620     1.0810 O.2   1 <1>  -0.5700 
 13 N       -4.3400     5.5470    -0.6300 N.am  1 <1>  -0.7300 
 14 C       -7.4760     2.8910     1.6910 C.3   1 <1>  -0.1600 
 15 C       -7.3360     1.9400    -0.6950 C.3   1 <1>  -0.1600 
 16 C       -4.0300     6.9950    -0.6990 C.3   1 <1>   0.1400 
 17 C       -8.1420     2.0170     0.6140 C.3   1 <1>  -0.1600 
 18 C       -3.0320     7.3770     0.3970 C.3   1 <1>   0.1400 
 19 N       -2.7910     8.8440     0.3850 N.am  1 <1>  -0.6600 
 20 C       -1.8610     9.3970    -0.4610 C.2   1 <1>   0.7800 
 21 C       -3.6220     9.6490     1.3110 C.3   1 <1>   0.1400 
 22 O       -1.2480     8.7340    -1.2710 O.2   1 <1>  -0.5700 
 23 O       -1.6160    10.7070    -0.4100 O.3   1 <1>  -0.4300 
 24 C       -3.5650    11.1230     0.9190 C.3   1 <1>  -0.1600 
 25 C       -2.1230    11.5270     0.6180 C.3   1 <1>   0.1200 
 26 H       -0.9300     2.6930     1.1820 H     1 <1>   0.1500 
 27 H       -2.5020     0.5280    -2.1190 H     1 <1>   0.1500 
 28 H       -3.1160     3.7370     1.5550 H     1 <1>   0.1500 
 29 H       -4.6850     1.5380    -1.7790 H     1 <1>   0.1500 
 30 H       -5.5070     3.4230     2.3740 H     1 <1>   0.0800 
 31 H       -5.6230     1.8530     1.6580 H     1 <1>   0.0800 
 32 H       -6.0610     3.2330    -1.8850 H     1 <1>   0.0800 
 33 H       -7.2020     4.0450    -0.8920 H     1 <1>   0.0800 
 34 H       -3.7850     4.9360    -1.2370 H     1 <1>   0.3700 
 35 H       -7.8220     3.9070     1.5950 H     1 <1>   0.0800 
 36 H       -7.7650     2.5450     2.6680 H     1 <1>   0.0800 
 37 H       -6.6760     1.0900    -0.6510 H     1 <1>   0.0800 
 38 H       -8.0080     1.7900    -1.5230 H     1 <1>   0.0800 
 39 H       -4.9410     7.5540    -0.5640 H     1 <1>   0.0800 
 40 H       -3.6170     7.2280    -1.6660 H     1 <1>   0.0800 
 41 H       -9.1220     2.4150     0.4100 H     1 <1>   0.0800 
 42 H       -8.2750     1.0180     0.9930 H     1 <1>   0.0800 
 43 H       -2.1020     6.8610     0.2290 H     1 <1>   0.0800 
 44 H       -3.4180     7.0840     1.3590 H     1 <1>   0.0800 
 45 H       -3.2450     9.5200     2.3110 H     1 <1>   0.0800 
 46 H       -4.6430     9.3030     1.2840 H     1 <1>   0.0800 
 47 H       -3.9560    11.7250     1.7200 H     1 <1>   0.0800 
 48 H       -4.1760    11.2950     0.0500 H     1 <1>   0.0800 
 49 H       -2.0660    12.5480     0.2840 H     1 <1>   0.0800 
 50 H       -1.4960    11.3980     1.4830 H     1 <1>   0.0800 
@<TRIPOS>BOND
  1   1   2  1   
  2   2   3  ar  
  3   2   4  ar  
  4   3   5  ar  
  5   3  26  1   
  6   4   6  ar  
  7   4  27  1   
  8   5   7  ar  
  9   5  28  1   
 10   6   7  ar  
 11   6  29  1   
 12   7   8  1   
 13   8   9  1   
 14   8  10  1   
 15   8  11  1   
 16   9  12  2   
 17   9  13  am  
 18  10  14  1   
 19  10  30  1   
 20  10  31  1   
 21  11  15  1   
 22  11  32  1   
 23  11  33  1   
 24  13  16  1   
 25  13  34  1   
 26  14  17  1   
 27  14  35  1   
 28  14  36  1   
 29  15  17  1   
 30  15  37  1   
 31  15  38  1   
 32  16  18  1   
 33  16  39  1   
 34  16  40  1   
 35  17  41  1   
 36  17  42  1   
 37  18  19  1   
 38  18  43  1   
 39  18  44  1   
 40  19  20  am  
 41  19  21  1   
 42  20  22  2   
 43  20  23  1   
 44  21  24  1   
 45  21  45  1   
 46  21  46  1   
 47  23  25  1   
 48  24  25  1   
 49  24  47  1   
 50  24  48  1   
 51  25  49  1   
 52  25  50  1   
@<TRIPOS>SUBSTRUCTURE
  1 ****  13 GROUP 4 **** **** 0

# MOE 2024.06 (io_trps.svl 2023.06)
