@<TRIPOS>MOLECULE
NONAME
57 59 1 0 0 
SMALL
USER_CHARGES


@<TRIPOS>ATOM
  1 O       -1.2360    -0.5060     2.1530 O.2   1 <1>  -0.5700 
  2 C       -0.9830    -0.0970     1.0420 C.2   1 <1>   0.5690 
  3 N       -1.5510    -0.7080    -0.0530 N.am  1 <1>  -0.6600 
  4 C        0.0000     1.0730     0.9540 C.3   1 <1>   0.0820 
  5 C       -2.2190    -2.0310     0.1140 C.3   1 <1>   0.3200 
  6 C       -1.8370    -0.0300    -1.3510 C.3   1 <1>   0.1400 
  7 C       -0.3760     2.3090     0.1270 C.2   1 <1>  -0.1810 
  8 C       -3.6700    -1.7660     0.4410 C.2   1 <1>  -0.3320 
  9 C       -3.1790     0.7260    -1.2600 C.3   1 <1>   0.3430 
 10 C       -1.4380     3.2210     0.3890 C.ar  1 <1>   0.0000 
 11 C        0.3020     2.7640    -0.9610 C.2   1 <1>  -0.3320 
 12 N       -4.0430    -1.2350     1.6190 N.pl3 1 <1>   0.0330 
 13 C       -4.8010    -1.9440    -0.2760 C.2   1 <1>   0.0770 
 14 N       -3.1580     2.0810    -1.8890 N.4   1 <1>  -0.9590 
 15 C       -2.4730     3.3390     1.3390 C.ar  1 <1>  -0.1430 
 16 C       -1.3370     4.2050    -0.5980 C.ar  1 <1>  -0.1520 
 17 N       -0.2610     3.9250    -1.3920 N.pl3 1 <1>   0.0330 
 18 C        1.5350     2.2230    -1.6710 C.3   1 <1>  -0.0600 
 19 C       -5.3810    -1.0890     1.5290 C.2   1 <1>   0.0360 
 20 N       -5.8710    -1.4890     0.4000 N.2   1 <1>  -0.5650 
 21 C       -4.4360     2.7910    -1.5890 C.3   1 <1>   0.2630 
 22 C       -2.8770     2.0630    -3.3530 C.3   1 <1>   0.2630 
 23 C       -3.3520     4.3960     1.2490 C.ar  1 <1>  -0.1500 
 24 C       -2.6460     2.3530     2.4820 C.3   1 <1>  -0.0970 
 25 C       -2.2290     5.2770    -0.6860 C.ar  1 <1>  -0.1430 
 26 C       -3.2360     5.3590     0.2440 C.ar  1 <1>  -0.1500 
 27 C       -2.0710     6.3330    -1.7680 C.3   1 <1>  -0.0970 
 28 H        0.9230     0.6650     0.5970 H     1 <1>   0.0800 
 29 H        0.2080     1.4090     1.9530 H     1 <1>   0.0800 
 30 H       -1.7540    -2.5910     0.9090 H     1 <1>   0.0800 
 31 H       -2.1320    -2.6070    -0.7920 H     1 <1>   0.0800 
 32 H       -1.8960    -0.7660    -2.1330 H     1 <1>   0.0800 
 33 H       -1.0340     0.6350    -1.5990 H     1 <1>   0.0800 
 34 H       -3.4220     0.8400    -0.2160 H     1 <1>   0.0800 
 35 H       -3.9550     0.1280    -1.7090 H     1 <1>   0.0800 
 36 H       -3.4140    -0.9890     2.3970 H     1 <1>   0.2700 
 37 H       -4.9100    -2.3690    -1.2610 H     1 <1>   0.1500 
 38 H       -2.4090     2.6210    -1.4010 H     1 <1>   0.4500 
 39 H        0.1130     4.5500    -2.1150 H     1 <1>   0.2700 
 40 H        1.8220     1.2560    -1.3020 H     1 <1>   0.0800 
 41 H        2.3640     2.8950    -1.5260 H     1 <1>   0.0800 
 42 H        1.3500     2.1330    -2.7270 H     1 <1>   0.0800 
 43 H       -5.9660    -0.6760     2.3330 H     1 <1>   0.1500 
 44 H       -5.2680     2.2810    -2.0450 H     1 <1>   0.0800 
 45 H       -4.3950     3.8020    -1.9600 H     1 <1>   0.0800 
 46 H       -4.5940     2.8300    -0.5230 H     1 <1>   0.0800 
 47 H       -3.6350     1.5010    -3.8720 H     1 <1>   0.0800 
 48 H       -1.9160     1.6150    -3.5440 H     1 <1>   0.0800 
 49 H       -2.8670     3.0700    -3.7390 H     1 <1>   0.0800 
 50 H       -4.1450     4.5110     1.9680 H     1 <1>   0.1500 
 51 H       -1.7090     2.1840     2.9790 H     1 <1>   0.0800 
 52 H       -3.0340     1.4250     2.1120 H     1 <1>   0.0800 
 53 H       -3.3340     2.7340     3.2150 H     1 <1>   0.0800 
 54 H       -3.9400     6.1730     0.2260 H     1 <1>   0.1500 
 55 H       -2.1190     5.8830    -2.7430 H     1 <1>   0.0800 
 56 H       -1.1240     6.8300    -1.6560 H     1 <1>   0.0800 
 57 H       -2.8480     7.0740    -1.6960 H     1 <1>   0.0800 
@<TRIPOS>BOND
  1   1   2  2   
  2   2   3  am  
  3   2   4  1   
  4   3   5  1   
  5   3   6  1   
  6   4   7  1   
  7   4  28  1   
  8   4  29  1   
  9   5   8  1   
 10   5  30  1   
 11   5  31  1   
 12   6   9  1   
 13   6  32  1   
 14   6  33  1   
 15   7  10  1   
 16   7  11  2   
 17   8  12  1   
 18   8  13  2   
 19   9  14  1   
 20   9  34  1   
 21   9  35  1   
 22  10  15  ar  
 23  10  16  ar  
 24  11  17  1   
 25  11  18  1   
 26  12  19  1   
 27  12  36  1   
 28  13  20  1   
 29  13  37  1   
 30  14  21  1   
 31  14  22  1   
 32  14  38  1   
 33  15  23  ar  
 34  15  24  1   
 35  16  17  1   
 36  16  25  ar  
 37  17  39  1   
 38  18  40  1   
 39  18  41  1   
 40  18  42  1   
 41  19  20  2   
 42  19  43  1   
 43  21  44  1   
 44  21  45  1   
 45  21  46  1   
 46  22  47  1   
 47  22  48  1   
 48  22  49  1   
 49  23  26  ar  
 50  23  50  1   
 51  24  51  1   
 52  24  52  1   
 53  24  53  1   
 54  25  26  ar  
 55  25  27  1   
 56  26  54  1   
 57  27  55  1   
 58  27  56  1   
 59  27  57  1   
@<TRIPOS>SUBSTRUCTURE
  1 ****   9 GROUP 4 **** **** 0

# MOE 2024.06 (io_trps.svl 2023.06)
