@<TRIPOS>MOLECULE
NONAME
44 47 1 0 0 
SMALL
USER_CHARGES


@<TRIPOS>ATOM
  1 O       -1.8360    -0.3070    -0.8130 O.3   1 <1>  -0.2800 
  2 C       -1.4080     0.8940    -0.4550 C.2   1 <1>   0.1410 
  3 C       -2.7600    -0.1820    -1.7450 C.2   1 <1>  -0.0400 
  4 C       -0.4150     1.0040     0.5880 C.2   1 <1>   0.2880 
  5 C       -2.0660     1.8210    -1.2030 C.2   1 <1>  -0.1500 
  6 C       -2.9480     1.1220    -2.0360 C.2   1 <1>  -0.1500 
  7 C       -3.3910    -1.4690    -2.2360 C.3   1 <1>   0.5230 
  8 N       -0.0180    -0.0010     1.3370 N.2   1 <1>  -0.7070 
  9 C        0.2500     2.1800     0.9470 C.2   1 <1>  -0.1500 
 10 N       -3.5520    -2.3200    -1.0270 N.4   1 <1>  -0.9590 
 11 N        0.9000     0.5230     2.1690 N.pl3 1 <1>   0.3000 
 12 C        1.0780     1.8390     1.9540 C.2   1 <1>  -0.3020 
 13 C       -3.3870    -3.7810    -1.2840 C.3   1 <1>   0.3430 
 14 C       -4.7780    -1.9850    -0.2530 C.3   1 <1>   0.3430 
 15 C       -3.3190    -4.5510     0.0480 C.3   1 <1>   0.0580 
 16 C       -4.7460    -2.7270     1.0860 C.3   1 <1>  -0.1600 
 17 C       -3.1780    -6.0570    -0.1570 C.2   1 <1>  -0.0380 
 18 C       -4.5530    -4.2430     0.9130 C.3   1 <1>  -0.1600 
 19 N       -2.6250    -6.7880     0.8640 N.pl3 1 <1>  -0.5500 
 20 C       -3.5500    -6.7560    -1.2570 C.2   1 <1>  -0.1360 
 21 C       -2.4580    -8.1420     0.7620 C.2   1 <1>   0.4400 
 22 C       -3.3540    -8.1610    -1.3160 C.2   1 <1>   0.7670 
 23 N       -2.7940    -8.8300    -0.2650 N.2   1 <1>  -0.6610 
 24 O       -3.6820    -8.7820    -2.3120 O.2   1 <1>  -0.5700 
 25 H       -1.9550     2.8900    -1.1710 H     1 <1>   0.1500 
 26 H       -3.6210     1.5800    -2.7430 H     1 <1>   0.1500 
 27 H       -2.7160    -1.9400    -2.9320 H     1 <1>   0.0800 
 28 H       -4.3350    -1.2850    -2.7230 H     1 <1>   0.0800 
 29 H        0.1090     3.1440     0.4930 H     1 <1>   0.1500 
 30 H       -2.7540    -2.0090    -0.4410 H     1 <1>   0.4500 
 31 H        1.3920    -0.0420     2.8750 H     1 <1>   0.2700 
 32 H        1.7680     2.4420     2.5170 H     1 <1>   0.1500 
 33 H       -2.4800    -3.9590    -1.8380 H     1 <1>   0.0800 
 34 H       -4.2200    -4.1430    -1.8640 H     1 <1>   0.0800 
 35 H       -5.6550    -2.2770    -0.8080 H     1 <1>   0.0800 
 36 H       -4.8230    -0.9220    -0.0730 H     1 <1>   0.0800 
 37 H       -2.4370    -4.2110     0.5630 H     1 <1>   0.0800 
 38 H       -5.6690    -2.5420     1.6090 H     1 <1>   0.0800 
 39 H       -3.9530    -2.3220     1.6920 H     1 <1>   0.0800 
 40 H       -4.4460    -4.7030     1.8820 H     1 <1>   0.0800 
 41 H       -5.4300    -4.6660     0.4510 H     1 <1>   0.0800 
 42 H       -2.3230    -6.3440     1.7380 H     1 <1>   0.4000 
 43 H       -4.0040    -6.3280    -2.1270 H     1 <1>   0.1500 
 44 H       -2.0150    -8.6400     1.6080 H     1 <1>   0.0600 
@<TRIPOS>BOND
  1   1   2  1   
  2   1   3  1   
  3   2   4  1   
  4   2   5  2   
  5   3   6  2   
  6   3   7  1   
  7   4   8  2   
  8   4   9  1   
  9   5   6  1   
 10   5  25  1   
 11   6  26  1   
 12   7  10  1   
 13   7  27  1   
 14   7  28  1   
 15   8  11  1   
 16   9  12  2   
 17   9  29  1   
 18  10  13  1   
 19  10  14  1   
 20  10  30  1   
 21  11  12  1   
 22  11  31  1   
 23  12  32  1   
 24  13  15  1   
 25  13  33  1   
 26  13  34  1   
 27  14  16  1   
 28  14  35  1   
 29  14  36  1   
 30  15  17  1   
 31  15  18  1   
 32  15  37  1   
 33  16  18  1   
 34  16  38  1   
 35  16  39  1   
 36  17  19  1   
 37  17  20  2   
 38  18  40  1   
 39  18  41  1   
 40  19  21  1   
 41  19  42  1   
 42  20  22  1   
 43  20  43  1   
 44  21  23  2   
 45  21  44  1   
 46  22  23  1   
 47  22  24  2   
@<TRIPOS>SUBSTRUCTURE
  1 ****  10 GROUP 4 **** **** 0

# MOE 2024.06 (io_trps.svl 2023.06)
