@<TRIPOS>MOLECULE
NONAME
57 59 1 0 0 
SMALL
USER_CHARGES


@<TRIPOS>ATOM
  1 O       -3.7770     0.0260    -2.5830 O.2   1 <1>  -0.5700 
  2 C       -3.3100     1.1180    -2.3740 C.2   1 <1>   0.4950 
  3 C       -3.3580     1.8780    -1.1770 C.2   1 <1>  -0.1240 
  4 C       -2.5340     1.8970    -3.4110 C.3   1 <1>  -0.0990 
  5 C       -2.6940     3.0440    -1.2820 C.2   1 <1>  -0.1670 
  6 C       -4.1150     1.3560     0.0390 C.3   1 <1>   0.0390 
  7 C       -2.1170     3.1930    -2.6820 C.3   1 <1>  -0.0220 
  8 C       -2.4780     4.0810    -0.3110 C.ar  1 <1>   0.0280 
  9 C       -5.6030     1.1400    -0.2260 C.2   1 <1>   0.5690 
 10 C       -2.9270     5.3810    -0.5300 C.ar  1 <1>  -0.1500 
 11 C       -1.8100     3.8140     0.8820 C.ar  1 <1>  -0.1500 
 12 O       -6.1250     1.7380    -1.1420 O.2   1 <1>  -0.5700 
 13 N       -6.3500     0.2670     0.5240 N.am  1 <1>  -0.6600 
 14 C       -2.7180     6.3770     0.4060 C.ar  1 <1>  -0.1500 
 15 C       -1.5990     4.8060     1.8220 C.ar  1 <1>  -0.1500 
 16 C       -5.8180    -0.5270     1.6790 C.3   1 <1>   0.3210 
 17 C       -7.8180     0.0860     0.2530 C.3   1 <1>   0.1400 
 18 C       -2.0540     6.0910     1.5860 C.ar  1 <1>  -0.1500 
 19 C       -5.3900    -1.9290     1.2480 C.2   1 <1>   0.0460 
 20 C       -8.1310    -0.8920    -0.9010 C.3   1 <1>   0.3430 
 21 N       -6.2930    -2.8130     0.7670 N.2   1 <1>  -0.5650 
 22 C       -4.1550    -2.4860     1.2940 C.2   1 <1>  -0.3320 
 23 N       -7.2940    -0.6390    -2.1160 N.4   1 <1>  -0.9590 
 24 C       -5.5970    -3.8800     0.5430 C.2   1 <1>   0.0360 
 25 N       -4.2890    -3.7440     0.8360 N.pl3 1 <1>   0.0330 
 26 C       -2.8110    -1.9480     1.7600 C.3   1 <1>  -0.0600 
 27 C       -8.0780    -0.5930    -3.3770 C.3   1 <1>   0.2630 
 28 C       -6.1760    -1.6250    -2.1940 C.3   1 <1>   0.2630 
 29 H       -3.1640     2.1110    -4.2540 H     1 <1>   0.0800 
 30 H       -1.6760     1.3330    -3.7260 H     1 <1>   0.0800 
 31 H       -4.0190     2.0440     0.8570 H     1 <1>   0.0800 
 32 H       -3.6640     0.4250     0.3190 H     1 <1>   0.0800 
 33 H       -2.5290     4.0570    -3.1740 H     1 <1>   0.0800 
 34 H       -1.0450     3.2830    -2.6370 H     1 <1>   0.0800 
 35 H       -3.4500     5.6110    -1.4410 H     1 <1>   0.1500 
 36 H       -1.4450     2.8200     1.0670 H     1 <1>   0.1500 
 37 H       -3.0740     7.3760     0.2190 H     1 <1>   0.1500 
 38 H       -1.0780     4.5830     2.7370 H     1 <1>   0.1500 
 39 H       -6.5770    -0.6180     2.4360 H     1 <1>   0.0800 
 40 H       -4.9900    -0.0150     2.1310 H     1 <1>   0.0800 
 41 H       -8.2470     1.0440     0.0120 H     1 <1>   0.0800 
 42 H       -8.3140    -0.2610     1.1410 H     1 <1>   0.0800 
 43 H       -1.8920     6.8650     2.3150 H     1 <1>   0.1500 
 44 H       -9.1730    -0.7910    -1.1520 H     1 <1>   0.0800 
 45 H       -7.9830    -1.9030    -0.5610 H     1 <1>   0.0800 
 46 H       -6.8460     0.2940    -1.9630 H     1 <1>   0.4500 
 47 H       -6.0010    -4.8030     0.1630 H     1 <1>   0.1500 
 48 H       -3.5600    -4.4590     0.7460 H     1 <1>   0.2700 
 49 H       -2.9110    -0.9690     2.1900 H     1 <1>   0.0800 
 50 H       -2.1280    -1.8900     0.9300 H     1 <1>   0.0800 
 51 H       -2.3910    -2.5990     2.5070 H     1 <1>   0.0800 
 52 H       -8.5500    -1.5450    -3.5590 H     1 <1>   0.0800 
 53 H       -7.4280    -0.3640    -4.2060 H     1 <1>   0.0800 
 54 H       -8.8370     0.1690    -3.3150 H     1 <1>   0.0800 
 55 H       -6.5590    -2.6290    -2.2520 H     1 <1>   0.0800 
 56 H       -5.5520    -1.5450    -1.3190 H     1 <1>   0.0800 
 57 H       -5.5640    -1.4290    -3.0600 H     1 <1>   0.0800 
@<TRIPOS>BOND
  1   1   2  2   
  2   2   3  1   
  3   2   4  1   
  4   3   5  2   
  5   3   6  1   
  6   4   7  1   
  7   4  29  1   
  8   4  30  1   
  9   5   7  1   
 10   5   8  1   
 11   6   9  1   
 12   6  31  1   
 13   6  32  1   
 14   7  33  1   
 15   7  34  1   
 16   8  10  ar  
 17   8  11  ar  
 18   9  12  2   
 19   9  13  am  
 20  10  14  ar  
 21  10  35  1   
 22  11  15  ar  
 23  11  36  1   
 24  13  16  1   
 25  13  17  1   
 26  14  18  ar  
 27  14  37  1   
 28  15  18  ar  
 29  15  38  1   
 30  16  19  1   
 31  16  39  1   
 32  16  40  1   
 33  17  20  1   
 34  17  41  1   
 35  17  42  1   
 36  18  43  1   
 37  19  21  1   
 38  19  22  2   
 39  20  23  1   
 40  20  44  1   
 41  20  45  1   
 42  21  24  2   
 43  22  25  1   
 44  22  26  1   
 45  23  27  1   
 46  23  28  1   
 47  23  46  1   
 48  24  25  1   
 49  24  47  1   
 50  25  48  1   
 51  26  49  1   
 52  26  50  1   
 53  26  51  1   
 54  27  52  1   
 55  27  53  1   
 56  27  54  1   
 57  28  55  1   
 58  28  56  1   
 59  28  57  1   
@<TRIPOS>SUBSTRUCTURE
  1 ****   6 GROUP 4 **** **** 0

# MOE 2024.06 (io_trps.svl 2023.06)
