@<TRIPOS>MOLECULE
NONAME
38 41 1 0 0 
SMALL
USER_CHARGES


@<TRIPOS>ATOM
  1 CL      -0.5030     0.7490    -0.3020 Cl    1 <1>  -0.1770 
  2 C       -1.8010    -0.4160    -0.1730 C.ar  1 <1>   0.1770 
  3 C       -3.1190    -0.0030    -0.2520 C.ar  1 <1>   0.1600 
  4 C       -1.5030    -1.7490     0.0080 C.ar  1 <1>  -0.1500 
  5 N       -4.1640    -0.8140    -0.1660 N.ar  1 <1>  -0.6200 
  6 C       -2.5820    -2.5990     0.0990 C.ar  1 <1>  -0.1500 
  7 C       -3.8830    -2.1040     0.0070 C.ar  1 <1>   0.4100 
  8 N       -4.9440    -2.9830     0.0870 N.pl3 1 <1>  -0.8380 
  9 C       -6.2090    -2.5010     0.7020 C.3   1 <1>   0.2090 
 10 C       -5.1840    -3.8450    -1.0960 C.3   1 <1>   0.2090 
 11 C       -7.0160    -3.7060     1.1780 C.3   1 <1>  -0.1600 
 12 C       -5.9650    -5.0800    -0.6550 C.3   1 <1>  -0.1600 
 13 C       -7.2800    -4.6910     0.0300 C.3   1 <1>   0.4610 
 14 O       -8.0600    -4.0520    -0.9660 O.3   1 <1>  -0.5600 
 15 C       -8.0080    -5.9410     0.5340 C.2   1 <1>  -0.1810 
 16 C       -9.4500    -3.9410    -0.7660 C.3   1 <1>   0.1200 
 17 C       -9.2710    -6.1970     0.1700 C.2   1 <1>  -0.1400 
 18 C       -7.4660    -6.9400     1.4110 C.2   1 <1>  -0.1500 
 19 C      -10.1150    -5.3260    -0.7210 C.3   1 <1>   0.0200 
 20 S       -9.8620    -7.6920     0.8640 S.3   1 <1>  -0.0800 
 21 C       -8.3270    -7.9410     1.6820 C.2   1 <1>  -0.1100 
 22 H       -3.3180     1.0440    -0.3930 H     1 <1>   0.1500 
 23 H       -0.4860    -2.0920     0.0750 H     1 <1>   0.1500 
 24 H       -2.4450    -3.6530     0.2470 H     1 <1>   0.1500 
 25 H       -6.7690    -1.9340    -0.0240 H     1 <1>   0.0800 
 26 H       -5.9840    -1.8570     1.5360 H     1 <1>   0.0800 
 27 H       -4.2470    -4.1410    -1.5350 H     1 <1>   0.0800 
 28 H       -5.7430    -3.2920    -1.8330 H     1 <1>   0.0800 
 29 H       -7.9400    -3.3850     1.6160 H     1 <1>   0.0800 
 30 H       -6.4540    -4.2030     1.9470 H     1 <1>   0.0800 
 31 H       -5.3520    -5.6430     0.0230 H     1 <1>   0.0800 
 32 H       -6.1790    -5.7040    -1.5020 H     1 <1>   0.0800 
 33 H       -9.8530    -3.3610    -1.5770 H     1 <1>   0.0800 
 34 H       -9.6220    -3.4120     0.1540 H     1 <1>   0.0800 
 35 H       -6.4640    -6.8630     1.7950 H     1 <1>   0.1500 
 36 H      -10.1640    -5.7490    -1.7080 H     1 <1>   0.0800 
 37 H      -11.1120    -5.2390    -0.3280 H     1 <1>   0.0800 
 38 H       -8.2310    -8.8230     2.2900 H     1 <1>   0.1500 
@<TRIPOS>BOND
  1   1   2  1   
  2   2   3  ar  
  3   2   4  ar  
  4   3   5  ar  
  5   3  22  1   
  6   4   6  ar  
  7   4  23  1   
  8   5   7  ar  
  9   6   7  ar  
 10   6  24  1   
 11   7   8  1   
 12   8   9  1   
 13   8  10  1   
 14   9  11  1   
 15   9  25  1   
 16   9  26  1   
 17  10  12  1   
 18  10  27  1   
 19  10  28  1   
 20  11  13  1   
 21  11  29  1   
 22  11  30  1   
 23  12  13  1   
 24  12  31  1   
 25  12  32  1   
 26  13  14  1   
 27  13  15  1   
 28  14  16  1   
 29  15  17  2   
 30  15  18  1   
 31  16  19  1   
 32  16  33  1   
 33  16  34  1   
 34  17  19  1   
 35  17  20  1   
 36  18  21  2   
 37  18  35  1   
 38  19  36  1   
 39  19  37  1   
 40  20  21  1   
 41  21  38  1   
@<TRIPOS>SUBSTRUCTURE
  1 ****   8 GROUP 4 **** **** 0

# MOE 2024.06 (io_trps.svl 2023.06)
