@<TRIPOS>MOLECULE
NONAME
46 48 1 0 0 
SMALL
USER_CHARGES


@<TRIPOS>ATOM
  1 O       -1.4970     0.6480    -1.6530 O.2   1 <1>  -0.5700 
  2 C       -2.0480     0.8640    -0.5950 C.2   1 <1>   0.6340 
  3 O       -1.8460     2.0410     0.0080 O.3   1 <1>  -0.4300 
  4 C       -2.9190    -0.0960     0.0610 C.ar  1 <1>   0.0860 
  5 C       -1.0140     3.0340    -0.5600 C.3   1 <1>   0.0400 
  6 C       -3.4810     0.1550     1.3130 C.ar  1 <1>  -0.1500 
  7 C       -3.2250    -1.3180    -0.5420 C.ar  1 <1>  -0.1500 
  8 C       -4.3050    -0.7760     1.9160 C.ar  1 <1>   0.0830 
  9 C       -4.0480    -2.2770     0.0480 C.ar  1 <1>   0.0860 
 10 O       -4.8440    -0.5260     3.1170 O.3   1 <1>  -0.5320 
 11 C       -4.5890    -1.9750     1.2960 C.ar  1 <1>  -0.1500 
 12 C       -4.3260    -3.5370    -0.6180 C.2   1 <1>   0.5440 
 13 O       -4.3190    -3.6170    -1.8290 O.2   1 <1>  -0.5700 
 14 N       -4.5960    -4.6620     0.1040 N.am  1 <1>  -0.7300 
 15 C       -4.8920    -5.9950    -0.4660 C.3   1 <1>   0.2200 
 16 C       -6.3660    -6.3020    -0.2640 C.3   1 <1>  -0.0800 
 17 C       -4.2320    -7.0700     0.3890 C.3   1 <1>   0.1200 
 18 C       -6.3930    -6.8770     1.1580 C.3   1 <1>   0.1200 
 19 C       -6.8810    -7.3060    -1.3120 C.3   1 <1>  -0.0170 
 20 O       -5.0880    -7.2710     1.4730 O.3   1 <1>  -0.5600 
 21 C       -8.3630    -7.5920    -1.1260 C.ar  1 <1>  -0.1430 
 22 C       -8.8230    -8.7830    -0.6010 C.ar  1 <1>  -0.1500 
 23 C       -9.3280    -6.6690    -1.4750 C.ar  1 <1>  -0.1500 
 24 C      -10.1850    -8.9850    -0.4500 C.ar  1 <1>   0.1600 
 25 C      -10.6660    -6.9700    -1.2840 C.ar  1 <1>   0.1600 
 26 N      -11.1170    -8.1050    -0.7770 N.ar  1 <1>  -0.6200 
 27 H       -1.0040     3.8870     0.0940 H     1 <1>   0.0800 
 28 H       -1.4090     3.3090    -1.5230 H     1 <1>   0.0800 
 29 H       -0.0200     2.6350    -0.6680 H     1 <1>   0.0800 
 30 H       -3.2710     1.0830     1.8130 H     1 <1>   0.1500 
 31 H       -2.8070    -1.5350    -1.5110 H     1 <1>   0.1500 
 32 H       -4.6030     0.3440     3.4850 H     1 <1>   0.4500 
 33 H       -5.2440    -2.6680     1.7910 H     1 <1>   0.1500 
 34 H       -4.5540    -4.6460     1.1260 H     1 <1>   0.3700 
 35 H       -4.5800    -6.0450    -1.4960 H     1 <1>   0.0800 
 36 H       -6.9580    -5.4060    -0.3280 H     1 <1>   0.0800 
 37 H       -3.2580    -6.7800     0.7430 H     1 <1>   0.0800 
 38 H       -4.1630    -7.9980    -0.1510 H     1 <1>   0.0800 
 39 H       -7.0450    -7.7260     1.2570 H     1 <1>   0.0800 
 40 H       -6.6840    -6.1220     1.8690 H     1 <1>   0.0800 
 41 H       -6.3250    -8.2260    -1.2540 H     1 <1>   0.0800 
 42 H       -6.7320    -6.8990    -2.2970 H     1 <1>   0.0800 
 43 H       -8.1370    -9.5570    -0.3070 H     1 <1>   0.1500 
 44 H       -9.0510    -5.7180    -1.8950 H     1 <1>   0.1500 
 45 H      -10.5250    -9.9200    -0.0380 H     1 <1>   0.1500 
 46 H      -11.4040    -6.2370    -1.5620 H     1 <1>   0.1500 
@<TRIPOS>BOND
  1   1   2  2   
  2   2   3  1   
  3   2   4  1   
  4   3   5  1   
  5   4   6  ar  
  6   4   7  ar  
  7   5  27  1   
  8   5  28  1   
  9   5  29  1   
 10   6   8  ar  
 11   6  30  1   
 12   7   9  ar  
 13   7  31  1   
 14   8  10  1   
 15   8  11  ar  
 16   9  11  ar  
 17   9  12  1   
 18  10  32  1   
 19  11  33  1   
 20  12  13  2   
 21  12  14  am  
 22  14  15  1   
 23  14  34  1   
 24  15  16  1   
 25  15  17  1   
 26  15  35  1   
 27  16  18  1   
 28  16  19  1   
 29  16  36  1   
 30  17  20  1   
 31  17  37  1   
 32  17  38  1   
 33  18  20  1   
 34  18  39  1   
 35  18  40  1   
 36  19  21  1   
 37  19  41  1   
 38  19  42  1   
 39  21  22  ar  
 40  21  23  ar  
 41  22  24  ar  
 42  22  43  1   
 43  23  25  ar  
 44  23  44  1   
 45  24  26  ar  
 46  24  45  1   
 47  25  26  ar  
 48  25  46  1   
@<TRIPOS>SUBSTRUCTURE
  1 ****  14 GROUP 4 **** **** 0

# MOE 2024.06 (io_trps.svl 2023.06)
