@<TRIPOS>MOLECULE
NONAME
27 26 1 0 0 
SMALL
USER_CHARGES


@<TRIPOS>ATOM
  1 O        0.4150     0.2010     0.1710 O.3   1 <1>  -0.6800 
  2 C        1.7670     0.1160     0.5220 C.3   1 <1>   0.1200 
  3 C        2.3860    -1.1560    -0.1010 C.3   1 <1>   0.4230 
  4 N        1.3520    -2.2060    -0.1200 N.4   1 <1>  -0.8530 
  5 C        3.6340    -1.6200     0.6650 C.3   1 <1>  -0.1600 
  6 C        4.5300    -2.6820    -0.0200 C.3   1 <1>   0.0000 
  7 C        4.9300    -2.2370    -1.4350 C.3   1 <1>  -0.2400 
  8 C        3.8650    -4.0660    -0.0950 C.3   1 <1>  -0.2400 
  9 C        5.8100    -2.8270     0.8180 C.3   1 <1>  -0.2400 
 10 H        0.0260     1.0560     0.4680 H     1 <1>   0.4000 
 11 H        2.2760     0.9960     0.1630 H     1 <1>   0.0800 
 12 H        1.8320     0.0900     1.5970 H     1 <1>   0.0800 
 13 H        2.6650    -0.9120    -1.1140 H     1 <1>   0.0800 
 14 H        1.2880    -2.6780     0.7840 H     1 <1>   0.4500 
 15 H        1.5050    -2.8850    -0.8680 H     1 <1>   0.4500 
 16 H        0.4640    -1.6970    -0.2740 H     1 <1>   0.4500 
 17 H        4.2460    -0.7460     0.8130 H     1 <1>   0.0800 
 18 H        3.3540    -1.9590     1.6470 H     1 <1>   0.0800 
 19 H        5.6350    -2.9340    -1.8570 H     1 <1>   0.0800 
 20 H        5.4020    -1.2700    -1.4130 H     1 <1>   0.0800 
 21 H        4.0840    -2.1940    -2.0960 H     1 <1>   0.0800 
 22 H        4.5860    -4.8020    -0.4120 H     1 <1>   0.0800 
 23 H        3.0650    -4.0920    -0.8090 H     1 <1>   0.0800 
 24 H        3.4970    -4.3680     0.8690 H     1 <1>   0.0800 
 25 H        6.4740    -3.5520     0.3800 H     1 <1>   0.0800 
 26 H        5.5800    -3.1500     1.8180 H     1 <1>   0.0800 
 27 H        6.3400    -1.8920     0.8790 H     1 <1>   0.0800 
@<TRIPOS>BOND
  1   1   2  1   
  2   1  10  1   
  3   2   3  1   
  4   2  11  1   
  5   2  12  1   
  6   3   4  1   
  7   3   5  1   
  8   3  13  1   
  9   4  14  1   
 10   4  15  1   
 11   4  16  1   
 12   5   6  1   
 13   5  17  1   
 14   5  18  1   
 15   6   7  1   
 16   6   8  1   
 17   6   9  1   
 18   7  19  1   
 19   7  20  1   
 20   7  21  1   
 21   8  22  1   
 22   8  23  1   
 23   8  24  1   
 24   9  25  1   
 25   9  26  1   
 26   9  27  1   
@<TRIPOS>SUBSTRUCTURE
  1 ****   5 GROUP 4 **** **** 0

# MOE 2024.06 (io_trps.svl 2023.06)
