@<TRIPOS>MOLECULE
NONAME
57 60 1 0 0 
SMALL
USER_CHARGES


@<TRIPOS>ATOM
  1 S        0.1480     0.2400    -1.9890 S.o2  1 <1>   1.5760 
  2 O        1.0750    -0.3250    -2.9430 O.2   1 <1>  -0.6500 
  3 O       -0.8140     1.2360    -2.4050 O.2   1 <1>  -0.6500 
  4 N       -0.6730    -1.0060    -1.2010 N.am  1 <1>  -0.8490 
  5 N        1.0520     0.8660    -0.7130 N.am  1 <1>  -0.8490 
  6 C       -1.3040    -1.9040    -2.1680 C.3   1 <1>   0.1960 
  7 C       -1.6700    -0.4800    -0.2650 C.3   1 <1>   0.1960 
  8 C        1.6610     2.1250    -1.1380 C.3   1 <1>   0.3390 
  9 C        2.0710    -0.0820    -0.2380 C.3   1 <1>   0.1160 
 10 C       -1.9010    -3.1100    -1.4420 C.3   1 <1>  -0.1600 
 11 C       -2.2750    -1.6290     0.5410 C.3   1 <1>  -0.1600 
 12 C        2.4080     2.7980     0.0070 C.ar  1 <1>  -0.1430 
 13 C       -2.9180    -2.6760    -0.3800 C.3   1 <1>   0.4240 
 14 C        1.7290     3.1690     1.1580 C.ar  1 <1>  -0.1500 
 15 C        3.7700     3.0480    -0.0880 C.ar  1 <1>  -0.1500 
 16 O       -3.9540    -2.0480    -1.0990 O.3   1 <1>  -0.5600 
 17 C       -3.4310    -3.8960     0.4180 C.ar  1 <1>  -0.1430 
 18 C        2.4010     3.7820     2.2020 C.ar  1 <1>  -0.1500 
 19 C        4.4430     3.6610     0.9550 C.ar  1 <1>  -0.1500 
 20 C       -5.1990    -1.9480    -0.4820 C.3   1 <1>   0.1200 
 21 C       -4.7850    -4.2170     0.4510 C.ar  1 <1>  -0.1430 
 22 C       -2.5440    -4.6970     1.1290 C.ar  1 <1>  -0.1500 
 23 C        3.7580     4.0280     2.1000 C.ar  1 <1>  -0.1500 
 24 C       -5.7730    -3.3500    -0.3040 C.3   1 <1>  -0.0170 
 25 C       -5.2350    -5.3150     1.1650 C.ar  1 <1>  -0.1500 
 26 C       -2.9930    -5.7920     1.8450 C.ar  1 <1>  -0.1500 
 27 C       -4.3380    -6.1120     1.8680 C.ar  1 <1>   0.0830 
 28 O       -4.6960    -7.2020     2.5910 O.3   1 <1>  -0.3630 
 29 C       -6.0390    -7.6260     2.6620 C.3   1 <1>   0.0400 
 30 H       -0.5670    -2.2550    -2.8730 H     1 <1>   0.0800 
 31 H       -2.0700    -1.3780    -2.7170 H     1 <1>   0.0800 
 32 H       -2.4450     0.0450    -0.8030 H     1 <1>   0.0800 
 33 H       -1.2040     0.2140     0.4130 H     1 <1>   0.0800 
 34 H        0.8930     2.8020    -1.4750 H     1 <1>   0.0800 
 35 H        2.3290     1.9470    -1.9650 H     1 <1>   0.0800 
 36 H        1.6080    -1.0150     0.0370 H     1 <1>   0.0800 
 37 H        2.5690     0.3060     0.6340 H     1 <1>   0.0800 
 38 H        2.8010    -0.2740    -1.0060 H     1 <1>   0.0800 
 39 H       -1.0980    -3.6580    -0.9890 H     1 <1>   0.0800 
 40 H       -2.3840    -3.7620    -2.1460 H     1 <1>   0.0800 
 41 H       -2.9990    -1.2530     1.2380 H     1 <1>   0.0800 
 42 H       -1.4890    -2.0840     1.1150 H     1 <1>   0.0800 
 43 H        0.6740     2.9740     1.2400 H     1 <1>   0.1500 
 44 H        4.3140     2.7670    -0.9730 H     1 <1>   0.1500 
 45 H        1.8670     4.0660     3.0910 H     1 <1>   0.1500 
 46 H        5.4990     3.8520     0.8760 H     1 <1>   0.1500 
 47 H       -5.8360    -1.3580    -1.1180 H     1 <1>   0.0800 
 48 H       -5.0880    -1.4500     0.4650 H     1 <1>   0.0800 
 49 H       -1.4910    -4.4770     1.1330 H     1 <1>   0.1500 
 50 H        4.2810     4.5040     2.9110 H     1 <1>   0.1500 
 51 H       -5.9700    -3.7810    -1.2690 H     1 <1>   0.0800 
 52 H       -6.7000    -3.2850     0.2350 H     1 <1>   0.0800 
 53 H       -6.2840    -5.5390     1.1660 H     1 <1>   0.1500 
 54 H       -2.3010    -6.4080     2.3910 H     1 <1>   0.1500 
 55 H       -6.0790    -8.5070     3.2780 H     1 <1>   0.0800 
 56 H       -6.3850    -7.8570     1.6710 H     1 <1>   0.0800 
 57 H       -6.6290    -6.8440     3.1060 H     1 <1>   0.0800 
@<TRIPOS>BOND
  1   1   2  2   
  2   1   3  2   
  3   1   4  am  
  4   1   5  am  
  5   4   6  1   
  6   4   7  1   
  7   5   8  1   
  8   5   9  1   
  9   6  10  1   
 10   6  30  1   
 11   6  31  1   
 12   7  11  1   
 13   7  32  1   
 14   7  33  1   
 15   8  12  1   
 16   8  34  1   
 17   8  35  1   
 18   9  36  1   
 19   9  37  1   
 20   9  38  1   
 21  10  13  1   
 22  10  39  1   
 23  10  40  1   
 24  11  13  1   
 25  11  41  1   
 26  11  42  1   
 27  12  14  ar  
 28  12  15  ar  
 29  13  16  1   
 30  13  17  1   
 31  14  18  ar  
 32  14  43  1   
 33  15  19  ar  
 34  15  44  1   
 35  16  20  1   
 36  17  21  ar  
 37  17  22  ar  
 38  18  23  ar  
 39  18  45  1   
 40  19  23  ar  
 41  19  46  1   
 42  20  24  1   
 43  20  47  1   
 44  20  48  1   
 45  21  24  1   
 46  21  25  ar  
 47  22  26  ar  
 48  22  49  1   
 49  23  50  1   
 50  24  51  1   
 51  24  52  1   
 52  25  27  ar  
 53  25  53  1   
 54  26  27  ar  
 55  26  54  1   
 56  27  28  1   
 57  28  29  1   
 58  29  55  1   
 59  29  56  1   
 60  29  57  1   
@<TRIPOS>SUBSTRUCTURE
  1 ****   7 GROUP 4 **** **** 0

# MOE 2024.06 (io_trps.svl 2023.06)
