@<TRIPOS>MOLECULE
NONAME
56 59 1 0 0 
SMALL
USER_CHARGES


@<TRIPOS>ATOM
  1 O       -0.7270     0.1360     0.7610 O.3   1 <1>  -0.6800 
  2 C        0.2740    -0.5430     0.0790 C.3   1 <1>   0.2000 
  3 C        0.4670    -1.8930     0.7760 C.3   1 <1>  -0.0800 
  4 C        1.5800     0.2320     0.2980 C.3   1 <1>   0.3430 
  5 C        1.4520    -1.5450     1.8940 C.3   1 <1>   0.3430 
  6 C        0.9520    -3.0240    -0.1730 C.3   1 <1>  -0.0170 
  7 N        2.3800    -0.5510     1.2950 N.4   1 <1>  -0.9590 
  8 C        2.4580    -3.1150    -0.4050 C.ar  1 <1>   0.1670 
  9 C        3.1580     0.2670     2.2580 C.3   1 <1>   0.4860 
 10 N        3.0450    -2.1140    -0.9900 N.ar  1 <1>  -0.6200 
 11 C        3.1430    -4.2630     0.0280 C.ar  1 <1>  -0.1500 
 12 C        4.0890     1.1800     1.4940 C.ar  1 <1>  -0.1440 
 13 C        4.3860    -2.1930    -1.2040 C.ar  1 <1>   0.3100 
 14 C        4.4900    -4.3590    -0.1520 C.ar  1 <1>  -0.1500 
 15 C        3.7990     2.5150     1.3200 C.ar  1 <1>   0.1600 
 16 C        5.2580     0.7200     0.9310 C.ar  1 <1>   0.1600 
 17 C        5.1580    -3.2960    -0.7800 C.ar  1 <1>   0.0000 
 18 C        5.0390    -1.1230    -1.8370 C.ar  1 <1>  -0.1500 
 19 N        4.5720     3.3120     0.6290 N.ar  1 <1>  -0.6200 
 20 N        6.0500     1.4990     0.2400 N.ar  1 <1>  -0.6200 
 21 C        6.5500    -3.2810    -0.9940 C.ar  1 <1>  -0.1500 
 22 C        6.3940    -1.1250    -2.0280 C.ar  1 <1>  -0.1500 
 23 C        5.6630     2.7630     0.1170 C.ar  1 <1>   0.7200 
 24 C        7.1580    -2.2170    -1.6020 C.ar  1 <1>  -0.1500 
 25 N        6.4250     3.6090    -0.6070 N.pl3 1 <1>  -0.8690 
 26 C        7.8150     3.4000    -1.0120 C.3   1 <1>   0.2890 
 27 C        8.6310     4.5880    -0.5180 C.3   1 <1>  -0.2400 
 28 C        7.8490     3.2960    -2.5310 C.3   1 <1>  -0.2400 
 29 H       -1.6170    -0.1530     0.4670 H     1 <1>   0.4000 
 30 H        0.0030    -0.6070    -0.9620 H     1 <1>   0.0800 
 31 H       -0.4650    -2.2200     1.2040 H     1 <1>   0.0800 
 32 H        1.3550     1.2220     0.6590 H     1 <1>   0.0800 
 33 H        2.1280     0.3040    -0.6270 H     1 <1>   0.0800 
 34 H        1.9760    -2.4160     2.2530 H     1 <1>   0.0800 
 35 H        0.9100    -1.0880     2.7070 H     1 <1>   0.0800 
 36 H        0.4670    -2.9280    -1.1290 H     1 <1>   0.0800 
 37 H        0.6180    -3.9620     0.2360 H     1 <1>   0.0800 
 38 H        3.0320    -1.0940     0.6960 H     1 <1>   0.4500 
 39 H        2.4890     0.8530     2.8660 H     1 <1>   0.0800 
 40 H        3.7340    -0.3740     2.9050 H     1 <1>   0.0800 
 41 H        2.6030    -5.0670     0.4960 H     1 <1>   0.1500 
 42 H        5.0470    -5.2240     0.1650 H     1 <1>   0.1500 
 43 H        2.9090     2.9460     1.7480 H     1 <1>   0.1500 
 44 H        5.5560    -0.3100     1.0370 H     1 <1>   0.1500 
 45 H        4.4490    -0.2880    -2.1670 H     1 <1>   0.1500 
 46 H        7.1330    -4.1260    -0.6710 H     1 <1>   0.1500 
 47 H        6.8850    -0.2920    -2.5030 H     1 <1>   0.1500 
 48 H        8.2230    -2.2040    -1.7640 H     1 <1>   0.1500 
 49 H        6.1000     4.5720    -0.5920 H     1 <1>   0.4000 
 50 H        8.2040     2.4920    -0.5780 H     1 <1>   0.0800 
 51 H        8.2690     5.5050    -0.9470 H     1 <1>   0.0800 
 52 H        9.6620     4.4630    -0.7960 H     1 <1>   0.0800 
 53 H        8.5760     4.6480     0.5540 H     1 <1>   0.0800 
 54 H        7.4670     4.1940    -2.9820 H     1 <1>   0.0800 
 55 H        7.2540     2.4590    -2.8490 H     1 <1>   0.0800 
 56 H        8.8580     3.1420    -2.8660 H     1 <1>   0.0800 
@<TRIPOS>BOND
  1   1   2  1   
  2   1  29  1   
  3   2   3  1   
  4   2   4  1   
  5   2  30  1   
  6   3   5  1   
  7   3   6  1   
  8   3  31  1   
  9   4   7  1   
 10   4  32  1   
 11   4  33  1   
 12   5   7  1   
 13   5  34  1   
 14   5  35  1   
 15   6   8  1   
 16   6  36  1   
 17   6  37  1   
 18   7   9  1   
 19   7  38  1   
 20   8  10  ar  
 21   8  11  ar  
 22   9  12  1   
 23   9  39  1   
 24   9  40  1   
 25  10  13  ar  
 26  11  14  ar  
 27  11  41  1   
 28  12  15  ar  
 29  12  16  ar  
 30  13  17  ar  
 31  13  18  ar  
 32  14  17  ar  
 33  14  42  1   
 34  15  19  ar  
 35  15  43  1   
 36  16  20  ar  
 37  16  44  1   
 38  17  21  ar  
 39  18  22  ar  
 40  18  45  1   
 41  19  23  ar  
 42  20  23  ar  
 43  21  24  ar  
 44  21  46  1   
 45  22  24  ar  
 46  22  47  1   
 47  23  25  1   
 48  24  48  1   
 49  25  26  1   
 50  25  49  1   
 51  26  27  1   
 52  26  28  1   
 53  26  50  1   
 54  27  51  1   
 55  27  52  1   
 56  27  53  1   
 57  28  54  1   
 58  28  55  1   
 59  28  56  1   
@<TRIPOS>SUBSTRUCTURE
  1 ****  16 GROUP 4 **** **** 0

# MOE 2024.06 (io_trps.svl 2023.06)
