@<TRIPOS>MOLECULE
NONAME
40 40 1 0 0 
SMALL
USER_CHARGES


@<TRIPOS>ATOM
  1 O        0.1120    -0.5500     0.6900 O.2   1 <1>  -0.5700 
  2 C        0.1290    -1.4080    -0.1780 C.2   1 <1>   0.7800 
  3 O        1.2930    -1.9720    -0.5410 O.3   1 <1>  -0.4300 
  4 N       -0.9920    -1.8480    -0.8270 N.am  1 <1>  -0.4690 
  5 C        2.5660    -1.7370     0.0170 C.3   1 <1>   0.2800 
  6 C       -2.3220    -1.4040    -0.5060 C.2   1 <1>   0.1230 
  7 C       -0.9630    -3.0190    -1.7270 C.3   1 <1>   0.1400 
  8 C        3.5100    -2.6650    -0.7490 C.3   1 <1>  -0.2400 
  9 C        2.5740    -2.1250     1.5000 C.3   1 <1>  -0.2400 
 10 C        2.9900    -0.2820    -0.2160 C.3   1 <1>  -0.2400 
 11 C       -3.2130    -2.3840    -0.0350 C.2   1 <1>  -0.2880 
 12 C       -2.6200    -0.0410    -0.7680 C.2   1 <1>   0.7060 
 13 C       -0.9650    -4.3250    -0.9210 C.3   1 <1>   0.1200 
 14 O       -4.4320    -2.1880     0.0410 O.3   1 <1>  -0.8500 
 15 C       -2.8490    -3.8050     0.4150 C.3   1 <1>   0.2580 
 16 O       -1.8680     0.7080    -1.4280 O.2   1 <1>  -0.5700 
 17 O       -3.7560     0.5480    -0.3150 O.3   1 <1>  -0.4300 
 18 O       -1.4900    -4.1550     0.3600 O.3   1 <1>  -0.5600 
 19 C       -4.0410     1.8970    -0.5920 C.3   1 <1>   0.1200 
 20 C       -5.3790     2.2350     0.0570 C.3   1 <1>  -0.2400 
 21 H       -0.1010    -2.9780    -2.3680 H     1 <1>   0.0800 
 22 H       -1.8360    -2.9950    -2.3560 H     1 <1>   0.0800 
 23 H        3.2100    -3.6890    -0.6170 H     1 <1>   0.0800 
 24 H        4.5160    -2.5550    -0.3880 H     1 <1>   0.0800 
 25 H        3.4960    -2.4260    -1.7970 H     1 <1>   0.0800 
 26 H        2.1870    -3.1200     1.6270 H     1 <1>   0.0800 
 27 H        1.9800    -1.4430     2.0820 H     1 <1>   0.0800 
 28 H        3.5760    -2.0930     1.8850 H     1 <1>   0.0800 
 29 H        2.8920    -0.0270    -1.2550 H     1 <1>   0.0800 
 30 H        4.0150    -0.1460     0.0770 H     1 <1>   0.0800 
 31 H        2.3930     0.3930     0.3680 H     1 <1>   0.0800 
 32 H        0.0480    -4.6640    -0.7980 H     1 <1>   0.0800 
 33 H       -1.5240    -5.0900    -1.4310 H     1 <1>   0.0800 
 34 H       -3.4100    -4.5150    -0.1670 H     1 <1>   0.0800 
 35 H       -3.1560    -3.9080     1.4390 H     1 <1>   0.0800 
 36 H       -4.0860     2.0190    -1.6610 H     1 <1>   0.0800 
 37 H       -3.2470     2.5000    -0.1850 H     1 <1>   0.0800 
 38 H       -6.1460     1.5960    -0.3440 H     1 <1>   0.0800 
 39 H       -5.6360     3.2580    -0.1410 H     1 <1>   0.0800 
 40 H       -5.3150     2.0870     1.1200 H     1 <1>   0.0800 
@<TRIPOS>BOND
  1   1   2  2   
  2   2   3  1   
  3   2   4  am  
  4   3   5  1   
  5   4   6  1   
  6   4   7  1   
  7   5   8  1   
  8   5   9  1   
  9   5  10  1   
 10   6  11  2   
 11   6  12  1   
 12   7  13  1   
 13   7  21  1   
 14   7  22  1   
 15   8  23  1   
 16   8  24  1   
 17   8  25  1   
 18   9  26  1   
 19   9  27  1   
 20   9  28  1   
 21  10  29  1   
 22  10  30  1   
 23  10  31  1   
 24  11  14  1   
 25  11  15  1   
 26  12  16  2   
 27  12  17  1   
 28  13  18  1   
 29  13  32  1   
 30  13  33  1   
 31  15  18  1   
 32  15  34  1   
 33  15  35  1   
 34  17  19  1   
 35  19  20  1   
 36  19  36  1   
 37  19  37  1   
 38  20  38  1   
 39  20  39  1   
 40  20  40  1   
@<TRIPOS>SUBSTRUCTURE
  1 ****   4 GROUP 4 **** **** 0

# MOE 2024.06 (io_trps.svl 2023.06)
