@<TRIPOS>MOLECULE
NONAME
46 47 1 0 0 
SMALL
USER_CHARGES


@<TRIPOS>ATOM
  1 O       -0.6510     0.9850    -0.6340 O.2   1 <1>  -0.5700 
  2 C       -0.7100     2.1920    -0.6210 C.2   1 <1>   0.5690 
  3 N       -1.5050     2.9110     0.2350 N.am  1 <1>  -0.6600 
  4 C        0.1470     2.9510    -1.6290 C.3   1 <1>   0.1810 
  5 C       -1.5360     4.4120     0.1660 C.3   1 <1>   0.3640 
  6 C       -2.3290     2.3210     1.3270 C.3   1 <1>   0.2200 
  7 O        0.5980     4.1720    -1.1030 O.3   1 <1>  -0.5600 
  8 C       -2.9230     4.8650    -0.3000 C.ar  1 <1>  -0.1440 
  9 C       -0.4460     5.0650    -0.7330 C.3   1 <1>   0.2610 
 10 C       -1.4260     1.6600     2.3660 C.3   1 <1>  -0.2400 
 11 C       -3.3760     1.3510     0.7780 C.3   1 <1>  -0.2400 
 12 C       -3.5610     4.2570    -1.3740 C.ar  1 <1>  -0.1500 
 13 C       -3.5600     5.9130     0.3510 C.ar  1 <1>  -0.1500 
 14 C        0.1360     6.2920    -0.0200 C.2   1 <1>   0.5690 
 15 C       -4.8120     4.6830    -1.7850 C.ar  1 <1>  -0.1500 
 16 C       -4.8110     6.3400    -0.0580 C.ar  1 <1>  -0.1500 
 17 O       -0.6150     7.1460     0.3870 O.2   1 <1>  -0.5700 
 18 N        1.4880     6.3670     0.1420 N.am  1 <1>  -0.7300 
 19 C       -5.4390     5.7250    -1.1260 C.ar  1 <1>  -0.1500 
 20 C        2.3000     7.4120     0.7880 C.3   1 <1>   0.2200 
 21 C        1.9360     7.5150     2.2670 C.3   1 <1>  -0.2400 
 22 C        2.1230     8.7410     0.0590 C.3   1 <1>  -0.2400 
 23 H       -0.4170     3.1430    -2.5240 H     1 <1>   0.0800 
 24 H        1.0110     2.3620    -1.8770 H     1 <1>   0.0800 
 25 H       -1.3870     4.7740     1.1690 H     1 <1>   0.0800 
 26 H       -2.8640     3.1160     1.8210 H     1 <1>   0.0800 
 27 H       -0.9010     5.4100    -1.6430 H     1 <1>   0.0800 
 28 H       -0.9160     0.8110     1.9460 H     1 <1>   0.0800 
 29 H       -2.0150     1.3180     3.1970 H     1 <1>   0.0800 
 30 H       -0.7000     2.3640     2.7300 H     1 <1>   0.0800 
 31 H       -2.9140     0.4840     0.3420 H     1 <1>   0.0800 
 32 H       -3.9850     1.8400     0.0410 H     1 <1>   0.0800 
 33 H       -4.0150     1.0210     1.5760 H     1 <1>   0.0800 
 34 H       -3.0920     3.4410    -1.8960 H     1 <1>   0.1500 
 35 H       -3.0830     6.4110     1.1790 H     1 <1>   0.1500 
 36 H       -5.2990     4.2020    -2.6150 H     1 <1>   0.1500 
 37 H       -5.2930     7.1550     0.4540 H     1 <1>   0.1500 
 38 H        2.0170     5.5780    -0.2420 H     1 <1>   0.3700 
 39 H       -6.4120     6.0580    -1.4440 H     1 <1>   0.1500 
 40 H        3.3350     7.1200     0.7140 H     1 <1>   0.0800 
 41 H        0.9220     7.8510     2.3870 H     1 <1>   0.0800 
 42 H        2.5840     8.2200     2.7540 H     1 <1>   0.0800 
 43 H        2.0520     6.5590     2.7450 H     1 <1>   0.0800 
 44 H        1.1110     9.0930     0.1480 H     1 <1>   0.0800 
 45 H        2.3670     8.6280    -0.9820 H     1 <1>   0.0800 
 46 H        2.7750     9.4810     0.4840 H     1 <1>   0.0800 
@<TRIPOS>BOND
  1   1   2  2   
  2   2   3  am  
  3   2   4  1   
  4   3   5  1   
  5   3   6  1   
  6   4   7  1   
  7   4  23  1   
  8   4  24  1   
  9   5   8  1   
 10   5   9  1   
 11   5  25  1   
 12   6  10  1   
 13   6  11  1   
 14   6  26  1   
 15   7   9  1   
 16   8  12  ar  
 17   8  13  ar  
 18   9  14  1   
 19   9  27  1   
 20  10  28  1   
 21  10  29  1   
 22  10  30  1   
 23  11  31  1   
 24  11  32  1   
 25  11  33  1   
 26  12  15  ar  
 27  12  34  1   
 28  13  16  ar  
 29  13  35  1   
 30  14  17  2   
 31  14  18  am  
 32  15  19  ar  
 33  15  36  1   
 34  16  19  ar  
 35  16  37  1   
 36  18  20  1   
 37  18  38  1   
 38  19  39  1   
 39  20  21  1   
 40  20  22  1   
 41  20  40  1   
 42  21  41  1   
 43  21  42  1   
 44  21  43  1   
 45  22  44  1   
 46  22  45  1   
 47  22  46  1   
@<TRIPOS>SUBSTRUCTURE
  1 ****   5 GROUP 4 **** **** 0

# MOE 2024.06 (io_trps.svl 2023.06)
