@<TRIPOS>MOLECULE
NONAME
39 40 1 0 0 
SMALL
USER_CHARGES


@<TRIPOS>ATOM
  1 F        1.3230     0.5600    -1.3790 F     1 <1>  -0.1900 
  2 C        1.9060    -0.4600    -0.8110 C.ar  1 <1>   0.1900 
  3 C        1.7800    -1.7030    -1.3990 C.ar  1 <1>  -0.1500 
  4 C        2.6220    -0.2600     0.3520 C.ar  1 <1>  -0.1500 
  5 C        2.3900    -2.7930    -0.7940 C.ar  1 <1>  -0.1440 
  6 C        3.2390    -1.3460     0.9510 C.ar  1 <1>  -0.1440 
  7 C        3.1210    -2.6040     0.3750 C.ar  1 <1>  -0.1500 
  8 C        2.2590    -4.1770    -1.4000 C.3   1 <1>   0.4870 
  9 C        4.0410    -1.1610     2.2280 C.3   1 <1>  -0.0970 
 10 N        1.2770    -4.9540    -0.5970 N.4   1 <1>  -0.9590 
 11 C        1.3090    -6.4080    -0.9730 C.3   1 <1>   0.3430 
 12 C       -0.0980    -4.3800    -0.7100 C.3   1 <1>   0.3430 
 13 C        0.3170    -7.2510    -0.1490 C.3   1 <1>   0.2000 
 14 C       -1.0670    -5.1700     0.1680 C.3   1 <1>  -0.1600 
 15 O        0.3210    -8.5250    -0.6870 O.3   1 <1>  -0.6800 
 16 C       -1.1070    -6.6690    -0.2070 C.3   1 <1>  -0.0800 
 17 C       -2.0780    -7.4570     0.6910 C.3   1 <1>   0.1200 
 18 O       -3.3300    -6.8750     0.6090 O.3   1 <1>  -0.6800 
 19 H        1.2150    -1.7910    -2.3110 H     1 <1>   0.1500 
 20 H        2.6910     0.7290     0.7710 H     1 <1>   0.1500 
 21 H        3.6140    -3.4350     0.8510 H     1 <1>   0.1500 
 22 H        3.2220    -4.6620    -1.3820 H     1 <1>   0.0800 
 23 H        1.9330    -4.1040    -2.4250 H     1 <1>   0.0800 
 24 H        3.4510    -1.4510     3.0780 H     1 <1>   0.0800 
 25 H        4.3320    -0.1320     2.3480 H     1 <1>   0.0800 
 26 H        4.9340    -1.7600     2.2010 H     1 <1>   0.0800 
 27 H        1.5630    -4.8520     0.3840 H     1 <1>   0.4500 
 28 H        1.0490    -6.5120    -2.0130 H     1 <1>   0.0800 
 29 H        2.3010    -6.8030    -0.8280 H     1 <1>   0.0800 
 30 H       -0.0960    -3.3470    -0.3970 H     1 <1>   0.0800 
 31 H       -0.4300    -4.4210    -1.7350 H     1 <1>   0.0800 
 32 H        0.6610    -7.3230     0.8690 H     1 <1>   0.0800 
 33 H       -0.8010    -5.0470     1.2030 H     1 <1>   0.0800 
 34 H       -2.0470    -4.7430     0.0400 H     1 <1>   0.0800 
 35 H       -0.2320    -9.1440    -0.1680 H     1 <1>   0.4000 
 36 H       -1.4580    -6.7510    -1.2230 H     1 <1>   0.0800 
 37 H       -1.7650    -7.4350     1.7220 H     1 <1>   0.0800 
 38 H       -2.1680    -8.4780     0.3610 H     1 <1>   0.0800 
 39 H       -3.9920    -7.3810     1.1230 H     1 <1>   0.4000 
@<TRIPOS>BOND
  1   1   2  1   
  2   2   3  ar  
  3   2   4  ar  
  4   3   5  ar  
  5   3  19  1   
  6   4   6  ar  
  7   4  20  1   
  8   5   7  ar  
  9   5   8  1   
 10   6   7  ar  
 11   6   9  1   
 12   7  21  1   
 13   8  10  1   
 14   8  22  1   
 15   8  23  1   
 16   9  24  1   
 17   9  25  1   
 18   9  26  1   
 19  10  11  1   
 20  10  12  1   
 21  10  27  1   
 22  11  13  1   
 23  11  28  1   
 24  11  29  1   
 25  12  14  1   
 26  12  30  1   
 27  12  31  1   
 28  13  15  1   
 29  13  16  1   
 30  13  32  1   
 31  14  16  1   
 32  14  33  1   
 33  14  34  1   
 34  15  35  1   
 35  16  17  1   
 36  16  36  1   
 37  17  18  1   
 38  17  37  1   
 39  17  38  1   
 40  18  39  1   
@<TRIPOS>SUBSTRUCTURE
  1 ****  10 GROUP 4 **** **** 0

# MOE 2024.06 (io_trps.svl 2023.06)
