@<TRIPOS>MOLECULE
NONAME
43 44 1 0 0 
SMALL
USER_CHARGES


@<TRIPOS>ATOM
  1 CL      -0.3470    -0.3900    -0.9570 Cl    1 <1>  -0.1770 
  2 C       -0.1990    -2.1230    -0.8040 C.ar  1 <1>   0.1770 
  3 C       -1.3330    -2.8860    -0.6120 C.ar  1 <1>  -0.1500 
  4 C        1.0540    -2.7020    -0.8780 C.ar  1 <1>  -0.1500 
  5 C       -1.2190    -4.2610    -0.4900 C.ar  1 <1>   0.0830 
  6 C        1.1720    -4.0770    -0.7570 C.ar  1 <1>  -0.1500 
  7 O       -2.3690    -4.9540    -0.3020 O.3   1 <1>  -0.3630 
  8 C        0.0420    -4.8550    -0.5640 C.ar  1 <1>  -0.1500 
  9 C       -2.3620    -6.3560    -0.1380 C.3   1 <1>   0.1200 
 10 C       -3.8050    -6.8270     0.0470 C.3   1 <1>   0.1100 
 11 N       -3.8830    -8.2970     0.1580 N.3   1 <1>  -0.8100 
 12 C       -5.2730    -8.7590    -0.0860 C.3   1 <1>   0.2480 
 13 C       -3.4130    -8.7640     1.4760 C.3   1 <1>   0.0300 
 14 C       -5.3440   -10.2750    -0.3040 C.2   1 <1>  -0.0380 
 15 N       -4.2420   -10.8180    -0.9170 N.pl3 1 <1>  -0.6000 
 16 C       -6.3860   -11.0870     0.0470 C.2   1 <1>  -0.1240 
 17 C       -4.1330   -12.1550    -1.1930 C.2   1 <1>  -0.0500 
 18 C       -6.3080   -12.4950    -0.2110 C.2   1 <1>   0.5410 
 19 C       -7.6690   -10.5790     0.7090 C.3   1 <1>  -0.1020 
 20 C       -5.1380   -13.0030    -0.8560 C.2   1 <1>  -0.1240 
 21 O       -7.2230   -13.2530     0.1160 O.2   1 <1>  -0.5700 
 22 C       -5.0430   -14.4950    -1.1500 C.3   1 <1>  -0.1020 
 23 H       -2.2980    -2.4190    -0.5580 H     1 <1>   0.1500 
 24 H        1.9210    -2.0840    -1.0290 H     1 <1>   0.1500 
 25 H        2.1430    -4.5400    -0.8140 H     1 <1>   0.1500 
 26 H        0.1630    -5.9180    -0.4750 H     1 <1>   0.1500 
 27 H       -1.7680    -6.5870     0.7270 H     1 <1>   0.0800 
 28 H       -1.9400    -6.8000    -1.0220 H     1 <1>   0.0800 
 29 H       -4.3610    -6.5060    -0.8180 H     1 <1>   0.0800 
 30 H       -4.2320    -6.3660     0.9220 H     1 <1>   0.0800 
 31 H       -5.6460    -8.2910    -0.9810 H     1 <1>   0.0800 
 32 H       -5.8960    -8.4570     0.7360 H     1 <1>   0.0800 
 33 H       -2.3810    -8.5000     1.6240 H     1 <1>   0.0800 
 34 H       -3.4890    -9.8370     1.5410 H     1 <1>   0.0800 
 35 H       -4.0030    -8.3290     2.2650 H     1 <1>   0.0800 
 36 H       -3.4690   -10.1540    -1.0900 H     1 <1>   0.4000 
 37 H       -3.2290   -12.4910    -1.6760 H     1 <1>   0.1500 
 38 H       -8.5240   -10.9750     0.1910 H     1 <1>   0.0800 
 39 H       -7.7500    -9.5100     0.6960 H     1 <1>   0.0800 
 40 H       -7.7060   -10.9190     1.7280 H     1 <1>   0.0800 
 41 H       -5.8560   -14.7920    -1.7880 H     1 <1>   0.0800 
 42 H       -5.1070   -15.0510    -0.2320 H     1 <1>   0.0800 
 43 H       -4.1150   -14.7350    -1.6360 H     1 <1>   0.0800 
@<TRIPOS>BOND
  1   1   2  1   
  2   2   3  ar  
  3   2   4  ar  
  4   3   5  ar  
  5   3  23  1   
  6   4   6  ar  
  7   4  24  1   
  8   5   7  1   
  9   5   8  ar  
 10   6   8  ar  
 11   6  25  1   
 12   7   9  1   
 13   8  26  1   
 14   9  10  1   
 15   9  27  1   
 16   9  28  1   
 17  10  11  1   
 18  10  29  1   
 19  10  30  1   
 20  11  12  1   
 21  11  13  1   
 22  12  14  1   
 23  12  31  1   
 24  12  32  1   
 25  13  33  1   
 26  13  34  1   
 27  13  35  1   
 28  14  15  1   
 29  14  16  2   
 30  15  17  1   
 31  15  36  1   
 32  16  18  1   
 33  16  19  1   
 34  17  20  2   
 35  17  37  1   
 36  18  20  1   
 37  18  21  2   
 38  19  38  1   
 39  19  39  1   
 40  19  40  1   
 41  20  22  1   
 42  22  41  1   
 43  22  42  1   
 44  22  43  1   
@<TRIPOS>SUBSTRUCTURE
  1 ****  11 GROUP 4 **** **** 0

# MOE 2024.06 (io_trps.svl 2023.06)
