@<TRIPOS>MOLECULE
NONAME
44 46 1 0 0 
SMALL
USER_CHARGES


@<TRIPOS>ATOM
  1 O       -2.2630     0.3060    -1.2480 O.2   1 <1>  -0.5700 
  2 C       -2.0610     0.6620    -0.1130 C.2   1 <1>   0.5690 
  3 N       -2.1480    -0.2290     0.9070 N.am  1 <1>  -0.7300 
  4 C       -1.7290     2.1230     0.1880 C.3   1 <1>  -0.0190 
  5 C       -2.2370    -1.6990     0.7020 C.3   1 <1>   0.3080 
  6 C       -2.8660     3.0660    -0.2540 C.3   1 <1>  -0.1600 
  7 C       -0.3830     2.5420    -0.4520 C.3   1 <1>  -0.1600 
  8 C       -3.5730    -2.1490     0.1040 C.2   1 <1>   0.1820 
  9 C       -2.6100     4.5200     0.1850 C.3   1 <1>   0.2000 
 10 C       -0.2580     4.0580    -0.7040 C.3   1 <1>  -0.1600 
 11 N       -3.9380    -3.4840    -0.0110 N.pl3 1 <1>  -0.6290 
 12 C       -4.5780    -1.4030    -0.4010 C.2   1 <1>   0.2000 
 13 O       -3.2420     5.3420    -0.7630 O.3   1 <1>  -0.5600 
 14 C       -1.0990     4.8690     0.2840 C.3   1 <1>   0.2000 
 15 C       -5.1640    -3.5090    -0.5920 C.cat 1 <1>   0.7910 
 16 C       -3.3060    -4.6670     0.3150 C.2   1 <1>   0.2290 
 17 N       -5.5650    -2.2510    -0.8260 N.pl3 1 <1>  -0.7000 
 18 C       -4.1010     6.3020    -0.2320 C.3   1 <1>   0.0400 
 19 O       -0.9080     6.2070     0.0050 O.3   1 <1>  -0.6800 
 20 C       -5.8100    -4.7280    -0.8580 C.2   1 <1>  -0.1410 
 21 C       -3.9170    -5.8620     0.0630 C.2   1 <1>  -0.1500 
 22 C       -5.1940    -5.9050    -0.5330 C.2   1 <1>  -0.1500 
 23 H       -1.9270     0.0770     1.8580 H     1 <1>   0.3700 
 24 H       -1.6300     2.2230     1.2540 H     1 <1>   0.0800 
 25 H       -1.4420    -2.0060     0.0440 H     1 <1>   0.0800 
 26 H       -2.0950    -2.1870     1.6500 H     1 <1>   0.0800 
 27 H       -3.8020     2.7360     0.1590 H     1 <1>   0.0800 
 28 H       -2.9400     3.0250    -1.3280 H     1 <1>   0.0800 
 29 H        0.4190     2.2180     0.1890 H     1 <1>   0.0800 
 30 H       -0.2550     2.0410    -1.3980 H     1 <1>   0.0800 
 31 H       -3.0560     4.6770     1.1530 H     1 <1>   0.0800 
 32 H       -0.6040     4.2730    -1.7010 H     1 <1>   0.0800 
 33 H        0.7750     4.3520    -0.6360 H     1 <1>   0.0800 
 34 H       -4.6460    -0.3300    -0.4910 H     1 <1>   0.1500 
 35 H       -0.7420     4.6880     1.2830 H     1 <1>   0.0800 
 36 H       -2.3280    -4.6200     0.7660 H     1 <1>   0.1500 
 37 H       -6.4430    -1.9820    -1.2760 H     1 <1>   0.4500 
 38 H       -4.4940     6.8880    -1.0440 H     1 <1>   0.0800 
 39 H       -3.5540     6.9380     0.4440 H     1 <1>   0.0800 
 40 H       -4.9090     5.8090     0.2820 H     1 <1>   0.0800 
 41 H       -1.5360     6.4290    -0.7170 H     1 <1>   0.4000 
 42 H       -6.7810    -4.7080    -1.3160 H     1 <1>   0.1500 
 43 H       -3.4340    -6.7910     0.3150 H     1 <1>   0.1500 
 44 H       -5.6580    -6.8620    -0.7210 H     1 <1>   0.1500 
@<TRIPOS>BOND
  1   1   2  2   
  2   2   3  am  
  3   2   4  1   
  4   3   5  1   
  5   3  23  1   
  6   4   6  1   
  7   4   7  1   
  8   4  24  1   
  9   5   8  1   
 10   5  25  1   
 11   5  26  1   
 12   6   9  1   
 13   6  27  1   
 14   6  28  1   
 15   7  10  1   
 16   7  29  1   
 17   7  30  1   
 18   8  11  1   
 19   8  12  2   
 20   9  13  1   
 21   9  14  1   
 22   9  31  1   
 23  10  14  1   
 24  10  32  1   
 25  10  33  1   
 26  11  15  ar  
 27  11  16  1   
 28  12  17  1   
 29  12  34  1   
 30  13  18  1   
 31  14  19  1   
 32  14  35  1   
 33  15  17  ar  
 34  15  20  1   
 35  16  21  2   
 36  16  36  1   
 37  17  37  1   
 38  18  38  1   
 39  18  39  1   
 40  18  40  1   
 41  19  41  1   
 42  20  22  2   
 43  20  42  1   
 44  21  22  1   
 45  21  43  1   
 46  22  44  1   
@<TRIPOS>SUBSTRUCTURE
  1 ****   2 GROUP 4 **** **** 0

# MOE 2024.06 (io_trps.svl 2023.06)
