@<TRIPOS>MOLECULE
NONAME
57 60 1 0 0 
SMALL
USER_CHARGES


@<TRIPOS>ATOM
  1 O       -0.3390    -0.3950    -0.2380 O.2   1 <1>  -0.5700 
  2 C       -1.2980     0.3050    -0.0070 C.2   1 <1>   0.5690 
  3 N       -2.5570    -0.2300    -0.1580 N.am  1 <1>  -0.6600 
  4 C       -1.0090     1.7820     0.4100 C.3   1 <1>   0.0610 
  5 C       -3.8860     0.4370    -0.1730 C.3   1 <1>   0.1400 
  6 C       -2.7200    -1.6690    -0.5030 C.3   1 <1>   0.1400 
  7 C       -1.1410     2.6910    -0.8330 C.3   1 <1>  -0.1600 
  8 C        0.4510     1.9090     0.9330 C.3   1 <1>  -0.1600 
  9 C       -1.9520     2.2730     1.5400 C.3   1 <1>  -0.2400 
 10 C       -4.8340    -0.5730    -0.8150 C.3   1 <1>   0.2000 
 11 C       -4.2250    -1.9370    -0.5140 C.3   1 <1>  -0.0800 
 12 C       -0.6550     4.1210    -0.5930 C.3   1 <1>   0.3430 
 13 C        0.9250     3.3460     1.1340 C.3   1 <1>   0.3430 
 14 O       -6.1080    -0.4860    -0.2770 O.3   1 <1>  -0.6800 
 15 C       -4.6490    -3.0200    -1.5200 C.3   1 <1>  -0.0160 
 16 N        0.7650     4.1000    -0.1410 N.4   1 <1>  -0.9590 
 17 C       -4.0430    -4.3710    -1.1550 C.ar  1 <1>  -0.1440 
 18 C        1.3140     5.4840    -0.0170 C.3   1 <1>   0.2630 
 19 C       -4.5710    -5.1830    -0.1220 C.ar  1 <1>   0.0000 
 20 C       -2.9490    -4.8360    -1.8230 C.ar  1 <1>  -0.1500 
 21 C       -3.9140    -6.4070     0.1540 C.ar  1 <1>   0.3100 
 22 C       -5.7100    -4.8550     0.6510 C.ar  1 <1>  -0.1500 
 23 C       -2.3790    -6.0660    -1.4760 C.ar  1 <1>   0.1600 
 24 N       -2.8230    -6.8330    -0.5310 N.ar  1 <1>  -0.6200 
 25 C       -4.4060    -7.2260     1.1820 C.ar  1 <1>  -0.1500 
 26 C       -6.1660    -5.6780     1.6440 C.ar  1 <1>  -0.1500 
 27 C       -5.5060    -6.8790     1.9170 C.ar  1 <1>  -0.1500 
 28 H       -4.1930     0.6340     0.8390 H     1 <1>   0.0800 
 29 H       -3.8630     1.3440    -0.7490 H     1 <1>   0.0800 
 30 H       -2.2910    -1.8430    -1.4750 H     1 <1>   0.0800 
 31 H       -2.2170    -2.2950     0.2170 H     1 <1>   0.0800 
 32 H       -2.1660     2.7300    -1.1520 H     1 <1>   0.0800 
 33 H       -0.5790     2.2660    -1.6470 H     1 <1>   0.0800 
 34 H        1.1390     1.4490     0.2440 H     1 <1>   0.0800 
 35 H        0.5450     1.3730     1.8620 H     1 <1>   0.0800 
 36 H       -1.6140     3.1860     1.9920 H     1 <1>   0.0800 
 37 H       -2.0120     1.5260     2.3130 H     1 <1>   0.0800 
 38 H       -2.9430     2.4610     1.1750 H     1 <1>   0.0800 
 39 H       -4.8980    -0.3950    -1.8750 H     1 <1>   0.0800 
 40 H       -4.4980    -2.2370     0.4820 H     1 <1>   0.0800 
 41 H       -1.2710     4.5940     0.1550 H     1 <1>   0.0800 
 42 H       -0.7410     4.6850    -1.5080 H     1 <1>   0.0800 
 43 H        1.9610     3.3400     1.4310 H     1 <1>   0.0800 
 44 H        0.3530     3.8180     1.9160 H     1 <1>   0.0800 
 45 H       -6.0970    -0.7100     0.6730 H     1 <1>   0.4000 
 46 H       -4.3280    -2.7360    -2.5070 H     1 <1>   0.0800 
 47 H       -5.7210    -3.0960    -1.5550 H     1 <1>   0.0800 
 48 H        1.3060     3.5940    -0.8580 H     1 <1>   0.4500 
 49 H        0.7690     6.0390     0.7290 H     1 <1>   0.0800 
 50 H        1.2350     6.0030    -0.9590 H     1 <1>   0.0800 
 51 H        2.3530     5.4500     0.2680 H     1 <1>   0.0800 
 52 H       -2.4950    -4.2780    -2.6220 H     1 <1>   0.1500 
 53 H       -6.2360    -3.9400     0.4550 H     1 <1>   0.1500 
 54 H       -1.5140    -6.3940    -2.0280 H     1 <1>   0.1500 
 55 H       -3.8830    -8.1460     1.3720 H     1 <1>   0.1500 
 56 H       -7.0340    -5.4170     2.2250 H     1 <1>   0.1500 
 57 H       -5.8720    -7.5180     2.7020 H     1 <1>   0.1500 
@<TRIPOS>BOND
  1   1   2  2   
  2   2   3  am  
  3   2   4  1   
  4   3   5  1   
  5   3   6  1   
  6   4   7  1   
  7   4   8  1   
  8   4   9  1   
  9   5  10  1   
 10   5  28  1   
 11   5  29  1   
 12   6  11  1   
 13   6  30  1   
 14   6  31  1   
 15   7  12  1   
 16   7  32  1   
 17   7  33  1   
 18   8  13  1   
 19   8  34  1   
 20   8  35  1   
 21   9  36  1   
 22   9  37  1   
 23   9  38  1   
 24  10  11  1   
 25  10  14  1   
 26  10  39  1   
 27  11  15  1   
 28  11  40  1   
 29  12  16  1   
 30  12  41  1   
 31  12  42  1   
 32  13  16  1   
 33  13  43  1   
 34  13  44  1   
 35  14  45  1   
 36  15  17  1   
 37  15  46  1   
 38  15  47  1   
 39  16  18  1   
 40  16  48  1   
 41  17  19  ar  
 42  17  20  ar  
 43  18  49  1   
 44  18  50  1   
 45  18  51  1   
 46  19  21  ar  
 47  19  22  ar  
 48  20  23  ar  
 49  20  52  1   
 50  21  24  ar  
 51  21  25  ar  
 52  22  26  ar  
 53  22  53  1   
 54  23  24  ar  
 55  23  54  1   
 56  25  27  ar  
 57  25  55  1   
 58  26  27  ar  
 59  26  56  1   
 60  27  57  1   
@<TRIPOS>SUBSTRUCTURE
  1 ****   6 GROUP 4 **** **** 0

# MOE 2024.06 (io_trps.svl 2023.06)
