@<TRIPOS>MOLECULE
NONAME
53 55 1 0 0 
SMALL
USER_CHARGES


@<TRIPOS>ATOM
  1 F       -0.9340     0.6120    -1.4960 F     1 <1>  -0.1900 
  2 C       -2.1000     0.8180    -0.9390 C.ar  1 <1>   0.1900 
  3 C       -2.9680     1.8200    -1.3870 C.ar  1 <1>   0.0820 
  4 C       -2.4320    -0.0110     0.1150 C.ar  1 <1>  -0.1500 
  5 O       -2.7550     2.6960    -2.4100 O.3   1 <1>  -0.3630 
  6 C       -4.1840     1.9540    -0.7370 C.ar  1 <1>  -0.1500 
  7 C       -3.6550     0.1480     0.7400 C.ar  1 <1>  -0.1500 
  8 C       -1.5410     2.7610    -3.1270 C.3   1 <1>   0.0400 
  9 C       -4.5570     1.1270     0.3230 C.ar  1 <1>   0.0530 
 10 C       -5.8360     1.2940     0.9630 C.2   1 <1>   0.0870 
 11 O       -6.2010     2.4780     1.3820 O.3   1 <1>  -0.0190 
 12 C       -6.8530     0.4360     1.2480 C.2   1 <1>  -0.0860 
 13 N       -7.3830     2.4780     1.9370 N.2   1 <1>  -0.4100 
 14 C       -7.7960     1.2630     1.8720 C.2   1 <1>   0.3720 
 15 C       -7.0000    -0.9600     0.9650 C.2   1 <1>   0.7160 
 16 N       -9.0400     0.8510     2.3770 N.pl3 1 <1>  -0.8210 
 17 O       -6.1020    -1.6030     0.4530 O.2   1 <1>  -0.5700 
 18 N       -8.1830    -1.5880     1.2290 N.am  1 <1>  -0.7300 
 19 C      -10.1740     1.6630     1.8440 C.3   1 <1>   0.1290 
 20 C       -9.0630     0.8540     3.8690 C.3   1 <1>   0.1290 
 21 C       -8.6270    -3.0150     1.1650 C.3   1 <1>   0.2200 
 22 C       -7.6740    -3.9630     0.3940 C.3   1 <1>   0.3430 
 23 C      -10.0100    -3.0530     0.4890 C.3   1 <1>  -0.1600 
 24 N       -7.4370    -3.4930    -1.0180 N.4   1 <1>  -0.9590 
 25 C       -9.9370    -3.2980    -1.0370 C.3   1 <1>  -0.1600 
 26 C       -8.6170    -2.8250    -1.6590 C.3   1 <1>   0.3430 
 27 C       -6.8300    -4.5520    -1.8710 C.3   1 <1>   0.2630 
 28 H       -1.7410    -0.7680     0.4390 H     1 <1>   0.1500 
 29 H       -4.8600     2.7230    -1.0660 H     1 <1>   0.1500 
 30 H       -3.9170    -0.4940     1.5630 H     1 <1>   0.1500 
 31 H       -1.6170     3.5600    -3.8410 H     1 <1>   0.0800 
 32 H       -1.3870     1.8280    -3.6390 H     1 <1>   0.0800 
 33 H       -0.7380     2.9620    -2.4400 H     1 <1>   0.0800 
 34 H       -8.8570    -0.9540     1.6950 H     1 <1>   0.3700 
 35 H      -10.1120     1.7190     0.7700 H     1 <1>   0.0800 
 36 H      -10.1370     2.6640     2.2420 H     1 <1>   0.0800 
 37 H      -11.1130     1.2110     2.1140 H     1 <1>   0.0800 
 38 H       -8.2380     0.2770     4.2500 H     1 <1>   0.0800 
 39 H       -9.9820     0.4240     4.2270 H     1 <1>   0.0800 
 40 H       -8.9770     1.8620     4.2400 H     1 <1>   0.0800 
 41 H       -8.7260    -3.3730     2.1760 H     1 <1>   0.0800 
 42 H       -8.1160    -4.9450     0.3760 H     1 <1>   0.0800 
 43 H       -6.7360    -4.0270     0.9190 H     1 <1>   0.0800 
 44 H      -10.5410    -2.1370     0.6920 H     1 <1>   0.0800 
 45 H      -10.5890    -3.8490     0.9250 H     1 <1>   0.0800 
 46 H       -6.7300    -2.7380    -0.8840 H     1 <1>   0.4500 
 47 H      -10.7560    -2.7900    -1.5170 H     1 <1>   0.0800 
 48 H      -10.0540    -4.3480    -1.2440 H     1 <1>   0.0800 
 49 H       -8.6190    -3.0100    -2.7210 H     1 <1>   0.0800 
 50 H       -8.5370    -1.7600    -1.5090 H     1 <1>   0.0800 
 51 H       -7.5260    -5.3630    -2.0130 H     1 <1>   0.0800 
 52 H       -5.9370    -4.9370    -1.4070 H     1 <1>   0.0800 
 53 H       -6.5670    -4.1480    -2.8360 H     1 <1>   0.0800 
@<TRIPOS>BOND
  1   1   2  1   
  2   2   3  ar  
  3   2   4  ar  
  4   3   5  1   
  5   3   6  ar  
  6   4   7  ar  
  7   4  28  1   
  8   5   8  1   
  9   6   9  ar  
 10   6  29  1   
 11   7   9  ar  
 12   7  30  1   
 13   8  31  1   
 14   8  32  1   
 15   8  33  1   
 16   9  10  1   
 17  10  11  1   
 18  10  12  2   
 19  11  13  1   
 20  12  14  1   
 21  12  15  1   
 22  13  14  2   
 23  14  16  1   
 24  15  17  2   
 25  15  18  am  
 26  16  19  1   
 27  16  20  1   
 28  18  21  1   
 29  18  34  1   
 30  19  35  1   
 31  19  36  1   
 32  19  37  1   
 33  20  38  1   
 34  20  39  1   
 35  20  40  1   
 36  21  22  1   
 37  21  23  1   
 38  21  41  1   
 39  22  24  1   
 40  22  42  1   
 41  22  43  1   
 42  23  25  1   
 43  23  44  1   
 44  23  45  1   
 45  24  26  1   
 46  24  27  1   
 47  24  46  1   
 48  25  26  1   
 49  25  47  1   
 50  25  48  1   
 51  26  49  1   
 52  26  50  1   
 53  27  51  1   
 54  27  52  1   
 55  27  53  1   
@<TRIPOS>SUBSTRUCTURE
  1 ****  15 GROUP 4 **** **** 0

# MOE 2024.06 (io_trps.svl 2023.06)
