@<TRIPOS>MOLECULE
NONAME
65 68 1 0 0 
SMALL
USER_CHARGES


@<TRIPOS>ATOM
  1 N       -0.2730     0.0860    -0.5220 N.ar  1 <1>  -0.6200 
  2 C        0.7730     0.8480    -0.2410 C.ar  1 <1>   0.7710 
  3 C       -1.3400     0.6680    -1.0250 C.ar  1 <1>   0.4100 
  4 N        0.7590     2.1730    -0.4470 N.ar  1 <1>  -0.1790 
  5 N        1.8900     0.2790     0.2720 N.pl3 1 <1>  -0.8380 
  6 N       -2.4030    -0.1270    -1.2880 N.pl3 1 <1>  -0.8690 
  7 C       -1.4050     2.0630    -1.2760 C.ar  1 <1>  -0.1430 
  8 C       -0.3160     2.8190    -0.9540 C.ar  1 <1>   0.2170 
  9 C        3.1440     0.9450     0.7230 C.3   1 <1>   0.2090 
 10 C        2.0030    -1.1930     0.4700 C.3   1 <1>   0.2090 
 11 C       -2.4620    -1.6250    -1.1720 C.3   1 <1>   0.2090 
 12 C       -2.6810     2.6420    -1.9010 C.3   1 <1>  -0.0970 
 13 C       -0.1880     4.3300    -1.1130 C.3   1 <1>  -0.0970 
 14 C        3.9210    -0.1320     1.4660 C.3   1 <1>  -0.1600 
 15 C        3.4600    -1.4390     0.8350 C.3   1 <1>  -0.1600 
 16 C       -3.3540    -2.1660    -0.0040 C.3   1 <1>   0.5030 
 17 N       -3.3550    -3.6750     0.0140 N.4   1 <1>  -0.9590 
 18 C       -4.8080    -1.6430    -0.1130 C.3   1 <1>  -0.1600 
 19 C       -2.8480    -1.6460     1.3620 C.3   1 <1>  -0.1600 
 20 C       -3.7900    -4.3490    -1.2620 C.3   1 <1>   0.3430 
 21 C       -4.0430    -4.3370     1.1820 C.3   1 <1>   0.3430 
 22 C       -5.0680    -0.7580     1.1100 C.3   1 <1>  -0.1600 
 23 C       -4.0780    -1.2240     2.1680 C.3   1 <1>  -0.1600 
 24 C       -3.5320    -5.8750    -1.2100 C.3   1 <1>   0.1100 
 25 C       -3.7670    -5.8600     1.2070 C.3   1 <1>   0.1100 
 26 N       -2.9210    -6.2910     0.0710 N.3   1 <1>  -0.8100 
 27 C       -2.6800    -7.7400     0.1050 C.3   1 <1>   0.0300 
 28 H        1.6140     2.6550    -0.2040 H     1 <1>   0.4570 
 29 H       -3.2530     0.3100    -1.6570 H     1 <1>   0.4000 
 30 H        2.9420     1.7800     1.3740 H     1 <1>   0.0800 
 31 H        3.7100     1.2680    -0.1360 H     1 <1>   0.0800 
 32 H        1.7300    -1.7320    -0.4220 H     1 <1>   0.0800 
 33 H        1.3610    -1.4930     1.2820 H     1 <1>   0.0800 
 34 H       -1.4670    -2.0150    -1.0490 H     1 <1>   0.0800 
 35 H       -2.8370    -1.9940    -2.1090 H     1 <1>   0.0800 
 36 H       -2.9660     2.0660    -2.7640 H     1 <1>   0.0800 
 37 H       -2.5610     3.6550    -2.2340 H     1 <1>   0.0800 
 38 H       -3.4860     2.6150    -1.1870 H     1 <1>   0.0800 
 39 H        0.4200     4.7470    -0.3290 H     1 <1>   0.0800 
 40 H       -1.1450     4.8150    -1.0570 H     1 <1>   0.0800 
 41 H        0.2620     4.5650    -2.0610 H     1 <1>   0.0800 
 42 H        3.6460    -0.1120     2.5070 H     1 <1>   0.0800 
 43 H        4.9850     0.0090     1.3840 H     1 <1>   0.0800 
 44 H        4.0200    -1.6330    -0.0630 H     1 <1>   0.0800 
 45 H        3.5700    -2.2770     1.5010 H     1 <1>   0.0800 
 46 H       -2.3830    -4.0000     0.1280 H     1 <1>   0.4500 
 47 H       -5.5210    -2.4460    -0.1130 H     1 <1>   0.0800 
 48 H       -4.9640    -1.0710    -1.0100 H     1 <1>   0.0800 
 49 H       -2.2550    -0.7610     1.2220 H     1 <1>   0.0800 
 50 H       -2.2310    -2.3520     1.8890 H     1 <1>   0.0800 
 51 H       -3.2480    -3.9490    -2.1020 H     1 <1>   0.0800 
 52 H       -4.8380    -4.1730    -1.4350 H     1 <1>   0.0800 
 53 H       -5.1050    -4.1670     1.1330 H     1 <1>   0.0800 
 54 H       -3.6890    -3.9190     2.1080 H     1 <1>   0.0800 
 55 H       -6.0870    -0.8230     1.4540 H     1 <1>   0.0800 
 56 H       -4.8560     0.2690     0.8610 H     1 <1>   0.0800 
 57 H       -3.8470    -0.4390     2.8690 H     1 <1>   0.0800 
 58 H       -4.4890    -2.0560     2.7120 H     1 <1>   0.0800 
 59 H       -2.8760    -6.1460    -2.0210 H     1 <1>   0.0800 
 60 H       -4.4630    -6.3980    -1.3610 H     1 <1>   0.0800 
 61 H       -4.7060    -6.3890     1.1900 H     1 <1>   0.0800 
 62 H       -3.2740    -6.1080     2.1320 H     1 <1>   0.0800 
 63 H       -2.0310    -8.0250    -0.7060 H     1 <1>   0.0800 
 64 H       -3.6060    -8.2840     0.0190 H     1 <1>   0.0800 
 65 H       -2.1990    -8.0120     1.0300 H     1 <1>   0.0800 
@<TRIPOS>BOND
  1   1   2  ar  
  2   1   3  ar  
  3   2   4  ar  
  4   2   5  1   
  5   3   6  1   
  6   3   7  ar  
  7   4   8  ar  
  8   4  28  1   
  9   5   9  1   
 10   5  10  1   
 11   6  11  1   
 12   6  29  1   
 13   7   8  ar  
 14   7  12  1   
 15   8  13  1   
 16   9  14  1   
 17   9  30  1   
 18   9  31  1   
 19  10  15  1   
 20  10  32  1   
 21  10  33  1   
 22  11  16  1   
 23  11  34  1   
 24  11  35  1   
 25  12  36  1   
 26  12  37  1   
 27  12  38  1   
 28  13  39  1   
 29  13  40  1   
 30  13  41  1   
 31  14  15  1   
 32  14  42  1   
 33  14  43  1   
 34  15  44  1   
 35  15  45  1   
 36  16  17  1   
 37  16  18  1   
 38  16  19  1   
 39  17  20  1   
 40  17  21  1   
 41  17  46  1   
 42  18  22  1   
 43  18  47  1   
 44  18  48  1   
 45  19  23  1   
 46  19  49  1   
 47  19  50  1   
 48  20  24  1   
 49  20  51  1   
 50  20  52  1   
 51  21  25  1   
 52  21  53  1   
 53  21  54  1   
 54  22  23  1   
 55  22  55  1   
 56  22  56  1   
 57  23  57  1   
 58  23  58  1   
 59  24  26  1   
 60  24  59  1   
 61  24  60  1   
 62  25  26  1   
 63  25  61  1   
 64  25  62  1   
 65  26  27  1   
 66  27  63  1   
 67  27  64  1   
 68  27  65  1   
@<TRIPOS>SUBSTRUCTURE
  1 ****  11 GROUP 4 **** **** 0

# MOE 2024.06 (io_trps.svl 2023.06)
