@<TRIPOS>MOLECULE
NONAME
47 49 1 0 0 
SMALL
USER_CHARGES


@<TRIPOS>ATOM
  1 O        0.0000     0.1620    -0.9870 O.2   1 <1>  -0.5700 
  2 C       -1.0070     0.8140    -0.8590 C.2   1 <1>   0.5690 
  3 N       -2.2160     0.2270    -0.6050 N.am  1 <1>  -0.6600 
  4 C       -0.8890     2.3210    -0.9710 C.3   1 <1>  -0.0990 
  5 C       -3.5250     0.9080    -0.4380 C.3   1 <1>   0.1400 
  6 C       -2.3580    -1.2350    -0.4060 C.3   1 <1>   0.1400 
  7 C       -0.6180     2.9500     0.3990 C.3   1 <1>  -0.0160 
  8 C       -4.5390    -0.2230    -0.2670 C.3   1 <1>   0.2000 
  9 C       -3.7330    -1.4180     0.2350 C.3   1 <1>  -0.0800 
 10 C       -0.5510     4.4630     0.2840 C.ar  1 <1>  -0.1440 
 11 O       -5.5240     0.1110     0.6480 O.3   1 <1>  -0.6800 
 12 C       -4.3870    -2.7710    -0.0830 C.3   1 <1>   0.0210 
 13 C        0.6380     5.0840    -0.0640 C.ar  1 <1>  -0.1500 
 14 C       -1.6800     5.2350     0.5190 C.ar  1 <1>  -0.1500 
 15 C       -3.4940    -3.9170     0.3490 C.2   1 <1>   0.1080 
 16 C        0.6910     6.4640    -0.1740 C.ar  1 <1>   0.0820 
 17 C       -1.6230     6.6150     0.4090 C.ar  1 <1>  -0.1500 
 18 N       -3.1190    -4.0910     1.5780 N.2   1 <1>  -0.7070 
 19 C       -2.9730    -4.8870    -0.5020 C.2   1 <1>  -0.1500 
 20 O        1.8390     7.0700    -0.5100 O.3   1 <1>  -0.5330 
 21 C       -0.4350     7.2320     0.0610 C.ar  1 <1>  -0.1500 
 22 N       -2.3400    -5.1880     1.5440 N.pl3 1 <1>   0.3000 
 23 C       -2.2350    -5.6880     0.2950 C.2   1 <1>  -0.3320 
 24 C       -1.4230    -6.9180    -0.0660 C.3   1 <1>  -0.0600 
 25 H       -0.0740     2.5500    -1.6340 H     1 <1>   0.0800 
 26 H       -1.7800     2.7370    -1.4010 H     1 <1>   0.0800 
 27 H       -3.4950     1.5290     0.4390 H     1 <1>   0.0800 
 28 H       -3.7610     1.4950    -1.3080 H     1 <1>   0.0800 
 29 H       -2.3070    -1.7250    -1.3640 H     1 <1>   0.0800 
 30 H       -1.5750    -1.6180     0.2290 H     1 <1>   0.0800 
 31 H        0.3130     2.5720     0.7880 H     1 <1>   0.0800 
 32 H       -1.3930     2.6710     1.0910 H     1 <1>   0.0800 
 33 H       -5.0110    -0.4320    -1.2120 H     1 <1>   0.0800 
 34 H       -3.5940    -1.3380     1.2990 H     1 <1>   0.0800 
 35 H       -5.1620     0.0920     1.5560 H     1 <1>   0.4000 
 36 H       -4.5830    -2.8490    -1.1370 H     1 <1>   0.0800 
 37 H       -5.3230    -2.8490     0.4390 H     1 <1>   0.0800 
 38 H        1.5170     4.4940    -0.2490 H     1 <1>   0.1500 
 39 H       -2.6100     4.7670     0.7900 H     1 <1>   0.1500 
 40 H       -2.5020     7.2080     0.5930 H     1 <1>   0.1500 
 41 H       -3.1370    -4.9580    -1.5620 H     1 <1>   0.1500 
 42 H        2.5700     6.4440    -0.6510 H     1 <1>   0.4500 
 43 H       -0.3750     8.3010    -0.0280 H     1 <1>   0.1500 
 44 H       -1.8950    -5.5690     2.3880 H     1 <1>   0.2700 
 45 H       -1.4970    -7.1130    -1.1210 H     1 <1>   0.0800 
 46 H       -1.7890    -7.7760     0.4680 H     1 <1>   0.0800 
 47 H       -0.3870    -6.7650     0.1810 H     1 <1>   0.0800 
@<TRIPOS>BOND
  1   1   2  2   
  2   2   3  am  
  3   2   4  1   
  4   3   5  1   
  5   3   6  1   
  6   4   7  1   
  7   4  25  1   
  8   4  26  1   
  9   5   8  1   
 10   5  27  1   
 11   5  28  1   
 12   6   9  1   
 13   6  29  1   
 14   6  30  1   
 15   7  10  1   
 16   7  31  1   
 17   7  32  1   
 18   8   9  1   
 19   8  11  1   
 20   8  33  1   
 21   9  12  1   
 22   9  34  1   
 23  10  13  ar  
 24  10  14  ar  
 25  11  35  1   
 26  12  15  1   
 27  12  36  1   
 28  12  37  1   
 29  13  16  ar  
 30  13  38  1   
 31  14  17  ar  
 32  14  39  1   
 33  15  18  2   
 34  15  19  1   
 35  16  20  1   
 36  16  21  ar  
 37  17  21  ar  
 38  17  40  1   
 39  18  22  1   
 40  19  23  2   
 41  19  41  1   
 42  20  42  1   
 43  21  43  1   
 44  22  23  1   
 45  22  44  1   
 46  23  24  1   
 47  24  45  1   
 48  24  46  1   
 49  24  47  1   
@<TRIPOS>SUBSTRUCTURE
  1 ****   3 GROUP 4 **** **** 0

# MOE 2024.06 (io_trps.svl 2023.06)
