@<TRIPOS>MOLECULE
NONAME
53 57 1 0 0 
SMALL
USER_CHARGES


@<TRIPOS>ATOM
  1 O       -1.4850     1.4690    -1.8480 O.2   1 <1>  -0.5700 
  2 C       -1.9840     1.3440    -0.7450 C.2   1 <1>   0.7160 
  3 N       -2.7290     0.2220    -0.4830 N.am  1 <1>  -0.6600 
  4 C       -1.7620     2.3430     0.2490 C.2   1 <1>  -0.0860 
  5 C       -3.5030    -0.0600     0.7290 C.3   1 <1>   0.2200 
  6 C       -3.1530    -0.7600    -1.4810 C.3   1 <1>   0.2200 
  7 C       -2.7320     3.2200     0.7400 C.2   1 <1>   0.3720 
  8 C       -0.6390     2.6840     0.9340 C.2   1 <1>   0.0870 
  9 C       -2.8640    -1.3130     1.3540 C.3   1 <1>  -0.1600 
 10 C       -4.9040    -0.3080     0.1600 C.3   1 <1>  -0.1600 
 11 C       -2.4800    -2.0860    -1.0810 C.3   1 <1>  -0.1600 
 12 C       -4.6750    -0.7680    -1.2920 C.3   1 <1>  -0.1600 
 13 N       -2.2390     3.9930     1.6420 N.2   1 <1>  -0.4100 
 14 N       -4.0710     3.2510     0.3260 N.pl3 1 <1>  -0.8210 
 15 O       -0.9800     3.6600     1.7400 O.3   1 <1>  -0.0190 
 16 C        0.7180     2.1870     0.9280 C.ar  1 <1>   0.0530 
 17 C       -2.7440    -2.5050     0.3800 C.3   1 <1>   0.2000 
 18 C       -5.0160     3.9740     1.2320 C.3   1 <1>   0.2090 
 19 C       -4.2730     3.6970    -1.0870 C.3   1 <1>   0.2090 
 20 C        1.7550     2.9400     1.4850 C.ar  1 <1>  -0.1500 
 21 C        1.0580     0.9480     0.3800 C.ar  1 <1>  -0.1500 
 22 O       -3.9240    -3.2170     0.4210 O.3   1 <1>  -0.6800 
 23 C       -6.4650     3.8390     0.7300 C.3   1 <1>   0.1200 
 24 C       -5.7520     3.5730    -1.4920 C.3   1 <1>   0.1200 
 25 C        3.0600     2.4840     1.4950 C.ar  1 <1>  -0.1500 
 26 C        2.3620     0.4860     0.3860 C.ar  1 <1>  -0.1500 
 27 O       -6.5790     4.2680    -0.6000 O.3   1 <1>  -0.5600 
 28 C        3.3670     1.2540     0.9440 C.ar  1 <1>  -0.1500 
 29 H       -3.5000     0.7610     1.4260 H     1 <1>   0.0800 
 30 H       -2.8760    -0.4690    -2.4810 H     1 <1>   0.0800 
 31 H       -3.4030    -1.6100     2.2360 H     1 <1>   0.0800 
 32 H       -1.8740    -1.0410     1.6720 H     1 <1>   0.0800 
 33 H       -5.4560    -1.0170     0.7500 H     1 <1>   0.0800 
 34 H       -5.4450     0.6220     0.1640 H     1 <1>   0.0800 
 35 H       -1.4210    -1.9510    -1.2040 H     1 <1>   0.0800 
 36 H       -2.7730    -2.8740    -1.7520 H     1 <1>   0.0800 
 37 H       -5.1110    -0.0540    -1.9690 H     1 <1>   0.0800 
 38 H       -5.1000    -1.7320    -1.5050 H     1 <1>   0.0800 
 39 H       -1.9720    -3.1780     0.7160 H     1 <1>   0.0800 
 40 H       -4.9420     3.5660     2.2250 H     1 <1>   0.0800 
 41 H       -4.7520     5.0170     1.2780 H     1 <1>   0.0800 
 42 H       -3.9590     4.7220    -1.1910 H     1 <1>   0.0800 
 43 H       -3.6780     3.0990    -1.7550 H     1 <1>   0.0800 
 44 H        1.5380     3.9010     1.9160 H     1 <1>   0.1500 
 45 H        0.3020     0.3260    -0.0590 H     1 <1>   0.1500 
 46 H       -4.6510    -2.6430     0.1180 H     1 <1>   0.4000 
 47 H       -7.1210     4.4460     1.3270 H     1 <1>   0.0800 
 48 H       -6.7890     2.8150     0.7900 H     1 <1>   0.0800 
 49 H       -6.0510     2.5400    -1.5050 H     1 <1>   0.0800 
 50 H       -5.9030     3.9900    -2.4720 H     1 <1>   0.0800 
 51 H        3.8380     3.0860     1.9310 H     1 <1>   0.1500 
 52 H        2.5950    -0.4710    -0.0460 H     1 <1>   0.1500 
 53 H        4.3830     0.8960     0.9490 H     1 <1>   0.1500 
@<TRIPOS>BOND
  1   1   2  2   
  2   2   3  am  
  3   2   4  1   
  4   3   5  1   
  5   3   6  1   
  6   4   7  1   
  7   4   8  2   
  8   5   9  1   
  9   5  10  1   
 10   5  29  1   
 11   6  11  1   
 12   6  12  1   
 13   6  30  1   
 14   7  13  2   
 15   7  14  1   
 16   8  15  1   
 17   8  16  1   
 18   9  17  1   
 19   9  31  1   
 20   9  32  1   
 21  10  12  1   
 22  10  33  1   
 23  10  34  1   
 24  11  17  1   
 25  11  35  1   
 26  11  36  1   
 27  12  37  1   
 28  12  38  1   
 29  13  15  1   
 30  14  18  1   
 31  14  19  1   
 32  16  20  ar  
 33  16  21  ar  
 34  17  22  1   
 35  17  39  1   
 36  18  23  1   
 37  18  40  1   
 38  18  41  1   
 39  19  24  1   
 40  19  42  1   
 41  19  43  1   
 42  20  25  ar  
 43  20  44  1   
 44  21  26  ar  
 45  21  45  1   
 46  22  46  1   
 47  23  27  1   
 48  23  47  1   
 49  23  48  1   
 50  24  27  1   
 51  24  49  1   
 52  24  50  1   
 53  25  28  ar  
 54  25  51  1   
 55  26  28  ar  
 56  26  52  1   
 57  28  53  1   
@<TRIPOS>SUBSTRUCTURE
  1 ****   2 GROUP 4 **** **** 0

# MOE 2024.06 (io_trps.svl 2023.06)
