@<TRIPOS>MOLECULE
NONAME
50 53 1 0 0 
SMALL
USER_CHARGES


@<TRIPOS>ATOM
  1 O        0.3610    -0.2920    -0.7750 O.2   1 <1>  -0.5700 
  2 C        1.2020     0.4480    -0.2850 C.2   1 <1>   0.5440 
  3 N        2.1990    -0.0800     0.5050 N.am  1 <1>  -0.4200 
  4 C        1.1860     1.8690    -0.4920 C.ar  1 <1>   0.0860 
  5 C        3.1290     0.7560     1.0750 C.2   1 <1>   0.4500 
  6 C        2.2800    -1.5440     0.7350 C.3   1 <1>   0.1400 
  7 C        2.1860     2.6220     0.1370 C.ar  1 <1>   0.1790 
  8 C        0.2360     2.5300    -1.2770 C.ar  1 <1>  -0.1500 
  9 N        3.1510     2.0250     0.9240 N.2   1 <1>  -0.6290 
 10 C        1.3190    -1.9620     1.8480 C.3   1 <1>  -0.0990 
 11 C        2.2110     4.0020    -0.0330 C.ar  1 <1>  -0.1500 
 12 C        0.2740     3.8990    -1.4360 C.ar  1 <1>  -0.1500 
 13 C        1.0970    -3.4550     1.7810 C.2   1 <1>   0.5690 
 14 C        1.2670     4.6400    -0.8110 C.ar  1 <1>  -0.1500 
 15 O        1.7970    -4.1580     2.4660 O.2   1 <1>  -0.5700 
 16 N        0.1520    -3.9800     0.9440 N.am  1 <1>  -0.6600 
 17 C       -0.7240    -3.2380    -0.0060 C.3   1 <1>   0.1400 
 18 C       -0.0680    -5.4420     0.8100 C.3   1 <1>   0.1400 
 19 C       -1.7810    -4.2590    -0.4210 C.3   1 <1>   0.2000 
 20 C       -1.0320    -5.5950    -0.3730 C.3   1 <1>  -0.0800 
 21 O       -2.7830    -4.2560     0.5390 O.3   1 <1>  -0.6800 
 22 C       -1.9360    -6.8400    -0.2860 C.3   1 <1>   0.0200 
 23 C       -1.1690    -8.1480    -0.3890 C.2   1 <1>  -0.0400 
 24 O       -1.8140    -9.2670    -0.1970 O.3   1 <1>  -0.0190 
 25 C        0.1110    -8.4560    -0.6550 C.2   1 <1>  -0.1500 
 26 N       -1.0370   -10.3050    -0.3150 N.2   1 <1>  -0.4100 
 27 C        0.1300    -9.8470    -0.5910 C.2   1 <1>   0.1080 
 28 C        1.3520   -10.7100    -0.8130 C.3   1 <1>  -0.0590 
 29 H        3.8800     0.2870     1.6860 H     1 <1>   0.0600 
 30 H        2.0270    -2.0530    -0.1810 H     1 <1>   0.0800 
 31 H        3.2860    -1.8270     0.9960 H     1 <1>   0.0800 
 32 H       -0.5330     1.9520    -1.7610 H     1 <1>   0.1500 
 33 H        0.3770    -1.4550     1.7550 H     1 <1>   0.0800 
 34 H        1.7410    -1.7130     2.8040 H     1 <1>   0.0800 
 35 H        2.9850     4.5660     0.4560 H     1 <1>   0.1500 
 36 H       -0.4630     4.3980    -2.0440 H     1 <1>   0.1500 
 37 H        1.2980     5.7090    -0.9350 H     1 <1>   0.1500 
 38 H       -1.1720    -2.3660     0.4380 H     1 <1>   0.0800 
 39 H       -0.1450    -2.9440    -0.8640 H     1 <1>   0.0800 
 40 H        0.8650    -5.9500     0.6370 H     1 <1>   0.0800 
 41 H       -0.5080    -5.8140     1.7200 H     1 <1>   0.0800 
 42 H       -2.2230    -4.0450    -1.3790 H     1 <1>   0.0800 
 43 H       -0.4430    -5.6650    -1.2700 H     1 <1>   0.0800 
 44 H       -2.3700    -4.2740     1.4260 H     1 <1>   0.4000 
 45 H       -2.6620    -6.8090    -1.0790 H     1 <1>   0.0800 
 46 H       -2.4760    -6.8380     0.6450 H     1 <1>   0.0800 
 47 H        0.9520    -7.8260    -0.8720 H     1 <1>   0.1500 
 48 H        1.7440   -10.5410    -1.7980 H     1 <1>   0.0800 
 49 H        1.0900   -11.7480    -0.7150 H     1 <1>   0.0800 
 50 H        2.1040   -10.4700    -0.0840 H     1 <1>   0.0800 
@<TRIPOS>BOND
  1   1   2  2   
  2   2   3  am  
  3   2   4  1   
  4   3   5  1   
  5   3   6  1   
  6   4   7  ar  
  7   4   8  ar  
  8   5   9  2   
  9   5  29  1   
 10   6  10  1   
 11   6  30  1   
 12   6  31  1   
 13   7   9  1   
 14   7  11  ar  
 15   8  12  ar  
 16   8  32  1   
 17  10  13  1   
 18  10  33  1   
 19  10  34  1   
 20  11  14  ar  
 21  11  35  1   
 22  12  14  ar  
 23  12  36  1   
 24  13  15  2   
 25  13  16  am  
 26  14  37  1   
 27  16  17  1   
 28  16  18  1   
 29  17  19  1   
 30  17  38  1   
 31  17  39  1   
 32  18  20  1   
 33  18  40  1   
 34  18  41  1   
 35  19  20  1   
 36  19  21  1   
 37  19  42  1   
 38  20  22  1   
 39  20  43  1   
 40  21  44  1   
 41  22  23  1   
 42  22  45  1   
 43  22  46  1   
 44  23  24  1   
 45  23  25  2   
 46  24  26  1   
 47  25  27  1   
 48  25  47  1   
 49  26  27  2   
 50  27  28  1   
 51  28  48  1   
 52  28  49  1   
 53  28  50  1   
@<TRIPOS>SUBSTRUCTURE
  1 ****  17 GROUP 4 **** **** 0

# MOE 2024.06 (io_trps.svl 2023.06)
