@<TRIPOS>MOLECULE
NONAME
42 44 1 0 0 
SMALL
USER_CHARGES


@<TRIPOS>ATOM
  1 O       -2.2210     0.9160    -1.9610 O.2   1 <1>  -0.5700 
  2 C       -1.9190     1.0150    -0.7880 C.2   1 <1>   0.5440 
  3 N       -2.0140    -0.1030    -0.0080 N.am  1 <1>  -0.7300 
  4 C       -1.4910     2.2830    -0.2510 C.ar  1 <1>   0.0860 
  5 C       -2.3780    -1.4520    -0.5010 C.3   1 <1>   0.2200 
  6 C       -0.8360     2.4180     0.9620 C.ar  1 <1>   0.1600 
  7 C       -1.7050     3.4720    -0.9260 C.ar  1 <1>   0.1600 
  8 C       -3.8300    -1.7390    -0.1540 C.3   1 <1>  -0.0800 
  9 C       -1.6530    -2.5020     0.3320 C.3   1 <1>   0.1200 
 10 N       -0.4570     3.5700     1.4570 N.ar  1 <1>  -0.6200 
 11 N       -1.3390     4.6430    -0.4640 N.ar  1 <1>  -0.6200 
 12 C       -3.7310    -2.2630     1.2860 C.3   1 <1>   0.1200 
 13 C       -4.4420    -2.7760    -1.1150 C.3   1 <1>  -0.0170 
 14 O       -2.3970    -2.6240     1.5050 O.3   1 <1>  -0.5600 
 15 C       -0.7290     4.6360     0.7170 C.ar  1 <1>   0.7200 
 16 C       -5.8960    -3.0690    -0.7750 C.ar  1 <1>  -0.1430 
 17 N       -0.3300     5.8070     1.2510 N.pl3 1 <1>  -0.8690 
 18 C       -6.2830    -4.2410    -0.1560 C.ar  1 <1>  -0.1500 
 19 C       -6.9050    -2.1760    -1.0730 C.ar  1 <1>  -0.1500 
 20 C       -0.4660     7.1650     0.6700 C.3   1 <1>   0.1290 
 21 C       -7.6210    -4.4530     0.1320 C.ar  1 <1>   0.1600 
 22 C       -8.2140    -2.4850    -0.7420 C.ar  1 <1>   0.1600 
 23 N       -8.5960    -3.6020    -0.1440 N.ar  1 <1>  -0.6200 
 24 H       -1.9260    -0.0580     1.0100 H     1 <1>   0.3700 
 25 H       -2.1620    -1.5430    -1.5530 H     1 <1>   0.0800 
 26 H       -0.6120     1.5410     1.5420 H     1 <1>   0.1500 
 27 H       -2.1990     3.4440    -1.8840 H     1 <1>   0.1500 
 28 H       -4.4220    -0.8420    -0.1970 H     1 <1>   0.0800 
 29 H       -0.6420    -2.2210     0.5690 H     1 <1>   0.0800 
 30 H       -1.6590    -3.4570    -0.1640 H     1 <1>   0.0800 
 31 H       -4.3550    -3.1200     1.4660 H     1 <1>   0.0800 
 32 H       -3.9790    -1.4900     1.9920 H     1 <1>   0.0800 
 33 H       -3.8760    -3.6910    -1.0880 H     1 <1>   0.0800 
 34 H       -4.3960    -2.3980    -2.1220 H     1 <1>   0.0800 
 35 H        0.1400     5.7190     2.1510 H     1 <1>   0.4000 
 36 H       -5.5600    -4.9920     0.1060 H     1 <1>   0.1500 
 37 H       -6.6860    -1.2430    -1.5590 H     1 <1>   0.1500 
 38 H       -0.9810     7.1290    -0.2750 H     1 <1>   0.0800 
 39 H        0.5100     7.5920     0.5150 H     1 <1>   0.0800 
 40 H       -1.0240     7.7920     1.3430 H     1 <1>   0.0800 
 41 H       -7.9040    -5.3720     0.6160 H     1 <1>   0.1500 
 42 H       -8.9880    -1.7770    -0.9820 H     1 <1>   0.1500 
@<TRIPOS>BOND
  1   1   2  2   
  2   2   3  am  
  3   2   4  1   
  4   3   5  1   
  5   3  24  1   
  6   4   6  ar  
  7   4   7  ar  
  8   5   8  1   
  9   5   9  1   
 10   5  25  1   
 11   6  10  ar  
 12   6  26  1   
 13   7  11  ar  
 14   7  27  1   
 15   8  12  1   
 16   8  13  1   
 17   8  28  1   
 18   9  14  1   
 19   9  29  1   
 20   9  30  1   
 21  10  15  ar  
 22  11  15  ar  
 23  12  14  1   
 24  12  31  1   
 25  12  32  1   
 26  13  16  1   
 27  13  33  1   
 28  13  34  1   
 29  15  17  1   
 30  16  18  ar  
 31  16  19  ar  
 32  17  20  1   
 33  17  35  1   
 34  18  21  ar  
 35  18  36  1   
 36  19  22  ar  
 37  19  37  1   
 38  20  38  1   
 39  20  39  1   
 40  20  40  1   
 41  21  23  ar  
 42  21  41  1   
 43  22  23  ar  
 44  22  42  1   
@<TRIPOS>SUBSTRUCTURE
  1 ****   3 GROUP 4 **** **** 0

# MOE 2024.06 (io_trps.svl 2023.06)
