@<TRIPOS>MOLECULE
NONAME
57 60 1 0 0 
SMALL
USER_CHARGES


@<TRIPOS>ATOM
  1 O        0.9820    -1.7810    -2.0130 O.3   1 <1>  -0.6800 
  2 C        0.3130    -2.0810    -0.8340 C.3   1 <1>   0.1200 
  3 C        1.2230    -1.8770     0.4130 C.3   1 <1>   0.0000 
  4 C        2.6290    -2.5340     0.2820 C.3   1 <1>   0.4230 
  5 C        1.4020    -0.3560     0.6740 C.3   1 <1>  -0.1600 
  6 C        0.5040    -2.4980     1.6450 C.3   1 <1>  -0.1600 
  7 N        2.5720    -4.0460     0.0610 N.4   1 <1>  -0.9590 
  8 C        3.5690    -1.7450    -0.6880 C.3   1 <1>   0.3430 
  9 C        2.2670     0.3600    -0.3670 C.3   1 <1>   0.3430 
 10 C        0.9760    -3.9270     1.9870 C.3   1 <1>  -0.1600 
 11 C        1.4190    -4.7180     0.7560 C.3   1 <1>   0.3430 
 12 C        2.5850    -4.4800    -1.3780 C.3   1 <1>   0.2630 
 13 N        3.6280    -0.2630    -0.4140 N.4   1 <1>  -0.9590 
 14 C        4.4780     0.4440    -1.4190 C.3   1 <1>   0.4860 
 15 C        4.6900     1.8630    -0.9350 C.ar  1 <1>  -0.1430 
 16 C        3.9860     2.9090    -1.5120 C.ar  1 <1>  -0.1500 
 17 C        5.5720     2.1320     0.1030 C.ar  1 <1>  -0.1500 
 18 C        4.1410     4.1960    -1.0360 C.ar  1 <1>  -0.1500 
 19 C        5.7210     3.4240     0.5710 C.ar  1 <1>  -0.1500 
 20 C        5.0060     4.4830     0.0170 C.ar  1 <1>   0.0000 
 21 C        5.1400     5.8350     0.5170 C.ar  1 <1>   0.3100 
 22 N        4.0210     6.4880     0.8360 N.ar  1 <1>  -0.6200 
 23 C        6.4020     6.4110     0.6510 C.ar  1 <1>  -0.1500 
 24 C        4.1650     7.7170     1.2970 C.ar  1 <1>   0.1600 
 25 C        6.5400     7.6940     1.1320 C.ar  1 <1>  -0.1500 
 26 C        5.3800     8.3580     1.4640 C.ar  1 <1>  -0.1500 
 27 H        0.3450    -1.7580    -2.7660 H     1 <1>   0.4000 
 28 H       -0.5550    -1.4440    -0.7720 H     1 <1>   0.0800 
 29 H       -0.0320    -3.0970    -0.9080 H     1 <1>   0.0800 
 30 H        3.0750    -2.4040     1.2530 H     1 <1>   0.0800 
 31 H        1.8460    -0.1870     1.6400 H     1 <1>   0.0800 
 32 H        0.4360     0.1210     0.6940 H     1 <1>   0.0800 
 33 H        0.6560    -1.8960     2.5260 H     1 <1>   0.0800 
 34 H       -0.5610    -2.5070     1.4780 H     1 <1>   0.0800 
 35 H        3.4160    -4.4450     0.5010 H     1 <1>   0.4500 
 36 H        3.2220    -1.8920    -1.6960 H     1 <1>   0.0800 
 37 H        4.5620    -2.1550    -0.6150 H     1 <1>   0.0800 
 38 H        2.3470     1.4040    -0.1030 H     1 <1>   0.0800 
 39 H        1.7990     0.3000    -1.3370 H     1 <1>   0.0800 
 40 H        0.1720    -4.4540     2.4730 H     1 <1>   0.0800 
 41 H        1.7900    -3.8900     2.6910 H     1 <1>   0.0800 
 42 H        0.5810    -4.7970     0.0820 H     1 <1>   0.0800 
 43 H        1.6980    -5.7190     1.0470 H     1 <1>   0.0800 
 44 H        1.7250    -4.0920    -1.9000 H     1 <1>   0.0800 
 45 H        2.5620    -5.5570    -1.4430 H     1 <1>   0.0800 
 46 H        3.4750    -4.1340    -1.8770 H     1 <1>   0.0800 
 47 H        4.0710    -0.0660     0.4950 H     1 <1>   0.4500 
 48 H        5.4350    -0.0430    -1.5130 H     1 <1>   0.0800 
 49 H        3.9980     0.4500    -2.3840 H     1 <1>   0.0800 
 50 H        3.3070     2.7420    -2.3310 H     1 <1>   0.1500 
 51 H        6.1520     1.3490     0.5610 H     1 <1>   0.1500 
 52 H        3.5840     5.0060    -1.4780 H     1 <1>   0.1500 
 53 H        6.3980     3.6210     1.3850 H     1 <1>   0.1500 
 54 H        7.2730     5.8480     0.3700 H     1 <1>   0.1500 
 55 H        3.2640     8.2470     1.5590 H     1 <1>   0.1500 
 56 H        7.5060     8.1570     1.2430 H     1 <1>   0.1500 
 57 H        5.4130     9.3620     1.8460 H     1 <1>   0.1500 
@<TRIPOS>BOND
  1   1   2  1   
  2   1  27  1   
  3   2   3  1   
  4   2  28  1   
  5   2  29  1   
  6   3   4  1   
  7   3   5  1   
  8   3   6  1   
  9   4   7  1   
 10   4   8  1   
 11   4  30  1   
 12   5   9  1   
 13   5  31  1   
 14   5  32  1   
 15   6  10  1   
 16   6  33  1   
 17   6  34  1   
 18   7  11  1   
 19   7  12  1   
 20   7  35  1   
 21   8  13  1   
 22   8  36  1   
 23   8  37  1   
 24   9  13  1   
 25   9  38  1   
 26   9  39  1   
 27  10  11  1   
 28  10  40  1   
 29  10  41  1   
 30  11  42  1   
 31  11  43  1   
 32  12  44  1   
 33  12  45  1   
 34  12  46  1   
 35  13  14  1   
 36  13  47  1   
 37  14  15  1   
 38  14  48  1   
 39  14  49  1   
 40  15  16  ar  
 41  15  17  ar  
 42  16  18  ar  
 43  16  50  1   
 44  17  19  ar  
 45  17  51  1   
 46  18  20  ar  
 47  18  52  1   
 48  19  20  ar  
 49  19  53  1   
 50  20  21  1   
 51  21  22  ar  
 52  21  23  ar  
 53  22  24  ar  
 54  23  25  ar  
 55  23  54  1   
 56  24  26  ar  
 57  24  55  1   
 58  25  26  ar  
 59  25  56  1   
 60  26  57  1   
@<TRIPOS>SUBSTRUCTURE
  1 ****   9 GROUP 4 **** **** 0

# MOE 2024.06 (io_trps.svl 2023.06)
