@<TRIPOS>MOLECULE
NONAME
41 43 1 0 0 
SMALL
USER_CHARGES


@<TRIPOS>ATOM
  1 O       -0.4520     0.3030     0.6580 O.2   1 <1>  -0.5700 
  2 C       -1.4650     0.9450     0.4540 C.2   1 <1>   0.5440 
  3 N       -2.6760     0.2930     0.4300 N.am  1 <1>  -0.6600 
  4 C       -1.3720     2.3720     0.2190 C.ar  1 <1>   0.0860 
  5 C       -3.8490     0.7410    -0.3660 C.3   1 <1>   0.1400 
  6 C       -2.8290    -1.1420     0.7710 C.3   1 <1>   0.1400 
  7 C       -0.4130     2.9190    -0.6210 C.ar  1 <1>  -0.1500 
  8 C       -2.2200     3.2940     0.8160 C.ar  1 <1>  -0.1500 
  9 C       -4.7670    -0.4830    -0.4950 C.3   1 <1>   0.2000 
 10 C       -3.8370    -1.6740    -0.2480 C.3   1 <1>  -0.0800 
 11 C       -0.3660     4.2830    -0.8330 C.ar  1 <1>   0.1600 
 12 C       -2.0910     4.6420     0.5400 C.ar  1 <1>   0.1600 
 13 O       -5.7390    -0.4510     0.5120 O.3   1 <1>  -0.5600 
 14 C       -4.5470    -2.9640     0.2040 C.3   1 <1>   0.0200 
 15 N       -1.1890     5.1570    -0.2780 N.ar  1 <1>  -0.6200 
 16 C       -6.8990     0.2530     0.1970 C.3   1 <1>   0.0400 
 17 C       -3.6170    -4.1640     0.2730 C.2   1 <1>  -0.0400 
 18 O       -4.0870    -5.2970     0.7250 O.3   1 <1>  -0.0190 
 19 C       -2.3280    -4.3590    -0.0490 C.2   1 <1>  -0.1500 
 20 N       -3.1850    -6.2350     0.7260 N.2   1 <1>  -0.4100 
 21 C       -2.1130    -5.6970     0.2660 C.2   1 <1>   0.1080 
 22 C       -0.8000    -6.4270     0.0930 C.3   1 <1>  -0.0590 
 23 H       -4.3550     1.5560     0.1190 H     1 <1>   0.0800 
 24 H       -3.5130     1.0500    -1.3400 H     1 <1>   0.0800 
 25 H       -1.8910    -1.6660     0.7190 H     1 <1>   0.0800 
 26 H       -3.2260    -1.2180     1.7690 H     1 <1>   0.0800 
 27 H        0.2960     2.2720    -1.1040 H     1 <1>   0.1500 
 28 H       -2.9750     2.9560     1.5020 H     1 <1>   0.1500 
 29 H       -5.2500    -0.5440    -1.4560 H     1 <1>   0.0800 
 30 H       -3.3070    -1.8720    -1.1630 H     1 <1>   0.0800 
 31 H        0.3880     4.6790    -1.4920 H     1 <1>   0.1500 
 32 H       -2.7640     5.3360     1.0170 H     1 <1>   0.1500 
 33 H       -5.3430    -3.1910    -0.4820 H     1 <1>   0.0800 
 34 H       -4.9880    -2.8160     1.1750 H     1 <1>   0.0800 
 35 H       -7.5500     0.2210     1.0530 H     1 <1>   0.0800 
 36 H       -7.3830    -0.2180    -0.6410 H     1 <1>   0.0800 
 37 H       -6.6530     1.2750    -0.0310 H     1 <1>   0.0800 
 38 H       -1.5990    -3.6820    -0.4540 H     1 <1>   0.1500 
 39 H       -0.0280    -5.9240     0.6450 H     1 <1>   0.0800 
 40 H       -0.5340    -6.4560    -0.9470 H     1 <1>   0.0800 
 41 H       -0.8900    -7.4340     0.4580 H     1 <1>   0.0800 
@<TRIPOS>BOND
  1   1   2  2   
  2   2   3  am  
  3   2   4  1   
  4   3   5  1   
  5   3   6  1   
  6   4   7  ar  
  7   4   8  ar  
  8   5   9  1   
  9   5  23  1   
 10   5  24  1   
 11   6  10  1   
 12   6  25  1   
 13   6  26  1   
 14   7  11  ar  
 15   7  27  1   
 16   8  12  ar  
 17   8  28  1   
 18   9  10  1   
 19   9  13  1   
 20   9  29  1   
 21  10  14  1   
 22  10  30  1   
 23  11  15  ar  
 24  11  31  1   
 25  12  15  ar  
 26  12  32  1   
 27  13  16  1   
 28  14  17  1   
 29  14  33  1   
 30  14  34  1   
 31  16  35  1   
 32  16  36  1   
 33  16  37  1   
 34  17  18  1   
 35  17  19  2   
 36  18  20  1   
 37  19  21  1   
 38  19  38  1   
 39  20  21  2   
 40  21  22  1   
 41  22  39  1   
 42  22  40  1   
 43  22  41  1   
@<TRIPOS>SUBSTRUCTURE
  1 ****   6 GROUP 4 **** **** 0

# MOE 2024.06 (io_trps.svl 2023.06)
