@<TRIPOS>MOLECULE
NONAME
54 56 1 0 0 
SMALL
USER_CHARGES


@<TRIPOS>ATOM
  1 O        0.4250     0.6370    -1.5880 O.3   1 <1>  -0.5600 
  2 C        1.6870     0.0100    -1.6110 C.3   1 <1>   0.2000 
  3 C        0.4460     2.0320    -1.5310 C.3   1 <1>   0.1200 
  4 C        2.5530     0.4450    -0.3970 C.3   1 <1>   0.5660 
  5 C        1.4750    -1.5130    -1.5990 C.3   1 <1>   0.1200 
  6 C        1.1620     2.4970    -0.2510 C.3   1 <1>   0.3430 
  7 N        2.5450     1.9240    -0.1610 N.4   1 <1>  -0.9590 
  8 C        4.0030     0.0110    -0.5710 C.ar  1 <1>  -0.1430 
  9 O        1.1040    -1.9370    -0.3250 O.3   1 <1>  -0.6800 
 10 C        3.2170     2.2720     1.1160 C.3   1 <1>   0.4870 
 11 C        4.5250    -0.9470     0.2870 C.ar  1 <1>  -0.1500 
 12 C        4.8170     0.5560    -1.5580 C.ar  1 <1>  -0.1500 
 13 C        3.5090     3.7570     1.0800 C.ar  1 <1>  -0.1430 
 14 C        5.8440    -1.3460     0.1700 C.ar  1 <1>  -0.1500 
 15 C        6.1360     0.1560    -1.6720 C.ar  1 <1>  -0.1500 
 16 C        4.5400     4.2330     0.2830 C.ar  1 <1>  -0.1500 
 17 C        2.7550     4.6510     1.8280 C.ar  1 <1>  -0.1500 
 18 C        6.6510    -0.7920    -0.8080 C.ar  1 <1>  -0.1500 
 19 C        4.8100     5.5890     0.2130 C.ar  1 <1>   0.0820 
 20 C        3.0140     6.0090     1.7560 C.ar  1 <1>  -0.1500 
 21 O        5.8460     5.9650    -0.5750 O.3   1 <1>  -0.3630 
 22 C        4.0230     6.4890     0.9390 C.ar  1 <1>   0.0820 
 23 C        6.9220     6.6320     0.0550 C.3   1 <1>   0.0400 
 24 O        4.1960     7.8310     0.8870 O.3   1 <1>  -0.3630 
 25 C        3.9150     8.4620    -0.3420 C.3   1 <1>   0.1200 
 26 C        4.1140     9.9630    -0.1580 C.3   1 <1>  -0.2400 
 27 H        2.1660     0.2850    -2.5330 H     1 <1>   0.0800 
 28 H        0.9300     2.4130    -2.4130 H     1 <1>   0.0800 
 29 H       -0.5750     2.3720    -1.5260 H     1 <1>   0.0800 
 30 H        2.1510    -0.0450     0.4740 H     1 <1>   0.0800 
 31 H        2.3860    -2.0240    -1.8630 H     1 <1>   0.0800 
 32 H        0.7020    -1.7850    -2.2970 H     1 <1>   0.0800 
 33 H        0.5780     2.1810     0.5980 H     1 <1>   0.0800 
 34 H        1.2100     3.5740    -0.2400 H     1 <1>   0.0800 
 35 H        3.1170     2.3430    -0.8990 H     1 <1>   0.4500 
 36 H        0.7340    -2.8450    -0.3580 H     1 <1>   0.4000 
 37 H        2.5890     2.0280     1.9560 H     1 <1>   0.0800 
 38 H        4.1480     1.7350     1.2120 H     1 <1>   0.0800 
 39 H        3.9120    -1.3990     1.0510 H     1 <1>   0.1500 
 40 H        4.4480     1.2910    -2.2530 H     1 <1>   0.1500 
 41 H        6.2470    -2.0900     0.8370 H     1 <1>   0.1500 
 42 H        6.7690     0.5790    -2.4350 H     1 <1>   0.1500 
 43 H        5.1610     3.5650    -0.2890 H     1 <1>   0.1500 
 44 H        1.9630     4.3090     2.4730 H     1 <1>   0.1500 
 45 H        7.6780    -1.1040    -0.8980 H     1 <1>   0.1500 
 46 H        2.4340     6.7100     2.3310 H     1 <1>   0.1500 
 47 H        7.7290     6.7100    -0.6510 H     1 <1>   0.0800 
 48 H        7.2350     6.0600     0.9100 H     1 <1>   0.0800 
 49 H        6.6090     7.6140     0.3570 H     1 <1>   0.0800 
 50 H        4.5830     8.0790    -1.0940 H     1 <1>   0.0800 
 51 H        2.8980     8.2400    -0.6120 H     1 <1>   0.0800 
 52 H        5.1310    10.1690     0.1240 H     1 <1>   0.0800 
 53 H        3.4480    10.3340     0.6010 H     1 <1>   0.0800 
 54 H        3.9030    10.4730    -1.0800 H     1 <1>   0.0800 
@<TRIPOS>BOND
  1   1   2  1   
  2   1   3  1   
  3   2   4  1   
  4   2   5  1   
  5   2  27  1   
  6   3   6  1   
  7   3  28  1   
  8   3  29  1   
  9   4   7  1   
 10   4   8  1   
 11   4  30  1   
 12   5   9  1   
 13   5  31  1   
 14   5  32  1   
 15   6   7  1   
 16   6  33  1   
 17   6  34  1   
 18   7  10  1   
 19   7  35  1   
 20   8  11  ar  
 21   8  12  ar  
 22   9  36  1   
 23  10  13  1   
 24  10  37  1   
 25  10  38  1   
 26  11  14  ar  
 27  11  39  1   
 28  12  15  ar  
 29  12  40  1   
 30  13  16  ar  
 31  13  17  ar  
 32  14  18  ar  
 33  14  41  1   
 34  15  18  ar  
 35  15  42  1   
 36  16  19  ar  
 37  16  43  1   
 38  17  20  ar  
 39  17  44  1   
 40  18  45  1   
 41  19  21  1   
 42  19  22  ar  
 43  20  22  ar  
 44  20  46  1   
 45  21  23  1   
 46  22  24  1   
 47  23  47  1   
 48  23  48  1   
 49  23  49  1   
 50  24  25  1   
 51  25  26  1   
 52  25  50  1   
 53  25  51  1   
 54  26  52  1   
 55  26  53  1   
 56  26  54  1   
@<TRIPOS>SUBSTRUCTURE
  1 ****   7 GROUP 4 **** **** 0

# MOE 2024.06 (io_trps.svl 2023.06)
