@<TRIPOS>MOLECULE
NONAME
54 57 1 0 0 
SMALL
USER_CHARGES


@<TRIPOS>ATOM
  1 F        0.5750     1.9670     1.8450 F     1 <1>  -0.1900 
  2 C        0.0080     2.6080     0.8580 C.ar  1 <1>   0.1900 
  3 C       -1.1150     3.3660     1.1170 C.ar  1 <1>  -0.1500 
  4 C        0.5600     2.5010    -0.4050 C.ar  1 <1>  -0.1500 
  5 C       -1.7240     4.0510     0.0710 C.ar  1 <1>   0.1000 
  6 C       -0.0450     3.1850    -1.4470 C.ar  1 <1>  -0.1500 
  7 N       -2.8580     4.8360     0.2670 N.pl3 1 <1>  -0.8380 
  8 C       -1.1750     3.9500    -1.2040 C.ar  1 <1>  -0.1500 
  9 C       -2.6430     6.2860     0.4120 C.3   1 <1>   0.2090 
 10 C       -3.9640     4.2940     1.0770 C.3   1 <1>   0.2090 
 11 C       -3.9010     6.9910    -0.0870 C.3   1 <1>  -0.1600 
 12 C       -5.2560     4.9510     0.5970 C.3   1 <1>  -0.1600 
 13 C       -5.1620     6.4880     0.6410 C.3   1 <1>   0.4230 
 14 N       -6.3860     7.0920     0.0190 N.4   1 <1>  -0.9590 
 15 C       -7.6760     6.6850     0.6660 C.3   1 <1>   0.3430 
 16 C       -6.3270     8.5920    -0.0760 C.3   1 <1>   0.3430 
 17 C       -8.8610     6.9500    -0.2830 C.3   1 <1>   0.0000 
 18 C       -7.6880     9.2190    -0.4120 C.3   1 <1>  -0.1600 
 19 C      -10.1610     6.9710     0.5400 C.3   1 <1>   0.2000 
 20 C       -8.6380     8.2440    -1.1240 C.3   1 <1>  -0.1600 
 21 C       -9.1440     5.7710    -1.2300 C.3   1 <1>  -0.1600 
 22 O      -10.3390     8.1790     1.1840 O.3   1 <1>  -0.6800 
 23 C      -11.2880     6.6920    -0.4520 C.3   1 <1>  -0.1600 
 24 C      -10.6300     5.8990    -1.5930 C.3   1 <1>  -0.1600 
 25 H       -1.5010     3.4240     2.1150 H     1 <1>   0.1500 
 26 H        1.4370     1.8990    -0.5640 H     1 <1>   0.1500 
 27 H        0.3600     3.1210    -2.4420 H     1 <1>   0.1500 
 28 H       -1.6480     4.4770    -2.0120 H     1 <1>   0.1500 
 29 H       -2.4500     6.5230     1.4450 H     1 <1>   0.0800 
 30 H       -1.7890     6.5900    -0.1720 H     1 <1>   0.0800 
 31 H       -4.0200     3.2250     0.9440 H     1 <1>   0.0800 
 32 H       -3.7900     4.5030     2.1200 H     1 <1>   0.0800 
 33 H       -3.9840     6.8080    -1.1430 H     1 <1>   0.0800 
 34 H       -3.7580     8.0430     0.0740 H     1 <1>   0.0800 
 35 H       -6.0420     4.5930     1.2330 H     1 <1>   0.0800 
 36 H       -5.4410     4.6190    -0.4090 H     1 <1>   0.0800 
 37 H       -5.0990     6.7940     1.6740 H     1 <1>   0.0800 
 38 H       -6.4320     6.7380    -0.9450 H     1 <1>   0.4500 
 39 H       -7.6740     5.6440     0.9310 H     1 <1>   0.0800 
 40 H       -7.8180     7.2610     1.5670 H     1 <1>   0.0800 
 41 H       -5.9770     9.0070     0.8550 H     1 <1>   0.0800 
 42 H       -5.6230     8.8670    -0.8450 H     1 <1>   0.0800 
 43 H       -8.1480     9.5580     0.5010 H     1 <1>   0.0800 
 44 H       -7.5340    10.0930    -1.0210 H     1 <1>   0.0800 
 45 H      -10.1480     6.1930     1.2860 H     1 <1>   0.0800 
 46 H       -8.2040     8.0020    -2.0790 H     1 <1>   0.0800 
 47 H       -9.5730     8.7380    -1.3260 H     1 <1>   0.0800 
 48 H       -8.5210     5.7620    -2.1070 H     1 <1>   0.0800 
 49 H       -9.0030     4.8390    -0.7080 H     1 <1>   0.0800 
 50 H      -11.2520     8.2470     1.5310 H     1 <1>   0.4000 
 51 H      -12.0710     6.1180     0.0120 H     1 <1>   0.0800 
 52 H      -11.6950     7.6100    -0.8410 H     1 <1>   0.0800 
 53 H      -11.0840     4.9290    -1.7130 H     1 <1>   0.0800 
 54 H      -10.7380     6.4440    -2.5170 H     1 <1>   0.0800 
@<TRIPOS>BOND
  1   1   2  1   
  2   2   3  ar  
  3   2   4  ar  
  4   3   5  ar  
  5   3  25  1   
  6   4   6  ar  
  7   4  26  1   
  8   5   7  1   
  9   5   8  ar  
 10   6   8  ar  
 11   6  27  1   
 12   7   9  1   
 13   7  10  1   
 14   8  28  1   
 15   9  11  1   
 16   9  29  1   
 17   9  30  1   
 18  10  12  1   
 19  10  31  1   
 20  10  32  1   
 21  11  13  1   
 22  11  33  1   
 23  11  34  1   
 24  12  13  1   
 25  12  35  1   
 26  12  36  1   
 27  13  14  1   
 28  13  37  1   
 29  14  15  1   
 30  14  16  1   
 31  14  38  1   
 32  15  17  1   
 33  15  39  1   
 34  15  40  1   
 35  16  18  1   
 36  16  41  1   
 37  16  42  1   
 38  17  19  1   
 39  17  20  1   
 40  17  21  1   
 41  18  20  1   
 42  18  43  1   
 43  18  44  1   
 44  19  22  1   
 45  19  23  1   
 46  19  45  1   
 47  20  46  1   
 48  20  47  1   
 49  21  24  1   
 50  21  48  1   
 51  21  49  1   
 52  22  50  1   
 53  23  24  1   
 54  23  51  1   
 55  23  52  1   
 56  24  53  1   
 57  24  54  1   
@<TRIPOS>SUBSTRUCTURE
  1 ****  12 GROUP 4 **** **** 0

# MOE 2024.06 (io_trps.svl 2023.06)
