@<TRIPOS>MOLECULE
NONAME
56 58 1 0 0 
SMALL
USER_CHARGES


@<TRIPOS>ATOM
  1 O        2.4520     1.3150    -2.0570 O.2   1 <1>  -0.5700 
  2 C        3.1590     0.4940    -1.5040 C.2   1 <1>   0.5440 
  3 N        3.9760    -0.2920    -2.2640 N.am  1 <1>  -0.7300 
  4 C        3.2110     0.4520    -0.0560 C.ar  1 <1>   0.0860 
  5 C        4.3280    -0.0210    -3.6780 C.3   1 <1>   0.1400 
  6 C        2.0630     0.6440     0.7110 C.ar  1 <1>  -0.1500 
  7 C        4.4180     0.2800     0.6230 C.ar  1 <1>  -0.1500 
  8 C        5.6670     0.7220    -3.7570 C.3   1 <1>  -0.0990 
  9 C        2.1170     0.6720     2.0930 C.ar  1 <1>  -0.1500 
 10 C        4.4760     0.3070     2.0050 C.ar  1 <1>  -0.1500 
 11 C        5.7010     1.9480    -2.8670 C.2   1 <1>   0.5690 
 12 C        3.3260     0.5090     2.7480 C.ar  1 <1>  -0.1430 
 13 O        6.2990     1.9040    -1.8170 O.2   1 <1>  -0.5700 
 14 N        5.0220     3.0650    -3.2290 N.am  1 <1>  -0.7300 
 15 C        3.3810     0.5330     4.2650 C.3   1 <1>  -0.0970 
 16 C        4.8530     4.2230    -2.3060 C.3   1 <1>   0.2200 
 17 C        3.9530     3.8260    -1.1150 C.3   1 <1>   0.4230 
 18 C        4.1160     5.3970    -2.9640 C.3   1 <1>   0.1200 
 19 N        4.4720     4.2790     0.2300 N.4   1 <1>  -0.9590 
 20 C        2.6390     4.5070    -1.5100 C.3   1 <1>   0.1200 
 21 O        3.0280     5.6800    -2.1400 O.3   1 <1>  -0.5600 
 22 C        5.8280     3.7020     0.5040 C.3   1 <1>   0.3430 
 23 C        3.5310     3.8860     1.3230 C.3   1 <1>   0.3430 
 24 C        6.3790     4.2560     1.8180 C.3   1 <1>  -0.1600 
 25 C        4.0160     4.4450     2.6610 C.3   1 <1>  -0.1600 
 26 C        5.4350     3.9690     2.9920 C.3   1 <1>  -0.1600 
 27 H        4.5170    -1.0300    -1.8050 H     1 <1>   0.3700 
 28 H        4.3890    -0.9530    -4.2160 H     1 <1>   0.0800 
 29 H        3.5540     0.5720    -4.1350 H     1 <1>   0.0800 
 30 H        1.1170     0.7680     0.2110 H     1 <1>   0.1500 
 31 H        5.3260     0.1310     0.0640 H     1 <1>   0.1500 
 32 H        5.8530     1.0180    -4.7720 H     1 <1>   0.0800 
 33 H        6.4590     0.0570    -3.4640 H     1 <1>   0.0800 
 34 H        1.2110     0.8120     2.6590 H     1 <1>   0.1500 
 35 H        5.4210     0.1620     2.5010 H     1 <1>   0.1500 
 36 H        4.4160     3.0400    -4.0540 H     1 <1>   0.3700 
 37 H        2.6880     1.2550     4.6570 H     1 <1>   0.0800 
 38 H        4.3680     0.7870     4.6090 H     1 <1>   0.0800 
 39 H        3.1230    -0.4370     4.6520 H     1 <1>   0.0800 
 40 H        5.8260     4.5500    -1.9910 H     1 <1>   0.0800 
 41 H        3.8330     2.7620    -1.0910 H     1 <1>   0.0800 
 42 H        3.7410     5.1420    -3.9410 H     1 <1>   0.0800 
 43 H        4.7330     6.2770    -3.0230 H     1 <1>   0.0800 
 44 H        4.5360     5.3050     0.2090 H     1 <1>   0.4500 
 45 H        1.9870     4.7400    -0.6890 H     1 <1>   0.0800 
 46 H        2.1070     3.9060    -2.2290 H     1 <1>   0.0800 
 47 H        5.7580     2.6280     0.5650 H     1 <1>   0.0800 
 48 H        6.5140     3.9390    -0.2920 H     1 <1>   0.0800 
 49 H        2.5420     4.2610     1.1260 H     1 <1>   0.0800 
 50 H        3.4780     2.8110     1.3850 H     1 <1>   0.0800 
 51 H        7.3360     3.8040     2.0130 H     1 <1>   0.0800 
 52 H        6.5370     5.3160     1.7210 H     1 <1>   0.0800 
 53 H        3.9830     5.5200     2.6330 H     1 <1>   0.0800 
 54 H        3.3440     4.1220     3.4380 H     1 <1>   0.0800 
 55 H        5.7920     4.4630     3.8810 H     1 <1>   0.0800 
 56 H        5.4200     2.9100     3.1870 H     1 <1>   0.0800 
@<TRIPOS>BOND
  1   1   2  2   
  2   2   3  am  
  3   2   4  1   
  4   3   5  1   
  5   3  27  1   
  6   4   6  ar  
  7   4   7  ar  
  8   5   8  1   
  9   5  28  1   
 10   5  29  1   
 11   6   9  ar  
 12   6  30  1   
 13   7  10  ar  
 14   7  31  1   
 15   8  11  1   
 16   8  32  1   
 17   8  33  1   
 18   9  12  ar  
 19   9  34  1   
 20  10  12  ar  
 21  10  35  1   
 22  11  13  2   
 23  11  14  am  
 24  12  15  1   
 25  14  16  1   
 26  14  36  1   
 27  15  37  1   
 28  15  38  1   
 29  15  39  1   
 30  16  17  1   
 31  16  18  1   
 32  16  40  1   
 33  17  19  1   
 34  17  20  1   
 35  17  41  1   
 36  18  21  1   
 37  18  42  1   
 38  18  43  1   
 39  19  22  1   
 40  19  23  1   
 41  19  44  1   
 42  20  21  1   
 43  20  45  1   
 44  20  46  1   
 45  22  24  1   
 46  22  47  1   
 47  22  48  1   
 48  23  25  1   
 49  23  49  1   
 50  23  50  1   
 51  24  26  1   
 52  24  51  1   
 53  24  52  1   
 54  25  26  1   
 55  25  53  1   
 56  25  54  1   
 57  26  55  1   
 58  26  56  1   
@<TRIPOS>SUBSTRUCTURE
  1 ****  17 GROUP 4 **** **** 0

# MOE 2024.06 (io_trps.svl 2023.06)
