@<TRIPOS>MOLECULE
NONAME
54 56 1 0 0 
SMALL
USER_CHARGES


@<TRIPOS>ATOM
  1 O       -0.5570    -0.2280    -0.2720 O.2   1 <1>  -0.5700 
  2 C       -1.4700     0.5680    -0.3800 C.2   1 <1>   0.7160 
  3 N       -2.6340     0.1310    -0.9320 N.am  1 <1>  -0.7300 
  4 C       -1.3550     1.9200     0.0790 C.2   1 <1>  -0.0860 
  5 C       -2.9720    -1.2780    -1.2620 C.3   1 <1>   0.1400 
  6 C       -2.4150     2.8230     0.2480 C.2   1 <1>   0.3720 
  7 C       -0.2700     2.6400     0.4840 C.2   1 <1>   0.0870 
  8 C       -3.2690    -2.1030     0.0010 C.3   1 <1>   0.2000 
  9 N       -2.0030     3.9470     0.7170 N.2   1 <1>  -0.4100 
 10 N       -3.7650     2.5690    -0.0420 N.pl3 1 <1>  -0.8210 
 11 O       -0.7120     3.8170     0.8540 O.3   1 <1>  -0.0190 
 12 C        1.1430     2.3680     0.5650 C.ar  1 <1>   0.0530 
 13 O       -3.6600    -3.3720    -0.4200 O.3   1 <1>  -0.5600 
 14 C       -4.4080    -1.5200     0.8460 C.3   1 <1>  -0.2400 
 15 C       -4.6700     2.7050     1.1340 C.3   1 <1>   0.2090 
 16 C       -4.3060     3.4060    -1.1500 C.3   1 <1>   0.2090 
 17 C        1.8160     1.6320    -0.4110 C.ar  1 <1>  -0.1500 
 18 C        1.9000     2.8560     1.6300 C.ar  1 <1>  -0.1500 
 19 C       -3.2790    -4.4140     0.4170 C.3   1 <1>   0.1200 
 20 C       -5.6640     3.8020     0.7810 C.3   1 <1>  -0.1600 
 21 C       -5.7220     3.7760    -0.7380 C.3   1 <1>  -0.1600 
 22 C        3.1730     1.3830    -0.3270 C.ar  1 <1>  -0.1500 
 23 C        3.2580     2.6160     1.7210 C.ar  1 <1>  -0.1500 
 24 C       -3.8190    -5.7040    -0.1860 C.3   1 <1>  -0.2400 
 25 C        3.9080     1.8770     0.7470 C.ar  1 <1>   0.0830 
 26 O        5.2380     1.6810     0.9070 O.3   1 <1>  -0.3630 
 27 C        5.9840     0.9110    -0.0080 C.3   1 <1>   0.0400 
 28 H       -3.4220     0.7880    -0.8290 H     1 <1>   0.3700 
 29 H       -2.1420    -1.7240    -1.7820 H     1 <1>   0.0800 
 30 H       -3.8320    -1.2900    -1.9090 H     1 <1>   0.0800 
 31 H       -2.3630    -2.1840     0.5790 H     1 <1>   0.0800 
 32 H       -5.3000    -1.4300     0.2520 H     1 <1>   0.0800 
 33 H       -4.1360    -0.5460     1.2090 H     1 <1>   0.0800 
 34 H       -4.6060    -2.1470     1.6950 H     1 <1>   0.0800 
 35 H       -4.1280     2.9500     2.0340 H     1 <1>   0.0800 
 36 H       -5.1880     1.7730     1.2810 H     1 <1>   0.0800 
 37 H       -4.3010     2.8580    -2.0770 H     1 <1>   0.0800 
 38 H       -3.7140     4.3000    -1.2660 H     1 <1>   0.0800 
 39 H        1.2660     1.2470    -1.2510 H     1 <1>   0.1500 
 40 H        1.4150     3.4320     2.3990 H     1 <1>   0.1500 
 41 H       -3.6940    -4.2500     1.3960 H     1 <1>   0.0800 
 42 H       -2.2040    -4.4410     0.4700 H     1 <1>   0.0800 
 43 H       -5.2710     4.7460     1.1170 H     1 <1>   0.0800 
 44 H       -6.6250     3.6370     1.2360 H     1 <1>   0.0800 
 45 H       -6.3980     3.0080    -1.0700 H     1 <1>   0.0800 
 46 H       -6.0260     4.7200    -1.1540 H     1 <1>   0.0800 
 47 H        3.6390     0.8060    -1.1030 H     1 <1>   0.1500 
 48 H        3.8260     2.9990     2.5490 H     1 <1>   0.1500 
 49 H       -4.8910    -5.6600    -0.2490 H     1 <1>   0.0800 
 50 H       -3.5430    -6.5390     0.4310 H     1 <1>   0.0800 
 51 H       -3.4070    -5.8510    -1.1690 H     1 <1>   0.0800 
 52 H        7.0040     0.8850     0.3300 H     1 <1>   0.0800 
 53 H        5.9310     1.3730    -0.9780 H     1 <1>   0.0800 
 54 H        5.5810    -0.0870    -0.0340 H     1 <1>   0.0800 
@<TRIPOS>BOND
  1   1   2  2   
  2   2   3  am  
  3   2   4  1   
  4   3   5  1   
  5   3  28  1   
  6   4   6  1   
  7   4   7  2   
  8   5   8  1   
  9   5  29  1   
 10   5  30  1   
 11   6   9  2   
 12   6  10  1   
 13   7  11  1   
 14   7  12  1   
 15   8  13  1   
 16   8  14  1   
 17   8  31  1   
 18   9  11  1   
 19  10  15  1   
 20  10  16  1   
 21  12  17  ar  
 22  12  18  ar  
 23  13  19  1   
 24  14  32  1   
 25  14  33  1   
 26  14  34  1   
 27  15  20  1   
 28  15  35  1   
 29  15  36  1   
 30  16  21  1   
 31  16  37  1   
 32  16  38  1   
 33  17  22  ar  
 34  17  39  1   
 35  18  23  ar  
 36  18  40  1   
 37  19  24  1   
 38  19  41  1   
 39  19  42  1   
 40  20  21  1   
 41  20  43  1   
 42  20  44  1   
 43  21  45  1   
 44  21  46  1   
 45  22  25  ar  
 46  22  47  1   
 47  23  25  ar  
 48  23  48  1   
 49  24  49  1   
 50  24  50  1   
 51  24  51  1   
 52  25  26  1   
 53  26  27  1   
 54  27  52  1   
 55  27  53  1   
 56  27  54  1   
@<TRIPOS>SUBSTRUCTURE
  1 ****   2 GROUP 4 **** **** 0

# MOE 2024.06 (io_trps.svl 2023.06)
