@<TRIPOS>MOLECULE
NONAME
54 57 1 0 0 
SMALL
USER_CHARGES


@<TRIPOS>ATOM
  1 O       -2.2790     3.3810    -1.3530 O.co2 1 <1>  -0.9000 
  2 C       -1.1530     2.9340    -1.1080 C.2   1 <1>   0.9060 
  3 O       -0.2600     2.9750    -1.9630 O.co2 1 <1>  -0.9000 
  4 C       -0.7600     2.5810     0.3300 C.3   1 <1>  -0.1060 
  5 C       -1.8160     2.9490     1.4150 C.3   1 <1>   0.2000 
  6 C        0.4790     3.4460     0.5850 C.3   1 <1>   0.3430 
  7 C       -0.4320     1.0660     0.4910 C.3   1 <1>  -0.1600 
  8 O       -3.0820     2.6570     0.9630 O.3   1 <1>  -0.6800 
  9 C       -1.7970     4.4130     1.8780 C.3   1 <1>  -0.1600 
 10 N        0.2060     4.9340     0.5220 N.4   1 <1>  -0.9590 
 11 C        0.6930     0.5120    -0.4020 C.3   1 <1>  -0.1600 
 12 C       -1.2160     5.3190     0.8050 C.3   1 <1>   0.3430 
 13 C        0.5700     5.4560    -0.8310 C.3   1 <1>   0.4860 
 14 C        0.9610    -0.9620    -0.0890 C.3   1 <1>  -0.2400 
 15 C        0.6720     6.9670    -0.7400 C.ar  1 <1>  -0.1440 
 16 C        1.7790     7.5690    -0.1540 C.ar  1 <1>  -0.1500 
 17 C       -0.3590     7.7540    -1.2420 C.ar  1 <1>  -0.1500 
 18 C        1.8270     8.9470    -0.0670 C.ar  1 <1>  -0.1440 
 19 C       -0.3010     9.1340    -1.1500 C.ar  1 <1>  -0.1500 
 20 C        0.7990     9.7330    -0.5540 C.ar  1 <1>   0.0000 
 21 C        2.9230     9.8240     0.5230 C.3   1 <1>   0.1270 
 22 C        1.1080    11.1150    -0.3280 C.ar  1 <1>   0.0000 
 23 C        2.3370    11.2090     0.3000 C.ar  1 <1>  -0.1440 
 24 C        0.3990    12.2700    -0.6270 C.ar  1 <1>  -0.1500 
 25 C        2.8780    12.4350     0.6380 C.ar  1 <1>  -0.1500 
 26 C        0.9330    13.5040    -0.2920 C.ar  1 <1>  -0.1500 
 27 C        2.1670    13.5870     0.3380 C.ar  1 <1>  -0.1500 
 28 H       -1.6730     2.3380     2.2910 H     1 <1>   0.0800 
 29 H        1.2360     3.1890    -0.1400 H     1 <1>   0.0800 
 30 H        0.8610     3.1990     1.5600 H     1 <1>   0.0800 
 31 H       -0.1710     0.8680     1.5160 H     1 <1>   0.0800 
 32 H       -1.3310     0.5080     0.2800 H     1 <1>   0.0800 
 33 H       -3.1070     2.9100    -0.0110 H     1 <1>   0.4000 
 34 H       -2.7930     4.7350     2.1290 H     1 <1>   0.0800 
 35 H       -1.1970     4.5030     2.7640 H     1 <1>   0.0800 
 36 H        0.8120     5.4230     1.1860 H     1 <1>   0.4500 
 37 H        0.4110     0.5940    -1.4390 H     1 <1>   0.0800 
 38 H        1.6030     1.0670    -0.2620 H     1 <1>   0.0800 
 39 H       -1.2650     6.3500     1.1160 H     1 <1>   0.0800 
 40 H       -1.8110     5.2140    -0.0900 H     1 <1>   0.0800 
 41 H        1.5100     5.0430    -1.1540 H     1 <1>   0.0800 
 42 H       -0.1800     5.1820    -1.5560 H     1 <1>   0.0800 
 43 H        0.0720    -1.5460    -0.2520 H     1 <1>   0.0800 
 44 H        1.2740    -1.0840     0.9330 H     1 <1>   0.0800 
 45 H        1.7360    -1.3380    -0.7330 H     1 <1>   0.0800 
 46 H        2.5970     6.9820     0.2260 H     1 <1>   0.1500 
 47 H       -1.2140     7.2940    -1.7120 H     1 <1>   0.1500 
 48 H       -1.0980     9.7440    -1.5370 H     1 <1>   0.1500 
 49 H        3.0600     9.6280     1.5710 H     1 <1>   0.0800 
 50 H        3.8470     9.7070    -0.0140 H     1 <1>   0.0800 
 51 H       -0.5550    12.2030    -1.1150 H     1 <1>   0.1500 
 52 H        3.8350    12.4980     1.1260 H     1 <1>   0.1500 
 53 H        0.3890    14.4030    -0.5210 H     1 <1>   0.1500 
 54 H        2.5730    14.5490     0.5950 H     1 <1>   0.1500 
@<TRIPOS>BOND
  1   1   2  ar  
  2   2   3  ar  
  3   2   4  1   
  4   4   5  1   
  5   4   6  1   
  6   4   7  1   
  7   5   8  1   
  8   5   9  1   
  9   5  28  1   
 10   6  10  1   
 11   6  29  1   
 12   6  30  1   
 13   7  11  1   
 14   7  31  1   
 15   7  32  1   
 16   8  33  1   
 17   9  12  1   
 18   9  34  1   
 19   9  35  1   
 20  10  12  1   
 21  10  13  1   
 22  10  36  1   
 23  11  14  1   
 24  11  37  1   
 25  11  38  1   
 26  12  39  1   
 27  12  40  1   
 28  13  15  1   
 29  13  41  1   
 30  13  42  1   
 31  14  43  1   
 32  14  44  1   
 33  14  45  1   
 34  15  16  ar  
 35  15  17  ar  
 36  16  18  ar  
 37  16  46  1   
 38  17  19  ar  
 39  17  47  1   
 40  18  20  ar  
 41  18  21  1   
 42  19  20  ar  
 43  19  48  1   
 44  20  22  1   
 45  21  23  1   
 46  21  49  1   
 47  21  50  1   
 48  22  23  ar  
 49  22  24  ar  
 50  23  25  ar  
 51  24  26  ar  
 52  24  51  1   
 53  25  27  ar  
 54  25  52  1   
 55  26  27  ar  
 56  26  53  1   
 57  27  54  1   
@<TRIPOS>SUBSTRUCTURE
  1 ****  15 GROUP 4 **** **** 0

# MOE 2024.06 (io_trps.svl 2023.06)
