@<TRIPOS>MOLECULE
NONAME
54 57 1 0 0 
SMALL
USER_CHARGES


@<TRIPOS>ATOM
  1 O       -1.2710    -1.3210     0.4320 O.2   1 <1>  -0.5700 
  2 C       -2.0770    -0.5140     0.0080 C.2   1 <1>   0.5440 
  3 N       -1.6240     0.7240    -0.3960 N.am  1 <1>  -0.6600 
  4 C       -3.4720    -0.8800    -0.0450 C.ar  1 <1>   0.0860 
  5 C       -2.4440     1.9720    -0.3320 C.3   1 <1>   0.1400 
  6 C       -0.1720     0.9940    -0.6320 C.3   1 <1>   0.1400 
  7 C       -4.0500    -1.6000     0.9970 C.ar  1 <1>   0.1600 
  8 C       -4.3000    -0.5590    -1.1170 C.ar  1 <1>  -0.1500 
  9 C       -1.7920     3.0060     0.6040 C.3   1 <1>   0.1200 
 10 C        0.3420     2.0750     0.3320 C.3   1 <1>   0.1200 
 11 N       -5.3120    -1.9880     1.0690 N.ar  1 <1>  -0.6200 
 12 C       -5.6130    -0.9570    -1.0610 C.ar  1 <1>  -0.1500 
 13 O       -0.4550     3.2230     0.2520 O.3   1 <1>  -0.5600 
 14 C       -6.0860    -1.6680     0.0390 C.ar  1 <1>   0.4100 
 15 N       -7.3910    -2.0950     0.0910 N.pl3 1 <1>  -0.8380 
 16 C       -7.9980    -2.8730    -1.0330 C.3   1 <1>   0.3890 
 17 C       -8.1450    -2.1110     1.3780 C.3   1 <1>   0.1290 
 18 C       -8.3920    -4.2860    -0.6140 C.2   1 <1>   0.0060 
 19 N       -9.6030    -4.7380    -0.7290 N.2   1 <1>  -0.5650 
 20 N       -7.5210    -5.1880    -0.0890 N.pl3 1 <1>   0.0480 
 21 C       -9.5270    -5.9920    -0.2510 C.2   1 <1>   0.0770 
 22 C       -8.2710    -6.2830     0.1450 C.2   1 <1>  -0.3020 
 23 C       -6.0780    -5.0080     0.2100 C.3   1 <1>   0.2390 
 24 C       -5.3070    -6.3200     0.1270 C.ar  1 <1>  -0.1430 
 25 C       -5.1770    -6.9800    -1.0860 C.ar  1 <1>  -0.1500 
 26 C       -4.7250    -6.8630     1.2630 C.ar  1 <1>  -0.1500 
 27 C       -4.4730    -8.1690    -1.1620 C.ar  1 <1>  -0.1500 
 28 C       -4.0210    -8.0520     1.1870 C.ar  1 <1>  -0.1500 
 29 C       -3.8940    -8.7060    -0.0260 C.ar  1 <1>  -0.1500 
 30 H       -3.4350     1.7590     0.0260 H     1 <1>   0.0800 
 31 H       -2.5260     2.3940    -1.3190 H     1 <1>   0.0800 
 32 H       -0.0360     1.3320    -1.6440 H     1 <1>   0.0800 
 33 H        0.4100     0.0980    -0.5060 H     1 <1>   0.0800 
 34 H       -3.4140    -1.8670     1.8250 H     1 <1>   0.1500 
 35 H       -3.9110    -0.0180    -1.9620 H     1 <1>   0.1500 
 36 H       -1.8280     2.6670     1.6250 H     1 <1>   0.0800 
 37 H       -2.3070     3.9470     0.5350 H     1 <1>   0.0800 
 38 H        1.3480     2.3540     0.0740 H     1 <1>   0.0800 
 39 H        0.3310     1.7120     1.3450 H     1 <1>   0.0800 
 40 H       -6.2910    -0.7210    -1.8590 H     1 <1>   0.1500 
 41 H       -7.3080    -2.9370    -1.8550 H     1 <1>   0.0800 
 42 H       -8.8760    -2.3550    -1.3770 H     1 <1>   0.0800 
 43 H       -7.7490    -1.3660     2.0470 H     1 <1>   0.0800 
 44 H       -8.0580    -3.0760     1.8450 H     1 <1>   0.0800 
 45 H       -9.1850    -1.9000     1.1980 H     1 <1>   0.0800 
 46 H      -10.3940    -6.6310    -0.2160 H     1 <1>   0.1500 
 47 H       -7.8770    -7.1890     0.5690 H     1 <1>   0.1500 
 48 H       -5.9900    -4.5830     1.1930 H     1 <1>   0.0800 
 49 H       -5.6580    -4.3140    -0.4930 H     1 <1>   0.0800 
 50 H       -5.6260    -6.5730    -1.9750 H     1 <1>   0.1500 
 51 H       -4.8150    -6.3630     2.2120 H     1 <1>   0.1500 
 52 H       -4.3760    -8.6780    -2.1060 H     1 <1>   0.1500 
 53 H       -3.5710    -8.4680     2.0720 H     1 <1>   0.1500 
 54 H       -3.3460    -9.6300    -0.0850 H     1 <1>   0.1500 
@<TRIPOS>BOND
  1   1   2  2   
  2   2   3  am  
  3   2   4  1   
  4   3   5  1   
  5   3   6  1   
  6   4   7  ar  
  7   4   8  ar  
  8   5   9  1   
  9   5  30  1   
 10   5  31  1   
 11   6  10  1   
 12   6  32  1   
 13   6  33  1   
 14   7  11  ar  
 15   7  34  1   
 16   8  12  ar  
 17   8  35  1   
 18   9  13  1   
 19   9  36  1   
 20   9  37  1   
 21  10  13  1   
 22  10  38  1   
 23  10  39  1   
 24  11  14  ar  
 25  12  14  ar  
 26  12  40  1   
 27  14  15  1   
 28  15  16  1   
 29  15  17  1   
 30  16  18  1   
 31  16  41  1   
 32  16  42  1   
 33  17  43  1   
 34  17  44  1   
 35  17  45  1   
 36  18  19  2   
 37  18  20  1   
 38  19  21  1   
 39  20  22  1   
 40  20  23  1   
 41  21  22  2   
 42  21  46  1   
 43  22  47  1   
 44  23  24  1   
 45  23  48  1   
 46  23  49  1   
 47  24  25  ar  
 48  24  26  ar  
 49  25  27  ar  
 50  25  50  1   
 51  26  28  ar  
 52  26  51  1   
 53  27  29  ar  
 54  27  52  1   
 55  28  29  ar  
 56  28  53  1   
 57  29  54  1   
@<TRIPOS>SUBSTRUCTURE
  1 ****  11 GROUP 4 **** **** 0

# MOE 2024.06 (io_trps.svl 2023.06)
