@<TRIPOS>MOLECULE
NONAME
50 51 1 0 0 
SMALL
USER_CHARGES


@<TRIPOS>ATOM
  1 O       -2.6960     0.5140    -1.5240 O.2   1 <1>  -0.5700 
  2 C       -2.2010     0.6790    -0.4360 C.2   1 <1>   0.5690 
  3 N       -1.9390    -0.3680     0.3890 N.am  1 <1>  -0.7300 
  4 C       -1.8550     2.0890     0.0420 C.3   1 <1>  -0.0190 
  5 C       -2.1660    -1.7930     0.0350 C.3   1 <1>   0.1400 
  6 C       -2.8590     3.1500    -0.4550 C.3   1 <1>  -0.1600 
  7 C       -0.4120     2.4710    -0.3630 C.3   1 <1>  -0.1600 
  8 C       -3.6590    -2.1190     0.0370 C.3   1 <1>   0.1200 
  9 C       -2.5860     4.5430     0.1520 C.3   1 <1>   0.2000 
 10 C       -0.1460     3.9900    -0.3610 C.3   1 <1>  -0.1600 
 11 O       -3.8090    -3.5200    -0.0490 O.3   1 <1>  -0.3620 
 12 O       -2.9210     5.5190    -0.8030 O.3   1 <1>  -0.5600 
 13 C       -1.1040     4.7330     0.5740 C.3   1 <1>   0.2000 
 14 C       -5.0380    -4.0940    -0.0280 C.ar  1 <1>   0.0820 
 15 C       -4.2840     5.7720    -0.9430 C.3   1 <1>   0.0400 
 16 O       -0.7890     6.0740     0.5330 O.3   1 <1>  -0.6800 
 17 C       -5.0820    -5.4780     0.0070 C.ar  1 <1>  -0.1500 
 18 C       -6.2290    -3.3770    -0.0370 C.ar  1 <1>  -0.1500 
 19 C       -6.2910    -6.1560     0.0380 C.ar  1 <1>  -0.1440 
 20 C       -7.4380    -4.0490    -0.0070 C.ar  1 <1>  -0.1500 
 21 C       -7.4800    -5.4350     0.0320 C.ar  1 <1>  -0.1440 
 22 C       -6.2820    -7.6780     0.0780 C.3   1 <1>  -0.0970 
 23 C       -8.8330    -6.1320     0.0650 C.3   1 <1>  -0.0970 
 24 H       -1.5030    -0.2020     1.2970 H     1 <1>   0.3700 
 25 H       -1.9100     2.0800     1.1160 H     1 <1>   0.0800 
 26 H       -1.7640    -1.9840    -0.9460 H     1 <1>   0.0800 
 27 H       -1.6600    -2.4180     0.7500 H     1 <1>   0.0800 
 28 H       -3.8590     2.8420    -0.2060 H     1 <1>   0.0800 
 29 H       -2.7830     3.2060    -1.5280 H     1 <1>   0.0800 
 30 H        0.2750     1.9850     0.3090 H     1 <1>   0.0800 
 31 H       -0.2070     2.0970    -1.3530 H     1 <1>   0.0800 
 32 H       -4.1400    -1.6690    -0.8140 H     1 <1>   0.0800 
 33 H       -4.1170    -1.7910     0.9530 H     1 <1>   0.0800 
 34 H       -3.1960     4.6930     1.0270 H     1 <1>   0.0800 
 35 H       -0.2880     4.3680    -1.3600 H     1 <1>   0.0800 
 36 H        0.8720     4.1800    -0.0710 H     1 <1>   0.0800 
 37 H       -0.9550     4.3900     1.5830 H     1 <1>   0.0800 
 38 H       -4.4050     6.5470    -1.6800 H     1 <1>   0.0800 
 39 H       -4.6840     6.1050    -0.0010 H     1 <1>   0.0800 
 40 H       -4.7850     4.8800    -1.2760 H     1 <1>   0.0800 
 41 H       -1.3400     6.4550    -0.1880 H     1 <1>   0.4000 
 42 H       -4.1530    -6.0160     0.0110 H     1 <1>   0.1500 
 43 H       -6.2370    -2.3040    -0.0710 H     1 <1>   0.1500 
 44 H       -8.3510    -3.4810    -0.0140 H     1 <1>   0.1500 
 45 H       -5.2770    -8.0570     0.0730 H     1 <1>   0.0800 
 46 H       -6.7960    -8.0710    -0.7800 H     1 <1>   0.0800 
 47 H       -6.7700    -8.0250     0.9710 H     1 <1>   0.0800 
 48 H       -9.6360    -5.4180     0.0580 H     1 <1>   0.0800 
 49 H       -8.9180    -6.7270     0.9570 H     1 <1>   0.0800 
 50 H       -8.9400    -6.7690    -0.7940 H     1 <1>   0.0800 
@<TRIPOS>BOND
  1   1   2  2   
  2   2   3  am  
  3   2   4  1   
  4   3   5  1   
  5   3  24  1   
  6   4   6  1   
  7   4   7  1   
  8   4  25  1   
  9   5   8  1   
 10   5  26  1   
 11   5  27  1   
 12   6   9  1   
 13   6  28  1   
 14   6  29  1   
 15   7  10  1   
 16   7  30  1   
 17   7  31  1   
 18   8  11  1   
 19   8  32  1   
 20   8  33  1   
 21   9  12  1   
 22   9  13  1   
 23   9  34  1   
 24  10  13  1   
 25  10  35  1   
 26  10  36  1   
 27  11  14  1   
 28  12  15  1   
 29  13  16  1   
 30  13  37  1   
 31  14  17  ar  
 32  14  18  ar  
 33  15  38  1   
 34  15  39  1   
 35  15  40  1   
 36  16  41  1   
 37  17  19  ar  
 38  17  42  1   
 39  18  20  ar  
 40  18  43  1   
 41  19  21  ar  
 42  19  22  1   
 43  20  21  ar  
 44  20  44  1   
 45  21  23  1   
 46  22  45  1   
 47  22  46  1   
 48  22  47  1   
 49  23  48  1   
 50  23  49  1   
 51  23  50  1   
@<TRIPOS>SUBSTRUCTURE
  1 ****   8 GROUP 4 **** **** 0

# MOE 2024.06 (io_trps.svl 2023.06)
