@<TRIPOS>MOLECULE
NONAME
46 48 1 0 0 
SMALL
USER_CHARGES


@<TRIPOS>ATOM
  1 N       -0.1000    -0.8110     1.6680 N.ar  1 <1>  -0.6200 
  2 C        0.8850    -0.3700     0.8920 C.ar  1 <1>   0.7710 
  3 C       -0.1740    -2.1030     1.8670 C.ar  1 <1>   0.4100 
  4 N        1.8170    -1.2060     0.3970 N.ar  1 <1>  -0.1790 
  5 N        0.9560     0.9540     0.5790 N.pl3 1 <1>  -0.8380 
  6 N       -1.3270    -2.5290     2.3990 N.pl3 1 <1>  -0.8690 
  7 C        0.8320    -2.9960     1.4650 C.ar  1 <1>  -0.1500 
  8 C        1.8400    -2.5260     0.6940 C.ar  1 <1>   0.2170 
  9 C        2.0100     1.6300    -0.2370 C.3   1 <1>   0.2090 
 10 C       -0.1500     1.9050     0.9240 C.3   1 <1>   0.2090 
 11 C       -2.1540    -3.6400     1.8530 C.3   1 <1>   0.2090 
 12 C        2.9580    -3.3950     0.1350 C.3   1 <1>  -0.0170 
 13 C        1.3950     2.0780    -1.5660 C.3   1 <1>  -0.1600 
 14 C       -0.8150     2.3780    -0.3730 C.3   1 <1>  -0.1600 
 15 C       -2.6230    -3.3600     0.4130 C.3   1 <1>   0.0960 
 16 C        4.3350    -2.9840     0.6720 C.3   1 <1>  -0.2400 
 17 C        0.1980     3.0130    -1.3380 C.3   1 <1>  -0.1600 
 18 N       -1.5530    -3.5940    -0.5820 N.pl3 1 <1>   0.3140 
 19 N       -0.8270    -2.6210    -1.1530 N.2   1 <1>  -0.4180 
 20 C       -1.1500    -4.7740    -1.0600 C.2   1 <1>  -0.3020 
 21 N        0.0210    -3.1580    -1.9600 N.2   1 <1>  -0.2270 
 22 C       -0.1700    -4.4800    -1.9260 C.2   1 <1>   0.0770 
 23 H        2.4710    -0.7960    -0.2510 H     1 <1>   0.4570 
 24 H       -1.8770    -1.7850     2.8420 H     1 <1>   0.4000 
 25 H        0.7560    -4.0260     1.7570 H     1 <1>   0.1500 
 26 H        2.8550     0.9920    -0.4210 H     1 <1>   0.0800 
 27 H        2.3700     2.4940     0.2990 H     1 <1>   0.0800 
 28 H        0.2580     2.7490     1.4540 H     1 <1>   0.0800 
 29 H       -0.8930     1.4550     1.5590 H     1 <1>   0.0800 
 30 H       -3.0220    -3.7450     2.4830 H     1 <1>   0.0800 
 31 H       -1.6090    -4.5670     1.8970 H     1 <1>   0.0800 
 32 H        2.9530    -3.3370    -0.9400 H     1 <1>   0.0800 
 33 H        2.7750    -4.4220     0.4000 H     1 <1>   0.0800 
 34 H        1.0760     1.2130    -2.1220 H     1 <1>   0.0800 
 35 H        2.1380     2.5900    -2.1520 H     1 <1>   0.0800 
 36 H       -1.5840     3.0920    -0.1370 H     1 <1>   0.0800 
 37 H       -1.2890     1.5340    -0.8450 H     1 <1>   0.0800 
 38 H       -2.9670    -2.3450     0.3270 H     1 <1>   0.0800 
 39 H       -3.4400    -4.0140     0.1720 H     1 <1>   0.0800 
 40 H        4.5930    -1.9840     0.3720 H     1 <1>   0.0800 
 41 H        5.0890    -3.6520     0.2920 H     1 <1>   0.0800 
 42 H        4.3510    -3.0390     1.7480 H     1 <1>   0.0800 
 43 H       -0.2820     3.2300    -2.2770 H     1 <1>   0.0800 
 44 H        0.5460     3.9440    -0.9230 H     1 <1>   0.0800 
 45 H       -1.5730    -5.7200    -0.7770 H     1 <1>   0.1500 
 46 H        0.4100    -5.1530    -2.5350 H     1 <1>   0.1500 
@<TRIPOS>BOND
  1   1   2  ar  
  2   1   3  ar  
  3   2   4  ar  
  4   2   5  1   
  5   3   6  1   
  6   3   7  ar  
  7   4   8  ar  
  8   4  23  1   
  9   5   9  1   
 10   5  10  1   
 11   6  11  1   
 12   6  24  1   
 13   7   8  ar  
 14   7  25  1   
 15   8  12  1   
 16   9  13  1   
 17   9  26  1   
 18   9  27  1   
 19  10  14  1   
 20  10  28  1   
 21  10  29  1   
 22  11  15  1   
 23  11  30  1   
 24  11  31  1   
 25  12  16  1   
 26  12  32  1   
 27  12  33  1   
 28  13  17  1   
 29  13  34  1   
 30  13  35  1   
 31  14  17  1   
 32  14  36  1   
 33  14  37  1   
 34  15  18  1   
 35  15  38  1   
 36  15  39  1   
 37  16  40  1   
 38  16  41  1   
 39  16  42  1   
 40  17  43  1   
 41  17  44  1   
 42  18  19  1   
 43  18  20  1   
 44  19  21  2   
 45  20  22  2   
 46  20  45  1   
 47  21  22  1   
 48  22  46  1   
@<TRIPOS>SUBSTRUCTURE
  1 ****   2 GROUP 4 **** **** 0

# MOE 2024.06 (io_trps.svl 2023.06)
