@<TRIPOS>MOLECULE
NONAME
55 59 1 0 0 
SMALL
USER_CHARGES


@<TRIPOS>ATOM
  1 O       -1.8160     0.6890     2.4030 O.2   1 <1>  -0.5700 
  2 C       -1.9860     1.0520     1.2540 C.2   1 <1>   0.5440 
  3 N       -2.4480     0.1300     0.3440 N.am  1 <1>  -0.6600 
  4 C       -1.7660     2.4340     0.9010 C.ar  1 <1>   0.0860 
  5 C       -2.8560     0.4110    -1.0540 C.3   1 <1>   0.1400 
  6 C       -2.6610    -1.3010     0.6710 C.3   1 <1>   0.1400 
  7 C       -0.8070     2.8190    -0.0510 C.ar  1 <1>   0.3920 
  8 C       -2.5150     3.4340     1.5090 C.ar  1 <1>  -0.1500 
  9 C       -3.7550    -0.7670    -1.4200 C.3   1 <1>   0.2000 
 10 C       -3.1500    -1.9410    -0.6370 C.3   1 <1>  -0.0800 
 11 O       -0.0500     1.8520    -0.6130 O.3   1 <1>  -0.3630 
 12 N       -0.5820     4.0750    -0.4470 N.ar  1 <1>  -0.6200 
 13 C       -2.2760     4.7270     1.1110 C.ar  1 <1>  -0.1440 
 14 O       -5.0300    -0.4960    -0.9440 O.3   1 <1>  -0.6800 
 15 C       -4.1070    -3.1360    -0.4390 C.3   1 <1>  -0.0170 
 16 C        0.9960     2.1520    -1.5170 C.3   1 <1>   0.0400 
 17 C       -1.3270     4.9800     0.1530 C.ar  1 <1>   0.1670 
 18 C       -2.9300     5.9970     1.5970 C.3   1 <1>  -0.0170 
 19 C       -3.5120    -4.4060     0.1840 C.ar  1 <1>  -0.1440 
 20 C       -1.2280     6.4540    -0.1390 C.3   1 <1>  -0.0170 
 21 C       -2.4390     7.0600     0.5970 C.3   1 <1>  -0.1600 
 22 C       -4.3690    -5.4800     0.5330 C.ar  1 <1>   0.0000 
 23 C       -2.1770    -4.5810     0.4200 C.ar  1 <1>  -0.1500 
 24 C       -3.7890    -6.6350     1.1140 C.ar  1 <1>   0.3100 
 25 C       -5.7710    -5.4790     0.3350 C.ar  1 <1>  -0.1500 
 26 C       -1.7050    -5.7670     0.9970 C.ar  1 <1>   0.1600 
 27 N       -2.4580    -6.7620     1.3400 N.ar  1 <1>  -0.6200 
 28 C       -4.6180    -7.7090     1.4750 C.ar  1 <1>  -0.1500 
 29 C       -6.5510    -6.5440     0.6960 C.ar  1 <1>  -0.1500 
 30 C       -5.9710    -7.6740     1.2750 C.ar  1 <1>  -0.1500 
 31 H       -3.3680     1.3530    -1.1480 H     1 <1>   0.0800 
 32 H       -1.9800     0.4100    -1.6810 H     1 <1>   0.0800 
 33 H       -1.7450    -1.7420     1.0220 H     1 <1>   0.0800 
 34 H       -3.4070    -1.3760     1.4440 H     1 <1>   0.0800 
 35 H       -3.2460     3.1940     2.2610 H     1 <1>   0.1500 
 36 H       -3.8140    -0.9420    -2.4810 H     1 <1>   0.0800 
 37 H       -2.2900    -2.2710    -1.1910 H     1 <1>   0.0800 
 38 H       -4.9540    -0.1850    -0.0190 H     1 <1>   0.4000 
 39 H       -4.5190    -3.3990    -1.3970 H     1 <1>   0.0800 
 40 H       -4.9220    -2.8110     0.1840 H     1 <1>   0.0800 
 41 H        1.4660     1.2300    -1.8100 H     1 <1>   0.0800 
 42 H        1.7090     2.7890    -1.0230 H     1 <1>   0.0800 
 43 H        0.5830     2.6490    -2.3770 H     1 <1>   0.0800 
 44 H       -4.0030     5.9170     1.5920 H     1 <1>   0.0800 
 45 H       -2.5850     6.2220     2.5910 H     1 <1>   0.0800 
 46 H       -0.3030     6.8310     0.2600 H     1 <1>   0.0800 
 47 H       -1.2720     6.6400    -1.1970 H     1 <1>   0.0800 
 48 H       -2.1830     7.9820     1.0890 H     1 <1>   0.0800 
 49 H       -3.2190     7.2520    -0.1190 H     1 <1>   0.0800 
 50 H       -1.4400    -3.8410     0.1790 H     1 <1>   0.1500 
 51 H       -6.2440    -4.6260    -0.1130 H     1 <1>   0.1500 
 52 H       -0.6460    -5.8550     1.1670 H     1 <1>   0.1500 
 53 H       -4.1480    -8.5680     1.9170 H     1 <1>   0.1500 
 54 H       -7.6160    -6.5260     0.5390 H     1 <1>   0.1500 
 55 H       -6.5950    -8.5050     1.5560 H     1 <1>   0.1500 
@<TRIPOS>BOND
  1   1   2  2   
  2   2   3  am  
  3   2   4  1   
  4   3   5  1   
  5   3   6  1   
  6   4   7  ar  
  7   4   8  ar  
  8   5   9  1   
  9   5  31  1   
 10   5  32  1   
 11   6  10  1   
 12   6  33  1   
 13   6  34  1   
 14   7  11  1   
 15   7  12  ar  
 16   8  13  ar  
 17   8  35  1   
 18   9  10  1   
 19   9  14  1   
 20   9  36  1   
 21  10  15  1   
 22  10  37  1   
 23  11  16  1   
 24  12  17  ar  
 25  13  17  ar  
 26  13  18  1   
 27  14  38  1   
 28  15  19  1   
 29  15  39  1   
 30  15  40  1   
 31  16  41  1   
 32  16  42  1   
 33  16  43  1   
 34  17  20  1   
 35  18  21  1   
 36  18  44  1   
 37  18  45  1   
 38  19  22  ar  
 39  19  23  ar  
 40  20  21  1   
 41  20  46  1   
 42  20  47  1   
 43  21  48  1   
 44  21  49  1   
 45  22  24  ar  
 46  22  25  ar  
 47  23  26  ar  
 48  23  50  1   
 49  24  27  ar  
 50  24  28  ar  
 51  25  29  ar  
 52  25  51  1   
 53  26  27  ar  
 54  26  52  1   
 55  28  30  ar  
 56  28  53  1   
 57  29  30  ar  
 58  29  54  1   
 59  30  55  1   
@<TRIPOS>SUBSTRUCTURE
  1 ****   6 GROUP 4 **** **** 0

# MOE 2024.06 (io_trps.svl 2023.06)
