@<TRIPOS>MOLECULE
NONAME
54 55 1 0 0 
SMALL
USER_CHARGES


@<TRIPOS>ATOM
  1 O        0.3230    -0.1110    -2.1520 O.2   1 <1>  -0.5700 
  2 C        0.8240    -0.9580    -1.4460 C.2   1 <1>   0.5690 
  3 N        1.3340    -0.6350    -0.2230 N.am  1 <1>  -0.7300 
  4 C        0.9090    -2.4270    -1.9430 C.3   1 <1>   0.3410 
  5 C        1.3040     0.6990     0.4040 C.3   1 <1>   0.1400 
  6 O        1.0730    -3.3430    -0.8610 O.3   1 <1>  -0.3630 
  7 C        2.1850    -2.5930    -2.7800 C.3   1 <1>  -0.2400 
  8 C       -0.2890    -2.8850    -2.7990 C.3   1 <1>  -0.2400 
  9 C        2.7130     1.2870     0.3790 C.3   1 <1>  -0.1600 
 10 C        0.2100    -3.5890     0.1670 C.ar  1 <1>   0.0830 
 11 C        2.7300     2.7090     0.9510 C.3   1 <1>   0.0200 
 12 C        0.5000    -4.6650     1.0090 C.ar  1 <1>  -0.1430 
 13 C       -0.9210    -2.8110     0.4120 C.ar  1 <1>  -0.1500 
 14 C        4.1360     3.2770     0.9470 C.2   1 <1>   0.0070 
 15 C       -0.3530    -4.9340     2.0710 C.ar  1 <1>  -0.1500 
 16 C        1.7290    -5.5600     0.7920 C.3   1 <1>   0.0630 
 17 C       -1.7610    -3.0890     1.4740 C.ar  1 <1>  -0.1430 
 18 N        4.8490     3.4300     2.0150 N.2   1 <1>  -0.5650 
 19 N        4.7640     3.6740    -0.1820 N.pl3 1 <1>   0.0330 
 20 C       -1.4720    -4.1570     2.3030 C.ar  1 <1>  -0.1500 
 21 C        1.3110    -7.0090     0.5200 C.3   1 <1>  -0.2400 
 22 C        2.6800    -5.4860     1.9930 C.3   1 <1>  -0.2400 
 23 C       -2.9910    -2.2350     1.7260 C.3   1 <1>  -0.0970 
 24 C        6.0040     3.9540     1.5610 C.2   1 <1>   0.0770 
 25 C        5.9700     4.1100     0.2200 C.2   1 <1>  -0.3020 
 26 H        1.6790    -1.4060     0.3590 H     1 <1>   0.3700 
 27 H        0.9490     0.6090     1.4170 H     1 <1>   0.0800 
 28 H        0.6280     1.3390    -0.1390 H     1 <1>   0.0800 
 29 H        3.0470    -2.3250    -2.1960 H     1 <1>   0.0800 
 30 H        2.1460    -1.9460    -3.6380 H     1 <1>   0.0800 
 31 H        2.2860    -3.6080    -3.1190 H     1 <1>   0.0800 
 32 H       -1.2190    -2.7540    -2.2820 H     1 <1>   0.0800 
 33 H       -0.1810    -3.9200    -3.0700 H     1 <1>   0.0800 
 34 H       -0.3370    -2.2990    -3.6990 H     1 <1>   0.0800 
 35 H        3.0670     1.3070    -0.6370 H     1 <1>   0.0800 
 36 H        3.3720     0.6680     0.9630 H     1 <1>   0.0800 
 37 H        2.3700     2.6940     1.9650 H     1 <1>   0.0800 
 38 H        2.0840     3.3510     0.3780 H     1 <1>   0.0800 
 39 H       -1.1690    -1.9760    -0.2110 H     1 <1>   0.1500 
 40 H       -0.1520    -5.7580     2.7310 H     1 <1>   0.1500 
 41 H        2.2830    -5.2280    -0.0680 H     1 <1>   0.0800 
 42 H        4.3930     3.6440    -1.1360 H     1 <1>   0.2700 
 43 H       -2.1170    -4.3900     3.1320 H     1 <1>   0.1500 
 44 H        0.8150    -7.4350     1.3720 H     1 <1>   0.0800 
 45 H        2.1740    -7.6080     0.2890 H     1 <1>   0.0800 
 46 H        0.6390    -7.0390    -0.3190 H     1 <1>   0.0800 
 47 H        2.2130    -5.8760     2.8790 H     1 <1>   0.0800 
 48 H        2.9580    -4.4630     2.1730 H     1 <1>   0.0800 
 49 H        3.5710    -6.0540     1.7960 H     1 <1>   0.0800 
 50 H       -2.8280    -1.2290     1.3820 H     1 <1>   0.0800 
 51 H       -3.2160    -2.2010     2.7770 H     1 <1>   0.0800 
 52 H       -3.8340    -2.6500     1.2030 H     1 <1>   0.0800 
 53 H        6.8090     4.1940     2.2350 H     1 <1>   0.1500 
 54 H        6.7180     4.4970    -0.4480 H     1 <1>   0.1500 
@<TRIPOS>BOND
  1   1   2  2   
  2   2   3  am  
  3   2   4  1   
  4   3   5  1   
  5   3  26  1   
  6   4   6  1   
  7   4   7  1   
  8   4   8  1   
  9   5   9  1   
 10   5  27  1   
 11   5  28  1   
 12   6  10  1   
 13   7  29  1   
 14   7  30  1   
 15   7  31  1   
 16   8  32  1   
 17   8  33  1   
 18   8  34  1   
 19   9  11  1   
 20   9  35  1   
 21   9  36  1   
 22  10  12  ar  
 23  10  13  ar  
 24  11  14  1   
 25  11  37  1   
 26  11  38  1   
 27  12  15  ar  
 28  12  16  1   
 29  13  17  ar  
 30  13  39  1   
 31  14  18  2   
 32  14  19  1   
 33  15  20  ar  
 34  15  40  1   
 35  16  21  1   
 36  16  22  1   
 37  16  41  1   
 38  17  20  ar  
 39  17  23  1   
 40  18  24  1   
 41  19  25  1   
 42  19  42  1   
 43  20  43  1   
 44  21  44  1   
 45  21  45  1   
 46  21  46  1   
 47  22  47  1   
 48  22  48  1   
 49  22  49  1   
 50  23  50  1   
 51  23  51  1   
 52  23  52  1   
 53  24  25  2   
 54  24  53  1   
 55  25  54  1   
@<TRIPOS>SUBSTRUCTURE
  1 ****   3 GROUP 4 **** **** 0

# MOE 2024.06 (io_trps.svl 2023.06)
