@<TRIPOS>MOLECULE
NONAME
51 54 1 0 0 
SMALL
USER_CHARGES


@<TRIPOS>ATOM
  1 CL      -1.4640     1.6360    -1.9360 Cl    1 <1>  -0.1770 
  2 C       -2.5600     0.4270    -1.3110 C.ar  1 <1>   0.1770 
  3 C       -3.6970     0.8330    -0.5730 C.ar  1 <1>   0.0000 
  4 C       -2.2770    -0.8850    -1.5640 C.ar  1 <1>  -0.1500 
  5 C       -4.5670    -0.1750    -0.0890 C.ar  1 <1>   0.0000 
  6 C       -4.0010     2.1830    -0.2970 C.ar  1 <1>  -0.1500 
  7 C       -3.1320    -1.8770    -1.0790 C.ar  1 <1>  -0.1500 
  8 C       -5.7300     0.2020     0.6410 C.ar  1 <1>   0.0860 
  9 C       -4.2430    -1.5240    -0.3620 C.ar  1 <1>  -0.1500 
 10 C       -5.1130     2.5300     0.4150 C.ar  1 <1>  -0.1500 
 11 C       -6.6700    -0.7840     1.1220 C.2   1 <1>   0.5440 
 12 C       -5.9740     1.5370     0.8800 C.ar  1 <1>  -0.1500 
 13 O       -6.3670    -1.4980     2.0610 O.2   1 <1>  -0.5700 
 14 N       -7.9110    -0.9300     0.5390 N.am  1 <1>  -0.6600 
 15 C       -9.0520    -1.4860     1.3080 C.3   1 <1>   0.1400 
 16 C       -8.2440    -0.3730    -0.8050 C.3   1 <1>   0.1400 
 17 C      -10.1330    -0.4130     1.5210 C.3   1 <1>  -0.1600 
 18 C       -9.7350    -0.0230    -0.9290 C.3   1 <1>  -0.1600 
 19 C      -10.2910     0.6140     0.3710 C.3   1 <1>   0.2800 
 20 O       -9.4630     1.7030     0.7000 O.3   1 <1>  -0.5600 
 21 C      -11.7870     1.0880     0.3020 C.3   1 <1>   0.2000 
 22 C       -9.4290     2.8330    -0.1280 C.3   1 <1>   0.1200 
 23 O      -12.4880     0.3400    -0.6620 O.3   1 <1>  -0.6800 
 24 C      -11.9650     2.6210     0.0720 C.3   1 <1>   0.2800 
 25 C      -10.7960     3.1730    -0.7450 C.3   1 <1>  -0.1600 
 26 O      -11.9470     3.2540     1.3010 O.3   1 <1>  -0.6800 
 27 C      -13.3100     3.0170    -0.5520 C.3   1 <1>  -0.2400 
 28 H       -1.4050    -1.1600    -2.1280 H     1 <1>   0.1500 
 29 H       -3.3400     2.9530    -0.6540 H     1 <1>   0.1500 
 30 H       -2.9050    -2.9110    -1.2740 H     1 <1>   0.1500 
 31 H       -4.8890    -2.3010     0.0120 H     1 <1>   0.1500 
 32 H       -5.3370     3.5620     0.6260 H     1 <1>   0.1500 
 33 H       -6.8520     1.8220     1.4370 H     1 <1>   0.1500 
 34 H       -9.4630    -2.3120     0.7540 H     1 <1>   0.0800 
 35 H       -8.7280    -1.8630     2.2630 H     1 <1>   0.0800 
 36 H       -7.6700     0.5190    -0.9790 H     1 <1>   0.0800 
 37 H       -7.9750    -1.0910    -1.5600 H     1 <1>   0.0800 
 38 H       -9.9390     0.1130     2.4380 H     1 <1>   0.0800 
 39 H      -11.0570    -0.9440     1.6580 H     1 <1>   0.0800 
 40 H      -10.2740    -0.9300    -1.1360 H     1 <1>   0.0800 
 41 H       -9.8800     0.6210    -1.7740 H     1 <1>   0.0800 
 42 H      -12.2690     0.8610     1.2370 H     1 <1>   0.0800 
 43 H       -9.1000     3.6490     0.4920 H     1 <1>   0.0800 
 44 H       -8.6910     2.6730    -0.8940 H     1 <1>   0.0800 
 45 H      -12.1570     0.5480    -1.5540 H     1 <1>   0.4000 
 46 H      -10.8360     2.7570    -1.7340 H     1 <1>   0.0800 
 47 H      -10.8820     4.2380    -0.8600 H     1 <1>   0.0800 
 48 H      -12.0740     4.2120     1.1840 H     1 <1>   0.4000 
 49 H      -13.3930     2.6280    -1.5500 H     1 <1>   0.0800 
 50 H      -13.4140     4.0850    -0.6030 H     1 <1>   0.0800 
 51 H      -14.1180     2.6100     0.0310 H     1 <1>   0.0800 
@<TRIPOS>BOND
  1   1   2  1   
  2   2   3  ar  
  3   2   4  ar  
  4   3   5  ar  
  5   3   6  ar  
  6   4   7  ar  
  7   4  28  1   
  8   5   8  ar  
  9   5   9  ar  
 10   6  10  ar  
 11   6  29  1   
 12   7   9  ar  
 13   7  30  1   
 14   8  11  1   
 15   8  12  ar  
 16   9  31  1   
 17  10  12  ar  
 18  10  32  1   
 19  11  13  2   
 20  11  14  am  
 21  12  33  1   
 22  14  15  1   
 23  14  16  1   
 24  15  17  1   
 25  15  34  1   
 26  15  35  1   
 27  16  18  1   
 28  16  36  1   
 29  16  37  1   
 30  17  19  1   
 31  17  38  1   
 32  17  39  1   
 33  18  19  1   
 34  18  40  1   
 35  18  41  1   
 36  19  20  1   
 37  19  21  1   
 38  20  22  1   
 39  21  23  1   
 40  21  24  1   
 41  21  42  1   
 42  22  25  1   
 43  22  43  1   
 44  22  44  1   
 45  23  45  1   
 46  24  25  1   
 47  24  26  1   
 48  24  27  1   
 49  25  46  1   
 50  25  47  1   
 51  26  48  1   
 52  27  49  1   
 53  27  50  1   
 54  27  51  1   
@<TRIPOS>SUBSTRUCTURE
  1 ****  16 GROUP 4 **** **** 0

# MOE 2024.06 (io_trps.svl 2023.06)
