@<TRIPOS>MOLECULE
NONAME
51 54 1 0 0 
SMALL
USER_CHARGES


@<TRIPOS>ATOM
  1 O        0.0240     0.0530    -0.2700 O.2   1 <1>  -0.5700 
  2 C        1.0060    -0.4580    -0.7760 C.2   1 <1>   0.7150 
  3 N        1.9020     0.3500    -1.4040 N.am  1 <1>  -0.7300 
  4 C        1.2220    -1.8870    -0.7200 C.2   1 <1>   0.0550 
  5 C        1.8850     1.8270    -1.3770 C.3   1 <1>   0.3210 
  6 O        0.4090    -2.6620    -0.0100 O.3   1 <1>  -0.2800 
  7 C        2.1660    -2.6860    -1.2940 C.2   1 <1>  -0.1500 
  8 C        3.3100     2.3360    -1.2270 C.2   1 <1>   0.1080 
  9 C        0.7890    -3.9140    -0.1150 C.2   1 <1>  -0.0400 
 10 C        1.8830    -3.9970    -0.9040 C.2   1 <1>  -0.1500 
 11 N        4.3260     1.8380    -1.8430 N.2   1 <1>  -0.4100 
 12 C        3.7030     3.3900    -0.4050 C.2   1 <1>  -0.1500 
 13 C       -0.0100    -4.9850     0.6070 C.3   1 <1>   0.5230 
 14 O        5.3590     2.5290    -1.4530 O.3   1 <1>  -0.0190 
 15 C        5.0280     3.4590    -0.5980 C.2   1 <1>   0.0550 
 16 N       -1.4390    -4.9020     0.1880 N.4   1 <1>  -0.9590 
 17 C        6.0930     4.3720    -0.0210 C.3   1 <1>  -0.0150 
 18 C       -2.1700    -3.8370     0.9420 C.3   1 <1>   0.3430 
 19 C       -2.1250    -6.2200     0.2710 C.3   1 <1>   0.3430 
 20 C        6.9220     3.9190     1.1360 C.3   1 <1>  -0.2000 
 21 C        5.9180     5.0230     1.3140 C.3   1 <1>  -0.2000 
 22 C       -3.5800    -3.6830     0.3730 C.3   1 <1>  -0.1600 
 23 C       -3.5340    -6.1040    -0.3100 C.3   1 <1>  -0.1600 
 24 C       -4.3510    -5.0110     0.3940 C.3   1 <1>  -0.0800 
 25 C       -5.7220    -4.8490    -0.2700 C.3   1 <1>  -0.2400 
 26 H        2.7940    -0.0250    -1.7360 H     1 <1>   0.3700 
 27 H        1.2800     2.1800    -0.5590 H     1 <1>   0.0800 
 28 H        1.4690     2.1950    -2.2990 H     1 <1>   0.0800 
 29 H        2.9830    -2.3930    -1.9320 H     1 <1>   0.1500 
 30 H        2.4520    -4.8630    -1.1990 H     1 <1>   0.1500 
 31 H        3.0730     3.9890     0.2260 H     1 <1>   0.1500 
 32 H        0.0750    -4.8490     1.6730 H     1 <1>   0.0800 
 33 H        0.3960    -5.9490     0.3500 H     1 <1>   0.0800 
 34 H       -1.4260    -4.5980    -0.7950 H     1 <1>   0.4500 
 35 H        6.5920     4.9400    -0.7870 H     1 <1>   0.1000 
 36 H       -1.6550    -2.8930     0.8620 H     1 <1>   0.0800 
 37 H       -2.2300    -4.1010     1.9850 H     1 <1>   0.0800 
 38 H       -2.1880    -6.5350     1.3010 H     1 <1>   0.0800 
 39 H       -1.5720    -6.9630    -0.2810 H     1 <1>   0.0800 
 40 H        7.9710     4.1590     1.1420 H     1 <1>   0.1000 
 41 H        6.7170     2.9530     1.5660 H     1 <1>   0.1000 
 42 H        5.0330     4.8170     1.8900 H     1 <1>   0.1000 
 43 H        6.2740     6.0300     1.4470 H     1 <1>   0.1000 
 44 H       -3.5160    -3.3020    -0.6310 H     1 <1>   0.0800 
 45 H       -4.1100    -2.9520     0.9590 H     1 <1>   0.0800 
 46 H       -4.0350    -7.0510    -0.1990 H     1 <1>   0.0800 
 47 H       -3.4670    -5.8980    -1.3650 H     1 <1>   0.0800 
 48 H       -4.5080    -5.3030     1.4200 H     1 <1>   0.0800 
 49 H       -5.6200    -4.5530    -1.3000 H     1 <1>   0.0800 
 50 H       -6.3010    -4.1000     0.2430 H     1 <1>   0.0800 
 51 H       -6.2690    -5.7750    -0.2340 H     1 <1>   0.0800 
@<TRIPOS>BOND
  1   1   2  2   
  2   2   3  am  
  3   2   4  1   
  4   3   5  1   
  5   3  26  1   
  6   4   6  1   
  7   4   7  2   
  8   5   8  1   
  9   5  27  1   
 10   5  28  1   
 11   6   9  1   
 12   7  10  1   
 13   7  29  1   
 14   8  11  2   
 15   8  12  1   
 16   9  10  2   
 17   9  13  1   
 18  10  30  1   
 19  11  14  1   
 20  12  15  2   
 21  12  31  1   
 22  13  16  1   
 23  13  32  1   
 24  13  33  1   
 25  14  15  1   
 26  15  17  1   
 27  16  18  1   
 28  16  19  1   
 29  16  34  1   
 30  17  20  1   
 31  17  21  1   
 32  17  35  1   
 33  18  22  1   
 34  18  36  1   
 35  18  37  1   
 36  19  23  1   
 37  19  38  1   
 38  19  39  1   
 39  20  21  1   
 40  20  40  1   
 41  20  41  1   
 42  21  42  1   
 43  21  43  1   
 44  22  24  1   
 45  22  44  1   
 46  22  45  1   
 47  23  24  1   
 48  23  46  1   
 49  23  47  1   
 50  24  25  1   
 51  24  48  1   
 52  25  49  1   
 53  25  50  1   
 54  25  51  1   
@<TRIPOS>SUBSTRUCTURE
  1 ****   2 GROUP 4 **** **** 0

# MOE 2024.06 (io_trps.svl 2023.06)
