@<TRIPOS>MOLECULE
NONAME
39 41 1 0 0 
SMALL
USER_CHARGES


@<TRIPOS>ATOM
  1 O        0.1850    -0.2130     0.4680 O.3   1 <1>  -0.5600 
  2 C        0.9790     0.4590    -0.4670 C.3   1 <1>   0.1200 
  3 C       -1.1570     0.1590     0.3380 C.3   1 <1>   0.1200 
  4 C        0.1750     1.6720    -0.9240 C.3   1 <1>   0.2890 
  5 C       -1.2390     1.1190    -0.8500 C.3   1 <1>  -0.0800 
  6 N        0.3570     2.7790     0.0430 N.pl3 1 <1>  -0.8690 
  7 C       -2.3620     2.1670    -0.7400 C.3   1 <1>  -0.0170 
  8 C        0.7840     4.0200    -0.2730 C.ar  1 <1>   0.7200 
  9 C       -3.7280     1.4990    -0.7190 C.ar  1 <1>  -0.1440 
 10 N        1.3590     4.6600     0.7250 N.ar  1 <1>  -0.6200 
 11 N        0.5830     4.4520    -1.5120 N.ar  1 <1>  -0.6200 
 12 C       -4.3480     1.0690    -1.8750 C.ar  1 <1>  -0.1500 
 13 C       -4.4170     1.2840     0.4570 C.ar  1 <1>  -0.1500 
 14 C        1.7770     5.8700     0.4510 C.ar  1 <1>   0.3930 
 15 C        1.0100     5.6680    -1.7580 C.ar  1 <1>   0.1600 
 16 C       -5.5890     0.4590    -1.8000 C.ar  1 <1>   0.1600 
 17 C       -5.6550     0.6630     0.4220 C.ar  1 <1>   0.1600 
 18 O        2.3640     6.5160     1.4770 O.3   1 <1>  -0.3630 
 19 C        1.6230     6.4340    -0.8020 C.ar  1 <1>  -0.1500 
 20 N       -6.2570     0.2430    -0.6780 N.ar  1 <1>  -0.6200 
 21 C        2.8670     7.8300     1.3740 C.3   1 <1>   0.0400 
 22 H        1.9180     0.7310    -0.0180 H     1 <1>   0.0800 
 23 H        1.1480    -0.2120    -1.2910 H     1 <1>   0.0800 
 24 H       -1.7570    -0.7220     0.1900 H     1 <1>   0.0800 
 25 H       -1.4450     0.6490     1.2520 H     1 <1>   0.0800 
 26 H        0.4460     1.9750    -1.9210 H     1 <1>   0.0800 
 27 H       -1.4110     0.5280    -1.7320 H     1 <1>   0.0800 
 28 H        0.6290     2.4910     0.9820 H     1 <1>   0.4000 
 29 H       -2.3040     2.8420    -1.5770 H     1 <1>   0.0800 
 30 H       -2.2400     2.7560     0.1520 H     1 <1>   0.0800 
 31 H       -3.8780     1.2040    -2.8320 H     1 <1>   0.1500 
 32 H       -4.0040     1.5940     1.4000 H     1 <1>   0.1500 
 33 H        0.8650     6.0590    -2.7510 H     1 <1>   0.1500 
 34 H       -6.0580     0.1300    -2.7120 H     1 <1>   0.1500 
 35 H       -6.1770     0.5050     1.3500 H     1 <1>   0.1500 
 36 H        1.9600     7.4220    -1.0350 H     1 <1>   0.1500 
 37 H        3.2760     8.1050     2.3290 H     1 <1>   0.0800 
 38 H        2.0610     8.4950     1.1170 H     1 <1>   0.0800 
 39 H        3.6410     7.8500     0.6270 H     1 <1>   0.0800 
@<TRIPOS>BOND
  1   1   2  1   
  2   1   3  1   
  3   2   4  1   
  4   2  22  1   
  5   2  23  1   
  6   3   5  1   
  7   3  24  1   
  8   3  25  1   
  9   4   5  1   
 10   4   6  1   
 11   4  26  1   
 12   5   7  1   
 13   5  27  1   
 14   6   8  1   
 15   6  28  1   
 16   7   9  1   
 17   7  29  1   
 18   7  30  1   
 19   8  10  ar  
 20   8  11  ar  
 21   9  12  ar  
 22   9  13  ar  
 23  10  14  ar  
 24  11  15  ar  
 25  12  16  ar  
 26  12  31  1   
 27  13  17  ar  
 28  13  32  1   
 29  14  18  1   
 30  14  19  ar  
 31  15  19  ar  
 32  15  33  1   
 33  16  20  ar  
 34  16  34  1   
 35  17  20  ar  
 36  17  35  1   
 37  18  21  1   
 38  19  36  1   
 39  21  37  1   
 40  21  38  1   
 41  21  39  1   
@<TRIPOS>SUBSTRUCTURE
  1 ****   6 GROUP 4 **** **** 0

# MOE 2024.06 (io_trps.svl 2023.06)
