@<TRIPOS>MOLECULE
NONAME
56 58 1 0 0 
SMALL
USER_CHARGES


@<TRIPOS>ATOM
  1 O        0.0890    -0.6020    -0.2190 O.3   1 <1>  -0.3630 
  2 C        1.2520     0.0980    -0.2340 C.ar  1 <1>   0.0820 
  3 C        0.0500    -1.9580    -0.5830 C.3   1 <1>   0.1200 
  4 C        1.1830     1.4290     0.1480 C.ar  1 <1>  -0.1500 
  5 C        2.4800    -0.4450    -0.6050 C.ar  1 <1>  -0.1500 
  6 C       -1.3970    -2.4260    -0.4370 C.3   1 <1>  -0.1600 
  7 C        2.3210     2.2150     0.1620 C.ar  1 <1>  -0.1500 
  8 C        3.6180     0.3440    -0.5900 C.ar  1 <1>  -0.1500 
  9 C       -1.5010    -3.9100    -0.7780 C.3   1 <1>   0.3430 
 10 C        3.5400     1.6720    -0.2070 C.ar  1 <1>  -0.1500 
 11 N       -2.9090    -4.4010    -0.6850 N.4   1 <1>  -0.9590 
 12 C       -2.9630    -5.7730    -1.3170 C.3   1 <1>   0.3430 
 13 C       -3.4130    -4.3420     0.7220 C.3   1 <1>   0.3430 
 14 C       -3.5710    -6.8980    -0.4500 C.3   1 <1>   0.0000 
 15 C       -4.7740    -5.0180     0.8790 C.3   1 <1>  -0.1600 
 16 C       -4.9010    -6.3320     0.0970 C.3   1 <1>   0.2000 
 17 C       -3.9310    -8.0630    -1.4020 C.3   1 <1>   0.1200 
 18 C       -2.6130    -7.4300     0.6770 C.3   1 <1>  -0.0160 
 19 O       -5.5550    -7.2690     0.8750 O.3   1 <1>  -0.6800 
 20 O       -2.8360    -8.3790    -2.1930 O.3   1 <1>  -0.6800 
 21 C       -1.1930    -6.8620     0.7120 C.ar  1 <1>  -0.1440 
 22 C       -0.7650    -6.1020     1.7930 C.ar  1 <1>  -0.1500 
 23 C       -0.2990    -7.1200    -0.3170 C.ar  1 <1>  -0.1500 
 24 C        0.5110    -5.5650     1.8180 C.ar  1 <1>  -0.1500 
 25 C        0.9770    -6.5850    -0.2950 C.ar  1 <1>  -0.1500 
 26 C        1.3810    -5.8000     0.7700 C.ar  1 <1>  -0.1500 
 27 H        0.3890    -2.0440    -1.6020 H     1 <1>   0.0800 
 28 H        0.7030    -2.5030     0.0780 H     1 <1>   0.0800 
 29 H        0.2340     1.8450     0.4340 H     1 <1>   0.1500 
 30 H        2.5750    -1.4690    -0.9080 H     1 <1>   0.1500 
 31 H       -1.6970    -2.2500     0.5790 H     1 <1>   0.0800 
 32 H       -2.0140    -1.8520    -1.1050 H     1 <1>   0.0800 
 33 H        2.2590     3.2470     0.4600 H     1 <1>   0.1500 
 34 H        4.5670    -0.0750    -0.8770 H     1 <1>   0.1500 
 35 H       -0.8700    -4.4770    -0.1130 H     1 <1>   0.0800 
 36 H       -1.1350    -4.0610    -1.7810 H     1 <1>   0.0800 
 37 H        4.4260     2.2830    -0.1970 H     1 <1>   0.1500 
 38 H       -3.4920    -3.7730    -1.2540 H     1 <1>   0.4500 
 39 H       -3.5540    -5.7030    -2.2160 H     1 <1>   0.0800 
 40 H       -1.9800    -6.0760    -1.6330 H     1 <1>   0.0800 
 41 H       -2.7100    -4.8370     1.3660 H     1 <1>   0.0800 
 42 H       -3.4850    -3.3170     1.0490 H     1 <1>   0.0800 
 43 H       -5.5360    -4.3390     0.5390 H     1 <1>   0.0800 
 44 H       -4.9430    -5.1820     1.9290 H     1 <1>   0.0800 
 45 H       -5.5530    -6.1430    -0.7420 H     1 <1>   0.0800 
 46 H       -4.7390    -7.7930    -2.0620 H     1 <1>   0.0800 
 47 H       -4.2230    -8.9410    -0.8480 H     1 <1>   0.0800 
 48 H       -3.0580    -7.2650     1.6410 H     1 <1>   0.0800 
 49 H       -2.5170    -8.4990     0.5930 H     1 <1>   0.0800 
 50 H       -5.1170    -7.4120     1.7360 H     1 <1>   0.4000 
 51 H       -3.0060    -9.1980    -2.7080 H     1 <1>   0.4000 
 52 H       -1.4130    -5.9270     2.6340 H     1 <1>   0.1500 
 53 H       -0.5850    -7.7490    -1.1440 H     1 <1>   0.1500 
 54 H        0.8340    -4.9770     2.6610 H     1 <1>   0.1500 
 55 H        1.6620    -6.7920    -1.1010 H     1 <1>   0.1500 
 56 H        2.3770    -5.3910     0.7920 H     1 <1>   0.1500 
@<TRIPOS>BOND
  1   1   2  1   
  2   1   3  1   
  3   2   4  ar  
  4   2   5  ar  
  5   3   6  1   
  6   3  27  1   
  7   3  28  1   
  8   4   7  ar  
  9   4  29  1   
 10   5   8  ar  
 11   5  30  1   
 12   6   9  1   
 13   6  31  1   
 14   6  32  1   
 15   7  10  ar  
 16   7  33  1   
 17   8  10  ar  
 18   8  34  1   
 19   9  11  1   
 20   9  35  1   
 21   9  36  1   
 22  10  37  1   
 23  11  12  1   
 24  11  13  1   
 25  11  38  1   
 26  12  14  1   
 27  12  39  1   
 28  12  40  1   
 29  13  15  1   
 30  13  41  1   
 31  13  42  1   
 32  14  16  1   
 33  14  17  1   
 34  14  18  1   
 35  15  16  1   
 36  15  43  1   
 37  15  44  1   
 38  16  19  1   
 39  16  45  1   
 40  17  20  1   
 41  17  46  1   
 42  17  47  1   
 43  18  21  1   
 44  18  48  1   
 45  18  49  1   
 46  19  50  1   
 47  20  51  1   
 48  21  22  ar  
 49  21  23  ar  
 50  22  24  ar  
 51  22  52  1   
 52  23  25  ar  
 53  23  53  1   
 54  24  26  ar  
 55  24  54  1   
 56  25  26  ar  
 57  25  55  1   
 58  26  56  1   
@<TRIPOS>SUBSTRUCTURE
  1 ****   9 GROUP 4 **** **** 0

# MOE 2024.06 (io_trps.svl 2023.06)
