@<TRIPOS>MOLECULE
NONAME
46 48 1 0 0 
SMALL
USER_CHARGES


@<TRIPOS>ATOM
  1 S        0.0040     1.0300    -0.6240 S.3   1 <1>  -0.0800 
  2 C        1.7110     0.6770    -0.5530 C.2   1 <1>  -0.1400 
  3 C        0.2660     2.3700     0.4680 C.2   1 <1>   0.2280 
  4 C        2.3040     1.5730     0.2530 C.2   1 <1>   0.0460 
  5 C        2.2400    -0.4890    -1.3490 C.3   1 <1>   0.5230 
  6 N        1.4770     2.5170     0.8290 N.2   1 <1>  -0.5650 
  7 C        3.7750     1.6740     0.6080 C.3   1 <1>  -0.0590 
  8 N        2.1390    -1.7040    -0.5030 N.4   1 <1>  -0.9590 
  9 C        3.2010    -2.7030    -0.7900 C.3   1 <1>   0.4860 
 10 C        0.7830    -2.2900    -0.4640 C.3   1 <1>   0.5230 
 11 C        4.5240    -2.0900    -0.3820 C.ar  1 <1>  -0.1440 
 12 C        0.7850    -3.3040     0.6490 C.2   1 <1>  -0.3320 
 13 C        4.8450    -1.9810     0.9630 C.ar  1 <1>  -0.1500 
 14 C        5.4140    -1.6230    -1.3390 C.ar  1 <1>  -0.1500 
 15 N        0.4490    -4.6090     0.5220 N.pl3 1 <1>   0.0480 
 16 C        1.1180    -3.1170     1.9470 C.2   1 <1>   0.0770 
 17 C        6.0360    -1.3910     1.3480 C.ar  1 <1>  -0.1500 
 18 C        6.6040    -1.0340    -0.9510 C.ar  1 <1>  -0.1500 
 19 C        0.6330    -5.1240     1.7580 C.2   1 <1>   0.0360 
 20 C       -0.0620    -5.3570    -0.6500 C.3   1 <1>   0.0960 
 21 N        1.0400    -4.2640     2.6320 N.2   1 <1>  -0.5650 
 22 C        6.9140    -0.9140     0.3910 C.ar  1 <1>  -0.1500 
 23 C        1.0720    -5.7130    -1.6170 C.3   1 <1>  -0.2400 
 24 H       -0.5910     2.9570     0.7500 H     1 <1>   0.1500 
 25 H        3.2730    -0.2890    -1.5850 H     1 <1>   0.0800 
 26 H        1.6940    -0.6030    -2.2710 H     1 <1>   0.0800 
 27 H        4.3570     0.9280     0.1030 H     1 <1>   0.0800 
 28 H        3.9000     1.5550     1.6700 H     1 <1>   0.0800 
 29 H        4.1450     2.6450     0.3310 H     1 <1>   0.0800 
 30 H        2.3300    -1.3810     0.4520 H     1 <1>   0.4500 
 31 H        3.2110    -2.9640    -1.8350 H     1 <1>   0.0800 
 32 H        3.0430    -3.6000    -0.2110 H     1 <1>   0.0800 
 33 H        0.5430    -2.7550    -1.4070 H     1 <1>   0.0800 
 34 H        0.0450    -1.5330    -0.2510 H     1 <1>   0.0800 
 35 H        4.1840    -2.3570     1.7280 H     1 <1>   0.1500 
 36 H        5.2020    -1.7120    -2.3920 H     1 <1>   0.1500 
 37 H        1.4190    -2.2100     2.4480 H     1 <1>   0.1500 
 38 H        6.2860    -1.3070     2.3930 H     1 <1>   0.1500 
 39 H        7.2980    -0.6700    -1.6920 H     1 <1>   0.1500 
 40 H        0.4490    -6.1620     1.9810 H     1 <1>   0.1500 
 41 H       -0.8110    -4.7660    -1.1470 H     1 <1>   0.0800 
 42 H       -0.5320    -6.2610    -0.3010 H     1 <1>   0.0800 
 43 H        7.8420    -0.4580     0.6920 H     1 <1>   0.1500 
 44 H        1.5090    -4.8310    -2.0460 H     1 <1>   0.0800 
 45 H        0.6820    -6.3150    -2.4190 H     1 <1>   0.0800 
 46 H        1.8300    -6.2850    -1.1100 H     1 <1>   0.0800 
@<TRIPOS>BOND
  1   1   2  1   
  2   1   3  1   
  3   2   4  2   
  4   2   5  1   
  5   3   6  2   
  6   3  24  1   
  7   4   6  1   
  8   4   7  1   
  9   5   8  1   
 10   5  25  1   
 11   5  26  1   
 12   7  27  1   
 13   7  28  1   
 14   7  29  1   
 15   8   9  1   
 16   8  10  1   
 17   8  30  1   
 18   9  11  1   
 19   9  31  1   
 20   9  32  1   
 21  10  12  1   
 22  10  33  1   
 23  10  34  1   
 24  11  13  ar  
 25  11  14  ar  
 26  12  15  1   
 27  12  16  2   
 28  13  17  ar  
 29  13  35  1   
 30  14  18  ar  
 31  14  36  1   
 32  15  19  1   
 33  15  20  1   
 34  16  21  1   
 35  16  37  1   
 36  17  22  ar  
 37  17  38  1   
 38  18  22  ar  
 39  18  39  1   
 40  19  21  2   
 41  19  40  1   
 42  20  23  1   
 43  20  41  1   
 44  20  42  1   
 45  22  43  1   
 46  23  44  1   
 47  23  45  1   
 48  23  46  1   
@<TRIPOS>SUBSTRUCTURE
  1 ****   8 GROUP 4 **** **** 0

# MOE 2024.06 (io_trps.svl 2023.06)
