@<TRIPOS>MOLECULE
NONAME
38 40 1 0 0 
SMALL
USER_CHARGES


@<TRIPOS>ATOM
  1 O        0.7010    -1.1440     0.1220 O.co2 1 <1>  -0.9000 
  2 C        1.7060    -0.7330    -0.4510 C.2   1 <1>   0.9060 
  3 O        1.9460    -0.9210    -1.6500 O.co2 1 <1>  -0.9000 
  4 C        2.7260     0.0330     0.3610 C.3   1 <1>  -0.1860 
  5 C        4.1140    -0.5920     0.1770 C.3   1 <1>   0.2000 
  6 C        2.7250     1.5410     0.0130 C.3   1 <1>  -0.1600 
  7 O        4.4610    -0.5050    -1.1660 O.3   1 <1>  -0.6800 
  8 C        5.1470     0.2230     0.9610 C.3   1 <1>   0.3430 
  9 C        3.8790     2.3010     0.6710 C.3   1 <1>   0.3430 
 10 N        5.1670     1.6040     0.3770 N.4   1 <1>  -0.9590 
 11 C        6.3980     2.3840     0.6920 C.3   1 <1>   0.4230 
 12 C        6.4180     3.7640     0.0030 C.3   1 <1>  -0.0170 
 13 C        7.6820     1.6610     0.2390 C.3   1 <1>  -0.0170 
 14 C        7.8720     3.9590    -0.3400 C.ar  1 <1>  -0.1440 
 15 C        8.5750     2.7880    -0.2090 C.ar  1 <1>  -0.1440 
 16 C        8.5010     5.1220    -0.7430 C.ar  1 <1>  -0.1500 
 17 C        9.9300     2.7420    -0.4780 C.ar  1 <1>  -0.1500 
 18 C        9.8600     5.0870    -1.0140 C.ar  1 <1>  -0.1500 
 19 C       10.5710     3.9030    -0.8830 C.ar  1 <1>  -0.1500 
 20 H        2.4430    -0.0790     1.3910 H     1 <1>   0.0800 
 21 H        4.1120    -1.6310     0.4660 H     1 <1>   0.0800 
 22 H        1.7870     1.9720     0.3190 H     1 <1>   0.0800 
 23 H        2.7900     1.6610    -1.0560 H     1 <1>   0.0800 
 24 H        3.6260    -0.7570    -1.6760 H     1 <1>   0.4000 
 25 H        6.1060    -0.2540     0.8560 H     1 <1>   0.0800 
 26 H        4.8830     0.2520     2.0040 H     1 <1>   0.0800 
 27 H        3.7220     2.3460     1.7360 H     1 <1>   0.0800 
 28 H        3.8980     3.3070     0.2850 H     1 <1>   0.0800 
 29 H        5.1480     1.3930    -0.6410 H     1 <1>   0.4500 
 30 H        6.4660     2.5460     1.7560 H     1 <1>   0.0800 
 31 H        5.8480     3.7620    -0.9090 H     1 <1>   0.0800 
 32 H        6.0750     4.5370     0.6660 H     1 <1>   0.0800 
 33 H        8.1320     1.1180     1.0500 H     1 <1>   0.0800 
 34 H        7.4990     1.0110    -0.5990 H     1 <1>   0.0800 
 35 H        7.9530     6.0420    -0.8470 H     1 <1>   0.1500 
 36 H       10.4840     1.8250    -0.3790 H     1 <1>   0.1500 
 37 H       10.3670     5.9830    -1.3290 H     1 <1>   0.1500 
 38 H       11.6260     3.8860    -1.0970 H     1 <1>   0.1500 
@<TRIPOS>BOND
  1   1   2  ar  
  2   2   3  ar  
  3   2   4  1   
  4   4   5  1   
  5   4   6  1   
  6   4  20  1   
  7   5   7  1   
  8   5   8  1   
  9   5  21  1   
 10   6   9  1   
 11   6  22  1   
 12   6  23  1   
 13   7  24  1   
 14   8  10  1   
 15   8  25  1   
 16   8  26  1   
 17   9  10  1   
 18   9  27  1   
 19   9  28  1   
 20  10  11  1   
 21  10  29  1   
 22  11  12  1   
 23  11  13  1   
 24  11  30  1   
 25  12  14  1   
 26  12  31  1   
 27  12  32  1   
 28  13  15  1   
 29  13  33  1   
 30  13  34  1   
 31  14  15  ar  
 32  14  16  ar  
 33  15  17  ar  
 34  16  18  ar  
 35  16  35  1   
 36  17  19  ar  
 37  17  36  1   
 38  18  19  ar  
 39  18  37  1   
 40  19  38  1   
@<TRIPOS>SUBSTRUCTURE
  1 ****  10 GROUP 4 **** **** 0

# MOE 2024.06 (io_trps.svl 2023.06)
