@<TRIPOS>MOLECULE
NONAME
53 55 1 0 0 
SMALL
USER_CHARGES


@<TRIPOS>ATOM
  1 O       -1.7070    -1.8090     0.8390 O.3   1 <1>  -0.6800 
  2 C       -2.0700    -1.8260    -0.4940 C.3   1 <1>   0.1200 
  3 C       -1.1630    -2.8220    -1.2170 C.3   1 <1>  -0.1600 
  4 C       -1.2700    -4.2270    -0.5870 C.3   1 <1>   0.4230 
  5 N        0.0940    -4.7550    -0.1970 N.4   1 <1>  -0.9590 
  6 C       -2.0370    -5.1850    -1.5430 C.3   1 <1>   0.2090 
  7 C       -0.0050    -6.1820     0.2900 C.3   1 <1>   0.3430 
  8 C        0.7120    -3.9160     0.8740 C.3   1 <1>   0.3430 
  9 N       -2.0600    -6.5950    -1.0480 N.pl3 1 <1>  -0.8380 
 10 C       -0.7120    -7.1230    -0.7080 C.3   1 <1>   0.2090 
 11 C        2.2050    -3.6620     0.5950 C.3   1 <1>  -0.0800 
 12 C       -3.0850    -6.9480    -0.1860 C.ar  1 <1>   0.4100 
 13 C        3.0470    -4.9450     0.4940 C.3   1 <1>  -0.2400 
 14 C        2.7800    -2.7670     1.7000 C.3   1 <1>  -0.2400 
 15 N       -3.2470    -6.1800     0.8720 N.ar  1 <1>  -0.3100 
 16 C       -3.8700    -8.0980    -0.4350 C.ar  1 <1>   0.0000 
 17 N       -4.1770    -6.4720     1.7690 N.ar  1 <1>  -0.3100 
 18 C       -4.8450    -8.4080     0.5230 C.ar  1 <1>   0.0000 
 19 C       -3.7330    -8.9320    -1.5650 C.ar  1 <1>  -0.1500 
 20 C       -4.9370    -7.5230     1.6160 C.ar  1 <1>   0.1670 
 21 C       -5.6440    -9.5580     0.3240 C.ar  1 <1>  -0.1500 
 22 C       -4.5200   -10.0370    -1.7350 C.ar  1 <1>  -0.1500 
 23 C       -5.9700    -7.7670     2.7040 C.3   1 <1>  -0.0970 
 24 C       -5.4860   -10.3540    -0.7770 C.ar  1 <1>  -0.1500 
 25 H       -2.2660    -1.1760     1.3410 H     1 <1>   0.4000 
 26 H       -1.9500    -0.8320    -0.8940 H     1 <1>   0.0800 
 27 H       -3.1060    -2.1170    -0.5600 H     1 <1>   0.0800 
 28 H       -0.1570    -2.4450    -1.1990 H     1 <1>   0.0800 
 29 H       -1.4650    -2.8490    -2.2490 H     1 <1>   0.0800 
 30 H       -1.8620    -4.1450     0.3110 H     1 <1>   0.0800 
 31 H        0.6950    -4.7200    -1.0250 H     1 <1>   0.4500 
 32 H       -1.5850    -5.1690    -2.5200 H     1 <1>   0.0800 
 33 H       -3.0500    -4.8340    -1.6500 H     1 <1>   0.0800 
 34 H       -0.5650    -6.2030     1.2110 H     1 <1>   0.0800 
 35 H        0.9780    -6.5680     0.4980 H     1 <1>   0.0800 
 36 H        0.5920    -4.3900     1.8340 H     1 <1>   0.0800 
 37 H        0.2190    -2.9610     0.9270 H     1 <1>   0.0800 
 38 H       -0.8100    -8.1000    -0.2640 H     1 <1>   0.0800 
 39 H       -0.1250    -7.2250    -1.6040 H     1 <1>   0.0800 
 40 H        2.2880    -3.1190    -0.3310 H     1 <1>   0.0800 
 41 H        2.9540    -5.5350     1.3900 H     1 <1>   0.0800 
 42 H        4.0860    -4.6940     0.3680 H     1 <1>   0.0800 
 43 H        2.7570    -5.5400    -0.3520 H     1 <1>   0.0800 
 44 H        2.7370    -3.2590     2.6570 H     1 <1>   0.0800 
 45 H        2.2290    -1.8440     1.7660 H     1 <1>   0.0800 
 46 H        3.8080    -2.5240     1.4910 H     1 <1>   0.0800 
 47 H       -2.9930    -8.6820    -2.3050 H     1 <1>   0.1500 
 48 H       -6.3930    -9.8130     1.0510 H     1 <1>   0.1500 
 49 H       -4.4100   -10.6700    -2.6000 H     1 <1>   0.1500 
 50 H       -5.9160    -7.0010     3.4570 H     1 <1>   0.0800 
 51 H       -5.7930    -8.7170     3.1730 H     1 <1>   0.0800 
 52 H       -6.9580    -7.7550     2.2810 H     1 <1>   0.0800 
 53 H       -6.0990   -11.2280    -0.9220 H     1 <1>   0.1500 
@<TRIPOS>BOND
  1   1   2  1   
  2   1  25  1   
  3   2   3  1   
  4   2  26  1   
  5   2  27  1   
  6   3   4  1   
  7   3  28  1   
  8   3  29  1   
  9   4   5  1   
 10   4   6  1   
 11   4  30  1   
 12   5   7  1   
 13   5   8  1   
 14   5  31  1   
 15   6   9  1   
 16   6  32  1   
 17   6  33  1   
 18   7  10  1   
 19   7  34  1   
 20   7  35  1   
 21   8  11  1   
 22   8  36  1   
 23   8  37  1   
 24   9  10  1   
 25   9  12  1   
 26  10  38  1   
 27  10  39  1   
 28  11  13  1   
 29  11  14  1   
 30  11  40  1   
 31  12  15  ar  
 32  12  16  ar  
 33  13  41  1   
 34  13  42  1   
 35  13  43  1   
 36  14  44  1   
 37  14  45  1   
 38  14  46  1   
 39  15  17  ar  
 40  16  18  ar  
 41  16  19  ar  
 42  17  20  ar  
 43  18  20  ar  
 44  18  21  ar  
 45  19  22  ar  
 46  19  47  1   
 47  20  23  1   
 48  21  24  ar  
 49  21  48  1   
 50  22  24  ar  
 51  22  49  1   
 52  23  50  1   
 53  23  51  1   
 54  23  52  1   
 55  24  53  1   
@<TRIPOS>SUBSTRUCTURE
  1 ****   9 GROUP 4 **** **** 0

# MOE 2024.06 (io_trps.svl 2023.06)
