@<TRIPOS>MOLECULE
NONAME
45 46 1 0 0 
SMALL
USER_CHARGES


@<TRIPOS>ATOM
  1 F       -1.7590    -1.4130     1.1580 F     1 <1>  -0.1900 
  2 C       -1.9450    -0.2010     0.7070 C.ar  1 <1>   0.1900 
  3 C       -2.6030    -0.0330    -0.5050 C.ar  1 <1>  -0.1440 
  4 C       -1.4880     0.8580     1.4650 C.ar  1 <1>  -0.1500 
  5 C       -2.8050     1.2600    -0.9780 C.ar  1 <1>  -0.1500 
  6 C       -3.0800    -1.2410    -1.2890 C.3   1 <1>   0.4870 
  7 C       -1.7100     2.1250     0.9650 C.ar  1 <1>   0.1900 
  8 C       -2.3570     2.3460    -0.2390 C.ar  1 <1>  -0.1500 
  9 N       -4.1800    -1.9120    -0.5490 N.4   1 <1>  -0.9590 
 10 F       -1.2970     3.1530     1.6530 F     1 <1>  -0.1900 
 11 C       -4.5790    -3.2150    -1.1550 C.3   1 <1>   0.3430 
 12 C       -5.3660    -1.0430    -0.3090 C.3   1 <1>   0.3430 
 13 C       -5.4750    -3.9790    -0.1580 C.3   1 <1>   0.2000 
 14 C       -6.3480    -1.7510     0.6330 C.3   1 <1>  -0.1600 
 15 O       -4.7020    -4.1590     0.9930 O.3   1 <1>  -0.6800 
 16 C       -6.7720    -3.1750     0.1690 C.3   1 <1>   0.0000 
 17 C       -7.4940    -3.9150     1.3310 C.3   1 <1>   0.1200 
 18 C       -7.6840    -3.1800    -1.1130 C.3   1 <1>  -0.1600 
 19 O       -8.6840    -3.3080     1.6840 O.3   1 <1>  -0.6800 
 20 C       -8.4750    -1.9190    -1.5370 C.3   1 <1>  -0.1600 
 21 C       -9.6990    -1.6030    -0.6730 C.3   1 <1>  -0.2400 
 22 H       -0.9810     0.7080     2.4010 H     1 <1>   0.1500 
 23 H       -3.3020     1.4390    -1.9180 H     1 <1>   0.1500 
 24 H       -2.2560    -1.9250    -1.4150 H     1 <1>   0.0800 
 25 H       -3.4220    -0.9350    -2.2640 H     1 <1>   0.0800 
 26 H       -2.5020     3.3550    -0.5870 H     1 <1>   0.1500 
 27 H       -3.8060    -2.1730     0.3820 H     1 <1>   0.4500 
 28 H       -5.1030    -3.0490    -2.0810 H     1 <1>   0.0800 
 29 H       -3.7070    -3.8130    -1.3610 H     1 <1>   0.0800 
 30 H       -5.0570    -0.1120     0.1390 H     1 <1>   0.0800 
 31 H       -5.8480    -0.8220    -1.2460 H     1 <1>   0.0800 
 32 H       -5.7160    -4.9530    -0.5520 H     1 <1>   0.0800 
 33 H       -5.8780    -1.8160     1.6000 H     1 <1>   0.0800 
 34 H       -7.2090    -1.1240     0.7650 H     1 <1>   0.0800 
 35 H       -5.0730    -4.8640     1.5660 H     1 <1>   0.4000 
 36 H       -6.8860    -3.9520     2.2180 H     1 <1>   0.0800 
 37 H       -7.7320    -4.9250     1.0410 H     1 <1>   0.0800 
 38 H       -7.0960    -3.4410    -1.9720 H     1 <1>   0.0800 
 39 H       -8.3950    -3.9850    -1.0230 H     1 <1>   0.0800 
 40 H       -8.5330    -2.4520     2.1300 H     1 <1>   0.4000 
 41 H       -7.8460    -1.0520    -1.6030 H     1 <1>   0.0800 
 42 H       -8.8430    -2.0990    -2.5340 H     1 <1>   0.0800 
 43 H       -9.4200    -1.2410     0.2970 H     1 <1>   0.0800 
 44 H      -10.3110    -2.4800    -0.5500 H     1 <1>   0.0800 
 45 H      -10.2950    -0.8440    -1.1480 H     1 <1>   0.0800 
@<TRIPOS>BOND
  1   1   2  1   
  2   2   3  ar  
  3   2   4  ar  
  4   3   5  ar  
  5   3   6  1   
  6   4   7  ar  
  7   4  22  1   
  8   5   8  ar  
  9   5  23  1   
 10   6   9  1   
 11   6  24  1   
 12   6  25  1   
 13   7   8  ar  
 14   7  10  1   
 15   8  26  1   
 16   9  11  1   
 17   9  12  1   
 18   9  27  1   
 19  11  13  1   
 20  11  28  1   
 21  11  29  1   
 22  12  14  1   
 23  12  30  1   
 24  12  31  1   
 25  13  15  1   
 26  13  16  1   
 27  13  32  1   
 28  14  16  1   
 29  14  33  1   
 30  14  34  1   
 31  15  35  1   
 32  16  17  1   
 33  16  18  1   
 34  17  19  1   
 35  17  36  1   
 36  17  37  1   
 37  18  20  1   
 38  18  38  1   
 39  18  39  1   
 40  19  40  1   
 41  20  21  1   
 42  20  41  1   
 43  20  42  1   
 44  21  43  1   
 45  21  44  1   
 46  21  45  1   
@<TRIPOS>SUBSTRUCTURE
  1 ****  12 GROUP 4 **** **** 0

# MOE 2024.06 (io_trps.svl 2023.06)
