@<TRIPOS>MOLECULE
NONAME
40 41 1 0 0 
SMALL
USER_CHARGES


@<TRIPOS>ATOM
  1 O       -1.6040    -2.6170     0.0550 O.3   1 <1>  -0.6800 
  2 C       -2.9360    -2.7750     0.4190 C.3   1 <1>   0.1200 
  3 C       -3.7480    -1.5300    -0.0190 C.3   1 <1>   0.4230 
  4 N       -5.1490    -1.5340     0.5260 N.4   1 <1>  -0.9590 
  5 C       -3.7980    -1.4610    -1.5560 C.3   1 <1>  -0.1600 
  6 C       -5.9830    -0.3940     0.0550 C.3   1 <1>   0.3430 
  7 C       -5.2440    -1.6730     2.0120 C.3   1 <1>   0.3430 
  8 C       -4.6440    -0.2960    -2.0780 C.3   1 <1>  -0.1600 
  9 C       -6.0460    -0.3620    -1.4700 C.3   1 <1>  -0.1600 
 10 C       -6.0690    -2.9230     2.3870 C.3   1 <1>   0.2090 
 11 N       -5.5880    -4.1380     1.6560 N.pl3 1 <1>  -0.8690 
 12 C       -6.2090    -4.6300     0.5310 C.ar  1 <1>   0.4100 
 13 N       -6.8380    -3.7660    -0.2450 N.ar  1 <1>  -0.6200 
 14 C       -6.1480    -5.9660     0.2170 C.ar  1 <1>  -0.1500 
 15 C       -7.4130    -4.2910    -1.3160 C.ar  1 <1>   0.4700 
 16 C       -6.7730    -6.3800    -0.9320 C.ar  1 <1>   0.4100 
 17 N       -7.4170    -5.5460    -1.7110 N.ar  1 <1>  -0.6200 
 18 N       -6.7740    -7.6690    -1.3450 N.pl3 1 <1>  -0.9000 
 19 H       -1.0820    -3.4270     0.2370 H     1 <1>   0.4000 
 20 H       -2.9560    -2.9100     1.4840 H     1 <1>   0.0800 
 21 H       -3.3130    -3.6600    -0.0650 H     1 <1>   0.0800 
 22 H       -3.2400    -0.6550     0.3520 H     1 <1>   0.0800 
 23 H       -5.5890    -2.4070     0.1620 H     1 <1>   0.4500 
 24 H       -4.1870    -2.3870    -1.9420 H     1 <1>   0.0800 
 25 H       -2.7960    -1.3550    -1.9370 H     1 <1>   0.0800 
 26 H       -5.5630     0.5330     0.4110 H     1 <1>   0.0800 
 27 H       -6.9840    -0.4870     0.4460 H     1 <1>   0.0800 
 28 H       -5.7060    -0.7990     2.4400 H     1 <1>   0.0800 
 29 H       -4.2620    -1.7620     2.4420 H     1 <1>   0.0800 
 30 H       -4.7080    -0.3440    -3.1530 H     1 <1>   0.0800 
 31 H       -4.1750     0.6380    -1.8160 H     1 <1>   0.0800 
 32 H       -6.6120     0.4980    -1.7820 H     1 <1>   0.0800 
 33 H       -6.5620    -1.2370    -1.8250 H     1 <1>   0.0800 
 34 H       -7.1080    -2.7480     2.1610 H     1 <1>   0.0800 
 35 H       -5.9950    -3.0920     3.4480 H     1 <1>   0.0800 
 36 H       -5.2530    -4.8740     2.2900 H     1 <1>   0.4000 
 37 H       -5.6280    -6.6670     0.8350 H     1 <1>   0.1500 
 38 H       -7.9470    -3.6050    -1.9540 H     1 <1>   0.1500 
 39 H       -7.3720    -7.8460    -2.1550 H     1 <1>   0.4000 
 40 H       -6.7960    -8.4180    -0.6520 H     1 <1>   0.4000 
@<TRIPOS>BOND
  1   1   2  1   
  2   1  19  1   
  3   2   3  1   
  4   2  20  1   
  5   2  21  1   
  6   3   4  1   
  7   3   5  1   
  8   3  22  1   
  9   4   6  1   
 10   4   7  1   
 11   4  23  1   
 12   5   8  1   
 13   5  24  1   
 14   5  25  1   
 15   6   9  1   
 16   6  26  1   
 17   6  27  1   
 18   7  10  1   
 19   7  28  1   
 20   7  29  1   
 21   8   9  1   
 22   8  30  1   
 23   8  31  1   
 24   9  32  1   
 25   9  33  1   
 26  10  11  1   
 27  10  34  1   
 28  10  35  1   
 29  11  12  1   
 30  11  36  1   
 31  12  13  ar  
 32  12  14  ar  
 33  13  15  ar  
 34  14  16  ar  
 35  14  37  1   
 36  15  17  ar  
 37  15  38  1   
 38  16  17  ar  
 39  16  18  1   
 40  18  39  1   
 41  18  40  1   
@<TRIPOS>SUBSTRUCTURE
  1 ****  13 GROUP 4 **** **** 0

# MOE 2024.06 (io_trps.svl 2023.06)
