@<TRIPOS>MOLECULE
NONAME
48 51 1 0 0 
SMALL
USER_CHARGES


@<TRIPOS>ATOM
  1 CL      -4.3750     1.9840     0.3890 Cl    1 <1>  -0.1770 
  2 C       -4.4390     0.2340     0.4120 C.ar  1 <1>   0.1770 
  3 C       -3.8340    -0.5120    -0.5920 C.ar  1 <1>   0.0830 
  4 C       -5.1200    -0.3840     1.4440 C.ar  1 <1>  -0.1500 
  5 O       -3.1840     0.0860    -1.6090 O.3   1 <1>  -0.5330 
  6 C       -3.9040    -1.8950    -0.5470 C.ar  1 <1>  -0.1500 
  7 C       -5.2070    -1.7680     1.4800 C.ar  1 <1>  -0.1440 
  8 C       -4.5880    -2.5160     0.4860 C.ar  1 <1>  -0.1500 
  9 C       -5.9750    -2.4690     2.5960 C.3   1 <1>   0.0440 
 10 C       -6.9880    -3.4840     2.0780 C.2   1 <1>   0.5690 
 11 O       -6.7010    -4.6530     2.2020 O.2   1 <1>  -0.5700 
 12 N       -8.1800    -3.1010     1.5110 N.am  1 <1>  -0.6600 
 13 C       -8.6010    -1.6860     1.2500 C.3   1 <1>   0.1400 
 14 C       -9.1880    -4.1490     1.1600 C.3   1 <1>   0.1400 
 15 C       -9.0410    -1.4660    -0.2180 C.3   1 <1>   0.1440 
 16 C      -10.3530    -3.5940     0.3260 C.3   1 <1>  -0.1600 
 17 C       -9.8480    -0.1790    -0.2520 C.ar  1 <1>   0.1670 
 18 C       -9.8320    -2.6740    -0.7860 C.3   1 <1>  -0.1600 
 19 C       -7.8380    -1.1130    -1.1340 C.3   1 <1>  -0.1600 
 20 N      -11.0770    -0.0360     0.1940 N.ar  1 <1>  -0.6200 
 21 C       -9.1360     0.8510    -0.7920 C.ar  1 <1>  -0.1430 
 22 C       -7.7510     0.4220    -1.2010 C.3   1 <1>  -0.0170 
 23 C      -11.5700     1.1880     0.0630 C.ar  1 <1>   0.4770 
 24 C       -9.7430     2.0780    -0.8760 C.ar  1 <1>   0.1600 
 25 N      -10.9760     2.2580    -0.4470 N.ar  1 <1>  -0.6200 
 26 C      -12.9830     1.3920     0.5510 C.3   1 <1>  -0.0970 
 27 H       -5.5750     0.2240     2.2050 H     1 <1>   0.1500 
 28 H       -2.7700    -0.5400    -2.2290 H     1 <1>   0.4500 
 29 H       -3.4360    -2.4930    -1.3080 H     1 <1>   0.1500 
 30 H       -4.6410    -3.5930     0.5130 H     1 <1>   0.1500 
 31 H       -6.4870    -1.7580     3.2160 H     1 <1>   0.0800 
 32 H       -5.2700    -2.9840     3.2230 H     1 <1>   0.0800 
 33 H       -7.8240    -0.9890     1.4960 H     1 <1>   0.0800 
 34 H       -9.4350    -1.4700     1.8960 H     1 <1>   0.0800 
 35 H       -9.5660    -4.5930     2.0650 H     1 <1>   0.0800 
 36 H       -8.6920    -4.9220     0.5970 H     1 <1>   0.0800 
 37 H      -11.0310    -3.0510     0.9630 H     1 <1>   0.0800 
 38 H      -10.9020    -4.4130    -0.1030 H     1 <1>   0.0800 
 39 H       -9.1900    -3.2670    -1.4150 H     1 <1>   0.0800 
 40 H      -10.6510    -2.3280    -1.3920 H     1 <1>   0.0800 
 41 H       -8.0290    -1.4660    -2.1320 H     1 <1>   0.0800 
 42 H       -6.9220    -1.5570    -0.7920 H     1 <1>   0.0800 
 43 H       -7.5010     0.7630    -2.1910 H     1 <1>   0.0800 
 44 H       -7.0360     0.8000    -0.4940 H     1 <1>   0.0800 
 45 H       -9.2190     2.9200    -1.2950 H     1 <1>   0.1500 
 46 H      -13.2720     0.5950     1.2110 H     1 <1>   0.0800 
 47 H      -13.6490     1.4110    -0.2910 H     1 <1>   0.0800 
 48 H      -13.0540     2.3250     1.0780 H     1 <1>   0.0800 
@<TRIPOS>BOND
  1   1   2  1   
  2   2   3  ar  
  3   2   4  ar  
  4   3   5  1   
  5   3   6  ar  
  6   4   7  ar  
  7   4  27  1   
  8   5  28  1   
  9   6   8  ar  
 10   6  29  1   
 11   7   8  ar  
 12   7   9  1   
 13   8  30  1   
 14   9  10  1   
 15   9  31  1   
 16   9  32  1   
 17  10  11  2   
 18  10  12  am  
 19  12  13  1   
 20  12  14  1   
 21  13  15  1   
 22  13  33  1   
 23  13  34  1   
 24  14  16  1   
 25  14  35  1   
 26  14  36  1   
 27  15  17  1   
 28  15  18  1   
 29  15  19  1   
 30  16  18  1   
 31  16  37  1   
 32  16  38  1   
 33  17  20  ar  
 34  17  21  ar  
 35  18  39  1   
 36  18  40  1   
 37  19  22  1   
 38  19  41  1   
 39  19  42  1   
 40  20  23  ar  
 41  21  22  1   
 42  21  24  ar  
 43  22  43  1   
 44  22  44  1   
 45  23  25  ar  
 46  23  26  1   
 47  24  25  ar  
 48  24  45  1   
 49  26  46  1   
 50  26  47  1   
 51  26  48  1   
@<TRIPOS>SUBSTRUCTURE
  1 ****  19 GROUP 4 **** **** 0

# MOE 2024.06 (io_trps.svl 2023.06)
