@<TRIPOS>MOLECULE
NONAME
57 59 1 0 0 
SMALL
USER_CHARGES


@<TRIPOS>ATOM
  1 O       -0.7900    -0.5990    -0.6170 O.2   1 <1>  -0.5700 
  2 C       -1.3300     0.0410     0.2660 C.2   1 <1>   0.7160 
  3 N       -2.0710    -0.6310     1.1900 N.am  1 <1>  -0.7300 
  4 C       -1.3010     1.4630     0.3090 C.2   1 <1>  -0.0860 
  5 C       -2.6280    -1.9810     0.9580 C.3   1 <1>   0.1400 
  6 C       -2.4550     2.2450     0.3770 C.2   1 <1>   0.3720 
  7 C       -0.2930     2.3760     0.3290 C.2   1 <1>   0.0870 
  8 C       -3.6630    -1.9420    -0.1810 C.3   1 <1>   0.2000 
  9 N       -2.1650     3.4960     0.4480 N.2   1 <1>  -0.4100 
 10 N       -3.7650     1.7380     0.3460 N.pl3 1 <1>  -0.8210 
 11 O       -0.8590     3.5550     0.4170 O.3   1 <1>  -0.0190 
 12 C        1.1430     2.2670     0.3050 C.ar  1 <1>   0.0530 
 13 O       -4.6540    -0.9880     0.0960 O.3   1 <1>  -0.6800 
 14 C       -4.3330    -3.3150    -0.3950 C.3   1 <1>   0.3430 
 15 C       -4.5830     2.1280     1.5360 C.3   1 <1>   0.2090 
 16 C       -4.5060     2.1820    -0.8770 C.3   1 <1>   0.2090 
 17 C        1.8070     1.3320    -0.4900 C.ar  1 <1>  -0.1500 
 18 C        1.9290     3.1110     1.0900 C.ar  1 <1>  -0.1500 
 19 N       -5.6230    -3.1580    -1.1400 N.4   1 <1>  -0.9590 
 20 C       -5.9820     2.3950     1.0060 C.3   1 <1>  -0.1600 
 21 C       -5.7390     2.9330    -0.3930 C.3   1 <1>  -0.1600 
 22 C        3.1850     1.2300    -0.4930 C.ar  1 <1>  -0.1500 
 23 C        3.3070     3.0180     1.0910 C.ar  1 <1>  -0.1500 
 24 C       -6.5840    -4.2630    -0.8520 C.3   1 <1>   0.2630 
 25 C       -5.4120    -2.9670    -2.6070 C.3   1 <1>   0.2630 
 26 C        3.9500     2.0770     0.3040 C.ar  1 <1>   0.0830 
 27 O        5.3020     2.0450     0.3630 O.3   1 <1>  -0.3620 
 28 C        6.0500     1.1180    -0.3920 C.3   1 <1>   0.0400 
 29 H       -2.6040    -0.0400     1.8340 H     1 <1>   0.3700 
 30 H       -3.0810    -2.3420     1.8660 H     1 <1>   0.0800 
 31 H       -1.8230    -2.6490     0.6960 H     1 <1>   0.0800 
 32 H       -3.1720    -1.6480    -1.0920 H     1 <1>   0.0800 
 33 H       -4.2420    -0.0830     0.2000 H     1 <1>   0.4000 
 34 H       -4.5320    -3.7410     0.5750 H     1 <1>   0.0800 
 35 H       -3.6650    -3.9790    -0.9180 H     1 <1>   0.0800 
 36 H       -4.1910     3.0260     1.9870 H     1 <1>   0.0800 
 37 H       -4.5930     1.3410     2.2700 H     1 <1>   0.0800 
 38 H       -4.8020     1.3160    -1.4420 H     1 <1>   0.0800 
 39 H       -3.9000     2.8140    -1.5080 H     1 <1>   0.0800 
 40 H        1.2390     0.6770    -1.1250 H     1 <1>   0.1500 
 41 H        1.4510     3.8500     1.7090 H     1 <1>   0.1500 
 42 H       -5.9970    -2.2640    -0.7570 H     1 <1>   0.4500 
 43 H       -6.5180     3.0910     1.6260 H     1 <1>   0.0800 
 44 H       -6.5270     1.4680     0.9590 H     1 <1>   0.0800 
 45 H       -6.5810     2.7880    -1.0460 H     1 <1>   0.0800 
 46 H       -5.5080     3.9830    -0.3460 H     1 <1>   0.0800 
 47 H        3.6460     0.4920    -1.1210 H     1 <1>   0.1500 
 48 H        3.8990     3.6750     1.7030 H     1 <1>   0.1500 
 49 H       -6.1930    -5.2030    -1.2070 H     1 <1>   0.0800 
 50 H       -7.5260    -4.0740    -1.3420 H     1 <1>   0.0800 
 51 H       -6.7610    -4.3380     0.2090 H     1 <1>   0.0800 
 52 H       -4.9650    -3.8460    -3.0400 H     1 <1>   0.0800 
 53 H       -4.7640    -2.1240    -2.7840 H     1 <1>   0.0800 
 54 H       -6.3540    -2.7800    -3.0970 H     1 <1>   0.0800 
 55 H        7.0920     1.2810    -0.1820 H     1 <1>   0.0800 
 56 H        5.8570     1.2820    -1.4370 H     1 <1>   0.0800 
 57 H        5.7690     0.1220    -0.0990 H     1 <1>   0.0800 
@<TRIPOS>BOND
  1   1   2  2   
  2   2   3  am  
  3   2   4  1   
  4   3   5  1   
  5   3  29  1   
  6   4   6  1   
  7   4   7  2   
  8   5   8  1   
  9   5  30  1   
 10   5  31  1   
 11   6   9  2   
 12   6  10  1   
 13   7  11  1   
 14   7  12  1   
 15   8  13  1   
 16   8  14  1   
 17   8  32  1   
 18   9  11  1   
 19  10  15  1   
 20  10  16  1   
 21  12  17  ar  
 22  12  18  ar  
 23  13  33  1   
 24  14  19  1   
 25  14  34  1   
 26  14  35  1   
 27  15  20  1   
 28  15  36  1   
 29  15  37  1   
 30  16  21  1   
 31  16  38  1   
 32  16  39  1   
 33  17  22  ar  
 34  17  40  1   
 35  18  23  ar  
 36  18  41  1   
 37  19  24  1   
 38  19  25  1   
 39  19  42  1   
 40  20  21  1   
 41  20  43  1   
 42  20  44  1   
 43  21  45  1   
 44  21  46  1   
 45  22  26  ar  
 46  22  47  1   
 47  23  26  ar  
 48  23  48  1   
 49  24  49  1   
 50  24  50  1   
 51  24  51  1   
 52  25  52  1   
 53  25  53  1   
 54  25  54  1   
 55  26  27  1   
 56  27  28  1   
 57  28  55  1   
 58  28  56  1   
 59  28  57  1   
@<TRIPOS>SUBSTRUCTURE
  1 ****   2 GROUP 4 **** **** 0

# MOE 2024.06 (io_trps.svl 2023.06)
