@<TRIPOS>MOLECULE
NONAME
40 42 1 0 0 
SMALL
USER_CHARGES


@<TRIPOS>ATOM
  1 O        2.3300    -0.1260     1.1350 O.3   1 <1>  -0.0190 
  2 N        2.5110     0.9870     0.4960 N.2   1 <1>  -0.4100 
  3 C        1.3240    -0.6780     0.5130 C.2   1 <1>   0.2980 
  4 C        1.6440     1.0390    -0.4330 C.2   1 <1>   0.3350 
  5 N        0.8450    -0.0180    -0.4690 N.2   1 <1>  -0.5650 
  6 C        0.8150    -2.0280     1.0040 C.3   1 <1>   0.5230 
  7 C        1.4970     2.1720    -1.4220 C.3   1 <1>  -0.0590 
  8 N       -0.3720    -2.4540     0.1800 N.4   1 <1>  -0.9590 
  9 C       -1.6390    -2.5720     0.9650 C.3   1 <1>   0.4230 
 10 C       -0.0270    -3.6610    -0.6350 C.3   1 <1>   0.2630 
 11 C       -2.8320    -2.8080     0.0340 C.3   1 <1>  -0.1600 
 12 C       -2.0100    -1.2260     1.5990 C.3   1 <1>  -0.1600 
 13 C       -3.1640    -1.4290    -0.5540 C.3   1 <1>  -0.0800 
 14 C       -2.6570    -0.4080     0.4710 C.3   1 <1>  -0.0800 
 15 C       -4.6580    -1.1450    -0.7640 C.3   1 <1>  -0.1600 
 16 C       -3.8670     0.4420     0.8830 C.3   1 <1>  -0.1600 
 17 C       -4.8430     0.2870    -0.2760 C.3   1 <1>   0.2000 
 18 O       -6.1340     0.4820     0.1570 O.3   1 <1>  -0.6800 
 19 H        0.5430    -1.9430     2.0420 H     1 <1>   0.0800 
 20 H        1.6090    -2.7490     0.9210 H     1 <1>   0.0800 
 21 H        0.5190     2.6060    -1.3350 H     1 <1>   0.0800 
 22 H        1.6330     1.8020    -2.4210 H     1 <1>   0.0800 
 23 H        2.2340     2.9300    -1.2270 H     1 <1>   0.0800 
 24 H       -0.5110    -1.6550    -0.4670 H     1 <1>   0.4500 
 25 H       -1.5560    -3.3520     1.7060 H     1 <1>   0.0800 
 26 H        0.0740    -4.5280    -0.0020 H     1 <1>   0.0800 
 27 H        0.9020    -3.5040    -1.1610 H     1 <1>   0.0800 
 28 H       -0.7920    -3.8560    -1.3680 H     1 <1>   0.0800 
 29 H       -2.6780    -3.5520    -0.7250 H     1 <1>   0.0800 
 30 H       -3.6520    -3.1420     0.6460 H     1 <1>   0.0800 
 31 H       -2.7430    -1.4250     2.3620 H     1 <1>   0.0800 
 32 H       -1.2000    -0.6980     2.0660 H     1 <1>   0.0800 
 33 H       -2.6360    -1.2800    -1.4820 H     1 <1>   0.0800 
 34 H       -1.9250     0.2260    -0.0030 H     1 <1>   0.0800 
 35 H       -5.2610    -1.8100    -0.1720 H     1 <1>   0.0800 
 36 H       -4.9350    -1.2370    -1.7990 H     1 <1>   0.0800 
 37 H       -3.5950     1.4730     1.0250 H     1 <1>   0.0800 
 38 H       -4.3130     0.0610     1.7840 H     1 <1>   0.0800 
 39 H       -4.6280     0.9950    -1.0610 H     1 <1>   0.0800 
 40 H       -6.3560    -0.1460     0.8680 H     1 <1>   0.4000 
@<TRIPOS>BOND
  1   1   2  1   
  2   1   3  1   
  3   2   4  2   
  4   3   5  2   
  5   3   6  1   
  6   4   5  1   
  7   4   7  1   
  8   6   8  1   
  9   6  19  1   
 10   6  20  1   
 11   7  21  1   
 12   7  22  1   
 13   7  23  1   
 14   8   9  1   
 15   8  10  1   
 16   8  24  1   
 17   9  11  1   
 18   9  12  1   
 19   9  25  1   
 20  10  26  1   
 21  10  27  1   
 22  10  28  1   
 23  11  13  1   
 24  11  29  1   
 25  11  30  1   
 26  12  14  1   
 27  12  31  1   
 28  12  32  1   
 29  13  14  1   
 30  13  15  1   
 31  13  33  1   
 32  14  16  1   
 33  14  34  1   
 34  15  17  1   
 35  15  35  1   
 36  15  36  1   
 37  16  17  1   
 38  16  37  1   
 39  16  38  1   
 40  17  18  1   
 41  17  39  1   
 42  18  40  1   
@<TRIPOS>SUBSTRUCTURE
  1 ****  14 GROUP 4 **** **** 0

# MOE 2024.06 (io_trps.svl 2023.06)
