@<TRIPOS>MOLECULE
NONAME
44 45 1 0 0 
SMALL
USER_CHARGES


@<TRIPOS>ATOM
  1 O        0.4990    -0.2690    -1.7200 O.2   1 <1>  -0.5700 
  2 C        1.2400    -0.7540    -0.8860 C.2   1 <1>   0.7150 
  3 N        1.9790     0.0810    -0.0780 N.am  1 <1>  -0.6600 
  4 C        1.3420    -2.1800    -0.7540 C.2   1 <1>  -0.2370 
  5 C        2.0030     1.5620    -0.2630 C.3   1 <1>   0.1400 
  6 C        2.8560    -0.3880     1.0330 C.3   1 <1>   0.1400 
  7 N        0.3960    -2.9940    -0.1690 N.pl3 1 <1>   0.0480 
  8 C        2.3840    -2.9730    -1.1620 C.2   1 <1>  -0.1500 
  9 C        3.4530     2.0850    -0.3070 C.3   1 <1>   0.2000 
 10 C        4.2560     0.2320     0.9030 C.3   1 <1>   0.1200 
 11 C        0.8710    -4.2650    -0.2170 C.2   1 <1>  -0.3020 
 12 C       -0.9280    -2.6520     0.4320 C.3   1 <1>   0.1760 
 13 C        2.0880    -4.2860    -0.8210 C.2   1 <1>  -0.1500 
 14 O        4.1720     1.6260     0.8060 O.3   1 <1>  -0.5600 
 15 C        3.5030     3.6150    -0.3120 C.3   1 <1>  -0.1600 
 16 C       -1.9580    -2.3230    -0.6550 C.3   1 <1>  -0.2400 
 17 C       -0.8230    -1.5290     1.4720 C.3   1 <1>  -0.2400 
 18 C        4.9370     4.1390    -0.2890 C.3   1 <1>   0.1200 
 19 O        4.8860     5.5190    -0.4490 O.3   1 <1>  -0.5600 
 20 C        6.1300     6.1370    -0.3910 C.3   1 <1>   0.0400 
 21 H        1.4790     2.0260     0.5550 H     1 <1>   0.0800 
 22 H        1.5020     1.8390    -1.1740 H     1 <1>   0.0800 
 23 H        2.9420    -1.4600     1.0390 H     1 <1>   0.0800 
 24 H        2.4250    -0.0880     1.9720 H     1 <1>   0.0800 
 25 H        3.2800    -2.6490    -1.6630 H     1 <1>   0.1500 
 26 H        3.9380     1.7120    -1.1930 H     1 <1>   0.0800 
 27 H        4.7580    -0.1470     0.0290 H     1 <1>   0.0800 
 28 H        4.8470    -0.0020     1.7700 H     1 <1>   0.0800 
 29 H        0.3230    -5.1030     0.1760 H     1 <1>   0.1500 
 30 H       -1.2710    -3.5330     0.9460 H     1 <1>   0.0800 
 31 H        2.7150    -5.1400    -1.0110 H     1 <1>   0.1500 
 32 H        2.9740     3.9950     0.5440 H     1 <1>   0.0800 
 33 H        3.0160     3.9740    -1.2010 H     1 <1>   0.0800 
 34 H       -1.6990    -1.4170    -1.1710 H     1 <1>   0.0800 
 35 H       -2.9290    -2.1930    -0.2130 H     1 <1>   0.0800 
 36 H       -2.0130    -3.1270    -1.3670 H     1 <1>   0.0800 
 37 H       -0.6300    -0.5810     1.0040 H     1 <1>   0.0800 
 38 H       -0.0430    -1.7470     2.1780 H     1 <1>   0.0800 
 39 H       -1.7510    -1.4460     2.0070 H     1 <1>   0.0800 
 40 H        5.5100     3.7200    -1.0980 H     1 <1>   0.0800 
 41 H        5.4070     3.9110     0.6530 H     1 <1>   0.0800 
 42 H        5.9850     7.1940    -0.5270 H     1 <1>   0.0800 
 43 H        6.7560     5.7520    -1.1770 H     1 <1>   0.0800 
 44 H        6.5730     5.9530     0.5730 H     1 <1>   0.0800 
@<TRIPOS>BOND
  1   1   2  2   
  2   2   3  am  
  3   2   4  1   
  4   3   5  1   
  5   3   6  1   
  6   4   7  1   
  7   4   8  2   
  8   5   9  1   
  9   5  21  1   
 10   5  22  1   
 11   6  10  1   
 12   6  23  1   
 13   6  24  1   
 14   7  11  1   
 15   7  12  1   
 16   8  13  1   
 17   8  25  1   
 18   9  14  1   
 19   9  15  1   
 20   9  26  1   
 21  10  14  1   
 22  10  27  1   
 23  10  28  1   
 24  11  13  2   
 25  11  29  1   
 26  12  16  1   
 27  12  17  1   
 28  12  30  1   
 29  13  31  1   
 30  15  18  1   
 31  15  32  1   
 32  15  33  1   
 33  16  34  1   
 34  16  35  1   
 35  16  36  1   
 36  17  37  1   
 37  17  38  1   
 38  17  39  1   
 39  18  19  1   
 40  18  40  1   
 41  18  41  1   
 42  19  20  1   
 43  20  42  1   
 44  20  43  1   
 45  20  44  1   
@<TRIPOS>SUBSTRUCTURE
  1 ****   3 GROUP 4 **** **** 0

# MOE 2024.06 (io_trps.svl 2023.06)
