@<TRIPOS>MOLECULE
NONAME
44 45 1 0 0 
SMALL
USER_CHARGES


@<TRIPOS>ATOM
  1 S        0.3270     0.4650    -1.5810 S.o2  1 <1>   1.3330 
  2 O       -0.5370     1.3660    -2.3090 O.2   1 <1>  -0.6500 
  3 O        0.6260    -0.8410    -2.1260 O.2   1 <1>  -0.6500 
  4 N       -0.3580     0.2430    -0.0420 N.am  1 <1>  -0.8490 
  5 C        1.8830     1.2930    -1.2410 C.3   1 <1>  -0.0550 
  6 C       -1.2570    -0.9160     0.0000 C.3   1 <1>   0.1160 
  7 C       -1.0610     1.4300     0.4570 C.3   1 <1>   0.1160 
  8 C        2.9170     0.4180    -0.5000 C.3   1 <1>  -0.0800 
  9 C        4.3100     1.0210    -0.3910 C.3   1 <1>   0.2200 
 10 C        2.5740     0.0910     0.9600 C.3   1 <1>   0.1200 
 11 N        4.2460     2.4590    -0.0260 N.am  1 <1>  -0.7300 
 12 C        4.8500     0.2460     0.8020 C.3   1 <1>   0.1200 
 13 O        3.7710     0.1610     1.6800 O.3   1 <1>  -0.5600 
 14 C        4.4530     3.5000    -0.8880 C.2   1 <1>   0.5440 
 15 O        4.5230     3.2440    -2.0730 O.2   1 <1>  -0.5700 
 16 C        4.5670     4.8610    -0.4270 C.ar  1 <1>   0.0860 
 17 C        4.8420     5.2040     0.8860 C.ar  1 <1>   0.1600 
 18 C        4.4150     5.9370    -1.2850 C.ar  1 <1>   0.1600 
 19 N        4.9360     6.4410     1.3080 N.ar  1 <1>  -0.6200 
 20 N        4.5030     7.1880    -0.8990 N.ar  1 <1>  -0.6200 
 21 C        4.7600     7.3810     0.3900 C.ar  1 <1>   0.7200 
 22 N        4.8610     8.6420     0.8530 N.pl3 1 <1>  -0.8690 
 23 C        4.7460     9.9060     0.0830 C.3   1 <1>   0.1290 
 24 H        2.3140     1.5890    -2.1780 H     1 <1>   0.0800 
 25 H        1.6960     2.1880    -0.6820 H     1 <1>   0.0800 
 26 H       -1.6680    -1.0360     0.9880 H     1 <1>   0.0800 
 27 H       -0.7160    -1.8130    -0.2500 H     1 <1>   0.0800 
 28 H       -2.0620    -0.7900    -0.7070 H     1 <1>   0.0800 
 29 H       -1.3960     1.2650     1.4670 H     1 <1>   0.0800 
 30 H       -1.9150     1.6510    -0.1620 H     1 <1>   0.0800 
 31 H       -0.4030     2.2820     0.4530 H     1 <1>   0.0800 
 32 H        3.0080    -0.5160    -1.0280 H     1 <1>   0.0800 
 33 H        4.9020     0.8740    -1.2800 H     1 <1>   0.0800 
 34 H        2.1610    -0.8990     1.0590 H     1 <1>   0.0800 
 35 H        1.8960     0.8100     1.3860 H     1 <1>   0.0800 
 36 H        4.0360     2.6070     0.9640 H     1 <1>   0.3700 
 37 H        5.6780     0.7360     1.2830 H     1 <1>   0.0800 
 38 H        5.1280    -0.7540     0.5180 H     1 <1>   0.0800 
 39 H        4.9950     4.4260     1.6140 H     1 <1>   0.1500 
 40 H        4.2110     5.7470    -2.3260 H     1 <1>   0.1500 
 41 H        5.0750     8.7090     1.8470 H     1 <1>   0.4000 
 42 H        4.5080     9.7070    -0.9480 H     1 <1>   0.0800 
 43 H        5.6780    10.4410     0.1250 H     1 <1>   0.0800 
 44 H        3.9670    10.5170     0.5040 H     1 <1>   0.0800 
@<TRIPOS>BOND
  1   1   2  2   
  2   1   3  2   
  3   1   4  am  
  4   1   5  1   
  5   4   6  1   
  6   4   7  1   
  7   5   8  1   
  8   5  24  1   
  9   5  25  1   
 10   6  26  1   
 11   6  27  1   
 12   6  28  1   
 13   7  29  1   
 14   7  30  1   
 15   7  31  1   
 16   8   9  1   
 17   8  10  1   
 18   8  32  1   
 19   9  11  1   
 20   9  12  1   
 21   9  33  1   
 22  10  13  1   
 23  10  34  1   
 24  10  35  1   
 25  11  14  am  
 26  11  36  1   
 27  12  13  1   
 28  12  37  1   
 29  12  38  1   
 30  14  15  2   
 31  14  16  1   
 32  16  17  ar  
 33  16  18  ar  
 34  17  19  ar  
 35  17  39  1   
 36  18  20  ar  
 37  18  40  1   
 38  19  21  ar  
 39  20  21  ar  
 40  21  22  1   
 41  22  23  1   
 42  22  41  1   
 43  23  42  1   
 44  23  43  1   
 45  23  44  1   
@<TRIPOS>SUBSTRUCTURE
  1 ****  11 GROUP 4 **** **** 0

# MOE 2024.06 (io_trps.svl 2023.06)
