@<TRIPOS>MOLECULE
NONAME
37 38 1 0 0 
SMALL
USER_CHARGES


@<TRIPOS>ATOM
  1 O        2.9150     3.5000    -1.8310 O.co2 1 <1>  -0.9000 
  2 C        3.5740     2.5840    -1.3370 C.2   1 <1>   0.9060 
  3 O        4.7610     2.4220    -1.6630 O.co2 1 <1>  -0.9000 
  4 C        2.9110     1.6990    -0.2800 C.3   1 <1>  -0.1860 
  5 C        3.6790     0.4270     0.1600 C.3   1 <1>   0.2000 
  6 C        2.6000     2.5420     0.9740 C.3   1 <1>  -0.1600 
  7 O        4.5640     0.0210    -0.8190 O.3   1 <1>  -0.6800 
  8 C        4.4210     0.5850     1.5140 C.3   1 <1>   0.1100 
  9 C        3.8930     3.0120     1.6610 C.3   1 <1>   0.1100 
 10 N        4.9310     1.9510     1.7800 N.3   1 <1>  -0.8100 
 11 C        6.2350     2.1890     1.0720 C.3   1 <1>   0.1710 
 12 C        6.7090     3.6340     0.8590 C.2   1 <1>   0.5690 
 13 O        7.4010     4.1620     1.7020 O.2   1 <1>  -0.5700 
 14 N        6.3310     4.2480    -0.3050 N.am  1 <1>  -0.5470 
 15 C        6.4550     5.5610    -0.7720 C.ar  1 <1>   0.1170 
 16 C        7.3920     6.4670    -0.2850 C.ar  1 <1>  -0.1500 
 17 C        5.5960     5.9740    -1.7820 C.ar  1 <1>  -0.1500 
 18 C        7.4640     7.7530    -0.7930 C.ar  1 <1>  -0.1500 
 19 C        5.6640     7.2570    -2.2930 C.ar  1 <1>  -0.1500 
 20 C        6.5990     8.1500    -1.7990 C.ar  1 <1>  -0.1500 
 21 H        1.9790     1.3850    -0.7080 H     1 <1>   0.0800 
 22 H        2.9790    -0.3820     0.2750 H     1 <1>   0.0800 
 23 H        2.0100     1.9720     1.6690 H     1 <1>   0.0800 
 24 H        2.0210     3.4060     0.6960 H     1 <1>   0.0800 
 25 H        4.8590     0.8630    -1.2860 H     1 <1>   0.4000 
 26 H        5.2200    -0.1330     1.5800 H     1 <1>   0.0800 
 27 H        3.7230     0.3510     2.2970 H     1 <1>   0.0800 
 28 H        3.6530     3.3610     2.6510 H     1 <1>   0.0800 
 29 H        4.2630     3.8610     1.1180 H     1 <1>   0.0800 
 30 H        7.0020     1.6860     1.6300 H     1 <1>   0.0800 
 31 H        6.2130     1.7200     0.1080 H     1 <1>   0.0800 
 32 H        5.7300     3.6490    -0.9090 H     1 <1>   0.3700 
 33 H        8.0680     6.1660     0.4930 H     1 <1>   0.1500 
 34 H        4.8630     5.2780    -2.1640 H     1 <1>   0.1500 
 35 H        8.1920     8.4410    -0.4040 H     1 <1>   0.1500 
 36 H        4.9850     7.5530    -3.0730 H     1 <1>   0.1500 
 37 H        6.6530     9.1490    -2.1950 H     1 <1>   0.1500 
@<TRIPOS>BOND
  1   1   2  ar  
  2   2   3  ar  
  3   2   4  1   
  4   4   5  1   
  5   4   6  1   
  6   4  21  1   
  7   5   7  1   
  8   5   8  1   
  9   5  22  1   
 10   6   9  1   
 11   6  23  1   
 12   6  24  1   
 13   7  25  1   
 14   8  10  1   
 15   8  26  1   
 16   8  27  1   
 17   9  10  1   
 18   9  28  1   
 19   9  29  1   
 20  10  11  1   
 21  11  12  1   
 22  11  30  1   
 23  11  31  1   
 24  12  13  2   
 25  12  14  am  
 26  14  15  1   
 27  14  32  1   
 28  15  16  ar  
 29  15  17  ar  
 30  16  18  ar  
 31  16  33  1   
 32  17  19  ar  
 33  17  34  1   
 34  18  20  ar  
 35  18  35  1   
 36  19  20  ar  
 37  19  36  1   
 38  20  37  1   
@<TRIPOS>SUBSTRUCTURE
  1 ****  14 GROUP 4 **** **** 0

# MOE 2024.06 (io_trps.svl 2023.06)
