@<TRIPOS>MOLECULE
NONAME
44 46 1 0 0 
SMALL
USER_CHARGES


@<TRIPOS>ATOM
  1 CL       0.2040     0.1760     1.1080 Cl    1 <1>  -0.1770 
  2 C        1.8690    -0.0220     0.6020 C.ar  1 <1>   0.1770 
  3 C        2.3470    -1.2760     0.2410 C.ar  1 <1>   0.0820 
  4 C        2.6760     1.0970     0.5770 C.ar  1 <1>  -0.1500 
  5 O        1.4920    -2.3370     0.2910 O.3   1 <1>  -0.3630 
  6 C        3.6780    -1.3840    -0.1530 C.ar  1 <1>  -0.1500 
  7 C        4.0060     0.9950     0.1800 C.ar  1 <1>   0.1170 
  8 C        1.9300    -3.6440    -0.0060 C.3   1 <1>   0.0400 
  9 C        4.4870    -0.2610    -0.1800 C.ar  1 <1>  -0.1500 
 10 N        4.8370     2.1340     0.1380 N.am  1 <1>  -0.4770 
 11 C        6.1720     2.2210     0.4060 C.2   1 <1>   0.5690 
 12 C        4.3030     3.4580    -0.2470 C.3   1 <1>   0.1400 
 13 O        6.9070     1.3280     0.7460 O.2   1 <1>  -0.5700 
 14 C        6.6800     3.6230     0.2180 C.3   1 <1>  -0.0990 
 15 C        5.5480     4.2990    -0.5700 C.3   1 <1>  -0.0190 
 16 C        5.3750     5.7830    -0.2750 C.2   1 <1>   0.5690 
 17 O        4.2650     6.2070    -0.0650 O.2   1 <1>  -0.5700 
 18 N        6.4870     6.5720    -0.2790 N.am  1 <1>  -0.4930 
 19 C        6.5930     7.9630    -0.0270 C.2   1 <1>   0.0630 
 20 C        7.7330     8.6900    -0.0220 C.2   1 <1>  -0.3320 
 21 C        5.5850     8.8830     0.2660 C.2   1 <1>   0.1390 
 22 N        7.3730     9.9670     0.2630 N.pl3 1 <1>   0.3140 
 23 C        9.1700     8.2550    -0.2720 C.3   1 <1>  -0.0600 
 24 N        6.0490    10.0830     0.4410 N.2   1 <1>  -0.7070 
 25 C        8.2540    11.1360     0.3810 C.3   1 <1>   0.0160 
 26 H        2.2610     2.0410     0.8750 H     1 <1>   0.1500 
 27 H        4.1030    -2.3270    -0.4400 H     1 <1>   0.1500 
 28 H        1.0960    -4.3110     0.1220 H     1 <1>   0.0800 
 29 H        2.7190    -3.9120     0.6740 H     1 <1>   0.0800 
 30 H        2.2700    -3.6770    -1.0260 H     1 <1>   0.0800 
 31 H        5.5130    -0.3640    -0.4880 H     1 <1>   0.1500 
 32 H        3.7630     3.8700     0.5890 H     1 <1>   0.0800 
 33 H        3.6490     3.3810    -1.0990 H     1 <1>   0.0800 
 34 H        7.6100     3.6220    -0.3200 H     1 <1>   0.0800 
 35 H        6.8100     4.0670     1.1890 H     1 <1>   0.0800 
 36 H        5.7430     4.1920    -1.6220 H     1 <1>   0.0800 
 37 H        7.3760     6.1250    -0.4860 H     1 <1>   0.3700 
 38 H        4.5400     8.6350     0.3410 H     1 <1>   0.1500 
 39 H        9.2230     7.2010    -0.4750 H     1 <1>   0.0800 
 40 H        9.7750     8.4640     0.5920 H     1 <1>   0.0800 
 41 H        9.5740     8.7840    -1.1170 H     1 <1>   0.0800 
 42 H        8.9620    10.9670     1.1700 H     1 <1>   0.0800 
 43 H        7.6600    12.0010     0.6120 H     1 <1>   0.0800 
 44 H        8.7650    11.2890    -0.5500 H     1 <1>   0.0800 
@<TRIPOS>BOND
  1   1   2  1   
  2   2   3  ar  
  3   2   4  ar  
  4   3   5  1   
  5   3   6  ar  
  6   4   7  ar  
  7   4  26  1   
  8   5   8  1   
  9   6   9  ar  
 10   6  27  1   
 11   7   9  ar  
 12   7  10  1   
 13   8  28  1   
 14   8  29  1   
 15   8  30  1   
 16   9  31  1   
 17  10  11  am  
 18  10  12  1   
 19  11  13  2   
 20  11  14  1   
 21  12  15  1   
 22  12  32  1   
 23  12  33  1   
 24  14  15  1   
 25  14  34  1   
 26  14  35  1   
 27  15  16  1   
 28  15  36  1   
 29  16  17  2   
 30  16  18  am  
 31  18  19  1   
 32  18  37  1   
 33  19  20  2   
 34  19  21  1   
 35  20  22  1   
 36  20  23  1   
 37  21  24  2   
 38  21  38  1   
 39  22  24  1   
 40  22  25  1   
 41  23  39  1   
 42  23  40  1   
 43  23  41  1   
 44  25  42  1   
 45  25  43  1   
 46  25  44  1   
@<TRIPOS>SUBSTRUCTURE
  1 ****  12 GROUP 4 **** **** 0

# MOE 2024.06 (io_trps.svl 2023.06)
