@<TRIPOS>MOLECULE
NONAME
42 44 1 0 0 
SMALL
USER_CHARGES


@<TRIPOS>ATOM
  1 F        0.7440    -0.4080     2.3000 F     1 <1>  -0.1900 
  2 C        1.6140    -1.1140     1.6280 C.ar  1 <1>   0.1900 
  3 C        1.6950    -2.4720     1.8610 C.ar  1 <1>  -0.1500 
  4 C        2.4200    -0.4780     0.7080 C.ar  1 <1>  -0.1500 
  5 C        2.6130    -3.2330     1.1530 C.ar  1 <1>  -0.1440 
  6 C        3.3350    -1.2360     0.0000 C.ar  1 <1>  -0.1500 
  7 C        3.4460    -2.6120     0.2100 C.ar  1 <1>  -0.0230 
  8 C        2.6620    -4.7320     1.4410 C.3   1 <1>   0.2540 
  9 N        4.4080    -3.3370    -0.5490 N.pl3 1 <1>   0.5930 
 10 N        1.3960    -5.3630     1.0310 N.3   1 <1>  -0.8100 
 11 N        4.0910    -4.2930    -1.4630 N.2   1 <1>  -0.7070 
 12 C        5.7510    -3.1760    -0.5010 C.2   1 <1>  -0.3020 
 13 C        1.2190    -5.3250    -0.4430 C.3   1 <1>   0.1100 
 14 C        1.2990    -6.7610     1.5170 C.3   1 <1>   0.1100 
 15 C        5.2230    -4.6890    -1.9570 C.2   1 <1>   0.1390 
 16 C        6.3040    -4.0260    -1.3900 C.2   1 <1>  -0.1500 
 17 C       -0.1320    -5.9210    -0.9010 C.3   1 <1>   0.3430 
 18 C        0.0290    -7.4940     1.0190 C.3   1 <1>   0.3430 
 19 N       -0.8610    -6.5870     0.2190 N.4   1 <1>  -0.9590 
 20 C       -2.1390    -7.3020    -0.2060 C.3   1 <1>   0.2370 
 21 C       -2.8920    -8.0470     0.9050 C.2   1 <1>   0.9060 
 22 O       -3.9230    -7.5440     1.3510 O.co2 1 <1>  -0.9000 
 23 O       -2.3840    -9.0790     1.3580 O.co2 1 <1>  -0.9000 
 24 H        1.0400    -2.9260     2.5840 H     1 <1>   0.1500 
 25 H        2.3290     0.5820     0.5520 H     1 <1>   0.1500 
 26 H        3.9680    -0.7540    -0.7260 H     1 <1>   0.1500 
 27 H        2.7940    -4.8660     2.5020 H     1 <1>   0.0800 
 28 H        3.4890    -5.2120     0.9480 H     1 <1>   0.0800 
 29 H        6.2190    -2.4700     0.1580 H     1 <1>   0.1500 
 30 H        2.0160    -5.8730    -0.9160 H     1 <1>   0.0800 
 31 H        1.2770    -4.3100    -0.7980 H     1 <1>   0.0800 
 32 H        1.2890    -6.7610     2.5940 H     1 <1>   0.0800 
 33 H        2.1630    -7.3210     1.2020 H     1 <1>   0.0800 
 34 H        5.3110    -5.4460    -2.7200 H     1 <1>   0.1500 
 35 H        7.3410    -4.1800    -1.6320 H     1 <1>   0.1500 
 36 H        0.0500    -6.6280    -1.6920 H     1 <1>   0.0800 
 37 H       -0.7420    -5.1300    -1.3040 H     1 <1>   0.0800 
 38 H       -0.5090    -7.8750     1.8730 H     1 <1>   0.0800 
 39 H        0.3130    -8.3440     0.4220 H     1 <1>   0.0800 
 40 H       -1.1140    -5.8440     0.8880 H     1 <1>   0.4500 
 41 H       -1.9060    -8.0320    -0.9580 H     1 <1>   0.0800 
 42 H       -2.8280    -6.5930    -0.6250 H     1 <1>   0.0800 
@<TRIPOS>BOND
  1   1   2  1   
  2   2   3  ar  
  3   2   4  ar  
  4   3   5  ar  
  5   3  24  1   
  6   4   6  ar  
  7   4  25  1   
  8   5   7  ar  
  9   5   8  1   
 10   6   7  ar  
 11   6  26  1   
 12   7   9  1   
 13   8  10  1   
 14   8  27  1   
 15   8  28  1   
 16   9  11  1   
 17   9  12  1   
 18  10  13  1   
 19  10  14  1   
 20  11  15  2   
 21  12  16  2   
 22  12  29  1   
 23  13  17  1   
 24  13  30  1   
 25  13  31  1   
 26  14  18  1   
 27  14  32  1   
 28  14  33  1   
 29  15  16  1   
 30  15  34  1   
 31  16  35  1   
 32  17  19  1   
 33  17  36  1   
 34  17  37  1   
 35  18  19  1   
 36  18  38  1   
 37  18  39  1   
 38  19  20  1   
 39  19  40  1   
 40  20  21  1   
 41  20  41  1   
 42  20  42  1   
 43  21  22  ar  
 44  21  23  ar  
@<TRIPOS>SUBSTRUCTURE
  1 ****  10 GROUP 4 **** **** 0

# MOE 2024.06 (io_trps.svl 2023.06)
