@<TRIPOS>MOLECULE
NONAME
40 41 1 0 0 
SMALL
USER_CHARGES


@<TRIPOS>ATOM
  1 O       -1.1690     0.2250     1.8820 O.2   1 <1>  -0.5700 
  2 C       -1.5650     0.7250     0.8550 C.2   1 <1>   0.5690 
  3 N       -2.1720    -0.0430    -0.1150 N.am  1 <1>  -0.6600 
  4 C       -1.3450     2.2400     0.7250 C.3   1 <1>  -0.0190 
  5 C       -2.4460    -1.4830     0.1460 C.3   1 <1>   0.3200 
  6 C       -2.5880     0.4080    -1.4770 C.3   1 <1>   0.0600 
  7 C       -2.6410     3.0510     0.5110 C.3   1 <1>  -0.1600 
  8 C       -0.2220     2.6090    -0.2770 C.3   1 <1>  -0.1600 
  9 C       -3.9420    -1.7420     0.2020 C.2   1 <1>  -0.3320 
 10 C       -2.3880     4.5660     0.6130 C.3   1 <1>   0.2000 
 11 C       -0.4060     3.9990    -0.9140 C.3   1 <1>  -0.1600 
 12 N       -4.4800    -2.9610    -0.0070 N.pl3 1 <1>   0.3000 
 13 C       -4.9750    -0.9100     0.4630 C.2   1 <1>  -0.1500 
 14 O       -3.4010     5.1890    -0.1380 O.3   1 <1>  -0.5600 
 15 C       -0.9860     4.9950     0.0940 C.3   1 <1>   0.2000 
 16 N       -5.8220    -2.9410     0.0970 N.2   1 <1>  -0.7070 
 17 C       -6.1100    -1.7080     0.3820 C.2   1 <1>   0.1390 
 18 C       -4.0960     6.1920     0.5360 C.3   1 <1>   0.0400 
 19 O       -1.0750     6.2220    -0.5330 O.3   1 <1>  -0.6800 
 20 H       -0.9830     2.5520     1.6910 H     1 <1>   0.0800 
 21 H       -2.0030    -2.0640    -0.6440 H     1 <1>   0.0800 
 22 H       -2.0010    -1.8050     1.0720 H     1 <1>   0.0800 
 23 H       -2.3060    -0.3290    -2.2080 H     1 <1>   0.0800 
 24 H       -2.1260     1.3370    -1.7480 H     1 <1>   0.0800 
 25 H       -3.6560     0.5330    -1.5080 H     1 <1>   0.0800 
 26 H       -3.3680     2.7670     1.2500 H     1 <1>   0.0800 
 27 H       -3.0510     2.8380    -0.4580 H     1 <1>   0.0800 
 28 H        0.7150     2.5870     0.2530 H     1 <1>   0.0800 
 29 H       -0.1450     1.8760    -1.0590 H     1 <1>   0.0800 
 30 H       -2.4700     4.8600     1.6470 H     1 <1>   0.0800 
 31 H       -1.0800     3.9200    -1.7500 H     1 <1>   0.0800 
 32 H        0.5430     4.3560    -1.2760 H     1 <1>   0.0800 
 33 H       -3.9690    -3.8270    -0.2190 H     1 <1>   0.2700 
 34 H       -4.9520     0.1410     0.6920 H     1 <1>   0.1500 
 35 H       -0.3020     5.0970     0.9200 H     1 <1>   0.0800 
 36 H       -7.1160    -1.3550     0.5370 H     1 <1>   0.1500 
 37 H       -4.8160     6.6160    -0.1420 H     1 <1>   0.0800 
 38 H       -3.4050     6.9530     0.8560 H     1 <1>   0.0800 
 39 H       -4.6050     5.7620     1.3820 H     1 <1>   0.0800 
 40 H       -1.9730     6.2550    -0.9310 H     1 <1>   0.4000 
@<TRIPOS>BOND
  1   1   2  2   
  2   2   3  am  
  3   2   4  1   
  4   3   5  1   
  5   3   6  1   
  6   4   7  1   
  7   4   8  1   
  8   4  20  1   
  9   5   9  1   
 10   5  21  1   
 11   5  22  1   
 12   6  23  1   
 13   6  24  1   
 14   6  25  1   
 15   7  10  1   
 16   7  26  1   
 17   7  27  1   
 18   8  11  1   
 19   8  28  1   
 20   8  29  1   
 21   9  12  1   
 22   9  13  2   
 23  10  14  1   
 24  10  15  1   
 25  10  30  1   
 26  11  15  1   
 27  11  31  1   
 28  11  32  1   
 29  12  16  1   
 30  12  33  1   
 31  13  17  1   
 32  13  34  1   
 33  14  18  1   
 34  15  19  1   
 35  15  35  1   
 36  16  17  2   
 37  17  36  1   
 38  18  37  1   
 39  18  38  1   
 40  18  39  1   
 41  19  40  1   
@<TRIPOS>SUBSTRUCTURE
  1 ****   2 GROUP 4 **** **** 0

# MOE 2024.06 (io_trps.svl 2023.06)
