@<TRIPOS>MOLECULE
NONAME
49 51 1 0 0 
SMALL
USER_CHARGES


@<TRIPOS>ATOM
  1 F       -0.4060    -0.9650     0.9630 F     1 <1>  -0.3400 
  2 C       -1.6970    -0.8130     0.7080 C.3   1 <1>   0.2600 
  3 C       -2.4540    -0.9750     2.0260 C.3   1 <1>  -0.1600 
  4 C       -2.0920    -1.8700    -0.3240 C.3   1 <1>  -0.1600 
  5 C       -3.9630    -0.9750     1.7720 C.3   1 <1>   0.1400 
  6 C       -3.6060    -1.8540    -0.5450 C.3   1 <1>   0.1400 
  7 N       -4.3000    -2.0240     0.7650 N.am  1 <1>  -0.6600 
  8 C       -5.0880    -3.1060     1.1010 C.2   1 <1>   0.5690 
  9 O       -5.5120    -3.2320     2.2300 O.2   1 <1>  -0.5700 
 10 C       -5.4570    -4.1770     0.0560 C.3   1 <1>   0.2610 
 11 O       -4.3290    -4.9850    -0.2540 O.3   1 <1>  -0.5600 
 12 C       -6.6640    -5.0420     0.5100 C.3   1 <1>   0.3640 
 13 C       -4.5360    -5.9230    -1.2880 C.3   1 <1>   0.1810 
 14 N       -6.7820    -6.2900    -0.2830 N.am  1 <1>  -0.7300 
 15 C       -7.9660    -4.2560     0.3730 C.ar  1 <1>  -0.1430 
 16 C       -5.8140    -6.7480    -1.1060 C.2   1 <1>   0.5690 
 17 C       -8.5610    -4.0570    -0.8650 C.ar  1 <1>  -0.1500 
 18 C       -8.5710    -3.7130     1.4950 C.ar  1 <1>  -0.1500 
 19 O       -5.9590    -7.7770    -1.7150 O.2   1 <1>  -0.5700 
 20 C       -9.7330    -3.3320    -0.9980 C.ar  1 <1>   0.0820 
 21 C       -9.7390    -2.9800     1.3820 C.ar  1 <1>  -0.1500 
 22 O      -10.1970    -3.2300    -2.2760 O.3   1 <1>  -0.3630 
 23 C      -10.3340    -2.7690     0.1400 C.ar  1 <1>   0.0820 
 24 C      -11.5800    -3.1680    -2.5470 C.3   1 <1>   0.0400 
 25 O      -11.4660    -2.0160     0.0150 O.3   1 <1>  -0.3630 
 26 C      -11.9710    -1.2430     1.0810 C.3   1 <1>   0.0400 
 27 H       -1.8140     0.1810     0.3120 H     1 <1>   0.0800 
 28 H       -2.1850    -1.9070     2.4920 H     1 <1>   0.0800 
 29 H       -2.2040    -0.1690     2.6910 H     1 <1>   0.0800 
 30 H       -1.5920    -1.6720    -1.2540 H     1 <1>   0.0800 
 31 H       -1.8050    -2.8470     0.0250 H     1 <1>   0.0800 
 32 H       -4.2750    -0.0160     1.3970 H     1 <1>   0.0800 
 33 H       -4.4820    -1.1490     2.7000 H     1 <1>   0.0800 
 34 H       -3.8650    -2.6340    -1.2370 H     1 <1>   0.0800 
 35 H       -3.9030    -0.9150    -0.9800 H     1 <1>   0.0800 
 36 H       -5.7410    -3.6660    -0.8440 H     1 <1>   0.0800 
 37 H       -6.5260    -5.3260     1.5390 H     1 <1>   0.0800 
 38 H       -4.5840    -5.3950    -2.2220 H     1 <1>   0.0800 
 39 H       -3.6880    -6.5830    -1.3050 H     1 <1>   0.0800 
 40 H       -7.6420    -6.8290    -0.1800 H     1 <1>   0.3700 
 41 H       -8.1200    -4.4700    -1.7560 H     1 <1>   0.1500 
 42 H       -8.1280    -3.8500     2.4680 H     1 <1>   0.1500 
 43 H      -10.1660    -2.5800     2.2810 H     1 <1>   0.1500 
 44 H      -11.7350    -3.4600    -3.5690 H     1 <1>   0.0800 
 45 H      -11.9170    -2.1580    -2.4020 H     1 <1>   0.0800 
 46 H      -12.0990    -3.8420    -1.8870 H     1 <1>   0.0800 
 47 H      -12.8000    -0.6670     0.7120 H     1 <1>   0.0800 
 48 H      -11.1970    -0.5830     1.4320 H     1 <1>   0.0800 
 49 H      -12.3040    -1.9010     1.8640 H     1 <1>   0.0800 
@<TRIPOS>BOND
  1   1   2  1   
  2   2   3  1   
  3   2   4  1   
  4   2  27  1   
  5   3   5  1   
  6   3  28  1   
  7   3  29  1   
  8   4   6  1   
  9   4  30  1   
 10   4  31  1   
 11   5   7  1   
 12   5  32  1   
 13   5  33  1   
 14   6   7  1   
 15   6  34  1   
 16   6  35  1   
 17   7   8  am  
 18   8   9  2   
 19   8  10  1   
 20  10  11  1   
 21  10  12  1   
 22  10  36  1   
 23  11  13  1   
 24  12  14  1   
 25  12  15  1   
 26  12  37  1   
 27  13  16  1   
 28  13  38  1   
 29  13  39  1   
 30  14  16  am  
 31  14  40  1   
 32  15  17  ar  
 33  15  18  ar  
 34  16  19  2   
 35  17  20  ar  
 36  17  41  1   
 37  18  21  ar  
 38  18  42  1   
 39  20  22  1   
 40  20  23  ar  
 41  21  23  ar  
 42  21  43  1   
 43  22  24  1   
 44  23  25  1   
 45  24  44  1   
 46  24  45  1   
 47  24  46  1   
 48  25  26  1   
 49  26  47  1   
 50  26  48  1   
 51  26  49  1   
@<TRIPOS>SUBSTRUCTURE
  1 ****  10 GROUP 4 **** **** 0

# MOE 2024.06 (io_trps.svl 2023.06)
