@<TRIPOS>MOLECULE
NONAME
47 48 1 0 0 
SMALL
USER_CHARGES


@<TRIPOS>ATOM
  1 O        0.3510     0.7200     0.7190 O.2   1 <1>  -0.5700 
  2 C       -0.7520     1.1420     0.4830 C.2   1 <1>   0.5690 
  3 N       -1.8170     0.3640     0.1450 N.am  1 <1>  -0.5470 
  4 C       -0.9600     2.6390     0.5470 C.3   1 <1>  -0.0990 
  5 C       -1.9780    -0.9950    -0.0150 C.ar  1 <1>   0.4270 
  6 C       -0.4010     3.3250    -0.7100 C.3   1 <1>  -0.0990 
  7 N       -3.2000    -1.3090    -0.4180 N.ar  1 <1>  -0.6200 
  8 C       -0.9810    -1.9410     0.2190 C.ar  1 <1>  -0.1500 
  9 C       -0.5230     4.8290    -0.6040 C.2   1 <1>   0.5690 
 10 C       -3.4340    -2.5990    -0.5970 C.ar  1 <1>   0.1600 
 11 C       -1.2370    -3.2810     0.0310 C.ar  1 <1>  -0.1440 
 12 O       -1.5920     5.3280    -0.8560 O.2   1 <1>  -0.5700 
 13 N        0.5820     5.5320    -0.2080 N.am  1 <1>  -0.4940 
 14 C       -2.5090    -3.6060    -0.3920 C.ar  1 <1>  -0.1500 
 15 C       -0.1860    -4.3490     0.2700 C.3   1 <1>  -0.0970 
 16 C        0.7310     6.9300    -0.0210 C.2   1 <1>  -0.0880 
 17 N        1.8580     7.5470     0.4280 N.pl3 1 <1>   0.3140 
 18 C       -0.1700     7.9170    -0.2380 C.2   1 <1>  -0.1500 
 19 N        1.6980     8.8870     0.5010 N.2   1 <1>  -0.7070 
 20 C        3.1340     6.9180     0.8230 C.3   1 <1>   0.0960 
 21 C        0.4850     9.0940     0.1010 C.2   1 <1>   0.1080 
 22 C        3.9970     6.6010    -0.4070 C.3   1 <1>  -0.1600 
 23 C       -0.1170    10.4770     0.0240 C.3   1 <1>  -0.0590 
 24 C        5.3110     5.9210    -0.0080 C.3   1 <1>  -0.2400 
 25 H       -2.6910     0.8430    -0.0570 H     1 <1>   0.3700 
 26 H       -0.4540     3.0120     1.4190 H     1 <1>   0.0800 
 27 H       -2.0060     2.8650     0.6520 H     1 <1>   0.0800 
 28 H       -0.9500     2.9980    -1.5750 H     1 <1>   0.0800 
 29 H        0.6290     3.0520    -0.8500 H     1 <1>   0.0800 
 30 H       -0.0100    -1.6280     0.5480 H     1 <1>   0.1500 
 31 H       -4.4230    -2.8700    -0.9260 H     1 <1>   0.1500 
 32 H        1.4100     4.9670    -0.0270 H     1 <1>   0.3700 
 33 H       -2.7840    -4.6310    -0.5610 H     1 <1>   0.1500 
 34 H        0.7190    -3.9150     0.6560 H     1 <1>   0.0800 
 35 H        0.0410    -4.8530    -0.6520 H     1 <1>   0.0800 
 36 H       -0.5490    -5.0690     0.9810 H     1 <1>   0.0800 
 37 H       -1.1790     7.8300    -0.5950 H     1 <1>   0.1500 
 38 H        2.9190     6.0250     1.3780 H     1 <1>   0.0800 
 39 H        3.6560     7.6020     1.4690 H     1 <1>   0.0800 
 40 H        4.2180     7.5200    -0.9240 H     1 <1>   0.0800 
 41 H        3.4550     5.9580    -1.0790 H     1 <1>   0.0800 
 42 H       -1.1290    10.4270    -0.3330 H     1 <1>   0.0800 
 43 H        0.4640    11.0830    -0.6460 H     1 <1>   0.0800 
 44 H       -0.1080    10.9260     1.0000 H     1 <1>   0.0800 
 45 H        5.8820     6.5600     0.6430 H     1 <1>   0.0800 
 46 H        5.9000     5.7180    -0.8850 H     1 <1>   0.0800 
 47 H        5.1210     4.9900     0.4980 H     1 <1>   0.0800 
@<TRIPOS>BOND
  1   1   2  2   
  2   2   3  am  
  3   2   4  1   
  4   3   5  1   
  5   3  25  1   
  6   4   6  1   
  7   4  26  1   
  8   4  27  1   
  9   5   7  ar  
 10   5   8  ar  
 11   6   9  1   
 12   6  28  1   
 13   6  29  1   
 14   7  10  ar  
 15   8  11  ar  
 16   8  30  1   
 17   9  12  2   
 18   9  13  am  
 19  10  14  ar  
 20  10  31  1   
 21  11  14  ar  
 22  11  15  1   
 23  13  16  1   
 24  13  32  1   
 25  14  33  1   
 26  15  34  1   
 27  15  35  1   
 28  15  36  1   
 29  16  17  1   
 30  16  18  2   
 31  17  19  1   
 32  17  20  1   
 33  18  21  1   
 34  18  37  1   
 35  19  21  2   
 36  20  22  1   
 37  20  38  1   
 38  20  39  1   
 39  21  23  1   
 40  22  24  1   
 41  22  40  1   
 42  22  41  1   
 43  23  42  1   
 44  23  43  1   
 45  23  44  1   
 46  24  45  1   
 47  24  46  1   
 48  24  47  1   
@<TRIPOS>SUBSTRUCTURE
  1 ****   6 GROUP 4 **** **** 0

# MOE 2024.06 (io_trps.svl 2023.06)
