@<TRIPOS>MOLECULE
NONAME
45 46 1 0 0 
SMALL
USER_CHARGES


@<TRIPOS>ATOM
  1 O        2.3690    -0.0700     2.1340 O.2   1 <1>  -0.5700 
  2 C        1.6270    -0.7460     1.4610 C.2   1 <1>   0.5690 
  3 N        1.3540    -0.4980     0.1540 N.am  1 <1>  -0.4930 
  4 C        0.9450    -1.9620     2.0930 C.3   1 <1>   0.1710 
  5 C        1.7880     0.5160    -0.6950 C.2   1 <1>   0.3520 
  6 N       -0.2820    -2.4120     1.3650 N.3   1 <1>  -0.8100 
  7 N        1.3420     0.6350    -1.8960 N.2   1 <1>  -0.4100 
  8 C        2.7210     1.5160    -0.4140 C.2   1 <1>  -0.1500 
  9 C       -0.6170    -3.8000     1.7090 C.3   1 <1>   0.1100 
 10 C       -1.4070    -1.4940     1.6300 C.3   1 <1>   0.0300 
 11 O        1.9510     1.6770    -2.4060 O.3   1 <1>  -0.0190 
 12 C        2.7760     2.2220    -1.5500 C.2   1 <1>  -0.0400 
 13 C       -1.5210    -4.4100     0.6360 C.3   1 <1>  -0.1600 
 14 C        3.5800     3.4420    -1.9460 C.3   1 <1>  -0.0600 
 15 C       -1.7590    -5.9000     0.9090 C.3   1 <1>   0.0960 
 16 N       -2.5980    -6.4980    -0.1460 N.pl3 1 <1>   0.3140 
 17 N       -2.0400    -7.0710    -1.2270 N.2   1 <1>  -0.7070 
 18 C       -3.9490    -6.5630    -0.1980 C.2   1 <1>  -0.3320 
 19 C       -3.0380    -7.4820    -1.9410 C.2   1 <1>   0.1080 
 20 C       -4.2610    -7.1940    -1.3490 C.2   1 <1>  -0.1500 
 21 C       -4.8980    -6.0190     0.8570 C.3   1 <1>  -0.0600 
 22 C       -2.8490    -8.1900    -3.2610 C.3   1 <1>  -0.0590 
 23 H        0.6640    -1.1360    -0.2510 H     1 <1>   0.3700 
 24 H        0.7050    -1.7360     3.1170 H     1 <1>   0.0800 
 25 H        1.6740    -2.7520     2.0930 H     1 <1>   0.0800 
 26 H        3.2460     1.6490     0.5130 H     1 <1>   0.1500 
 27 H       -1.0900    -3.8420     2.6770 H     1 <1>   0.0800 
 28 H        0.2870    -4.3840     1.7500 H     1 <1>   0.0800 
 29 H       -1.1280    -0.4790     1.4010 H     1 <1>   0.0800 
 30 H       -1.7010    -1.5450     2.6650 H     1 <1>   0.0800 
 31 H       -2.2510    -1.7470     1.0130 H     1 <1>   0.0800 
 32 H       -1.0430    -4.3070    -0.3240 H     1 <1>   0.0800 
 33 H       -2.4680    -3.9050     0.6130 H     1 <1>   0.0800 
 34 H        4.2030     3.7570    -1.1290 H     1 <1>   0.0800 
 35 H        2.9160     4.2450    -2.2110 H     1 <1>   0.0800 
 36 H        4.2020     3.2090    -2.7910 H     1 <1>   0.0800 
 37 H       -2.2450    -6.0400     1.8560 H     1 <1>   0.0800 
 38 H       -0.8220    -6.4270     0.9220 H     1 <1>   0.0800 
 39 H       -5.2300    -7.4350    -1.7470 H     1 <1>   0.1500 
 40 H       -4.7570    -4.9590     0.9750 H     1 <1>   0.0800 
 41 H       -4.7260    -6.5070     1.8000 H     1 <1>   0.0800 
 42 H       -5.9170    -6.1970     0.5630 H     1 <1>   0.0800 
 43 H       -2.3080    -7.5510    -3.9330 H     1 <1>   0.0800 
 44 H       -3.8000    -8.4370    -3.6950 H     1 <1>   0.0800 
 45 H       -2.2860    -9.0910    -3.1050 H     1 <1>   0.0800 
@<TRIPOS>BOND
  1   1   2  2   
  2   2   3  am  
  3   2   4  1   
  4   3   5  1   
  5   3  23  1   
  6   4   6  1   
  7   4  24  1   
  8   4  25  1   
  9   5   7  2   
 10   5   8  1   
 11   6   9  1   
 12   6  10  1   
 13   7  11  1   
 14   8  12  2   
 15   8  26  1   
 16   9  13  1   
 17   9  27  1   
 18   9  28  1   
 19  10  29  1   
 20  10  30  1   
 21  10  31  1   
 22  11  12  1   
 23  12  14  1   
 24  13  15  1   
 25  13  32  1   
 26  13  33  1   
 27  14  34  1   
 28  14  35  1   
 29  14  36  1   
 30  15  16  1   
 31  15  37  1   
 32  15  38  1   
 33  16  17  1   
 34  16  18  1   
 35  17  19  2   
 36  18  20  2   
 37  18  21  1   
 38  19  20  1   
 39  19  22  1   
 40  20  39  1   
 41  21  40  1   
 42  21  41  1   
 43  21  42  1   
 44  22  43  1   
 45  22  44  1   
 46  22  45  1   
@<TRIPOS>SUBSTRUCTURE
  1 ****   6 GROUP 4 **** **** 0

# MOE 2024.06 (io_trps.svl 2023.06)
