@<TRIPOS>MOLECULE
NONAME
54 57 1 0 0 
SMALL
USER_CHARGES


@<TRIPOS>ATOM
  1 O       -0.9360    -0.9470    -1.6770 O.3   1 <1>  -0.3630 
  2 C       -1.2620    -1.9600    -0.8330 C.ar  1 <1>   0.0820 
  3 C       -1.7590     0.1900    -1.8340 C.3   1 <1>   0.0400 
  4 C       -0.3790    -3.0300    -0.7380 C.ar  1 <1>  -0.1440 
  5 C       -2.4300    -1.9630    -0.0760 C.ar  1 <1>  -0.1500 
  6 C       -0.6780    -4.0870     0.1100 C.ar  1 <1>  -0.1500 
  7 C        0.9090    -3.0490    -1.5650 C.3   1 <1>   0.2390 
  8 C       -2.7170    -3.0230     0.7640 C.ar  1 <1>  -0.1500 
  9 C       -1.8440    -4.0940     0.8600 C.ar  1 <1>  -0.1430 
 10 N        2.0620    -3.4770    -0.7500 N.pl3 1 <1>   0.3140 
 11 C       -2.1620    -5.2680     1.7690 C.3   1 <1>   0.4870 
 12 N        2.5660    -4.7090    -0.7740 N.2   1 <1>  -0.7070 
 13 C        2.7540    -2.7520     0.1330 C.2   1 <1>   0.0360 
 14 N       -2.4050    -6.4750     0.9380 N.4   1 <1>  -0.9590 
 15 C        3.5320    -4.6270     0.0830 C.2   1 <1>   0.3660 
 16 N        3.6890    -3.4400     0.6800 N.2   1 <1>  -0.5650 
 17 C       -3.3820    -6.2970    -0.1780 C.3   1 <1>   0.3430 
 18 C       -2.7830    -7.7070     1.6650 C.3   1 <1>   0.3430 
 19 C       -4.0170    -7.6740    -0.4110 C.3   1 <1>   0.2000 
 20 C       -3.3580    -8.6330     0.5900 C.3   1 <1>  -0.0800 
 21 O       -5.3780    -7.6060    -0.1380 O.3   1 <1>  -0.6800 
 22 C       -2.2910    -9.5470    -0.0650 C.3   1 <1>  -0.0170 
 23 C       -0.8950    -8.9480    -0.2390 C.ar  1 <1>   0.1670 
 24 N       -0.7900    -7.8550    -0.9830 N.ar  1 <1>  -0.6200 
 25 C        0.1840    -9.5710     0.3720 C.ar  1 <1>  -0.1500 
 26 C        0.4430    -7.3920    -1.1560 C.ar  1 <1>   0.1600 
 27 C        1.4540    -9.0630     0.2060 C.ar  1 <1>  -0.1500 
 28 C        1.5750    -7.9450    -0.5880 C.ar  1 <1>  -0.1500 
 29 H       -1.2900     0.8470    -2.5440 H     1 <1>   0.0800 
 30 H       -1.8550     0.6880    -0.8860 H     1 <1>   0.0800 
 31 H       -2.7200    -0.1210    -2.2070 H     1 <1>   0.0800 
 32 H       -3.1280    -1.1470    -0.1260 H     1 <1>   0.1500 
 33 H        0.0080    -4.9150     0.1890 H     1 <1>   0.1500 
 34 H        1.1350    -2.0800    -1.9680 H     1 <1>   0.0800 
 35 H        0.7990    -3.7330    -2.3850 H     1 <1>   0.0800 
 36 H       -3.6280    -2.9980     1.3400 H     1 <1>   0.1500 
 37 H       -3.0360    -5.0420     2.3560 H     1 <1>   0.0800 
 38 H       -1.3340    -5.4390     2.4380 H     1 <1>   0.0800 
 39 H        2.5350    -1.7200     0.3450 H     1 <1>   0.1500 
 40 H       -1.5210    -6.7060     0.4370 H     1 <1>   0.4500 
 41 H        4.1870    -5.4500     0.3240 H     1 <1>   0.1500 
 42 H       -4.1430    -5.5800     0.0810 H     1 <1>   0.0800 
 43 H       -2.8660    -5.9680    -1.0650 H     1 <1>   0.0800 
 44 H       -1.9350    -8.1510     2.1610 H     1 <1>   0.0800 
 45 H       -3.5470    -7.4810     2.3910 H     1 <1>   0.0800 
 46 H       -3.9040    -7.9870    -1.4350 H     1 <1>   0.0800 
 47 H       -4.1010    -9.2810     1.0240 H     1 <1>   0.0800 
 48 H       -5.5770    -7.4450     0.8040 H     1 <1>   0.4000 
 49 H       -2.6400    -9.8770    -1.0280 H     1 <1>   0.0800 
 50 H       -2.2040   -10.4330     0.5380 H     1 <1>   0.0800 
 51 H        0.0490   -10.4570     0.9680 H     1 <1>   0.1500 
 52 H        0.5680    -6.5240    -1.7840 H     1 <1>   0.1500 
 53 H        2.3140    -9.5230     0.6640 H     1 <1>   0.1500 
 54 H        2.5390    -7.5040    -0.7740 H     1 <1>   0.1500 
@<TRIPOS>BOND
  1   1   2  1   
  2   1   3  1   
  3   2   4  ar  
  4   2   5  ar  
  5   3  29  1   
  6   3  30  1   
  7   3  31  1   
  8   4   6  ar  
  9   4   7  1   
 10   5   8  ar  
 11   5  32  1   
 12   6   9  ar  
 13   6  33  1   
 14   7  10  1   
 15   7  34  1   
 16   7  35  1   
 17   8   9  ar  
 18   8  36  1   
 19   9  11  1   
 20  10  12  1   
 21  10  13  1   
 22  11  14  1   
 23  11  37  1   
 24  11  38  1   
 25  12  15  2   
 26  13  16  2   
 27  13  39  1   
 28  14  17  1   
 29  14  18  1   
 30  14  40  1   
 31  15  16  1   
 32  15  41  1   
 33  17  19  1   
 34  17  42  1   
 35  17  43  1   
 36  18  20  1   
 37  18  44  1   
 38  18  45  1   
 39  19  20  1   
 40  19  21  1   
 41  19  46  1   
 42  20  22  1   
 43  20  47  1   
 44  21  48  1   
 45  22  23  1   
 46  22  49  1   
 47  22  50  1   
 48  23  24  ar  
 49  23  25  ar  
 50  24  26  ar  
 51  25  27  ar  
 52  25  51  1   
 53  26  28  ar  
 54  26  52  1   
 55  27  28  ar  
 56  27  53  1   
 57  28  54  1   
@<TRIPOS>SUBSTRUCTURE
  1 ****   6 GROUP 4 **** **** 0

# MOE 2024.06 (io_trps.svl 2023.06)
