@<TRIPOS>MOLECULE
NONAME
56 58 1 0 0 
SMALL
USER_CHARGES


@<TRIPOS>ATOM
  1 CL       2.9680    -0.0430     4.2900 Cl    1 <1>  -0.1770 
  2 C        3.0140    -0.7440     2.6940 C.ar  1 <1>   0.1770 
  3 C        3.1940     0.0770     1.5990 C.ar  1 <1>  -0.1500 
  4 C        2.8520    -2.1100     2.5610 C.ar  1 <1>  -0.1500 
  5 C        3.2300    -0.4860     0.3280 C.ar  1 <1>   0.0830 
  6 C        2.8790    -2.6830     1.2970 C.ar  1 <1>  -0.1440 
  7 O        3.3440     0.2670    -0.8000 O.3   1 <1>  -0.3620 
  8 C        3.1160    -1.8740     0.1900 C.ar  1 <1>   0.0830 
  9 C        2.6520    -4.1750     1.1170 C.3   1 <1>   0.4870 
 10 C        3.4290     1.6750    -0.7520 C.3   1 <1>   0.0400 
 11 O        3.1790    -2.4570    -1.0370 O.3   1 <1>  -0.3630 
 12 N        1.1980    -4.5320     0.9900 N.4   1 <1>  -0.9590 
 13 C        4.4420    -2.8860    -1.5080 C.3   1 <1>   0.2000 
 14 C        0.5930    -3.9390    -0.2470 C.3   1 <1>   0.4230 
 15 C        0.4460    -4.2700     2.2590 C.3   1 <1>   0.2630 
 16 C        5.0990    -1.7720    -2.3220 C.3   1 <1>  -0.2400 
 17 C        4.1990    -4.1190    -2.3780 C.3   1 <1>  -0.2400 
 18 C       -0.4470    -4.8820    -0.8380 C.3   1 <1>  -0.1600 
 19 C       -0.1790    -2.6250    -0.0900 C.3   1 <1>  -0.1600 
 20 C       -1.2210    -4.0120    -1.8400 C.3   1 <1>  -0.0800 
 21 C       -1.0410    -2.5510    -1.3560 C.3   1 <1>  -0.0800 
 22 C       -2.6790    -4.4720    -2.0480 C.3   1 <1>   0.1400 
 23 C       -2.3570    -1.7710    -1.1560 C.3   1 <1>  -0.0990 
 24 N       -3.4600    -3.3720    -2.6440 N.am  1 <1>  -0.7300 
 25 C       -3.3400    -2.0830    -2.2630 C.2   1 <1>   0.5690 
 26 O       -3.9950    -1.2110    -2.7710 O.2   1 <1>  -0.5700 
 27 H        3.2970     1.1320     1.7640 H     1 <1>   0.1500 
 28 H        2.7090    -2.6980     3.4510 H     1 <1>   0.1500 
 29 H        3.0800    -4.6960     1.9590 H     1 <1>   0.0800 
 30 H        3.1780    -4.5010     0.2360 H     1 <1>   0.0800 
 31 H        3.5010     2.0390    -1.7620 H     1 <1>   0.0800 
 32 H        4.3090     1.9560    -0.2010 H     1 <1>   0.0800 
 33 H        2.5400     2.0660    -0.2890 H     1 <1>   0.0800 
 34 H        1.1790    -5.5470     0.8340 H     1 <1>   0.4500 
 35 H        5.0630    -3.1440    -0.6660 H     1 <1>   0.0800 
 36 H        1.3570    -3.7960    -0.9940 H     1 <1>   0.0800 
 37 H        0.4510    -3.2150     2.4840 H     1 <1>   0.0800 
 38 H        0.8970    -4.7990     3.0820 H     1 <1>   0.0800 
 39 H       -0.5770    -4.5940     2.1610 H     1 <1>   0.0800 
 40 H        4.4200    -1.4010    -3.0700 H     1 <1>   0.0800 
 41 H        5.9820    -2.1410    -2.8100 H     1 <1>   0.0800 
 42 H        5.3970    -0.9660    -1.6780 H     1 <1>   0.0800 
 43 H        3.5700    -3.8660    -3.2130 H     1 <1>   0.0800 
 44 H        3.7400    -4.9050    -1.8090 H     1 <1>   0.0800 
 45 H        5.1350    -4.4850    -2.7600 H     1 <1>   0.0800 
 46 H        0.0090    -5.7220    -1.3320 H     1 <1>   0.0800 
 47 H       -1.1140    -5.2250    -0.0670 H     1 <1>   0.0800 
 48 H       -0.8280    -2.6450     0.7640 H     1 <1>   0.0800 
 49 H        0.4690    -1.7700    -0.0280 H     1 <1>   0.0800 
 50 H       -0.7290    -4.0910    -2.7960 H     1 <1>   0.0800 
 51 H       -0.4770    -2.0350    -2.1180 H     1 <1>   0.0800 
 52 H       -3.1320    -4.7370    -1.1080 H     1 <1>   0.0800 
 53 H       -2.7080    -5.3310    -2.6970 H     1 <1>   0.0800 
 54 H       -2.1630    -0.7140    -1.1380 H     1 <1>   0.0800 
 55 H       -2.8270    -2.0420    -0.2290 H     1 <1>   0.0800 
 56 H       -4.1500    -3.5850    -3.3690 H     1 <1>   0.3700 
@<TRIPOS>BOND
  1   1   2  1   
  2   2   3  ar  
  3   2   4  ar  
  4   3   5  ar  
  5   3  27  1   
  6   4   6  ar  
  7   4  28  1   
  8   5   7  1   
  9   5   8  ar  
 10   6   8  ar  
 11   6   9  1   
 12   7  10  1   
 13   8  11  1   
 14   9  12  1   
 15   9  29  1   
 16   9  30  1   
 17  10  31  1   
 18  10  32  1   
 19  10  33  1   
 20  11  13  1   
 21  12  14  1   
 22  12  15  1   
 23  12  34  1   
 24  13  16  1   
 25  13  17  1   
 26  13  35  1   
 27  14  18  1   
 28  14  19  1   
 29  14  36  1   
 30  15  37  1   
 31  15  38  1   
 32  15  39  1   
 33  16  40  1   
 34  16  41  1   
 35  16  42  1   
 36  17  43  1   
 37  17  44  1   
 38  17  45  1   
 39  18  20  1   
 40  18  46  1   
 41  18  47  1   
 42  19  21  1   
 43  19  48  1   
 44  19  49  1   
 45  20  21  1   
 46  20  22  1   
 47  20  50  1   
 48  21  23  1   
 49  21  51  1   
 50  22  24  1   
 51  22  52  1   
 52  22  53  1   
 53  23  25  1   
 54  23  54  1   
 55  23  55  1   
 56  24  25  am  
 57  24  56  1   
 58  25  26  2   
@<TRIPOS>SUBSTRUCTURE
  1 ****  19 GROUP 4 **** **** 0

# MOE 2024.06 (io_trps.svl 2023.06)
