@<TRIPOS>MOLECULE
NONAME
43 45 1 0 0 
SMALL
USER_CHARGES


@<TRIPOS>ATOM
  1 O       -0.2540     2.2240     2.7360 O.2   1 <1>  -0.5700 
  2 C        0.0050     2.7620     1.6830 C.2   1 <1>   0.5690 
  3 N       -0.9800     3.2560     0.8600 N.am  1 <1>  -0.6600 
  4 C        1.4700     2.8560     1.3190 C.3   1 <1>   0.1570 
  5 C       -2.4270     3.0220     1.1550 C.3   1 <1>   0.1400 
  6 C       -0.7570     3.8910    -0.4700 C.3   1 <1>   0.1400 
  7 N        1.7730     1.9190     0.2290 N.pl3 1 <1>   0.3140 
  8 C       -3.0580     2.0880     0.0910 C.3   1 <1>   0.0000 
  9 C       -1.3340     2.9890    -1.5670 C.3   1 <1>  -0.1600 
 10 N        2.3230     2.3320    -0.9310 N.2   1 <1>  -0.7070 
 11 C        1.5680     0.5860     0.2210 C.2   1 <1>  -0.3020 
 12 C       -4.5550     1.8620     0.3640 C.3   1 <1>   0.2000 
 13 C       -2.8200     2.6750    -1.3190 C.3   1 <1>  -0.1600 
 14 C       -2.5020     0.6590     0.2260 C.3   1 <1>  -0.1600 
 15 C        2.4490     1.2530    -1.6430 C.2   1 <1>   0.1390 
 16 C        1.9910     0.1250    -0.9740 C.2   1 <1>  -0.1500 
 17 O       -5.1840     3.0390     0.7780 O.3   1 <1>  -0.5600 
 18 C       -4.6220     0.7810     1.4480 C.3   1 <1>  -0.1600 
 19 C       -3.2910     0.0200     1.3720 C.3   1 <1>  -0.1600 
 20 C       -6.5750     3.0020     0.7530 C.3   1 <1>   0.0400 
 21 H        2.0700     2.5970     2.1690 H     1 <1>   0.0800 
 22 H        1.7140     3.8540     1.0120 H     1 <1>   0.0800 
 23 H       -2.5520     2.6030     2.1380 H     1 <1>   0.0800 
 24 H       -2.9310     3.9730     1.1480 H     1 <1>   0.0800 
 25 H       -1.2580     4.8440    -0.4870 H     1 <1>   0.0800 
 26 H        0.2860     4.0670    -0.6600 H     1 <1>   0.0800 
 27 H       -1.2230     3.4780    -2.5180 H     1 <1>   0.0800 
 28 H       -0.7620     2.0780    -1.6040 H     1 <1>   0.0800 
 29 H        1.1370     0.0550     1.0520 H     1 <1>   0.1500 
 30 H       -5.0290     1.5090    -0.5370 H     1 <1>   0.0800 
 31 H       -3.1750     1.9950    -2.0720 H     1 <1>   0.0800 
 32 H       -3.3860     3.5870    -1.4100 H     1 <1>   0.0800 
 33 H       -2.6980     0.1080    -0.6780 H     1 <1>   0.0800 
 34 H       -1.4430     0.6350     0.4120 H     1 <1>   0.0800 
 35 H        2.8630     1.2450    -2.6370 H     1 <1>   0.1500 
 36 H        1.9890    -0.8810    -1.3520 H     1 <1>   0.1500 
 37 H       -4.7210     1.2320     2.4200 H     1 <1>   0.0800 
 38 H       -5.4500     0.1190     1.2690 H     1 <1>   0.0800 
 39 H       -2.7500     0.1480     2.2960 H     1 <1>   0.0800 
 40 H       -3.4400    -1.0320     1.2010 H     1 <1>   0.0800 
 41 H       -6.9400     3.9630     1.0710 H     1 <1>   0.0800 
 42 H       -6.9280     2.2420     1.4290 H     1 <1>   0.0800 
 43 H       -6.9080     2.8030    -0.2500 H     1 <1>   0.0800 
@<TRIPOS>BOND
  1   1   2  2   
  2   2   3  am  
  3   2   4  1   
  4   3   5  1   
  5   3   6  1   
  6   4   7  1   
  7   4  21  1   
  8   4  22  1   
  9   5   8  1   
 10   5  23  1   
 11   5  24  1   
 12   6   9  1   
 13   6  25  1   
 14   6  26  1   
 15   7  10  1   
 16   7  11  1   
 17   8  12  1   
 18   8  13  1   
 19   8  14  1   
 20   9  13  1   
 21   9  27  1   
 22   9  28  1   
 23  10  15  2   
 24  11  16  2   
 25  11  29  1   
 26  12  17  1   
 27  12  18  1   
 28  12  30  1   
 29  13  31  1   
 30  13  32  1   
 31  14  19  1   
 32  14  33  1   
 33  14  34  1   
 34  15  16  1   
 35  15  35  1   
 36  16  36  1   
 37  17  20  1   
 38  18  19  1   
 39  18  37  1   
 40  18  38  1   
 41  19  39  1   
 42  19  40  1   
 43  20  41  1   
 44  20  42  1   
 45  20  43  1   
@<TRIPOS>SUBSTRUCTURE
  1 ****   3 GROUP 4 **** **** 0

# MOE 2024.06 (io_trps.svl 2023.06)
