@<TRIPOS>MOLECULE
NONAME
51 53 1 0 0 
SMALL
USER_CHARGES


@<TRIPOS>ATOM
  1 O       -0.0880     0.4900    -0.1400 O.3   1 <1>  -0.3630 
  2 C       -0.0920     1.8210    -0.1390 C.ar  1 <1>   0.3920 
  3 C       -1.2430    -0.3230    -0.1210 C.3   1 <1>   0.2000 
  4 N       -1.2510     2.4730    -0.1550 N.ar  1 <1>  -0.6200 
  5 C        1.1300     2.4580    -0.1220 C.ar  1 <1>  -0.1500 
  6 C       -1.7060    -0.4840     1.3280 C.3   1 <1>  -0.2400 
  7 C       -0.8590    -1.6680    -0.7320 C.3   1 <1>  -0.2400 
  8 C       -1.1750     3.7780    -0.1480 C.ar  1 <1>   0.7710 
  9 C        1.1840     3.8380    -0.1220 C.ar  1 <1>   0.4610 
 10 N       -0.0110     4.4580    -0.1320 N.ar  1 <1>  -0.1790 
 11 N       -2.3330     4.4390    -0.1560 N.pl3 1 <1>  -0.9000 
 12 N        2.3500     4.5660    -0.1040 N.pl3 1 <1>  -0.8380 
 13 C        2.5530     6.0250    -0.3730 C.3   1 <1>   0.2090 
 14 C        3.6800     3.9210     0.0830 C.3   1 <1>   0.2090 
 15 C        4.0810     6.2410    -0.5010 C.3   1 <1>   0.4230 
 16 C        4.6700     5.0640     0.2690 C.3   1 <1>  -0.1600 
 17 N        4.5890     7.5510     0.0390 N.4   1 <1>  -0.9590 
 18 C        3.9580     8.7360    -0.6260 C.3   1 <1>   0.3430 
 19 C        6.0840     7.6520    -0.0580 C.3   1 <1>   0.3430 
 20 C        4.3830    10.0190     0.0890 C.3   1 <1>  -0.1600 
 21 C        6.5670     8.9080     0.6690 C.3   1 <1>  -0.1600 
 22 C        5.9080    10.1750     0.1130 C.3   1 <1>  -0.1600 
 23 H       -2.0100     0.1380    -0.7220 H     1 <1>   0.0800 
 24 H        2.0170     1.8560    -0.1140 H     1 <1>   0.1500 
 25 H       -0.9250    -0.9190     1.9260 H     1 <1>   0.0800 
 26 H       -2.5650    -1.1290     1.3670 H     1 <1>   0.0800 
 27 H       -1.9850     0.4680     1.7410 H     1 <1>   0.0800 
 28 H       -0.0760    -2.1330    -0.1600 H     1 <1>   0.0800 
 29 H       -0.5270    -1.5310    -1.7460 H     1 <1>   0.0800 
 30 H       -1.7110    -2.3230    -0.7420 H     1 <1>   0.0800 
 31 H       -0.0640     5.4610    -0.0920 H     1 <1>   0.4570 
 32 H       -2.5090     5.4450    -0.1530 H     1 <1>   0.4000 
 33 H       -3.1910     3.8760    -0.1670 H     1 <1>   0.4000 
 34 H        2.1690     6.5910     0.4590 H     1 <1>   0.0800 
 35 H        2.0590     6.3140    -1.2860 H     1 <1>   0.0800 
 36 H        3.9310     3.3510    -0.7990 H     1 <1>   0.0800 
 37 H        3.6820     3.2660     0.9410 H     1 <1>   0.0800 
 38 H        4.3480     6.1480    -1.5420 H     1 <1>   0.0800 
 39 H        5.6410     4.7800    -0.0970 H     1 <1>   0.0800 
 40 H        4.7330     5.2860     1.3210 H     1 <1>   0.0800 
 41 H        4.3670     7.6060     1.0410 H     1 <1>   0.4500 
 42 H        2.8830     8.6590    -0.5950 H     1 <1>   0.0800 
 43 H        4.2660     8.7850    -1.6590 H     1 <1>   0.0800 
 44 H        6.3840     7.6990    -1.0930 H     1 <1>   0.0800 
 45 H        6.5510     6.7900     0.3910 H     1 <1>   0.0800 
 46 H        3.9970    10.0190     1.0940 H     1 <1>   0.0800 
 47 H        3.9510    10.8660    -0.4180 H     1 <1>   0.0800 
 48 H        7.6350     8.9880     0.5600 H     1 <1>   0.0800 
 49 H        6.3610     8.8170     1.7220 H     1 <1>   0.0800 
 50 H        6.1810    11.0260     0.7160 H     1 <1>   0.0800 
 51 H        6.2670    10.3570    -0.8870 H     1 <1>   0.0800 
@<TRIPOS>BOND
  1   1   2  1   
  2   1   3  1   
  3   2   4  ar  
  4   2   5  ar  
  5   3   6  1   
  6   3   7  1   
  7   3  23  1   
  8   4   8  ar  
  9   5   9  ar  
 10   5  24  1   
 11   6  25  1   
 12   6  26  1   
 13   6  27  1   
 14   7  28  1   
 15   7  29  1   
 16   7  30  1   
 17   8  10  ar  
 18   8  11  1   
 19   9  10  ar  
 20   9  12  1   
 21  10  31  1   
 22  11  32  1   
 23  11  33  1   
 24  12  13  1   
 25  12  14  1   
 26  13  15  1   
 27  13  34  1   
 28  13  35  1   
 29  14  16  1   
 30  14  36  1   
 31  14  37  1   
 32  15  16  1   
 33  15  17  1   
 34  15  38  1   
 35  16  39  1   
 36  16  40  1   
 37  17  18  1   
 38  17  19  1   
 39  17  41  1   
 40  18  20  1   
 41  18  42  1   
 42  18  43  1   
 43  19  21  1   
 44  19  44  1   
 45  19  45  1   
 46  20  22  1   
 47  20  46  1   
 48  20  47  1   
 49  21  22  1   
 50  21  48  1   
 51  21  49  1   
 52  22  50  1   
 53  22  51  1   
@<TRIPOS>SUBSTRUCTURE
  1 ****  12 GROUP 4 **** **** 0

# MOE 2024.06 (io_trps.svl 2023.06)
