@<TRIPOS>MOLECULE
NONAME
50 53 1 0 0 
SMALL
USER_CHARGES


@<TRIPOS>ATOM
  1 S       -0.1520    -0.3690     0.6050 S.3   1 <1>  -0.4600 
  2 C       -0.7480    -1.6520    -0.5350 C.3   1 <1>   0.0700 
  3 C       -1.4750    -0.3160     1.8520 C.3   1 <1>   0.0700 
  4 C       -2.1800    -1.3130    -0.9650 C.3   1 <1>   0.1400 
  5 C       -2.8250    -0.1410     1.1480 C.3   1 <1>   0.1400 
  6 N       -3.0890    -1.2850     0.2210 N.am  1 <1>  -0.6600 
  7 C       -3.9310    -2.3120     0.5870 C.2   1 <1>   0.5690 
  8 O       -4.4760    -2.2990     1.6710 O.2   1 <1>  -0.5700 
  9 C       -4.1960    -3.4970    -0.3620 C.3   1 <1>   0.2610 
 10 O       -3.0300    -4.2870    -0.5110 O.3   1 <1>  -0.5600 
 11 C       -5.4100    -4.3510     0.0890 C.3   1 <1>   0.3640 
 12 C       -3.1500    -5.3080    -1.4710 C.3   1 <1>   0.1810 
 13 N       -5.4010    -5.7440    -0.4640 N.am  1 <1>  -0.5090 
 14 C       -6.7030    -3.6360    -0.3190 C.ar  1 <1>  -0.1430 
 15 C       -4.3770    -6.1940    -1.2560 C.2   1 <1>   0.5690 
 16 C       -6.5710    -6.5850    -0.1130 C.3   1 <1>   0.0490 
 17 C       -7.1650    -3.6710    -1.6290 C.ar  1 <1>  -0.1500 
 18 C       -7.4290    -2.9270     0.6290 C.ar  1 <1>  -0.1500 
 19 O       -4.4010    -7.2590    -1.8290 O.2   1 <1>  -0.5700 
 20 C       -6.8550    -6.8520     1.3330 C.3   1 <1>  -0.2000 
 21 C       -6.3580    -7.9540     0.4540 C.3   1 <1>  -0.2000 
 22 C       -8.3280    -3.0100    -1.9810 C.ar  1 <1>  -0.1500 
 23 C       -8.5920    -2.2640     0.2790 C.ar  1 <1>  -0.1500 
 24 C       -9.0480    -2.3020    -1.0350 C.ar  1 <1>   0.0830 
 25 O      -10.1750    -1.6800    -1.4620 O.3   1 <1>  -0.3630 
 26 C      -10.9750    -0.9260    -0.5790 C.3   1 <1>   0.0400 
 27 H       -0.0780    -1.6650    -1.3750 H     1 <1>   0.0800 
 28 H       -0.7090    -2.5960    -0.0190 H     1 <1>   0.0800 
 29 H       -1.4440    -1.2370     2.4050 H     1 <1>   0.0800 
 30 H       -1.2650     0.5110     2.5050 H     1 <1>   0.0800 
 31 H       -2.5090    -2.0360    -1.6880 H     1 <1>   0.0800 
 32 H       -2.1890    -0.3490    -1.4440 H     1 <1>   0.0800 
 33 H       -2.8250     0.7790     0.5900 H     1 <1>   0.0800 
 34 H       -3.6040    -0.0720     1.8880 H     1 <1>   0.0800 
 35 H       -4.4240    -3.0830    -1.3270 H     1 <1>   0.0800 
 36 H       -5.3850    -4.4430     1.1600 H     1 <1>   0.0800 
 37 H       -3.1980    -4.8590    -2.4460 H     1 <1>   0.0800 
 38 H       -2.2650    -5.9150    -1.4130 H     1 <1>   0.0800 
 39 H       -7.4040    -6.4370    -0.7810 H     1 <1>   0.1000 
 40 H       -6.6280    -4.2200    -2.3840 H     1 <1>   0.1500 
 41 H       -7.0870    -2.8830     1.6500 H     1 <1>   0.1500 
 42 H       -6.1900    -6.4780     2.0910 H     1 <1>   0.1000 
 43 H       -7.8800    -6.8850     1.6590 H     1 <1>   0.1000 
 44 H       -7.0400    -8.7350     0.1700 H     1 <1>   0.1000 
 45 H       -5.3490    -8.3080     0.5710 H     1 <1>   0.1000 
 46 H       -8.6870    -3.0390    -2.9940 H     1 <1>   0.1500 
 47 H       -9.1240    -1.7260     1.0400 H     1 <1>   0.1500 
 48 H      -11.8040    -0.5290    -1.1370 H     1 <1>   0.0800 
 49 H      -10.3870    -0.1220    -0.1750 H     1 <1>   0.0800 
 50 H      -11.3360    -1.5720     0.2020 H     1 <1>   0.0800 
@<TRIPOS>BOND
  1   1   2  1   
  2   1   3  1   
  3   2   4  1   
  4   2  27  1   
  5   2  28  1   
  6   3   5  1   
  7   3  29  1   
  8   3  30  1   
  9   4   6  1   
 10   4  31  1   
 11   4  32  1   
 12   5   6  1   
 13   5  33  1   
 14   5  34  1   
 15   6   7  am  
 16   7   8  2   
 17   7   9  1   
 18   9  10  1   
 19   9  11  1   
 20   9  35  1   
 21  10  12  1   
 22  11  13  1   
 23  11  14  1   
 24  11  36  1   
 25  12  15  1   
 26  12  37  1   
 27  12  38  1   
 28  13  15  am  
 29  13  16  1   
 30  14  17  ar  
 31  14  18  ar  
 32  15  19  2   
 33  16  20  1   
 34  16  21  1   
 35  16  39  1   
 36  17  22  ar  
 37  17  40  1   
 38  18  23  ar  
 39  18  41  1   
 40  20  21  1   
 41  20  42  1   
 42  20  43  1   
 43  21  44  1   
 44  21  45  1   
 45  22  24  ar  
 46  22  46  1   
 47  23  24  ar  
 48  23  47  1   
 49  24  25  1   
 50  25  26  1   
 51  26  48  1   
 52  26  49  1   
 53  26  50  1   
@<TRIPOS>SUBSTRUCTURE
  1 ****  11 GROUP 4 **** **** 0

# MOE 2024.06 (io_trps.svl 2023.06)
