@<TRIPOS>MOLECULE
NONAME
45 47 1 0 0 
SMALL
USER_CHARGES


@<TRIPOS>ATOM
  1 S       -3.9000    -2.1020     3.6870 S.3   1 <1>  -0.0800 
  2 C       -3.6390    -2.8510     2.1230 C.2   1 <1>  -0.1100 
  3 C       -3.9190    -0.5040     2.9650 C.2   1 <1>  -0.1100 
  4 C       -3.5870    -1.9210     1.1490 C.2   1 <1>  -0.1810 
  5 C       -3.7420    -0.5790     1.6340 C.2   1 <1>  -0.1500 
  6 C       -3.3980    -2.2230    -0.3220 C.3   1 <1>   0.5240 
  7 N       -4.6730    -2.7840    -0.8220 N.4   1 <1>  -0.9590 
  8 C       -4.5390    -3.5310    -2.1070 C.3   1 <1>   0.3430 
  9 C       -5.8240    -1.8410    -0.7800 C.3   1 <1>   0.3430 
 10 C       -5.7110    -4.5160    -2.3200 C.3   1 <1>   0.1400 
 11 C       -7.0280    -2.5080    -0.1050 C.3   1 <1>  -0.1600 
 12 N       -6.5410    -4.7340    -1.0860 N.am  1 <1>  -0.6600 
 13 C       -7.6040    -3.7240    -0.8470 C.3   1 <1>   0.1400 
 14 C       -6.0790    -5.5190    -0.0550 C.2   1 <1>   0.5440 
 15 O       -4.8950    -5.4220     0.2130 O.2   1 <1>  -0.5700 
 16 C       -6.9600    -6.3620     0.7330 C.ar  1 <1>   0.0860 
 17 C       -8.1610    -6.8570     0.2510 C.ar  1 <1>  -0.1500 
 18 C       -6.6580    -6.7380     2.0350 C.ar  1 <1>  -0.1500 
 19 C       -8.9720    -7.6430     1.0480 C.ar  1 <1>   0.3930 
 20 C       -7.5300    -7.5310     2.7550 C.ar  1 <1>   0.1600 
 21 O      -10.1280    -8.0720     0.5010 O.3   1 <1>  -0.3630 
 22 N       -8.6820    -7.9880     2.2970 N.ar  1 <1>  -0.6200 
 23 C      -11.0160    -8.8960     1.2320 C.3   1 <1>   0.0400 
 24 H       -3.5570    -3.9260     2.1070 H     1 <1>   0.1500 
 25 H       -4.0600     0.3330     3.6280 H     1 <1>   0.1500 
 26 H       -3.7080     0.2740     0.9770 H     1 <1>   0.1500 
 27 H       -2.6110    -2.9520    -0.4300 H     1 <1>   0.0800 
 28 H       -3.1280    -1.3320    -0.8640 H     1 <1>   0.0800 
 29 H       -4.9000    -3.5430    -0.1480 H     1 <1>   0.4500 
 30 H       -3.6300    -4.1100    -2.0820 H     1 <1>   0.0800 
 31 H       -4.4720    -2.8510    -2.9400 H     1 <1>   0.0800 
 32 H       -6.0840    -1.5240    -1.7760 H     1 <1>   0.0800 
 33 H       -5.5580    -0.9670    -0.2090 H     1 <1>   0.0800 
 34 H       -5.3100    -5.4620    -2.6420 H     1 <1>   0.0800 
 35 H       -6.3400    -4.1570    -3.1160 H     1 <1>   0.0800 
 36 H       -7.8100    -1.7740    -0.0220 H     1 <1>   0.0800 
 37 H       -6.7650    -2.7880     0.9000 H     1 <1>   0.0800 
 38 H       -8.0350    -3.4190    -1.7870 H     1 <1>   0.0800 
 39 H       -8.3940    -4.1580    -0.2560 H     1 <1>   0.0800 
 40 H       -8.4810    -6.6440    -0.7510 H     1 <1>   0.1500 
 41 H       -5.7390    -6.4130     2.4880 H     1 <1>   0.1500 
 42 H       -7.2680    -7.8060     3.7640 H     1 <1>   0.1500 
 43 H      -11.8620    -9.1210     0.6090 H     1 <1>   0.0800 
 44 H      -11.3350    -8.3690     2.1140 H     1 <1>   0.0800 
 45 H      -10.5040    -9.8040     1.5030 H     1 <1>   0.0800 
@<TRIPOS>BOND
  1   1   2  1   
  2   1   3  1   
  3   2   4  2   
  4   2  24  1   
  5   3   5  2   
  6   3  25  1   
  7   4   5  1   
  8   4   6  1   
  9   5  26  1   
 10   6   7  1   
 11   6  27  1   
 12   6  28  1   
 13   7   8  1   
 14   7   9  1   
 15   7  29  1   
 16   8  10  1   
 17   8  30  1   
 18   8  31  1   
 19   9  11  1   
 20   9  32  1   
 21   9  33  1   
 22  10  12  1   
 23  10  34  1   
 24  10  35  1   
 25  11  13  1   
 26  11  36  1   
 27  11  37  1   
 28  12  13  1   
 29  12  14  am  
 30  13  38  1   
 31  13  39  1   
 32  14  15  2   
 33  14  16  1   
 34  16  17  ar  
 35  16  18  ar  
 36  17  19  ar  
 37  17  40  1   
 38  18  20  ar  
 39  18  41  1   
 40  19  21  1   
 41  19  22  ar  
 42  20  22  ar  
 43  20  42  1   
 44  21  23  1   
 45  23  43  1   
 46  23  44  1   
 47  23  45  1   
@<TRIPOS>SUBSTRUCTURE
  1 ****  14 GROUP 4 **** **** 0

# MOE 2024.06 (io_trps.svl 2023.06)
