@<TRIPOS>MOLECULE
NONAME
53 55 1 0 0 
SMALL
USER_CHARGES


@<TRIPOS>ATOM
  1 S        0.6360     0.3040    -1.0650 S.3   1 <1>  -0.0800 
  2 C       -0.7960     1.2560    -0.7810 C.2   1 <1>  -0.1400 
  3 C       -0.2500    -1.1230    -0.5830 C.2   1 <1>   0.2280 
  4 C       -1.7770     0.4370    -0.3630 C.2   1 <1>   0.0460 
  5 C       -0.7030     2.7500    -1.0390 C.3   1 <1>   0.0200 
  6 N       -1.4590    -0.9050    -0.2510 N.2   1 <1>  -0.5650 
  7 C       -3.1980     0.8110     0.0040 C.3   1 <1>  -0.0590 
  8 C        0.1690     3.4240     0.0300 C.3   1 <1>  -0.0990 
  9 C        0.3090     4.9280    -0.1500 C.2   1 <1>   0.5690 
 10 O       -0.2330     5.4550    -1.0900 O.2   1 <1>  -0.5700 
 11 N        1.0710     5.6660     0.7230 N.am  1 <1>  -0.6600 
 12 C        1.9720     5.1070     1.7760 C.3   1 <1>   0.1400 
 13 C        1.0650     7.1510     0.6400 C.3   1 <1>   0.1400 
 14 C        3.4500     5.0880     1.3260 C.3   1 <1>   0.3430 
 15 C        2.1050     7.6340    -0.3760 C.3   1 <1>  -0.1600 
 16 N        3.9530     6.3960     0.7740 N.4   1 <1>  -0.9590 
 17 C        3.3260     6.7270    -0.5450 C.3   1 <1>   0.3430 
 18 C        5.4390     6.3630     0.6350 C.3   1 <1>   0.5230 
 19 C        5.9920     7.7500     0.3660 C.2   1 <1>  -0.0400 
 20 O        7.1840     7.8160    -0.1880 O.3   1 <1>  -0.2800 
 21 C        5.5060     8.9940     0.5820 C.2   1 <1>  -0.1500 
 22 C        7.4930     9.0870    -0.3450 C.2   1 <1>  -0.0400 
 23 C        6.4930     9.8690     0.1130 C.2   1 <1>  -0.1500 
 24 C        8.8370     9.4230    -0.9720 C.3   1 <1>   0.0200 
 25 C        9.0670    10.9320    -1.0990 C.3   1 <1>  -0.2400 
 26 H        0.2780    -2.0600    -0.6010 H     1 <1>   0.1500 
 27 H       -1.6860     3.1850    -1.0270 H     1 <1>   0.0800 
 28 H       -0.2860     2.9150    -2.0180 H     1 <1>   0.0800 
 29 H       -3.3600     1.8670    -0.0930 H     1 <1>   0.0800 
 30 H       -3.3960     0.5190     1.0190 H     1 <1>   0.0800 
 31 H       -3.8820     0.2930    -0.6430 H     1 <1>   0.0800 
 32 H        1.1470     2.9830     0.0050 H     1 <1>   0.0800 
 33 H       -0.2690     3.2350     0.9930 H     1 <1>   0.0800 
 34 H        1.6740     4.1050     2.0320 H     1 <1>   0.0800 
 35 H        1.8770     5.6920     2.6740 H     1 <1>   0.0800 
 36 H        1.2710     7.5690     1.6100 H     1 <1>   0.0800 
 37 H        0.0870     7.4970     0.3460 H     1 <1>   0.0800 
 38 H        3.5670     4.3190     0.5800 H     1 <1>   0.0800 
 39 H        4.0500     4.8030     2.1750 H     1 <1>   0.0800 
 40 H        2.4140     8.6330    -0.1290 H     1 <1>   0.0800 
 41 H        1.6180     7.6970    -1.3340 H     1 <1>   0.0800 
 42 H        3.7350     7.1560     1.4270 H     1 <1>   0.4500 
 43 H        4.0370     7.2320    -1.1820 H     1 <1>   0.0800 
 44 H        3.0250     5.8200    -1.0440 H     1 <1>   0.0800 
 45 H        5.7130     5.7160    -0.1820 H     1 <1>   0.0800 
 46 H        5.8950     5.9810     1.5330 H     1 <1>   0.0800 
 47 H        4.5790     9.3200     1.0170 H     1 <1>   0.1500 
 48 H        6.4350    10.9440     0.1310 H     1 <1>   0.1500 
 49 H        8.8860     8.9720    -1.9480 H     1 <1>   0.0800 
 50 H        9.6170     8.9930    -0.3690 H     1 <1>   0.0800 
 51 H        8.3090    11.3760    -1.7180 H     1 <1>   0.0800 
 52 H       10.0270    11.1200    -1.5460 H     1 <1>   0.0800 
 53 H        9.0450    11.3960    -0.1290 H     1 <1>   0.0800 
@<TRIPOS>BOND
  1   1   2  1   
  2   1   3  1   
  3   2   4  2   
  4   2   5  1   
  5   3   6  2   
  6   3  26  1   
  7   4   6  1   
  8   4   7  1   
  9   5   8  1   
 10   5  27  1   
 11   5  28  1   
 12   7  29  1   
 13   7  30  1   
 14   7  31  1   
 15   8   9  1   
 16   8  32  1   
 17   8  33  1   
 18   9  10  2   
 19   9  11  am  
 20  11  12  1   
 21  11  13  1   
 22  12  14  1   
 23  12  34  1   
 24  12  35  1   
 25  13  15  1   
 26  13  36  1   
 27  13  37  1   
 28  14  16  1   
 29  14  38  1   
 30  14  39  1   
 31  15  17  1   
 32  15  40  1   
 33  15  41  1   
 34  16  17  1   
 35  16  18  1   
 36  16  42  1   
 37  17  43  1   
 38  17  44  1   
 39  18  19  1   
 40  18  45  1   
 41  18  46  1   
 42  19  20  1   
 43  19  21  2   
 44  20  22  1   
 45  21  23  1   
 46  21  47  1   
 47  22  23  2   
 48  22  24  1   
 49  23  48  1   
 50  24  25  1   
 51  24  49  1   
 52  24  50  1   
 53  25  51  1   
 54  25  52  1   
 55  25  53  1   
@<TRIPOS>SUBSTRUCTURE
  1 ****  14 GROUP 4 **** **** 0

# MOE 2024.06 (io_trps.svl 2023.06)
