@<TRIPOS>MOLECULE
NONAME
50 52 1 0 0 
SMALL
USER_CHARGES


@<TRIPOS>ATOM
  1 O       -1.7800     0.4180     2.4940 O.2   1 <1>  -0.5700 
  2 C       -1.8800     1.0020     1.4430 C.2   1 <1>   0.5690 
  3 N       -2.1510     0.3390     0.2780 N.am  1 <1>  -0.6600 
  4 C       -1.6920     2.5060     1.4430 C.3   1 <1>  -0.0990 
  5 C       -2.3330     0.9280    -1.0750 C.3   1 <1>   0.1400 
  6 C       -2.3060    -1.1360     0.2170 C.3   1 <1>   0.1400 
  7 C       -0.2990     2.8950     0.9350 C.3   1 <1>  -0.0160 
  8 C       -3.1080    -0.1390    -1.8440 C.3   1 <1>   0.2000 
  9 C       -2.5810    -1.4520    -1.2580 C.3   1 <1>  -0.0800 
 10 C       -0.2170     4.3980     0.7050 C.ar  1 <1>  -0.1440 
 11 O       -4.4520     0.0040    -1.5320 O.3   1 <1>  -0.6800 
 12 C       -3.4790    -2.6840    -1.4720 C.3   1 <1>   0.0210 
 13 C       -0.7270     4.9770    -0.4570 C.ar  1 <1>   0.0830 
 14 C        0.3700     5.1990     1.6710 C.ar  1 <1>  -0.1500 
 15 C       -2.8540    -3.9190    -0.8530 C.2   1 <1>   0.1080 
 16 O       -1.3050     4.1570    -1.3780 O.3   1 <1>  -0.3630 
 17 C       -0.6330     6.3560    -0.6320 C.ar  1 <1>  -0.1500 
 18 C        0.4590     6.5680     1.4900 C.ar  1 <1>  -0.1500 
 19 N       -1.7390    -4.4310    -1.2740 N.2   1 <1>  -0.7070 
 20 C       -3.3830    -4.6240     0.2230 C.2   1 <1>  -0.1500 
 21 C       -1.8700     4.6640    -2.5670 C.3   1 <1>   0.0400 
 22 C       -0.0420     7.1460     0.3380 C.ar  1 <1>  -0.1500 
 23 N       -1.5260    -5.4900    -0.4710 N.pl3 1 <1>   0.3000 
 24 C       -2.5070    -5.6260     0.4460 C.2   1 <1>  -0.3320 
 25 C       -2.5480    -6.7220     1.4950 C.3   1 <1>  -0.0600 
 26 H       -2.4520     2.9620     0.8390 H     1 <1>   0.0800 
 27 H       -1.8180     2.8740     2.4450 H     1 <1>   0.0800 
 28 H       -2.8670     1.8620    -1.0520 H     1 <1>   0.0800 
 29 H       -1.3680     1.0760    -1.5270 H     1 <1>   0.0800 
 30 H       -1.4130    -1.6300     0.5640 H     1 <1>   0.0800 
 31 H       -3.1350    -1.4290     0.8400 H     1 <1>   0.0800 
 32 H       -0.0800     2.3840     0.0150 H     1 <1>   0.0800 
 33 H        0.4400     2.5830     1.6530 H     1 <1>   0.0800 
 34 H       -2.9900    -0.0670    -2.9120 H     1 <1>   0.0800 
 35 H       -1.6290    -1.6550    -1.7180 H     1 <1>   0.0800 
 36 H       -4.5320     0.0900    -0.5600 H     1 <1>   0.4000 
 37 H       -3.6090    -2.8550    -2.5250 H     1 <1>   0.0800 
 38 H       -4.4490    -2.5270    -1.0380 H     1 <1>   0.0800 
 39 H        0.7620     4.7620     2.5720 H     1 <1>   0.1500 
 40 H       -1.0120     6.8360    -1.5140 H     1 <1>   0.1500 
 41 H        0.9170     7.1820     2.2450 H     1 <1>   0.1500 
 42 H       -4.2940    -4.3960     0.7460 H     1 <1>   0.1500 
 43 H       -2.2720     3.8390    -3.1260 H     1 <1>   0.0800 
 44 H       -1.1000     5.1520    -3.1380 H     1 <1>   0.0800 
 45 H       -2.6570     5.3520    -2.3140 H     1 <1>   0.0800 
 46 H        0.0280     8.2100     0.1980 H     1 <1>   0.1500 
 47 H       -0.7040    -6.0970    -0.5730 H     1 <1>   0.2700 
 48 H       -3.4270    -6.6160     2.1060 H     1 <1>   0.0800 
 49 H       -1.6820    -6.6620     2.1300 H     1 <1>   0.0800 
 50 H       -2.5730    -7.6880     1.0230 H     1 <1>   0.0800 
@<TRIPOS>BOND
  1   1   2  2   
  2   2   3  am  
  3   2   4  1   
  4   3   5  1   
  5   3   6  1   
  6   4   7  1   
  7   4  26  1   
  8   4  27  1   
  9   5   8  1   
 10   5  28  1   
 11   5  29  1   
 12   6   9  1   
 13   6  30  1   
 14   6  31  1   
 15   7  10  1   
 16   7  32  1   
 17   7  33  1   
 18   8   9  1   
 19   8  11  1   
 20   8  34  1   
 21   9  12  1   
 22   9  35  1   
 23  10  13  ar  
 24  10  14  ar  
 25  11  36  1   
 26  12  15  1   
 27  12  37  1   
 28  12  38  1   
 29  13  16  1   
 30  13  17  ar  
 31  14  18  ar  
 32  14  39  1   
 33  15  19  2   
 34  15  20  1   
 35  16  21  1   
 36  17  22  ar  
 37  17  40  1   
 38  18  22  ar  
 39  18  41  1   
 40  19  23  1   
 41  20  24  2   
 42  20  42  1   
 43  21  43  1   
 44  21  44  1   
 45  21  45  1   
 46  22  46  1   
 47  23  24  1   
 48  23  47  1   
 49  24  25  1   
 50  25  48  1   
 51  25  49  1   
 52  25  50  1   
@<TRIPOS>SUBSTRUCTURE
  1 ****   3 GROUP 4 **** **** 0

# MOE 2024.06 (io_trps.svl 2023.06)
