@<TRIPOS>MOLECULE
NONAME
46 48 1 0 0 
SMALL
USER_CHARGES


@<TRIPOS>ATOM
  1 CL       0.9500     1.0020    -0.9160 Cl    1 <1>  -0.1770 
  2 C        2.2880    -0.1110    -0.7080 C.ar  1 <1>   0.1770 
  3 C        3.4930     0.2840    -0.1150 C.ar  1 <1>   0.0860 
  4 C        2.0780    -1.4030    -1.1540 C.ar  1 <1>  -0.1500 
  5 C        3.7700     1.6290     0.3600 C.2   1 <1>   0.5440 
  6 C        4.4700    -0.7040     0.0190 C.ar  1 <1>  -0.1500 
  7 C        3.0740    -2.3470    -1.0120 C.ar  1 <1>  -0.1500 
  8 O        4.5290     1.8040     1.2970 O.2   1 <1>  -0.5700 
  9 N        3.2460     2.7370    -0.2420 N.am  1 <1>  -0.7300 
 10 C        4.2820    -2.0080    -0.4210 C.ar  1 <1>   0.1000 
 11 C        3.3520     4.1270     0.2650 C.3   1 <1>   0.2780 
 12 N        5.2620    -2.9820    -0.2800 N.pl3 1 <1>  -0.8380 
 13 C        4.6890     4.7380    -0.1340 C.2   1 <1>  -0.0380 
 14 C        5.1170    -3.9240     0.8590 C.3   1 <1>   0.2090 
 15 C        6.6730    -2.6470    -0.6090 C.3   1 <1>   0.2090 
 16 N        5.8270     4.1080     0.2900 N.pl3 1 <1>  -0.5500 
 17 C        4.8600     5.8600    -0.8680 C.2   1 <1>  -0.1360 
 18 C        5.8600    -5.2250     0.5410 C.3   1 <1>  -0.1600 
 19 C        7.4330    -3.9330    -0.9480 C.3   1 <1>  -0.1600 
 20 C        7.0670     4.5820    -0.0110 C.2   1 <1>   0.4390 
 21 C        6.1710     6.3230    -1.1570 C.2   1 <1>   0.7670 
 22 C        7.3320    -4.9660     0.1840 C.3   1 <1>  -0.1600 
 23 N        7.2700     5.6430    -0.7010 N.2   1 <1>  -0.6610 
 24 C        8.2360     3.7860     0.5110 C.3   1 <1>  -0.1790 
 25 O        6.3360     7.3360    -1.8180 O.2   1 <1>  -0.5700 
 26 H        1.1390    -1.6680    -1.6080 H     1 <1>   0.1500 
 27 H        5.4030    -0.4520     0.4880 H     1 <1>   0.1500 
 28 H        2.9330    -3.3560    -1.3570 H     1 <1>   0.1500 
 29 H        2.6190     2.6110    -1.0400 H     1 <1>   0.3700 
 30 H        3.2710     4.1200     1.3390 H     1 <1>   0.0800 
 31 H        2.5410     4.7140    -0.1300 H     1 <1>   0.0800 
 32 H        4.0740    -4.1310     1.0300 H     1 <1>   0.0800 
 33 H        5.5250    -3.4730     1.7480 H     1 <1>   0.0800 
 34 H        7.1320    -2.1620     0.2350 H     1 <1>   0.0800 
 35 H        6.6970    -1.9750    -1.4500 H     1 <1>   0.0800 
 36 H        5.7190     3.2240     0.8180 H     1 <1>   0.4000 
 37 H        4.0500     6.4440    -1.2570 H     1 <1>   0.1500 
 38 H        5.3670    -5.7060    -0.2860 H     1 <1>   0.0800 
 39 H        5.8020    -5.8840     1.3880 H     1 <1>   0.0800 
 40 H        8.4650    -3.6970    -1.1340 H     1 <1>   0.0800 
 41 H        7.0200    -4.3440    -1.8520 H     1 <1>   0.0800 
 42 H        7.8020    -5.8860    -0.1180 H     1 <1>   0.0800 
 43 H        7.8500    -4.5960     1.0530 H     1 <1>   0.0800 
 44 H        8.1960     3.7410     1.5830 H     1 <1>   0.0800 
 45 H        9.1600     4.2510     0.2180 H     1 <1>   0.0800 
 46 H        8.2070     2.7900     0.1100 H     1 <1>   0.0800 
@<TRIPOS>BOND
  1   1   2  1   
  2   2   3  ar  
  3   2   4  ar  
  4   3   5  1   
  5   3   6  ar  
  6   4   7  ar  
  7   4  26  1   
  8   5   8  2   
  9   5   9  am  
 10   6  10  ar  
 11   6  27  1   
 12   7  10  ar  
 13   7  28  1   
 14   9  11  1   
 15   9  29  1   
 16  10  12  1   
 17  11  13  1   
 18  11  30  1   
 19  11  31  1   
 20  12  14  1   
 21  12  15  1   
 22  13  16  1   
 23  13  17  2   
 24  14  18  1   
 25  14  32  1   
 26  14  33  1   
 27  15  19  1   
 28  15  34  1   
 29  15  35  1   
 30  16  20  1   
 31  16  36  1   
 32  17  21  1   
 33  17  37  1   
 34  18  22  1   
 35  18  38  1   
 36  18  39  1   
 37  19  22  1   
 38  19  40  1   
 39  19  41  1   
 40  20  23  2   
 41  20  24  1   
 42  21  23  1   
 43  21  25  2   
 44  22  42  1   
 45  22  43  1   
 46  24  44  1   
 47  24  45  1   
 48  24  46  1   
@<TRIPOS>SUBSTRUCTURE
  1 ****   5 GROUP 4 **** **** 0

# MOE 2024.06 (io_trps.svl 2023.06)
