@<TRIPOS>MOLECULE
NONAME
47 49 1 0 0 
SMALL
USER_CHARGES


@<TRIPOS>ATOM
  1 O        0.5440     0.1830     0.1170 O.3   1 <1>  -0.6800 
  2 C        1.7290    -0.0710    -0.5540 C.3   1 <1>   0.2000 
  3 C        2.3880    -1.3300     0.0050 C.3   1 <1>  -0.0800 
  4 C        2.7480     1.0440    -0.3070 C.3   1 <1>   0.2090 
  5 C        3.8820    -1.1080    -0.2310 C.3   1 <1>   0.2090 
  6 C        1.8610    -2.6390    -0.6070 C.3   1 <1>  -0.0170 
  7 N        4.0790     0.3660    -0.1840 N.pl3 1 <1>  -0.8380 
  8 C        2.7430    -3.8100    -0.2010 C.ar  1 <1>  -0.1440 
  9 C        5.2200     1.0720     0.0060 C.ar  1 <1>   0.7710 
 10 C        3.5350    -4.4790    -1.1130 C.ar  1 <1>  -0.1500 
 11 C        2.8040    -4.2560     1.1040 C.ar  1 <1>  -0.1500 
 12 N        5.1580     2.3920     0.0280 N.ar  1 <1>  -0.6200 
 13 N        6.3780     0.4120     0.1630 N.ar  1 <1>  -0.1790 
 14 C        4.3450    -5.5170    -0.6830 C.ar  1 <1>   0.1600 
 15 C        3.6500    -5.3030     1.4300 C.ar  1 <1>   0.1600 
 16 C        6.2760     3.0720     0.1960 C.ar  1 <1>   0.4100 
 17 C        7.5420     1.0680     0.3740 C.ar  1 <1>   0.2110 
 18 N        4.4310    -5.9330     0.5690 N.ar  1 <1>  -0.6200 
 19 N        6.1640     4.4250     0.1640 N.pl3 1 <1>  -0.8380 
 20 C        7.5210     2.4240     0.4030 C.ar  1 <1>  -0.1440 
 21 C        6.9140     5.2700    -0.8060 C.3   1 <1>   0.1290 
 22 C        5.0090     5.1200     0.8020 C.3   1 <1>   0.1290 
 23 C        8.8010     3.2080     0.6910 C.3   1 <1>  -0.0970 
 24 H       -0.1400    -0.4780    -0.1050 H     1 <1>   0.4000 
 25 H        1.5240    -0.1520    -1.6080 H     1 <1>   0.0800 
 26 H        2.2400    -1.3520     1.0720 H     1 <1>   0.0800 
 27 H        2.5220     1.5590     0.6120 H     1 <1>   0.0800 
 28 H        2.7510     1.7460    -1.1240 H     1 <1>   0.0800 
 29 H        4.1590    -1.4710    -1.2080 H     1 <1>   0.0800 
 30 H        4.4570    -1.6160     0.5250 H     1 <1>   0.0800 
 31 H        1.8390    -2.5600    -1.6800 H     1 <1>   0.0800 
 32 H        0.8540    -2.8180    -0.2720 H     1 <1>   0.0800 
 33 H        3.5330    -4.2110    -2.1540 H     1 <1>   0.1500 
 34 H        2.2040    -3.8030     1.8720 H     1 <1>   0.1500 
 35 H        6.3150    -0.5980     0.1290 H     1 <1>   0.4570 
 36 H        4.9550    -6.0320    -1.4060 H     1 <1>   0.1500 
 37 H        3.6860    -5.6400     2.4530 H     1 <1>   0.1500 
 38 H        8.4430     0.4950     0.5210 H     1 <1>   0.1500 
 39 H        6.2250     5.8530    -1.3930 H     1 <1>   0.0800 
 40 H        7.4890     4.6560    -1.4760 H     1 <1>   0.0800 
 41 H        7.5730     5.9360    -0.2770 H     1 <1>   0.0800 
 42 H        5.3430     6.0260     1.2780 H     1 <1>   0.0800 
 43 H        4.5570     4.4880     1.5470 H     1 <1>   0.0800 
 44 H        4.2700     5.3600     0.0580 H     1 <1>   0.0800 
 45 H        9.5670     2.5720     1.0980 H     1 <1>   0.0800 
 46 H        8.6020     3.9880     1.4060 H     1 <1>   0.0800 
 47 H        9.1790     3.6560    -0.2100 H     1 <1>   0.0800 
@<TRIPOS>BOND
  1   1   2  1   
  2   1  24  1   
  3   2   3  1   
  4   2   4  1   
  5   2  25  1   
  6   3   5  1   
  7   3   6  1   
  8   3  26  1   
  9   4   7  1   
 10   4  27  1   
 11   4  28  1   
 12   5   7  1   
 13   5  29  1   
 14   5  30  1   
 15   6   8  1   
 16   6  31  1   
 17   6  32  1   
 18   7   9  1   
 19   8  10  ar  
 20   8  11  ar  
 21   9  12  ar  
 22   9  13  ar  
 23  10  14  ar  
 24  10  33  1   
 25  11  15  ar  
 26  11  34  1   
 27  12  16  ar  
 28  13  17  ar  
 29  13  35  1   
 30  14  18  ar  
 31  14  36  1   
 32  15  18  ar  
 33  15  37  1   
 34  16  19  1   
 35  16  20  ar  
 36  17  20  ar  
 37  17  38  1   
 38  19  21  1   
 39  19  22  1   
 40  20  23  1   
 41  21  39  1   
 42  21  40  1   
 43  21  41  1   
 44  22  42  1   
 45  22  43  1   
 46  22  44  1   
 47  23  45  1   
 48  23  46  1   
 49  23  47  1   
@<TRIPOS>SUBSTRUCTURE
  1 ****   7 GROUP 4 **** **** 0

# MOE 2024.06 (io_trps.svl 2023.06)
