@<TRIPOS>MOLECULE
NONAME
50 52 1 0 0 
SMALL
USER_CHARGES


@<TRIPOS>ATOM
  1 CL      -2.1670     2.5540    -2.0510 Cl    1 <1>  -0.1770 
  2 C       -1.3080     2.9720    -0.5860 C.ar  1 <1>   0.1770 
  3 C       -1.7420     2.5030     0.6480 C.ar  1 <1>  -0.1440 
  4 C       -0.1950     3.7850    -0.7000 C.ar  1 <1>  -0.1500 
  5 C       -1.0290     2.8730     1.7800 C.ar  1 <1>  -0.1500 
  6 C       -2.9680     1.6090     0.7890 C.3   1 <1>  -0.0160 
  7 C        0.5060     4.1450     0.4380 C.ar  1 <1>  -0.1500 
  8 C        0.0870     3.6870     1.6760 C.ar  1 <1>  -0.1500 
  9 C       -4.2530     2.4510     0.7920 C.3   1 <1>  -0.0990 
 10 C       -5.5230     1.6210     0.9240 C.2   1 <1>   0.5690 
 11 O       -5.4390     0.5200     1.4170 O.2   1 <1>  -0.5700 
 12 N       -6.7280     2.1240     0.5020 N.am  1 <1>  -0.6600 
 13 C       -6.9260     3.5240     0.0190 C.3   1 <1>   0.1400 
 14 C       -7.9360     1.2480     0.5120 C.3   1 <1>   0.1400 
 15 C       -8.3390     3.9950     0.3640 C.3   1 <1>  -0.1600 
 16 C       -8.9320     1.7010    -0.5580 C.3   1 <1>  -0.1600 
 17 C       -9.4290     3.1500    -0.3440 C.3   1 <1>   0.2800 
 18 O       -9.6350     3.6470    -1.6400 O.3   1 <1>  -0.5600 
 19 C      -10.7720     3.1410     0.4260 C.3   1 <1>  -0.1600 
 20 C      -10.2960     4.8680    -1.8290 C.3   1 <1>   0.1200 
 21 C      -11.5930     4.4260     0.2960 C.3   1 <1>   0.2800 
 22 C      -11.6760     4.8360    -1.1720 C.3   1 <1>  -0.1600 
 23 O      -10.9650     5.4290     0.9910 O.3   1 <1>  -0.6800 
 24 C      -12.9790     4.2790     0.9190 C.3   1 <1>  -0.2400 
 25 H        0.1150     4.1300    -1.6690 H     1 <1>   0.1500 
 26 H       -1.3390     2.5270     2.7520 H     1 <1>   0.1500 
 27 H       -2.9030     1.0480     1.7060 H     1 <1>   0.0800 
 28 H       -3.0010     0.8950    -0.0160 H     1 <1>   0.0800 
 29 H        1.3740     4.7770     0.3610 H     1 <1>   0.1500 
 30 H        0.6310     3.9650     2.5620 H     1 <1>   0.1500 
 31 H       -4.2900     3.0060    -0.1250 H     1 <1>   0.0800 
 32 H       -4.2190     3.1460     1.6100 H     1 <1>   0.0800 
 33 H       -6.7810     3.5570    -1.0490 H     1 <1>   0.0800 
 34 H       -6.2140     4.1830     0.4840 H     1 <1>   0.0800 
 35 H       -8.3910     1.2860     1.4860 H     1 <1>   0.0800 
 36 H       -7.6440     0.2290     0.3180 H     1 <1>   0.0800 
 37 H       -8.4200     5.0360     0.1240 H     1 <1>   0.0800 
 38 H       -8.4520     3.9100     1.4300 H     1 <1>   0.0800 
 39 H       -9.7540     1.0100    -0.5810 H     1 <1>   0.0800 
 40 H       -8.4350     1.6250    -1.5090 H     1 <1>   0.0800 
 41 H      -10.6080     2.9140     1.4640 H     1 <1>   0.0800 
 42 H      -11.3780     2.3470     0.0320 H     1 <1>   0.0800 
 43 H      -10.3990     5.0140    -2.8910 H     1 <1>   0.0800 
 44 H       -9.6930     5.6680    -1.4410 H     1 <1>   0.0800 
 45 H      -12.2840     4.1280    -1.7070 H     1 <1>   0.0800 
 46 H      -12.1500     5.7980    -1.2600 H     1 <1>   0.0800 
 47 H      -10.0620     5.5350     0.6470 H     1 <1>   0.4000 
 48 H      -13.5360     3.5110     0.4150 H     1 <1>   0.0800 
 49 H      -13.5240     5.2030     0.8380 H     1 <1>   0.0800 
 50 H      -12.8940     4.0130     1.9580 H     1 <1>   0.0800 
@<TRIPOS>BOND
  1   1   2  1   
  2   2   3  ar  
  3   2   4  ar  
  4   3   5  ar  
  5   3   6  1   
  6   4   7  ar  
  7   4  25  1   
  8   5   8  ar  
  9   5  26  1   
 10   6   9  1   
 11   6  27  1   
 12   6  28  1   
 13   7   8  ar  
 14   7  29  1   
 15   8  30  1   
 16   9  10  1   
 17   9  31  1   
 18   9  32  1   
 19  10  11  2   
 20  10  12  am  
 21  12  13  1   
 22  12  14  1   
 23  13  15  1   
 24  13  33  1   
 25  13  34  1   
 26  14  16  1   
 27  14  35  1   
 28  14  36  1   
 29  15  17  1   
 30  15  37  1   
 31  15  38  1   
 32  16  17  1   
 33  16  39  1   
 34  16  40  1   
 35  17  18  1   
 36  17  19  1   
 37  18  20  1   
 38  19  21  1   
 39  19  41  1   
 40  19  42  1   
 41  20  22  1   
 42  20  43  1   
 43  20  44  1   
 44  21  22  1   
 45  21  23  1   
 46  21  24  1   
 47  22  45  1   
 48  22  46  1   
 49  23  47  1   
 50  24  48  1   
 51  24  49  1   
 52  24  50  1   
@<TRIPOS>SUBSTRUCTURE
  1 ****  13 GROUP 4 **** **** 0

# MOE 2024.06 (io_trps.svl 2023.06)
