@<TRIPOS>MOLECULE
NONAME
46 47 1 0 0 
SMALL
USER_CHARGES


@<TRIPOS>ATOM
  1 O        0.6170    -0.1140    -0.9850 O.2   1 <1>  -0.5700 
  2 C        1.3390    -0.5180    -0.0950 C.2   1 <1>   0.7150 
  3 N        1.9790     0.3850     0.6970 N.am  1 <1>  -0.7300 
  4 C        1.5720    -1.9140     0.1490 C.2   1 <1>  -0.2370 
  5 C        1.9200     1.8550     0.5700 C.3   1 <1>   0.1400 
  6 N        0.6300    -2.9250     0.1250 N.pl3 1 <1>   0.0480 
  7 C        2.7840    -2.4820     0.4560 C.2   1 <1>  -0.1500 
  8 C        3.2860     2.3690     0.1250 C.3   1 <1>  -0.1600 
  9 C        1.2780    -4.0850     0.4160 C.2   1 <1>  -0.3020 
 10 C       -0.8490    -2.8980    -0.0950 C.3   1 <1>   0.1760 
 11 C        2.5970    -3.8470     0.6230 C.2   1 <1>  -0.1500 
 12 C        3.2620     3.8860    -0.0340 C.3   1 <1>   0.2090 
 13 C       -1.1930    -2.7600    -1.5820 C.3   1 <1>  -0.2400 
 14 C       -1.5550    -1.8460     0.7700 C.3   1 <1>  -0.2400 
 15 N        4.6110     4.3470    -0.4180 N.pl3 1 <1>  -0.8690 
 16 C        4.9420     5.6840    -0.4300 C.ar  1 <1>   0.4100 
 17 N        4.0740     6.5390     0.0920 N.ar  1 <1>  -0.6200 
 18 C        6.1560     6.0750    -0.9880 C.ar  1 <1>  -0.1500 
 19 C        4.4260     7.8140     0.0550 C.ar  1 <1>   0.1600 
 20 C        6.5070     7.4040    -1.0200 C.ar  1 <1>  -0.1500 
 21 C        5.6080     8.3020    -0.4790 C.ar  1 <1>  -0.1440 
 22 C        5.9290     9.7870    -0.4780 C.3   1 <1>  -0.0970 
 23 H        2.5690     0.0110     1.4390 H     1 <1>   0.3700 
 24 H        1.6490     2.2830     1.5210 H     1 <1>   0.0800 
 25 H        1.1690     2.1330    -0.1520 H     1 <1>   0.0800 
 26 H        3.7310    -1.9790     0.5490 H     1 <1>   0.1500 
 27 H        3.5400     1.9190    -0.8180 H     1 <1>   0.0800 
 28 H        4.0250     2.1080     0.8620 H     1 <1>   0.0800 
 29 H        0.7710    -5.0320     0.4640 H     1 <1>   0.1500 
 30 H       -1.2200    -3.8560     0.2240 H     1 <1>   0.0800 
 31 H        3.3650    -4.5610     0.8670 H     1 <1>   0.1500 
 32 H        2.9780     4.3480     0.8980 H     1 <1>   0.0800 
 33 H        2.5550     4.1780    -0.7920 H     1 <1>   0.0800 
 34 H       -0.8970    -1.8020    -1.9650 H     1 <1>   0.0800 
 35 H       -2.2540    -2.8630    -1.7230 H     1 <1>   0.0800 
 36 H       -0.7000    -3.5300    -2.1470 H     1 <1>   0.0800 
 37 H       -1.3510    -0.8500     0.4240 H     1 <1>   0.0800 
 38 H       -1.2430    -1.9380     1.7950 H     1 <1>   0.0800 
 39 H       -2.6180    -1.9970     0.7240 H     1 <1>   0.0800 
 40 H        5.0470     3.7860    -1.1500 H     1 <1>   0.4000 
 41 H        6.8130     5.3280    -1.3870 H     1 <1>   0.1500 
 42 H        3.7250     8.5110     0.4790 H     1 <1>   0.1500 
 43 H        7.4400     7.7280    -1.4460 H     1 <1>   0.1500 
 44 H        5.1320    10.3530    -0.0310 H     1 <1>   0.0800 
 45 H        6.0700    10.1310    -1.4870 H     1 <1>   0.0800 
 46 H        6.8310     9.9650     0.0800 H     1 <1>   0.0800 
@<TRIPOS>BOND
  1   1   2  2   
  2   2   3  am  
  3   2   4  1   
  4   3   5  1   
  5   3  23  1   
  6   4   6  1   
  7   4   7  2   
  8   5   8  1   
  9   5  24  1   
 10   5  25  1   
 11   6   9  1   
 12   6  10  1   
 13   7  11  1   
 14   7  26  1   
 15   8  12  1   
 16   8  27  1   
 17   8  28  1   
 18   9  11  2   
 19   9  29  1   
 20  10  13  1   
 21  10  14  1   
 22  10  30  1   
 23  11  31  1   
 24  12  15  1   
 25  12  32  1   
 26  12  33  1   
 27  13  34  1   
 28  13  35  1   
 29  13  36  1   
 30  14  37  1   
 31  14  38  1   
 32  14  39  1   
 33  15  16  1   
 34  15  40  1   
 35  16  17  ar  
 36  16  18  ar  
 37  17  19  ar  
 38  18  20  ar  
 39  18  41  1   
 40  19  21  ar  
 41  19  42  1   
 42  20  21  ar  
 43  20  43  1   
 44  21  22  1   
 45  22  44  1   
 46  22  45  1   
 47  22  46  1   
@<TRIPOS>SUBSTRUCTURE
  1 ****   8 GROUP 4 **** **** 0

# MOE 2024.06 (io_trps.svl 2023.06)
