@<TRIPOS>MOLECULE
NONAME
55 57 1 0 0 
SMALL
USER_CHARGES


@<TRIPOS>ATOM
  1 O       -1.1860     0.9180    -1.2030 O.2   1 <1>  -0.5700 
  2 C       -1.0280     2.1030    -1.0210 C.2   1 <1>   0.5690 
  3 N       -1.7940     2.8370    -0.1520 N.am  1 <1>  -0.5090 
  4 C        0.0650     2.8050    -1.8270 C.3   1 <1>   0.1810 
  5 C       -1.7010     4.3310    -0.1010 C.3   1 <1>   0.3640 
  6 C       -2.8010     2.2240     0.7480 C.3   1 <1>   0.0490 
  7 O        0.4550     4.0260    -1.2510 O.3   1 <1>  -0.5600 
  8 C       -3.0610     4.9590    -0.4110 C.ar  1 <1>  -0.1440 
  9 C       -0.6230     4.9210    -1.0400 C.3   1 <1>   0.2610 
 10 C       -2.6550     2.4220     2.2250 C.3   1 <1>  -0.2000 
 11 C       -2.4140     1.0750     1.6240 C.3   1 <1>  -0.2000 
 12 C       -3.8390     4.5140    -1.4740 C.ar  1 <1>  -0.1500 
 13 C       -3.5320     6.0000     0.3760 C.ar  1 <1>  -0.1500 
 14 C       -0.1610     6.2760    -0.4880 C.2   1 <1>   0.5690 
 15 C       -5.0670     5.0940    -1.7420 C.ar  1 <1>  -0.1500 
 16 C       -4.7580     6.5810     0.1100 C.ar  1 <1>  -0.1500 
 17 O       -0.5710     7.2600    -1.0630 O.2   1 <1>  -0.5700 
 18 N        0.6490     6.3950     0.6230 N.am  1 <1>  -0.6600 
 19 C       -5.5340     6.1350    -0.9460 C.ar  1 <1>   0.0820 
 20 C        1.0450     7.7530     1.1360 C.3   1 <1>   0.1400 
 21 C        1.3470     5.2560     1.2920 C.3   1 <1>   0.0600 
 22 O       -6.7240     6.7580    -1.1370 O.3   1 <1>  -0.3630 
 23 C        2.4580     8.2350     0.7100 C.3   1 <1>   0.2800 
 24 C       -7.5710     6.4060    -2.2080 C.3   1 <1>   0.0400 
 25 O        3.4190     7.4800     1.3480 O.3   1 <1>  -0.6800 
 26 C        2.7120     8.0990    -0.7920 C.3   1 <1>  -0.2400 
 27 C        2.6900     9.6770     1.1590 C.3   1 <1>  -0.2400 
 28 H       -0.2820     2.9910    -2.8270 H     1 <1>   0.0800 
 29 H        0.9330     2.1730    -1.8720 H     1 <1>   0.0800 
 30 H       -1.4390     4.5960     0.9070 H     1 <1>   0.0800 
 31 H       -3.7920     2.2280     0.3240 H     1 <1>   0.1000 
 32 H       -1.0660     5.1060    -2.0030 H     1 <1>   0.0800 
 33 H       -1.8050     2.9520     2.6170 H     1 <1>   0.1000 
 34 H       -3.5420     2.5630     2.8170 H     1 <1>   0.1000 
 35 H       -3.1370     0.2970     1.7930 H     1 <1>   0.1000 
 36 H       -1.4090     0.6960     1.5560 H     1 <1>   0.1000 
 37 H       -3.4960     3.7070    -2.0980 H     1 <1>   0.1500 
 38 H       -2.9470     6.3720     1.2000 H     1 <1>   0.1500 
 39 H       -5.6420     4.7240    -2.5680 H     1 <1>   0.1500 
 40 H       -5.1210     7.3890     0.7190 H     1 <1>   0.1500 
 41 H        0.3300     8.4770     0.7880 H     1 <1>   0.0800 
 42 H        0.9860     7.7570     2.2100 H     1 <1>   0.0800 
 43 H        1.5470     5.4980     2.3210 H     1 <1>   0.0800 
 44 H        2.2840     5.0730     0.7950 H     1 <1>   0.0800 
 45 H        0.7580     4.3590     1.2610 H     1 <1>   0.0800 
 46 H       -8.4400     7.0380    -2.1680 H     1 <1>   0.0800 
 47 H       -7.8620     5.3770    -2.0990 H     1 <1>   0.0800 
 48 H       -7.0460     6.5640    -3.1340 H     1 <1>   0.0800 
 49 H        4.2970     7.7370     1.0150 H     1 <1>   0.4000 
 50 H        1.9560     8.6360    -1.3370 H     1 <1>   0.0800 
 51 H        2.6630     7.0670    -1.0910 H     1 <1>   0.0800 
 52 H        3.6720     8.4980    -1.0630 H     1 <1>   0.0800 
 53 H        1.9790    10.3280     0.6820 H     1 <1>   0.0800 
 54 H        3.6780    10.0090     0.8930 H     1 <1>   0.0800 
 55 H        2.5640     9.7620     2.2240 H     1 <1>   0.0800 
@<TRIPOS>BOND
  1   1   2  2   
  2   2   3  am  
  3   2   4  1   
  4   3   5  1   
  5   3   6  1   
  6   4   7  1   
  7   4  28  1   
  8   4  29  1   
  9   5   8  1   
 10   5   9  1   
 11   5  30  1   
 12   6  10  1   
 13   6  11  1   
 14   6  31  1   
 15   7   9  1   
 16   8  12  ar  
 17   8  13  ar  
 18   9  14  1   
 19   9  32  1   
 20  10  11  1   
 21  10  33  1   
 22  10  34  1   
 23  11  35  1   
 24  11  36  1   
 25  12  15  ar  
 26  12  37  1   
 27  13  16  ar  
 28  13  38  1   
 29  14  17  2   
 30  14  18  am  
 31  15  19  ar  
 32  15  39  1   
 33  16  19  ar  
 34  16  40  1   
 35  18  20  1   
 36  18  21  1   
 37  19  22  1   
 38  20  23  1   
 39  20  41  1   
 40  20  42  1   
 41  21  43  1   
 42  21  44  1   
 43  21  45  1   
 44  22  24  1   
 45  23  25  1   
 46  23  26  1   
 47  23  27  1   
 48  24  46  1   
 49  24  47  1   
 50  24  48  1   
 51  25  49  1   
 52  26  50  1   
 53  26  51  1   
 54  26  52  1   
 55  27  53  1   
 56  27  54  1   
 57  27  55  1   
@<TRIPOS>SUBSTRUCTURE
  1 ****   5 GROUP 4 **** **** 0

# MOE 2024.06 (io_trps.svl 2023.06)
