@<TRIPOS>MOLECULE
NONAME
48 51 1 0 0 
SMALL
USER_CHARGES


@<TRIPOS>ATOM
  1 S        0.1060    -1.6150    -0.9850 S.3   1 <1>  -0.0800 
  2 C        0.1700    -0.8600     0.6040 C.2   1 <1>   0.4620 
  3 C       -1.5040    -2.1930    -0.6240 C.ar  1 <1>   0.0400 
  4 N       -0.8770    -1.0190     1.3200 N.2   1 <1>  -0.5650 
  5 N        1.2870    -0.1830     0.9500 N.pl3 1 <1>  -0.8840 
  6 C       -1.8340    -1.7650     0.6500 C.ar  1 <1>   0.2270 
  7 C       -2.3330    -2.9490    -1.4230 C.ar  1 <1>  -0.1500 
  8 C       -3.0900    -2.1170     1.1450 C.ar  1 <1>  -0.1440 
  9 C       -3.5810    -3.3220    -0.9270 C.ar  1 <1>   0.0860 
 10 C       -3.9390    -2.8780     0.3550 C.ar  1 <1>  -0.1500 
 11 C       -3.5140    -1.6670     2.5340 C.3   1 <1>  -0.0970 
 12 C       -4.4660    -4.1570    -1.7120 C.2   1 <1>   0.5440 
 13 O       -4.9210    -3.7120    -2.7490 O.2   1 <1>  -0.5700 
 14 N       -4.8180    -5.4380    -1.3300 N.am  1 <1>  -0.6600 
 15 C       -4.1710    -6.1430    -0.1600 C.3   1 <1>   0.3640 
 16 C       -5.9650    -6.1140    -2.0110 C.3   1 <1>   0.1400 
 17 C       -2.6470    -6.0960    -0.3240 C.ar  1 <1>  -0.1430 
 18 C       -4.5980    -7.6300     0.0630 C.3   1 <1>   0.2000 
 19 C       -5.9180    -7.6340    -1.8700 C.3   1 <1>   0.1200 
 20 C       -2.0440    -6.5160    -1.5030 C.ar  1 <1>  -0.1500 
 21 C       -1.8460    -5.6130     0.7030 C.ar  1 <1>  -0.1500 
 22 O       -5.8270    -7.9600    -0.5230 O.3   1 <1>  -0.5600 
 23 C       -4.7290    -7.9970     1.5510 C.3   1 <1>   0.1200 
 24 C       -0.6690    -6.4560    -1.6510 C.ar  1 <1>  -0.1500 
 25 C       -0.4720    -5.5480     0.5550 C.ar  1 <1>  -0.1500 
 26 O       -3.5970    -7.6390     2.2770 O.3   1 <1>  -0.6800 
 27 C        0.1180    -5.9710    -0.6220 C.ar  1 <1>  -0.1500 
 28 H        2.0810    -0.0690     0.3200 H     1 <1>   0.4000 
 29 H        1.3400     0.2810     1.8570 H     1 <1>   0.4000 
 30 H       -2.0240    -3.2590    -2.4050 H     1 <1>   0.1500 
 31 H       -4.9120    -3.1490     0.7260 H     1 <1>   0.1500 
 32 H       -4.5020    -2.0130     2.7730 H     1 <1>   0.0800 
 33 H       -3.5020    -0.5930     2.5860 H     1 <1>   0.0800 
 34 H       -2.8260    -2.0520     3.2660 H     1 <1>   0.0800 
 35 H       -4.4360    -5.5970     0.7280 H     1 <1>   0.0800 
 36 H       -6.8850    -5.7500    -1.5870 H     1 <1>   0.0800 
 37 H       -5.9670    -5.8660    -3.0580 H     1 <1>   0.0800 
 38 H       -3.8640    -8.2800    -0.3800 H     1 <1>   0.0800 
 39 H       -5.0770    -8.0490    -2.3990 H     1 <1>   0.0800 
 40 H       -6.8230    -8.0680    -2.2560 H     1 <1>   0.0800 
 41 H       -2.6470    -6.8820    -2.3150 H     1 <1>   0.1500 
 42 H       -2.2890    -5.2760     1.6260 H     1 <1>   0.1500 
 43 H       -4.8750    -9.0570     1.6610 H     1 <1>   0.0800 
 44 H       -5.5650    -7.4760     1.9840 H     1 <1>   0.0800 
 45 H       -0.2120    -6.7820    -2.5690 H     1 <1>   0.1500 
 46 H        0.1360    -5.1640     1.3560 H     1 <1>   0.1500 
 47 H       -2.7960    -8.0830     1.9280 H     1 <1>   0.4000 
 48 H        1.1860    -5.9190    -0.7380 H     1 <1>   0.1500 
@<TRIPOS>BOND
  1   1   2  1   
  2   1   3  1   
  3   2   4  2   
  4   2   5  1   
  5   3   6  ar  
  6   3   7  ar  
  7   4   6  1   
  8   5  28  1   
  9   5  29  1   
 10   6   8  ar  
 11   7   9  ar  
 12   7  30  1   
 13   8  10  ar  
 14   8  11  1   
 15   9  10  ar  
 16   9  12  1   
 17  10  31  1   
 18  11  32  1   
 19  11  33  1   
 20  11  34  1   
 21  12  13  2   
 22  12  14  am  
 23  14  15  1   
 24  14  16  1   
 25  15  17  1   
 26  15  18  1   
 27  15  35  1   
 28  16  19  1   
 29  16  36  1   
 30  16  37  1   
 31  17  20  ar  
 32  17  21  ar  
 33  18  22  1   
 34  18  23  1   
 35  18  38  1   
 36  19  22  1   
 37  19  39  1   
 38  19  40  1   
 39  20  24  ar  
 40  20  41  1   
 41  21  25  ar  
 42  21  42  1   
 43  23  26  1   
 44  23  43  1   
 45  23  44  1   
 46  24  27  ar  
 47  24  45  1   
 48  25  27  ar  
 49  25  46  1   
 50  26  47  1   
 51  27  48  1   
@<TRIPOS>SUBSTRUCTURE
  1 ****   9 GROUP 4 **** **** 0

# MOE 2024.06 (io_trps.svl 2023.06)
