@<TRIPOS>MOLECULE
NONAME
46 48 1 0 0 
SMALL
USER_CHARGES


@<TRIPOS>ATOM
  1 S        0.3320     0.3240    -0.6100 S.o2  1 <1>   1.3330 
  2 O        0.2600    -0.1650     0.7490 O.2   1 <1>  -0.6500 
  3 O        0.1570    -0.5970    -1.7100 O.2   1 <1>  -0.6500 
  4 N       -0.8060     1.5740    -0.7700 N.am  1 <1>  -0.8490 
  5 C        1.8940     1.1680    -0.8400 C.3   1 <1>  -0.0550 
  6 C       -0.9720     2.3740     0.4480 C.3   1 <1>   0.1160 
  7 C       -2.1080     1.0810    -1.2270 C.3   1 <1>   0.1160 
  8 C        3.1030     0.2110    -0.8720 C.3   1 <1>  -0.0800 
  9 C        4.4460     0.8800    -1.1290 C.3   1 <1>   0.2200 
 10 C        3.3500    -0.5610     0.4320 C.3   1 <1>   0.1200 
 11 N        4.5750     2.1300    -0.3420 N.am  1 <1>  -0.7300 
 12 C        5.3860    -0.1610    -0.5400 C.3   1 <1>   0.1200 
 13 O        4.7380    -0.6120     0.6100 O.3   1 <1>  -0.5600 
 14 C        4.4040     3.3950    -0.8250 C.2   1 <1>   0.5440 
 15 O        4.0410     3.5120    -1.9780 O.2   1 <1>  -0.5700 
 16 C        4.6090     4.5650     0.0150 C.ar  1 <1>   0.0860 
 17 C        4.1330     5.8070    -0.3540 C.ar  1 <1>  -0.1500 
 18 C        5.3020     4.4850     1.2440 C.ar  1 <1>  -0.1500 
 19 C        4.2990     6.9560     0.4400 C.ar  1 <1>   0.0000 
 20 C        5.4750     5.5880     2.0380 C.ar  1 <1>  -0.1500 
 21 C        4.9810     6.8480     1.6710 C.ar  1 <1>   0.3100 
 22 C        3.8150     8.2220     0.0680 C.ar  1 <1>  -0.1500 
 23 N        5.1760     7.9010     2.5020 N.ar  1 <1>  -0.6200 
 24 C        4.0270     9.2670     0.9160 C.ar  1 <1>  -0.1500 
 25 C        4.7120     9.0520     2.1210 C.ar  1 <1>   0.1600 
 26 H        1.8640     1.7070    -1.7670 H     1 <1>   0.0800 
 27 H        2.0210     1.8840    -0.0530 H     1 <1>   0.0800 
 28 H       -1.6380     3.1990     0.2590 H     1 <1>   0.0800 
 29 H       -0.0230     2.7700     0.7650 H     1 <1>   0.0800 
 30 H       -1.3780     1.7690     1.2430 H     1 <1>   0.0800 
 31 H       -2.7990     1.8980    -1.3380 H     1 <1>   0.0800 
 32 H       -2.5070     0.3700    -0.5230 H     1 <1>   0.0800 
 33 H       -2.0030     0.5980    -2.1850 H     1 <1>   0.0800 
 34 H        2.9370    -0.5130    -1.6510 H     1 <1>   0.0800 
 35 H        4.6330     1.0620    -2.1750 H     1 <1>   0.0800 
 36 H        2.9660    -1.5660     0.3810 H     1 <1>   0.0800 
 37 H        2.9310    -0.0570     1.2860 H     1 <1>   0.0800 
 38 H        4.7730     1.9650     0.6480 H     1 <1>   0.3700 
 39 H        6.3500     0.2420    -0.2830 H     1 <1>   0.0800 
 40 H        5.5010    -0.9980    -1.2070 H     1 <1>   0.0800 
 41 H        3.6090     5.9120    -1.2890 H     1 <1>   0.1500 
 42 H        5.7070     3.5420     1.5620 H     1 <1>   0.1500 
 43 H        6.0020     5.5220     2.9730 H     1 <1>   0.1500 
 44 H        3.2950     8.3450    -0.8660 H     1 <1>   0.1500 
 45 H        3.6800    10.2570     0.6850 H     1 <1>   0.1500 
 46 H        4.8620     9.8970     2.7710 H     1 <1>   0.1500 
@<TRIPOS>BOND
  1   1   2  2   
  2   1   3  2   
  3   1   4  am  
  4   1   5  1   
  5   4   6  1   
  6   4   7  1   
  7   5   8  1   
  8   5  26  1   
  9   5  27  1   
 10   6  28  1   
 11   6  29  1   
 12   6  30  1   
 13   7  31  1   
 14   7  32  1   
 15   7  33  1   
 16   8   9  1   
 17   8  10  1   
 18   8  34  1   
 19   9  11  1   
 20   9  12  1   
 21   9  35  1   
 22  10  13  1   
 23  10  36  1   
 24  10  37  1   
 25  11  14  am  
 26  11  38  1   
 27  12  13  1   
 28  12  39  1   
 29  12  40  1   
 30  14  15  2   
 31  14  16  1   
 32  16  17  ar  
 33  16  18  ar  
 34  17  19  ar  
 35  17  41  1   
 36  18  20  ar  
 37  18  42  1   
 38  19  21  ar  
 39  19  22  ar  
 40  20  21  ar  
 41  20  43  1   
 42  21  23  ar  
 43  22  24  ar  
 44  22  44  1   
 45  23  25  ar  
 46  24  25  ar  
 47  24  45  1   
 48  25  46  1   
@<TRIPOS>SUBSTRUCTURE
  1 ****  14 GROUP 4 **** **** 0

# MOE 2024.06 (io_trps.svl 2023.06)
