@<TRIPOS>MOLECULE
NONAME
34 34 1 0 0 
SMALL
USER_CHARGES


@<TRIPOS>ATOM
  1 O       -0.1870     0.5110     0.6050 O.2   1 <1>  -0.5700 
  2 C        0.7930    -0.1480     0.3370 C.2   1 <1>   0.5690 
  3 N        2.0360     0.3950     0.1730 N.am  1 <1>  -0.4940 
  4 C        0.6690    -1.6880     0.1650 C.3   1 <1>   0.3410 
  5 C        2.4780     1.7190     0.2410 C.2   1 <1>   0.2040 
  6 O        1.9610    -2.2040    -0.1340 O.3   1 <1>  -0.5600 
  7 C        0.1660    -2.3220     1.4740 C.3   1 <1>  -0.2400 
  8 C       -0.2830    -2.0090    -1.0010 C.3   1 <1>  -0.2400 
  9 O        1.6630     2.7240     0.4580 O.3   1 <1>  -0.0190 
 10 C        3.7200     2.2230     0.1040 C.2   1 <1>  -0.1810 
 11 C        2.1390    -3.5770    -0.3440 C.3   1 <1>   0.0400 
 12 N        2.2970     3.8700     0.4700 N.2   1 <1>  -0.4100 
 13 C        3.5330     3.5950     0.2600 C.2   1 <1>   0.1080 
 14 C        5.0240     1.4880    -0.1570 C.3   1 <1>   0.0210 
 15 C        4.6170     4.6500     0.1980 C.3   1 <1>  -0.0590 
 16 C        5.3460     1.4770    -1.6530 C.3   1 <1>  -0.2400 
 17 H        2.7370    -0.3140    -0.0480 H     1 <1>   0.3700 
 18 H        0.8900    -2.1780     2.2550 H     1 <1>   0.0800 
 19 H       -0.0420    -3.3690     1.3550 H     1 <1>   0.0800 
 20 H       -0.7490    -1.8430     1.7750 H     1 <1>   0.0800 
 21 H        0.1320    -1.6500    -1.9250 H     1 <1>   0.0800 
 22 H       -1.2230    -1.5100    -0.8430 H     1 <1>   0.0800 
 23 H       -0.4830    -3.0610    -1.0740 H     1 <1>   0.0800 
 24 H        3.1800    -3.7470    -0.5520 H     1 <1>   0.0800 
 25 H        1.5580    -3.9000    -1.1900 H     1 <1>   0.0800 
 26 H        1.8660    -4.1250     0.5400 H     1 <1>   0.0800 
 27 H        4.9430     0.4760     0.1970 H     1 <1>   0.0800 
 28 H        5.8230     1.9620     0.3870 H     1 <1>   0.0800 
 29 H        5.0780     4.6450    -0.7720 H     1 <1>   0.0800 
 30 H        5.3600     4.4560     0.9490 H     1 <1>   0.0800 
 31 H        4.1920     5.6210     0.3740 H     1 <1>   0.0800 
 32 H        4.5550     0.9930    -2.1980 H     1 <1>   0.0800 
 33 H        6.2640     0.9470    -1.8310 H     1 <1>   0.0800 
 34 H        5.4500     2.4820    -2.0220 H     1 <1>   0.0800 
@<TRIPOS>BOND
  1   1   2  2   
  2   2   3  am  
  3   2   4  1   
  4   3   5  1   
  5   3  17  1   
  6   4   6  1   
  7   4   7  1   
  8   4   8  1   
  9   5   9  1   
 10   5  10  2   
 11   6  11  1   
 12   7  18  1   
 13   7  19  1   
 14   7  20  1   
 15   8  21  1   
 16   8  22  1   
 17   8  23  1   
 18   9  12  1   
 19  10  13  1   
 20  10  14  1   
 21  11  24  1   
 22  11  25  1   
 23  11  26  1   
 24  12  13  2   
 25  13  15  1   
 26  14  16  1   
 27  14  27  1   
 28  14  28  1   
 29  15  29  1   
 30  15  30  1   
 31  15  31  1   
 32  16  32  1   
 33  16  33  1   
 34  16  34  1   
@<TRIPOS>SUBSTRUCTURE
  1 ****   3 GROUP 4 **** **** 0

# MOE 2024.06 (io_trps.svl 2023.06)
