@<TRIPOS>MOLECULE
NONAME
49 51 1 0 0 
SMALL
USER_CHARGES


@<TRIPOS>ATOM
  1 O        0.1600     1.3980     1.2440 O.2   1 <1>  -0.5700 
  2 C        0.1750     2.4340     0.6190 C.2   1 <1>   0.5690 
  3 N       -0.9510     3.2090     0.4910 N.am  1 <1>  -0.6600 
  4 C        1.4810     2.8680    -0.0410 C.3   1 <1>  -0.0990 
  5 C       -2.2530     2.7810     1.0870 C.3   1 <1>   0.1400 
  6 C       -1.0500     4.4880    -0.2650 C.3   1 <1>   0.1400 
  7 C        2.6580     1.8930     0.1550 C.3   1 <1>  -0.1600 
  8 C       -3.3260     2.5790    -0.0130 C.3   1 <1>   0.0000 
  9 C       -2.0880     4.3450    -1.3850 C.3   1 <1>  -0.1600 
 10 C        3.9310     2.3930    -0.5400 C.3   1 <1>  -0.0160 
 11 C       -4.6880     2.1520     0.5730 C.3   1 <1>   0.2000 
 12 C       -3.4500     3.8740    -0.8450 C.3   1 <1>  -0.1600 
 13 C       -2.9740     1.3610    -0.8870 C.3   1 <1>  -0.1600 
 14 C        5.0760     1.4150    -0.3360 C.ar  1 <1>  -0.1440 
 15 O       -4.9770     2.7640     1.7810 O.3   1 <1>  -0.6800 
 16 C       -4.6390     0.6330     0.7510 C.3   1 <1>  -0.1600 
 17 C       -3.4600     0.1420    -0.0990 C.3   1 <1>  -0.1600 
 18 C        5.9250     1.5460     0.7520 C.ar  1 <1>  -0.1500 
 19 C        5.2830     0.3810    -1.2370 C.ar  1 <1>  -0.1500 
 20 C        6.9710     0.6570     0.9360 C.ar  1 <1>  -0.1500 
 21 C        6.3280    -0.5080    -1.0550 C.ar  1 <1>  -0.1500 
 22 C        7.1730    -0.3700     0.0310 C.ar  1 <1>  -0.1500 
 23 H        1.2980     2.9790    -1.0940 H     1 <1>   0.0800 
 24 H        1.7530     3.8250     0.3630 H     1 <1>   0.0800 
 25 H       -2.1310     1.8740     1.6530 H     1 <1>   0.0800 
 26 H       -2.5730     3.5490     1.7690 H     1 <1>   0.0800 
 27 H       -1.3570     5.2670     0.4120 H     1 <1>   0.0800 
 28 H       -0.1040     4.7730    -0.6870 H     1 <1>   0.0800 
 29 H        2.8510     1.7710     1.2070 H     1 <1>   0.0800 
 30 H        2.3930     0.9270    -0.2420 H     1 <1>   0.0800 
 31 H       -2.2080     5.2930    -1.8780 H     1 <1>   0.0800 
 32 H       -1.7200     3.6440    -2.1140 H     1 <1>   0.0800 
 33 H        4.2080     3.3540    -0.1440 H     1 <1>   0.0800 
 34 H        3.7480     2.5140    -1.5930 H     1 <1>   0.0800 
 35 H       -5.4740     2.4050    -0.1190 H     1 <1>   0.0800 
 36 H       -4.1310     3.7270    -1.6650 H     1 <1>   0.0800 
 37 H       -3.8620     4.6470    -0.2190 H     1 <1>   0.0800 
 38 H       -3.5170     1.4110    -1.8150 H     1 <1>   0.0800 
 39 H       -1.9240     1.2910    -1.1100 H     1 <1>   0.0800 
 40 H       -4.4140     2.3890     2.4840 H     1 <1>   0.4000 
 41 H       -4.4860     0.3540     1.7790 H     1 <1>   0.0800 
 42 H       -5.5590     0.1990     0.3990 H     1 <1>   0.0800 
 43 H       -2.6690    -0.2040     0.5450 H     1 <1>   0.0800 
 44 H       -3.7460    -0.6610    -0.7570 H     1 <1>   0.0800 
 45 H        5.7740     2.3400     1.4620 H     1 <1>   0.1500 
 46 H        4.6290     0.2640    -2.0830 H     1 <1>   0.1500 
 47 H        7.6250     0.7660     1.7830 H     1 <1>   0.1500 
 48 H        6.4810    -1.3070    -1.7580 H     1 <1>   0.1500 
 49 H        7.9860    -1.0610     0.1740 H     1 <1>   0.1500 
@<TRIPOS>BOND
  1   1   2  2   
  2   2   3  am  
  3   2   4  1   
  4   3   5  1   
  5   3   6  1   
  6   4   7  1   
  7   4  23  1   
  8   4  24  1   
  9   5   8  1   
 10   5  25  1   
 11   5  26  1   
 12   6   9  1   
 13   6  27  1   
 14   6  28  1   
 15   7  10  1   
 16   7  29  1   
 17   7  30  1   
 18   8  11  1   
 19   8  12  1   
 20   8  13  1   
 21   9  12  1   
 22   9  31  1   
 23   9  32  1   
 24  10  14  1   
 25  10  33  1   
 26  10  34  1   
 27  11  15  1   
 28  11  16  1   
 29  11  35  1   
 30  12  36  1   
 31  12  37  1   
 32  13  17  1   
 33  13  38  1   
 34  13  39  1   
 35  14  18  ar  
 36  14  19  ar  
 37  15  40  1   
 38  16  17  1   
 39  16  41  1   
 40  16  42  1   
 41  17  43  1   
 42  17  44  1   
 43  18  20  ar  
 44  18  45  1   
 45  19  21  ar  
 46  19  46  1   
 47  20  22  ar  
 48  20  47  1   
 49  21  22  ar  
 50  21  48  1   
 51  22  49  1   
@<TRIPOS>SUBSTRUCTURE
  1 ****   2 GROUP 4 **** **** 0

# MOE 2024.06 (io_trps.svl 2023.06)
