@<TRIPOS>MOLECULE
NONAME
45 46 1 0 0 
SMALL
USER_CHARGES


@<TRIPOS>ATOM
  1 S        0.4950     0.6370     0.7870 S.o2  1 <1>   1.3330 
  2 O        0.6840    -0.7180     1.2520 O.2   1 <1>  -0.6500 
  3 O       -0.5220     1.4740     1.3810 O.2   1 <1>  -0.6500 
  4 N        0.2090     0.5890    -0.8870 N.am  1 <1>  -0.8490 
  5 C        2.0670     1.4870     0.8900 C.3   1 <1>  -0.0550 
  6 C       -0.3210     1.8490    -1.4230 C.3   1 <1>   0.1160 
  7 C       -0.6780    -0.5170    -1.2590 C.3   1 <1>   0.1160 
  8 C        3.2390     0.7380     0.2270 C.3   1 <1>  -0.0800 
  9 C        4.4900     1.5790     0.0150 C.3   1 <1>   0.2200 
 10 C        3.7500    -0.4640     1.0320 C.3   1 <1>   0.1200 
 11 N        4.7220     2.5030     1.1560 N.am  1 <1>  -0.7300 
 12 C        5.5640     0.5000     0.0230 C.3   1 <1>   0.1200 
 13 O        5.1460    -0.4130     0.9870 O.3   1 <1>  -0.5600 
 14 C        4.5460     3.8500     1.2200 C.2   1 <1>   0.5440 
 15 O        4.8750     4.3950     2.2480 O.2   1 <1>  -0.5700 
 16 C        3.9700     4.6000     0.1290 C.ar  1 <1>   0.0860 
 17 C        4.6760     4.8620    -1.0390 C.ar  1 <1>   0.1670 
 18 C        2.6640     5.0790     0.1680 C.ar  1 <1>   0.1670 
 19 N        4.1280     5.4550    -2.0760 N.ar  1 <1>  -0.6200 
 20 C        6.1400     4.4880    -1.2190 C.3   1 <1>  -0.0970 
 21 N        2.1030     5.6730    -0.8630 N.ar  1 <1>  -0.6200 
 22 C        1.7690     4.9680     1.3950 C.3   1 <1>  -0.0970 
 23 C        2.8700     5.8270    -1.9270 C.ar  1 <1>   0.4700 
 24 H        1.9600     2.4330     0.4030 H     1 <1>   0.0800 
 25 H        2.3000     1.6740     1.9200 H     1 <1>   0.0800 
 26 H       -0.4120     1.7860    -2.4940 H     1 <1>   0.0800 
 27 H        0.3390     2.6660    -1.1890 H     1 <1>   0.0800 
 28 H       -1.2920     2.0600    -1.0030 H     1 <1>   0.0800 
 29 H       -0.8290    -0.5340    -2.3250 H     1 <1>   0.0800 
 30 H       -1.6310    -0.4140    -0.7670 H     1 <1>   0.0800 
 31 H       -0.2390    -1.4570    -0.9670 H     1 <1>   0.0800 
 32 H        2.9210     0.3730    -0.7350 H     1 <1>   0.0800 
 33 H        4.4670     2.1140    -0.9190 H     1 <1>   0.0800 
 34 H        3.4200    -1.3970     0.6070 H     1 <1>   0.0800 
 35 H        3.4540    -0.4170     2.0670 H     1 <1>   0.0800 
 36 H        5.1150     2.0540     1.9910 H     1 <1>   0.3700 
 37 H        6.5380     0.8780     0.2790 H     1 <1>   0.0800 
 38 H        5.6020    -0.0130    -0.9220 H     1 <1>   0.0800 
 39 H        6.6190     4.2540    -0.2870 H     1 <1>   0.0800 
 40 H        6.6670     5.3160    -1.6600 H     1 <1>   0.0800 
 41 H        6.2220     3.6450    -1.8800 H     1 <1>   0.0800 
 42 H        2.2050     4.3800     2.1800 H     1 <1>   0.0800 
 43 H        0.8270     4.5280     1.1220 H     1 <1>   0.0800 
 44 H        1.5800     5.9540     1.7810 H     1 <1>   0.0800 
 45 H        2.4160     6.3180    -2.7730 H     1 <1>   0.1500 
@<TRIPOS>BOND
  1   1   2  2   
  2   1   3  2   
  3   1   4  am  
  4   1   5  1   
  5   4   6  1   
  6   4   7  1   
  7   5   8  1   
  8   5  24  1   
  9   5  25  1   
 10   6  26  1   
 11   6  27  1   
 12   6  28  1   
 13   7  29  1   
 14   7  30  1   
 15   7  31  1   
 16   8   9  1   
 17   8  10  1   
 18   8  32  1   
 19   9  11  1   
 20   9  12  1   
 21   9  33  1   
 22  10  13  1   
 23  10  34  1   
 24  10  35  1   
 25  11  14  am  
 26  11  36  1   
 27  12  13  1   
 28  12  37  1   
 29  12  38  1   
 30  14  15  2   
 31  14  16  1   
 32  16  17  ar  
 33  16  18  ar  
 34  17  19  ar  
 35  17  20  1   
 36  18  21  ar  
 37  18  22  1   
 38  19  23  ar  
 39  20  39  1   
 40  20  40  1   
 41  20  41  1   
 42  21  23  ar  
 43  22  42  1   
 44  22  43  1   
 45  22  44  1   
 46  23  45  1   
@<TRIPOS>SUBSTRUCTURE
  1 ****   5 GROUP 4 **** **** 0

# MOE 2024.06 (io_trps.svl 2023.06)
