@<TRIPOS>MOLECULE
NONAME
51 53 1 0 0 
SMALL
USER_CHARGES


@<TRIPOS>ATOM
  1 O       -0.4290    -0.2920    -0.7690 O.2   1 <1>  -0.5700 
  2 C       -1.2530     0.2920    -0.0920 C.2   1 <1>   0.7160 
  3 N       -2.0860    -0.4440     0.6950 N.am  1 <1>  -0.7300 
  4 C       -1.3750     1.7190    -0.1180 C.2   1 <1>  -0.0860 
  5 C       -2.2280    -1.9120     0.7080 C.3   1 <1>   0.1400 
  6 C       -2.5100     2.4510     0.2600 C.2   1 <1>   0.3720 
  7 C       -0.4950     2.6860    -0.5000 C.2   1 <1>   0.0870 
  8 C       -3.6130    -2.2690     0.1690 C.3   1 <1>  -0.1600 
  9 N       -2.3170     3.7140     0.1180 N.2   1 <1>  -0.4100 
 10 N       -3.7220     1.9040     0.7140 N.pl3 1 <1>  -0.8210 
 11 O       -1.1030     3.8350    -0.3440 O.3   1 <1>  -0.0190 
 12 C        0.8630     2.6700    -0.9840 C.ar  1 <1>   0.0530 
 13 C       -3.8190    -3.7790     0.0220 C.3   1 <1>   0.2000 
 14 C       -4.6100     1.3910    -0.3800 C.3   1 <1>   0.2090 
 15 C       -4.4930     2.7360     1.6990 C.3   1 <1>   0.2090 
 16 C        1.2840     3.5920    -1.9440 C.ar  1 <1>  -0.1500 
 17 C        1.8100     1.7610    -0.5130 C.ar  1 <1>  -0.1500 
 18 O       -5.0620    -3.9420    -0.5760 O.3   1 <1>  -0.5600 
 19 C       -3.8370    -4.5120     1.3670 C.3   1 <1>  -0.2400 
 20 C       -5.5170     2.4940    -0.9540 C.3   1 <1>   0.1200 
 21 C       -5.4350     3.7460     1.0140 C.3   1 <1>   0.1200 
 22 C        2.5840     3.6040    -2.4150 C.ar  1 <1>  -0.1500 
 23 C        3.1110     1.7650    -0.9810 C.ar  1 <1>  -0.1500 
 24 C       -5.2060    -5.0830    -1.3630 C.3   1 <1>   0.0400 
 25 O       -6.2470     3.1110     0.0670 O.3   1 <1>  -0.5600 
 26 C        3.5020     2.6880    -1.9340 C.ar  1 <1>  -0.1500 
 27 H       -2.8430     0.0980     1.1370 H     1 <1>   0.3700 
 28 H       -2.1090    -2.2640     1.7180 H     1 <1>   0.0800 
 29 H       -1.4640    -2.3610     0.0950 H     1 <1>   0.0800 
 30 H       -3.7240    -1.8250    -0.8040 H     1 <1>   0.0800 
 31 H       -4.3670    -1.8730     0.8240 H     1 <1>   0.0800 
 32 H       -3.0590    -4.1840    -0.6280 H     1 <1>   0.0800 
 33 H       -5.2270     0.5980     0.0060 H     1 <1>   0.0800 
 34 H       -4.0110     0.9790    -1.1750 H     1 <1>   0.0800 
 35 H       -3.8090     3.2680     2.3380 H     1 <1>   0.0800 
 36 H       -5.0790     2.0850     2.3240 H     1 <1>   0.0800 
 37 H        0.5800     4.3100    -2.3260 H     1 <1>   0.1500 
 38 H        1.5260     1.0390     0.2310 H     1 <1>   0.1500 
 39 H       -4.6020    -4.1020     2.0020 H     1 <1>   0.0800 
 40 H       -2.8890    -4.4160     1.8620 H     1 <1>   0.0800 
 41 H       -4.0240    -5.5600     1.2230 H     1 <1>   0.0800 
 42 H       -6.2190     2.0730    -1.6510 H     1 <1>   0.0800 
 43 H       -4.9300     3.2410    -1.4610 H     1 <1>   0.0800 
 44 H       -4.8700     4.5180     0.5210 H     1 <1>   0.0800 
 45 H       -6.0780     4.2050     1.7430 H     1 <1>   0.0800 
 46 H        2.8830     4.3250    -3.1560 H     1 <1>   0.1500 
 47 H        3.8200     1.0490    -0.6030 H     1 <1>   0.1500 
 48 H       -6.2050    -5.0880    -1.7620 H     1 <1>   0.0800 
 49 H       -5.0570    -5.9610    -0.7590 H     1 <1>   0.0800 
 50 H       -4.4950    -5.0510    -2.1690 H     1 <1>   0.0800 
 51 H        4.5140     2.6920    -2.3000 H     1 <1>   0.1500 
@<TRIPOS>BOND
  1   1   2  2   
  2   2   3  am  
  3   2   4  1   
  4   3   5  1   
  5   3  27  1   
  6   4   6  1   
  7   4   7  2   
  8   5   8  1   
  9   5  28  1   
 10   5  29  1   
 11   6   9  2   
 12   6  10  1   
 13   7  11  1   
 14   7  12  1   
 15   8  13  1   
 16   8  30  1   
 17   8  31  1   
 18   9  11  1   
 19  10  14  1   
 20  10  15  1   
 21  12  16  ar  
 22  12  17  ar  
 23  13  18  1   
 24  13  19  1   
 25  13  32  1   
 26  14  20  1   
 27  14  33  1   
 28  14  34  1   
 29  15  21  1   
 30  15  35  1   
 31  15  36  1   
 32  16  22  ar  
 33  16  37  1   
 34  17  23  ar  
 35  17  38  1   
 36  18  24  1   
 37  19  39  1   
 38  19  40  1   
 39  19  41  1   
 40  20  25  1   
 41  20  42  1   
 42  20  43  1   
 43  21  25  1   
 44  21  44  1   
 45  21  45  1   
 46  22  26  ar  
 47  22  46  1   
 48  23  26  ar  
 49  23  47  1   
 50  24  48  1   
 51  24  49  1   
 52  24  50  1   
 53  26  51  1   
@<TRIPOS>SUBSTRUCTURE
  1 ****   2 GROUP 4 **** **** 0

# MOE 2024.06 (io_trps.svl 2023.06)
