@<TRIPOS>MOLECULE
NONAME
53 55 1 0 0 
SMALL
USER_CHARGES


@<TRIPOS>ATOM
  1 O       -0.8210    -2.6690     2.1920 O.2   1 <1>  -0.5700 
  2 C        0.1630    -3.0780     1.6340 C.2   1 <1>   0.5690 
  3 N        0.1360    -3.4640     0.3420 N.am  1 <1>  -0.7300 
  4 C        1.4820    -3.1840     2.3680 C.3   1 <1>  -0.0990 
  5 C        1.3180    -3.9950    -0.3680 C.3   1 <1>   0.1400 
  6 C        2.6350    -2.6790     1.4780 C.3   1 <1>  -0.0800 
  7 C        2.5680    -3.1730     0.0100 C.3   1 <1>  -0.0800 
  8 C        4.0200    -3.0700     2.0110 C.3   1 <1>  -0.1600 
  9 C        3.8790    -3.9320    -0.2350 C.3   1 <1>  -0.1600 
 10 C        4.8570    -3.3130     0.7610 C.3   1 <1>   0.2200 
 11 N        6.0750    -4.1340     1.0420 N.am  1 <1>  -0.6600 
 12 C        7.3440    -3.6060     1.1230 C.2   1 <1>   0.5690 
 13 C        5.8870    -5.6050     1.2490 C.3   1 <1>   0.0600 
 14 O        8.3180    -4.3090     1.2550 O.2   1 <1>  -0.5700 
 15 C        7.6000    -2.1120     1.0470 C.3   1 <1>  -0.0990 
 16 C        7.7930    -1.6540    -0.4040 C.3   1 <1>  -0.0170 
 17 C        7.9140    -0.1410    -0.4690 C.ar  1 <1>  -0.1440 
 18 C        9.1350     0.4720    -0.2400 C.ar  1 <1>  -0.1500 
 19 C        6.8050     0.6400    -0.7510 C.ar  1 <1>  -0.1500 
 20 C        9.2550     1.8590    -0.2910 C.ar  1 <1>   0.0820 
 21 C        6.9160     2.0180    -0.8050 C.ar  1 <1>  -0.1500 
 22 O       10.4320     2.5050    -0.0730 O.3   1 <1>  -0.3630 
 23 C        8.1360     2.6350    -0.5760 C.ar  1 <1>  -0.1440 
 24 C       11.6200     1.8040     0.2180 C.3   1 <1>   0.0400 
 25 C        8.2400     4.1520    -0.6400 C.3   1 <1>  -0.0970 
 26 H       -0.7640    -3.4300    -0.1430 H     1 <1>   0.3700 
 27 H        1.4360    -2.6110     3.2760 H     1 <1>   0.0800 
 28 H        1.6280    -4.2170     2.6250 H     1 <1>   0.0800 
 29 H        1.4460    -5.0250    -0.0820 H     1 <1>   0.0800 
 30 H        1.1560    -3.9530    -1.4320 H     1 <1>   0.0800 
 31 H        2.5730    -1.6030     1.4520 H     1 <1>   0.0800 
 32 H        2.5760    -2.2980    -0.6200 H     1 <1>   0.0800 
 33 H        3.9540    -3.9740     2.5890 H     1 <1>   0.0800 
 34 H        4.4420    -2.2910     2.6200 H     1 <1>   0.0800 
 35 H        4.2230    -3.8180    -1.2470 H     1 <1>   0.0800 
 36 H        3.7240    -4.9740    -0.0230 H     1 <1>   0.0800 
 37 H        5.1370    -2.3550     0.3610 H     1 <1>   0.0800 
 38 H        4.9910    -5.7990     1.8090 H     1 <1>   0.0800 
 39 H        6.7160    -6.0220     1.7950 H     1 <1>   0.0800 
 40 H        5.8270    -6.0990     0.2950 H     1 <1>   0.0800 
 41 H        6.8020    -1.5690     1.5160 H     1 <1>   0.0800 
 42 H        8.4940    -1.8930     1.6020 H     1 <1>   0.0800 
 43 H        6.9660    -1.9770    -1.0100 H     1 <1>   0.0800 
 44 H        8.6820    -2.1090    -0.8060 H     1 <1>   0.0800 
 45 H        9.9840    -0.1470    -0.0210 H     1 <1>   0.1500 
 46 H        5.8490     0.1820    -0.9320 H     1 <1>   0.1500 
 47 H        6.0460     2.6090    -1.0270 H     1 <1>   0.1500 
 48 H       12.4080     2.5230     0.3480 H     1 <1>   0.0800 
 49 H       11.8510     1.1530    -0.6060 H     1 <1>   0.0800 
 50 H       11.4810     1.2450     1.1270 H     1 <1>   0.0800 
 51 H        7.2910     4.6000    -0.8680 H     1 <1>   0.0800 
 52 H        8.9460     4.4350    -1.4000 H     1 <1>   0.0800 
 53 H        8.5830     4.5320     0.3060 H     1 <1>   0.0800 
@<TRIPOS>BOND
  1   1   2  2   
  2   2   3  am  
  3   2   4  1   
  4   3   5  1   
  5   3  26  1   
  6   4   6  1   
  7   4  27  1   
  8   4  28  1   
  9   5   7  1   
 10   5  29  1   
 11   5  30  1   
 12   6   7  1   
 13   6   8  1   
 14   6  31  1   
 15   7   9  1   
 16   7  32  1   
 17   8  10  1   
 18   8  33  1   
 19   8  34  1   
 20   9  10  1   
 21   9  35  1   
 22   9  36  1   
 23  10  11  1   
 24  10  37  1   
 25  11  12  am  
 26  11  13  1   
 27  12  14  2   
 28  12  15  1   
 29  13  38  1   
 30  13  39  1   
 31  13  40  1   
 32  15  16  1   
 33  15  41  1   
 34  15  42  1   
 35  16  17  1   
 36  16  43  1   
 37  16  44  1   
 38  17  18  ar  
 39  17  19  ar  
 40  18  20  ar  
 41  18  45  1   
 42  19  21  ar  
 43  19  46  1   
 44  20  22  1   
 45  20  23  ar  
 46  21  23  ar  
 47  21  47  1   
 48  22  24  1   
 49  23  25  1   
 50  24  48  1   
 51  24  49  1   
 52  24  50  1   
 53  25  51  1   
 54  25  52  1   
 55  25  53  1   
@<TRIPOS>SUBSTRUCTURE
  1 ****  10 GROUP 4 **** **** 0

# MOE 2024.06 (io_trps.svl 2023.06)
