@<TRIPOS>MOLECULE
NONAME
27 29 1 0 0 
SMALL
USER_CHARGES


@<TRIPOS>ATOM
  1 BR       0.7560    -0.5140     0.1900 Br    1 <1>  -0.0570 
  2 C        0.8590     1.4050     0.3690 C.2   1 <1>   0.0570 
  3 C        2.1070     2.0700     0.2040 C.2   1 <1>   0.0620 
  4 C       -0.1900     2.2000     0.6470 C.2   1 <1>  -0.1100 
  5 O        3.2810     1.4760    -0.0750 O.3   1 <1>  -0.1390 
  6 C        2.0310     3.4110     0.3570 C.2   1 <1>  -0.0450 
  7 S        0.3570     3.8780     0.7180 S.3   1 <1>  -0.0800 
  8 C        4.4090     2.2000    -0.2080 C.2   1 <1>   0.1770 
  9 C        3.1640     4.2520     0.2310 C.2   1 <1>   0.6410 
 10 N        5.5490     1.4690    -0.4880 N.pl3 1 <1>  -0.8380 
 11 C        4.3590     3.5650    -0.0660 C.2   1 <1>  -0.1360 
 12 O        3.1240     5.4700     0.3650 O.2   1 <1>  -0.5700 
 13 C        5.5200     0.0270    -0.9080 C.3   1 <1>   0.2090 
 14 C        6.9450     2.0060    -0.4010 C.3   1 <1>   0.2090 
 15 C        6.5140    -0.8090    -0.0820 C.3   1 <1>   0.1200 
 16 C        7.8580     1.0490     0.3880 C.3   1 <1>   0.1200 
 17 O        7.7980    -0.2510    -0.1280 O.3   1 <1>  -0.5600 
 18 H       -1.2310     1.9950     0.8200 H     1 <1>   0.1500 
 19 H        5.2250     4.1800    -0.1820 H     1 <1>   0.1500 
 20 H        5.7880    -0.0400    -1.9480 H     1 <1>   0.0800 
 21 H        4.5370    -0.3930    -0.7970 H     1 <1>   0.0800 
 22 H        6.9570     2.9630     0.0870 H     1 <1>   0.0800 
 23 H        7.3390     2.1310    -1.3950 H     1 <1>   0.0800 
 24 H        6.5750    -1.8070    -0.4770 H     1 <1>   0.0800 
 25 H        6.1960    -0.8610     0.9440 H     1 <1>   0.0800 
 26 H        7.5650     1.0220     1.4230 H     1 <1>   0.0800 
 27 H        8.8800     1.3790     0.3270 H     1 <1>   0.0800 
@<TRIPOS>BOND
  1   1   2  1   
  2   2   3  1   
  3   2   4  2   
  4   3   5  1   
  5   3   6  2   
  6   4   7  1   
  7   4  18  1   
  8   5   8  1   
  9   6   7  1   
 10   6   9  1   
 11   8  10  1   
 12   8  11  2   
 13   9  11  1   
 14   9  12  2   
 15  10  13  1   
 16  10  14  1   
 17  11  19  1   
 18  13  15  1   
 19  13  20  1   
 20  13  21  1   
 21  14  16  1   
 22  14  22  1   
 23  14  23  1   
 24  15  17  1   
 25  15  24  1   
 26  15  25  1   
 27  16  17  1   
 28  16  26  1   
 29  16  27  1   
@<TRIPOS>SUBSTRUCTURE
  1 ****   5 GROUP 4 **** **** 0

# MOE 2024.06 (io_trps.svl 2023.06)
