@<TRIPOS>MOLECULE
NONAME
46 48 1 0 0 
SMALL
USER_CHARGES


@<TRIPOS>ATOM
  1 O        0.7360     3.2520    -0.3370 O.2   1 <1>  -0.5700 
  2 C       -0.3240     2.7720    -0.0050 C.2   1 <1>   0.5690 
  3 N       -1.4620     2.9940    -0.7330 N.am  1 <1>  -0.6600 
  4 C       -0.3620     1.9550     1.2760 C.3   1 <1>  -0.0990 
  5 C       -2.8110     2.4960    -0.3470 C.3   1 <1>   0.1400 
  6 C       -1.4050     3.7480    -2.0330 C.3   1 <1>   0.2010 
  7 C       -1.6590     1.1540     1.4550 C.3   1 <1>  -0.1600 
  8 C       -2.8580     2.0420     1.1150 C.3   1 <1>  -0.1600 
  9 C       -1.3580     5.2650    -1.8560 C.2   1 <1>   0.5690 
 10 O       -2.1950     5.9340    -2.4160 O.2   1 <1>  -0.5700 
 11 N       -0.3530     5.7780    -1.0840 N.am  1 <1>  -0.4940 
 12 C        0.0720     7.0880    -0.7520 C.2   1 <1>  -0.0880 
 13 N       -0.6430     8.2480    -0.7540 N.pl3 1 <1>   0.3140 
 14 C        1.3160     7.4170    -0.3370 C.2   1 <1>  -0.1810 
 15 N        0.1100     9.2940    -0.3590 N.2   1 <1>  -0.7070 
 16 C       -2.0690     8.4560    -1.0320 C.3   1 <1>   0.0160 
 17 C        1.2910     8.7970    -0.0990 C.2   1 <1>   0.2350 
 18 C        2.5130     6.4910    -0.1790 C.3   1 <1>  -0.0590 
 19 C        2.4030     9.6020     0.3610 C.ar  1 <1>   0.0540 
 20 C        3.1490     9.2520     1.4860 C.ar  1 <1>  -0.1500 
 21 C        2.7610    10.7670    -0.3130 C.ar  1 <1>  -0.1500 
 22 C        4.2190    10.0200     1.9080 C.ar  1 <1>  -0.1500 
 23 C        3.8290    11.5420     0.1020 C.ar  1 <1>  -0.1500 
 24 C        4.5620    11.1670     1.2140 C.ar  1 <1>  -0.1500 
 25 H       -0.2500     2.6380     2.0970 H     1 <1>   0.0800 
 26 H        0.4800     1.2870     1.2880 H     1 <1>   0.0800 
 27 H       -3.0650     1.6680    -0.9870 H     1 <1>   0.0800 
 28 H       -3.5400     3.2760    -0.5000 H     1 <1>   0.0800 
 29 H       -2.2590     3.4960    -2.6360 H     1 <1>   0.0800 
 30 H       -0.5270     3.4470    -2.5760 H     1 <1>   0.0800 
 31 H       -1.7320     0.7990     2.4690 H     1 <1>   0.0800 
 32 H       -1.6480     0.2990     0.8000 H     1 <1>   0.0800 
 33 H       -3.7730     1.5020     1.2860 H     1 <1>   0.0800 
 34 H       -2.8680     2.9080     1.7550 H     1 <1>   0.0800 
 35 H        0.2620     5.0380    -0.7120 H     1 <1>   0.3700 
 36 H       -2.6390     7.6720    -0.5730 H     1 <1>   0.0800 
 37 H       -2.2220     8.4510    -2.0950 H     1 <1>   0.0800 
 38 H       -2.3730     9.4040    -0.6300 H     1 <1>   0.0800 
 39 H        2.3770     5.5920    -0.7530 H     1 <1>   0.0800 
 40 H        2.6370     6.2230     0.8540 H     1 <1>   0.0800 
 41 H        3.4050     6.9800    -0.5260 H     1 <1>   0.0800 
 42 H        2.8770     8.3700     2.0360 H     1 <1>   0.1500 
 43 H        2.1830    11.0580    -1.1730 H     1 <1>   0.1500 
 44 H        4.7820     9.7300     2.7770 H     1 <1>   0.1500 
 45 H        4.0860    12.4370    -0.4370 H     1 <1>   0.1500 
 46 H        5.3940    11.7680     1.5400 H     1 <1>   0.1500 
@<TRIPOS>BOND
  1   1   2  2   
  2   2   3  am  
  3   2   4  1   
  4   3   5  1   
  5   3   6  1   
  6   4   7  1   
  7   4  25  1   
  8   4  26  1   
  9   5   8  1   
 10   5  27  1   
 11   5  28  1   
 12   6   9  1   
 13   6  29  1   
 14   6  30  1   
 15   7   8  1   
 16   7  31  1   
 17   7  32  1   
 18   8  33  1   
 19   8  34  1   
 20   9  10  2   
 21   9  11  am  
 22  11  12  1   
 23  11  35  1   
 24  12  13  1   
 25  12  14  2   
 26  13  15  1   
 27  13  16  1   
 28  14  17  1   
 29  14  18  1   
 30  15  17  2   
 31  16  36  1   
 32  16  37  1   
 33  16  38  1   
 34  17  19  1   
 35  18  39  1   
 36  18  40  1   
 37  18  41  1   
 38  19  20  ar  
 39  19  21  ar  
 40  20  22  ar  
 41  20  42  1   
 42  21  23  ar  
 43  21  43  1   
 44  22  24  ar  
 45  22  44  1   
 46  23  24  ar  
 47  23  45  1   
 48  24  46  1   
@<TRIPOS>SUBSTRUCTURE
  1 ****  12 GROUP 4 **** **** 0

# MOE 2024.06 (io_trps.svl 2023.06)
