@<TRIPOS>MOLECULE
NONAME
49 51 1 0 0 
SMALL
USER_CHARGES


@<TRIPOS>ATOM
  1 O       -2.5480     0.2220     1.5910 O.2   1 <1>  -0.5700 
  2 C       -2.3800    -0.5500     0.6780 C.2   1 <1>   0.5690 
  3 N       -2.7210    -1.8540     0.6800 N.am  1 <1>  -0.6600 
  4 C       -1.7890    -0.1540    -0.6460 C.3   1 <1>  -0.0990 
  5 C       -2.4850    -2.5150    -0.6120 C.3   1 <1>   0.1400 
  6 C       -3.4410    -2.5640     1.7840 C.3   1 <1>   0.2010 
  7 C       -1.6620    -1.4890    -1.4040 C.3   1 <1>  -0.1600 
  8 C       -4.8420    -3.0490     1.3930 C.2   1 <1>   0.5690 
  9 O       -5.0100    -4.2460     1.3230 O.2   1 <1>  -0.5700 
 10 N       -5.8620    -2.1650     1.1250 N.am  1 <1>  -0.6600 
 11 C       -5.6940    -0.6830     1.2200 C.3   1 <1>   0.1400 
 12 C       -7.1800    -2.6610     0.6270 C.3   1 <1>   0.1400 
 13 C       -7.0530    -0.0080     1.3940 C.3   1 <1>  -0.1600 
 14 C       -7.7670    -1.6800    -0.3910 C.3   1 <1>  -0.1600 
 15 C       -7.9670    -0.2540     0.1760 C.3   1 <1>   0.2800 
 16 O       -7.5400     0.5940    -0.8550 O.3   1 <1>  -0.5600 
 17 C       -9.4510    -0.0020     0.5490 C.3   1 <1>  -0.1600 
 18 C       -7.9880     1.9210    -0.9080 C.3   1 <1>   0.1200 
 19 C      -10.2540     0.7240    -0.5380 C.3   1 <1>   0.2800 
 20 C       -9.5270     2.0470    -0.9070 C.3   1 <1>   0.2000 
 21 O      -10.3180    -0.0830    -1.6580 O.3   1 <1>  -0.6800 
 22 C      -11.7160     0.9210    -0.1140 C.3   1 <1>  -0.2400 
 23 O       -9.8530     3.0640    -0.0020 O.3   1 <1>  -0.6800 
 24 H       -2.4670     0.5130    -1.1440 H     1 <1>   0.0800 
 25 H       -0.8360     0.3220    -0.5070 H     1 <1>   0.0800 
 26 H       -1.9470    -3.4380    -0.4770 H     1 <1>   0.0800 
 27 H       -3.4290    -2.7080    -1.0950 H     1 <1>   0.0800 
 28 H       -2.8570    -3.4160     2.0800 H     1 <1>   0.0800 
 29 H       -3.5220    -1.9170     2.6380 H     1 <1>   0.0800 
 30 H       -0.6330    -1.8030    -1.4150 H     1 <1>   0.0800 
 31 H       -2.0090    -1.4100    -2.4180 H     1 <1>   0.0800 
 32 H       -5.0670    -0.4320     2.0570 H     1 <1>   0.0800 
 33 H       -5.2240    -0.3200     0.3200 H     1 <1>   0.0800 
 34 H       -7.0580    -3.6240     0.1600 H     1 <1>   0.0800 
 35 H       -7.8500    -2.7770     1.4610 H     1 <1>   0.0800 
 36 H       -6.9150     1.0440     1.5550 H     1 <1>   0.0800 
 37 H       -7.5040    -0.4090     2.2840 H     1 <1>   0.0800 
 38 H       -8.6940    -2.0740    -0.7610 H     1 <1>   0.0800 
 39 H       -7.0890    -1.6480    -1.2270 H     1 <1>   0.0800 
 40 H       -9.9320    -0.9230     0.8220 H     1 <1>   0.0800 
 41 H       -9.4820     0.6120     1.4300 H     1 <1>   0.0800 
 42 H       -7.5530     2.4510    -0.0800 H     1 <1>   0.0800 
 43 H       -7.6030     2.3420    -1.8190 H     1 <1>   0.0800 
 44 H       -9.8670     2.3790    -1.8730 H     1 <1>   0.0800 
 45 H      -10.8260    -0.8880    -1.4580 H     1 <1>   0.4000 
 46 H      -11.7740     1.4980     0.7910 H     1 <1>   0.0800 
 47 H      -12.1970    -0.0230     0.0640 H     1 <1>   0.0800 
 48 H      -12.2500     1.4550    -0.8800 H     1 <1>   0.0800 
 49 H       -9.5680     2.8190     0.8970 H     1 <1>   0.4000 
@<TRIPOS>BOND
  1   1   2  2   
  2   2   3  am  
  3   2   4  1   
  4   3   5  1   
  5   3   6  1   
  6   4   7  1   
  7   4  24  1   
  8   4  25  1   
  9   5   7  1   
 10   5  26  1   
 11   5  27  1   
 12   6   8  1   
 13   6  28  1   
 14   6  29  1   
 15   7  30  1   
 16   7  31  1   
 17   8   9  2   
 18   8  10  am  
 19  10  11  1   
 20  10  12  1   
 21  11  13  1   
 22  11  32  1   
 23  11  33  1   
 24  12  14  1   
 25  12  34  1   
 26  12  35  1   
 27  13  15  1   
 28  13  36  1   
 29  13  37  1   
 30  14  15  1   
 31  14  38  1   
 32  14  39  1   
 33  15  16  1   
 34  15  17  1   
 35  16  18  1   
 36  17  19  1   
 37  17  40  1   
 38  17  41  1   
 39  18  20  1   
 40  18  42  1   
 41  18  43  1   
 42  19  20  1   
 43  19  21  1   
 44  19  22  1   
 45  20  23  1   
 46  20  44  1   
 47  21  45  1   
 48  22  46  1   
 49  22  47  1   
 50  22  48  1   
 51  23  49  1   
@<TRIPOS>SUBSTRUCTURE
  1 ****  11 GROUP 4 **** **** 0

# MOE 2024.06 (io_trps.svl 2023.06)
