@<TRIPOS>MOLECULE
NONAME
40 42 1 0 0 
SMALL
USER_CHARGES


@<TRIPOS>ATOM
  1 S        0.8670     0.9850     0.7080 S.3   1 <1>  -0.3310 
  2 C        0.7270    -0.7910     0.7700 C.ar  1 <1>   0.7220 
  3 C        1.7230     1.3110    -0.9110 C.3   1 <1>   0.1310 
  4 N        1.2260    -1.4430    -0.2690 N.ar  1 <1>  -0.6200 
  5 N        0.1370    -1.2610     1.8540 N.ar  1 <1>  -0.6200 
  6 C        1.8990     2.8010    -1.1610 C.2   1 <1>   0.5690 
  7 C        1.1100    -2.7500    -0.2010 C.ar  1 <1>   0.1660 
  8 C        0.0390    -2.5700     1.8900 C.ar  1 <1>   0.1600 
  9 O        2.2320     3.1710    -2.2610 O.2   1 <1>  -0.5700 
 10 N        1.6970     3.6880    -0.1610 N.am  1 <1>  -0.7300 
 11 C        0.5150    -3.3680     0.8750 C.ar  1 <1>  -0.1500 
 12 C        1.6610    -3.5500    -1.3620 C.3   1 <1>  -0.0970 
 13 C        1.6490     5.1500    -0.3080 C.3   1 <1>   0.4950 
 14 C        2.8760     5.7680     0.3620 C.2   1 <1>   0.0060 
 15 C        0.3240     5.6870     0.2770 C.3   1 <1>  -0.1950 
 16 N        2.8990     6.4140     1.4790 N.2   1 <1>  -0.5650 
 17 N        4.1050     5.6980    -0.1730 N.pl3 1 <1>   0.3140 
 18 C       -0.3460     5.1260     1.4970 C.3   1 <1>  -0.2000 
 19 C       -0.9880     4.9710     0.1450 C.3   1 <1>  -0.2000 
 20 C        4.1940     6.7270     1.5870 C.2   1 <1>   0.3660 
 21 N        4.9550     6.3240     0.6270 N.2   1 <1>  -0.7070 
 22 C        4.5610     5.0660    -1.4210 C.3   1 <1>   0.0160 
 23 H        1.1190     0.8740    -1.6850 H     1 <1>   0.0800 
 24 H        2.6780     0.8220    -0.8730 H     1 <1>   0.0800 
 25 H       -0.4340    -3.0160     2.7490 H     1 <1>   0.1500 
 26 H        1.3960     3.3590     0.7590 H     1 <1>   0.3700 
 27 H        0.4210    -4.4360     0.9290 H     1 <1>   0.1500 
 28 H        1.1690    -3.2540    -2.2710 H     1 <1>   0.0800 
 29 H        1.5100    -4.6030    -1.2130 H     1 <1>   0.0800 
 30 H        2.7150    -3.3620    -1.4630 H     1 <1>   0.0800 
 31 H        1.6680     5.4050    -1.3540 H     1 <1>   0.0800 
 32 H        0.2920     6.7590     0.1860 H     1 <1>   0.1000 
 33 H       -0.7710     5.8190     2.2020 H     1 <1>   0.1000 
 34 H        0.0570     4.2540     1.9810 H     1 <1>   0.1000 
 35 H       -1.0240     3.9880    -0.2910 H     1 <1>   0.1000 
 36 H       -1.8710     5.5470    -0.0740 H     1 <1>   0.1000 
 37 H        4.5570     7.2840     2.4360 H     1 <1>   0.1500 
 38 H        3.8740     5.2880    -2.2150 H     1 <1>   0.0800 
 39 H        4.6200     4.0040    -1.2770 H     1 <1>   0.0800 
 40 H        5.5340     5.4460    -1.6740 H     1 <1>   0.0800 
@<TRIPOS>BOND
  1   1   2  1   
  2   1   3  1   
  3   2   4  ar  
  4   2   5  ar  
  5   3   6  1   
  6   3  23  1   
  7   3  24  1   
  8   4   7  ar  
  9   5   8  ar  
 10   6   9  2   
 11   6  10  am  
 12   7  11  ar  
 13   7  12  1   
 14   8  11  ar  
 15   8  25  1   
 16  10  13  1   
 17  10  26  1   
 18  11  27  1   
 19  12  28  1   
 20  12  29  1   
 21  12  30  1   
 22  13  14  1   
 23  13  15  1   
 24  13  31  1   
 25  14  16  2   
 26  14  17  1   
 27  15  18  1   
 28  15  19  1   
 29  15  32  1   
 30  16  20  1   
 31  17  21  1   
 32  17  22  1   
 33  18  19  1   
 34  18  33  1   
 35  18  34  1   
 36  19  35  1   
 37  19  36  1   
 38  20  21  2   
 39  20  37  1   
 40  22  38  1   
 41  22  39  1   
 42  22  40  1   
@<TRIPOS>SUBSTRUCTURE
  1 ****  10 GROUP 4 **** **** 0

# MOE 2024.06 (io_trps.svl 2023.06)
