@<TRIPOS>MOLECULE
NONAME
62 65 1 0 0 
SMALL
USER_CHARGES


@<TRIPOS>ATOM
  1 O       -0.3270     0.1140     1.0600 O.2   1 <1>  -0.5700 
  2 C       -1.2780     0.7360     0.6480 C.2   1 <1>   0.5690 
  3 N       -2.3930     0.1030     0.1780 N.am  1 <1>  -0.6600 
  4 C       -1.2220     2.2610     0.6670 C.3   1 <1>  -0.0990 
  5 C       -3.6560     0.7390    -0.2780 C.3   1 <1>   0.1400 
  6 C       -2.5370    -1.3750     0.2070 C.3   1 <1>   0.1400 
  7 C        0.1980     2.8460     0.8320 C.3   1 <1>  -0.0800 
  8 C       -4.5580    -0.4220    -0.6940 C.3   1 <1>   0.2000 
  9 C       -4.0380    -1.6350     0.0720 C.3   1 <1>  -0.0800 
 10 C        0.1530     4.3670     1.0430 C.3   1 <1>  -0.1600 
 11 C        1.0970     2.5270    -0.3780 C.3   1 <1>  -0.1600 
 12 O       -5.8820    -0.1780    -0.3690 O.3   1 <1>  -0.6800 
 13 C       -4.3740    -2.9710    -0.6060 C.3   1 <1>   0.0210 
 14 C        1.5590     4.9530     1.1850 C.3   1 <1>   0.3430 
 15 C        2.4900     3.1260    -0.2070 C.3   1 <1>   0.3430 
 16 C       -3.7550    -4.1320     0.1480 C.2   1 <1>   0.1080 
 17 N        2.3800     4.5980    -0.0120 N.4   1 <1>  -0.9590 
 18 N       -4.0710    -4.4210     1.3710 N.2   1 <1>  -0.7070 
 19 C       -2.7920    -4.9940    -0.3660 C.2   1 <1>  -0.1500 
 20 C        3.7210     5.2390     0.0370 C.3   1 <1>   0.4860 
 21 N       -3.3080    -5.4880     1.6760 N.pl3 1 <1>   0.3000 
 22 C       -2.5240    -5.8530     0.6390 C.2   1 <1>  -0.3320 
 23 C        3.5380     6.7420    -0.0200 C.ar  1 <1>  -0.1440 
 24 C       -1.5510    -7.0170     0.6750 C.3   1 <1>  -0.0600 
 25 C        3.7290     7.5130     1.1190 C.ar  1 <1>  -0.1500 
 26 C        3.1720     7.3590    -1.2080 C.ar  1 <1>  -0.1500 
 27 C        3.5420     8.8830     1.0720 C.ar  1 <1>  -0.1500 
 28 C        2.9850     8.7290    -1.2530 C.ar  1 <1>  -0.1500 
 29 C        3.1670     9.4910    -0.1130 C.ar  1 <1>  -0.1500 
 30 H       -1.6550     2.6390    -0.2400 H     1 <1>   0.0800 
 31 H       -1.8360     2.5860     1.4880 H     1 <1>   0.0800 
 32 H       -4.0940     1.2880     0.5380 H     1 <1>   0.0800 
 33 H       -3.4730     1.3900    -1.1150 H     1 <1>   0.0800 
 34 H       -1.9950    -1.7950    -0.6230 H     1 <1>   0.0800 
 35 H       -2.1510    -1.7860     1.1260 H     1 <1>   0.0800 
 36 H        0.6380     2.4020     1.7120 H     1 <1>   0.0800 
 37 H       -4.4910    -0.5690    -1.7590 H     1 <1>   0.0800 
 38 H       -4.4460    -1.6360     1.0690 H     1 <1>   0.0800 
 39 H       -0.4010     4.5890     1.9390 H     1 <1>   0.0800 
 40 H       -0.3530     4.8470     0.2230 H     1 <1>   0.0800 
 41 H        0.6530     2.8960    -1.2860 H     1 <1>   0.0800 
 42 H        1.2040     1.4610    -0.4850 H     1 <1>   0.0800 
 43 H       -6.0140    -0.2590     0.5960 H     1 <1>   0.4000 
 44 H       -4.0170    -2.9740    -1.6200 H     1 <1>   0.0800 
 45 H       -5.4410    -3.1050    -0.6260 H     1 <1>   0.0800 
 46 H        2.0230     4.5610     2.0750 H     1 <1>   0.0800 
 47 H        1.4890     6.0260     1.2820 H     1 <1>   0.0800 
 48 H        3.0830     2.9080    -1.0810 H     1 <1>   0.0800 
 49 H        2.9680     2.6760     0.6500 H     1 <1>   0.0800 
 50 H        1.8980     4.9980    -0.8250 H     1 <1>   0.4500 
 51 H       -2.3680    -4.9590    -1.3530 H     1 <1>   0.1500 
 52 H        4.2370     4.9620     0.9420 H     1 <1>   0.0800 
 53 H        4.3150     4.9240    -0.8060 H     1 <1>   0.0800 
 54 H       -3.3450    -5.9410     2.5960 H     1 <1>   0.2700 
 55 H       -1.0450    -7.1050    -0.2700 H     1 <1>   0.0800 
 56 H       -2.0770    -7.9360     0.8690 H     1 <1>   0.0800 
 57 H       -0.8160    -6.8640     1.4450 H     1 <1>   0.0800 
 58 H        4.0260     7.0640     2.0520 H     1 <1>   0.1500 
 59 H        3.0320     6.7900    -2.1120 H     1 <1>   0.1500 
 60 H        3.6890     9.4820     1.9550 H     1 <1>   0.1500 
 61 H        2.7000     9.2090    -2.1740 H     1 <1>   0.1500 
 62 H        3.0230    10.5580    -0.1480 H     1 <1>   0.1500 
@<TRIPOS>BOND
  1   1   2  2   
  2   2   3  am  
  3   2   4  1   
  4   3   5  1   
  5   3   6  1   
  6   4   7  1   
  7   4  30  1   
  8   4  31  1   
  9   5   8  1   
 10   5  32  1   
 11   5  33  1   
 12   6   9  1   
 13   6  34  1   
 14   6  35  1   
 15   7  10  1   
 16   7  11  1   
 17   7  36  1   
 18   8   9  1   
 19   8  12  1   
 20   8  37  1   
 21   9  13  1   
 22   9  38  1   
 23  10  14  1   
 24  10  39  1   
 25  10  40  1   
 26  11  15  1   
 27  11  41  1   
 28  11  42  1   
 29  12  43  1   
 30  13  16  1   
 31  13  44  1   
 32  13  45  1   
 33  14  17  1   
 34  14  46  1   
 35  14  47  1   
 36  15  17  1   
 37  15  48  1   
 38  15  49  1   
 39  16  18  2   
 40  16  19  1   
 41  17  20  1   
 42  17  50  1   
 43  18  21  1   
 44  19  22  2   
 45  19  51  1   
 46  20  23  1   
 47  20  52  1   
 48  20  53  1   
 49  21  22  1   
 50  21  54  1   
 51  22  24  1   
 52  23  25  ar  
 53  23  26  ar  
 54  24  55  1   
 55  24  56  1   
 56  24  57  1   
 57  25  27  ar  
 58  25  58  1   
 59  26  28  ar  
 60  26  59  1   
 61  27  29  ar  
 62  27  60  1   
 63  28  29  ar  
 64  28  61  1   
 65  29  62  1   
@<TRIPOS>SUBSTRUCTURE
  1 ****   2 GROUP 4 **** **** 0

# MOE 2024.06 (io_trps.svl 2023.06)
