@<TRIPOS>MOLECULE
NONAME
49 52 1 0 0 
SMALL
USER_CHARGES


@<TRIPOS>ATOM
  1 O       -1.1310    -2.3200     2.4470 O.2   1 <1>  -0.5700 
  2 C       -0.6420    -2.6090     1.3730 C.2   1 <1>   0.5440 
  3 N       -1.3060    -2.6590     0.1670 N.am  1 <1>  -0.6600 
  4 C        0.7360    -2.9640     1.1980 C.ar  1 <1>   0.0860 
  5 C       -2.7280    -2.3170    -0.2190 C.3   1 <1>   0.3000 
  6 C       -0.3360    -3.0890    -0.8970 C.3   1 <1>   0.2840 
  7 C        0.9600    -3.2560    -0.1300 C.ar  1 <1>  -0.1440 
  8 C        1.7850    -3.0490     2.1060 C.ar  1 <1>  -0.1500 
  9 C       -3.5650    -1.7990     0.9780 C.3   1 <1>  -0.1600 
 10 C       -2.6520    -1.1970    -1.2920 C.3   1 <1>  -0.1600 
 11 C       -3.3560    -3.6160    -0.7760 C.3   1 <1>  -0.0990 
 12 C        2.2090    -3.6320    -0.5870 C.ar  1 <1>  -0.1500 
 13 C        3.0430    -3.4250     1.6620 C.ar  1 <1>  -0.1500 
 14 C       -3.2600    -0.3230     1.2470 C.3   1 <1>   0.1200 
 15 C       -3.7360    -0.1270    -1.1140 C.3   1 <1>   0.1200 
 16 C       -4.8050    -3.4910    -1.2160 C.2   1 <1>   0.5690 
 17 C        3.2540    -3.7160     0.3210 C.ar  1 <1>  -0.1500 
 18 O       -3.6330     0.4730     0.1500 O.3   1 <1>  -0.5600 
 19 O       -4.9900    -3.0350    -2.3200 O.2   1 <1>  -0.5700 
 20 N       -5.8560    -3.8930    -0.4260 N.am  1 <1>  -0.6600 
 21 C       -5.7900    -4.4250     0.9720 C.3   1 <1>   0.1400 
 22 C       -7.2650    -3.8140    -0.9250 C.3   1 <1>   0.1400 
 23 C       -6.5890    -5.7340     1.0870 C.3   1 <1>   0.1200 
 24 C       -7.9920    -5.1510    -0.7030 C.3   1 <1>   0.1200 
 25 O       -7.9000    -5.5500     0.6360 O.3   1 <1>  -0.5600 
 26 H       -0.2290    -2.3360    -1.6580 H     1 <1>   0.0800 
 27 H       -0.6310    -4.0270    -1.3330 H     1 <1>   0.0800 
 28 H        1.6040    -2.8200     3.1410 H     1 <1>   0.1500 
 29 H       -3.4200    -2.4000     1.8530 H     1 <1>   0.0800 
 30 H       -4.6160    -1.8410     0.7710 H     1 <1>   0.0800 
 31 H       -2.7310    -1.6080    -2.2810 H     1 <1>   0.0800 
 32 H       -1.7140    -0.6760    -1.2270 H     1 <1>   0.0800 
 33 H       -3.2460    -4.4040    -0.0610 H     1 <1>   0.0800 
 34 H       -2.8160    -3.9220    -1.6500 H     1 <1>   0.0800 
 35 H        2.3740    -3.8570    -1.6270 H     1 <1>   0.1500 
 36 H        3.8590    -3.4920     2.3600 H     1 <1>   0.1500 
 37 H       -2.2070    -0.1760     1.4190 H     1 <1>   0.0800 
 38 H       -3.8010     0.0300     2.1070 H     1 <1>   0.0800 
 39 H       -4.7200    -0.5550    -1.2060 H     1 <1>   0.0800 
 40 H       -3.6310     0.6490    -1.8520 H     1 <1>   0.0800 
 41 H        4.2350    -4.0070    -0.0150 H     1 <1>   0.1500 
 42 H       -6.2190    -3.7010     1.6420 H     1 <1>   0.0800 
 43 H       -4.7810    -4.6010     1.2900 H     1 <1>   0.0800 
 44 H       -7.2880    -3.5730    -1.9730 H     1 <1>   0.0800 
 45 H       -7.7850    -3.0350    -0.3960 H     1 <1>   0.0800 
 46 H       -6.6380    -6.0510     2.1140 H     1 <1>   0.0800 
 47 H       -6.1290    -6.5140     0.5050 H     1 <1>   0.0800 
 48 H       -7.5670    -5.9200    -1.3240 H     1 <1>   0.0800 
 49 H       -9.0350    -5.0490    -0.9450 H     1 <1>   0.0800 
@<TRIPOS>BOND
  1   1   2  2   
  2   2   3  am  
  3   2   4  1   
  4   3   5  1   
  5   3   6  1   
  6   4   7  ar  
  7   4   8  ar  
  8   5   9  1   
  9   5  10  1   
 10   5  11  1   
 11   6   7  1   
 12   6  26  1   
 13   6  27  1   
 14   7  12  ar  
 15   8  13  ar  
 16   8  28  1   
 17   9  14  1   
 18   9  29  1   
 19   9  30  1   
 20  10  15  1   
 21  10  31  1   
 22  10  32  1   
 23  11  16  1   
 24  11  33  1   
 25  11  34  1   
 26  12  17  ar  
 27  12  35  1   
 28  13  17  ar  
 29  13  36  1   
 30  14  18  1   
 31  14  37  1   
 32  14  38  1   
 33  15  18  1   
 34  15  39  1   
 35  15  40  1   
 36  16  19  2   
 37  16  20  am  
 38  17  41  1   
 39  20  21  1   
 40  20  22  1   
 41  21  23  1   
 42  21  42  1   
 43  21  43  1   
 44  22  24  1   
 45  22  44  1   
 46  22  45  1   
 47  23  25  1   
 48  23  46  1   
 49  23  47  1   
 50  24  25  1   
 51  24  48  1   
 52  24  49  1   
@<TRIPOS>SUBSTRUCTURE
  1 ****   5 GROUP 4 **** **** 0

# MOE 2024.06 (io_trps.svl 2023.06)
