@<TRIPOS>MOLECULE
NONAME
41 42 1 0 0 
SMALL
USER_CHARGES


@<TRIPOS>ATOM
  1 S        1.1130     0.3540     1.0190 S.o2  1 <1>   1.3330 
  2 O        1.2100     1.3440     2.0670 O.2   1 <1>  -0.6500 
  3 O        1.2660    -1.0470     1.3440 O.2   1 <1>  -0.6500 
  4 N       -0.3860     0.5420     0.2450 N.am  1 <1>  -0.8490 
  5 C        2.2880     0.7830    -0.2640 C.3   1 <1>  -0.0550 
  6 C       -1.4580     0.8800     1.1860 C.3   1 <1>   0.1160 
  7 C       -0.7780    -0.6160    -0.5650 C.3   1 <1>   0.1160 
  8 C        3.7440     0.8210     0.2310 C.3   1 <1>  -0.0800 
  9 C        4.7240     1.1510    -0.8830 C.3   1 <1>   0.2200 
 10 C        4.2810    -0.5030     0.7600 C.3   1 <1>   0.1200 
 11 N        4.9950     2.6030    -0.9010 N.am  1 <1>  -0.7300 
 12 C        5.9640     0.3190    -0.5490 C.3   1 <1>   0.1200 
 13 O        5.6590    -0.4130     0.5990 O.3   1 <1>  -0.5600 
 14 C        4.3880     3.4910    -1.7300 C.2   1 <1>   0.5690 
 15 O        3.6150     3.1250    -2.5830 O.2   1 <1>  -0.5700 
 16 C        4.6750     4.9780    -1.5900 C.3   1 <1>   0.0810 
 17 C        5.3800     5.3410    -0.2890 C.2   1 <1>  -0.1400 
 18 S        4.4690     5.1510     1.2030 S.3   1 <1>  -0.0800 
 19 C        6.6180     5.8000    -0.0280 C.2   1 <1>  -0.1500 
 20 C        5.8320     5.7040     2.1580 C.2   1 <1>  -0.1100 
 21 C        6.8760     6.0050     1.3650 C.2   1 <1>  -0.1500 
 22 H        2.2040     0.0820    -1.0710 H     1 <1>   0.0800 
 23 H        2.0370     1.7530    -0.6490 H     1 <1>   0.0800 
 24 H       -2.3890     1.0100     0.6620 H     1 <1>   0.0800 
 25 H       -1.2270     1.8030     1.6920 H     1 <1>   0.0800 
 26 H       -1.5690     0.1010     1.9230 H     1 <1>   0.0800 
 27 H       -1.6880    -0.4030    -1.0980 H     1 <1>   0.0800 
 28 H       -0.9320    -1.4800     0.0620 H     1 <1>   0.0800 
 29 H       -0.0090    -0.8440    -1.2830 H     1 <1>   0.0800 
 30 H        3.8320     1.5430     1.0270 H     1 <1>   0.0800 
 31 H        4.3450     0.8370    -1.8410 H     1 <1>   0.0800 
 32 H        3.9310    -1.3390     0.1780 H     1 <1>   0.0800 
 33 H        4.0550    -0.6580     1.8010 H     1 <1>   0.0800 
 34 H        5.5420     2.9670    -0.1140 H     1 <1>   0.3700 
 35 H        6.8270     0.9280    -0.3460 H     1 <1>   0.0800 
 36 H        6.1790    -0.3790    -1.3390 H     1 <1>   0.0800 
 37 H        3.7460     5.5140    -1.6500 H     1 <1>   0.0800 
 38 H        5.2840     5.2770    -2.4210 H     1 <1>   0.0800 
 39 H        7.3790     6.0090    -0.7610 H     1 <1>   0.1500 
 40 H        5.7030     5.7460     3.2250 H     1 <1>   0.1500 
 41 H        7.8320     6.3680     1.7020 H     1 <1>   0.1500 
@<TRIPOS>BOND
  1   1   2  2   
  2   1   3  2   
  3   1   4  am  
  4   1   5  1   
  5   4   6  1   
  6   4   7  1   
  7   5   8  1   
  8   5  22  1   
  9   5  23  1   
 10   6  24  1   
 11   6  25  1   
 12   6  26  1   
 13   7  27  1   
 14   7  28  1   
 15   7  29  1   
 16   8   9  1   
 17   8  10  1   
 18   8  30  1   
 19   9  11  1   
 20   9  12  1   
 21   9  31  1   
 22  10  13  1   
 23  10  32  1   
 24  10  33  1   
 25  11  14  am  
 26  11  34  1   
 27  12  13  1   
 28  12  35  1   
 29  12  36  1   
 30  14  15  2   
 31  14  16  1   
 32  16  17  1   
 33  16  37  1   
 34  16  38  1   
 35  17  18  1   
 36  17  19  2   
 37  18  20  1   
 38  19  21  1   
 39  19  39  1   
 40  20  21  2   
 41  20  40  1   
 42  21  41  1   
@<TRIPOS>SUBSTRUCTURE
  1 ****   8 GROUP 4 **** **** 0

# MOE 2024.06 (io_trps.svl 2023.06)
