@<TRIPOS>MOLECULE
NONAME
48 50 1 0 0 
SMALL
USER_CHARGES


@<TRIPOS>ATOM
  1 O       -2.6590    -0.4340    -2.7760 O.2   1 <1>  -0.5700 
  2 C       -2.5780    -0.8720    -1.6560 C.2   1 <1>   0.5690 
  3 N       -2.1840    -0.1020    -0.5990 N.am  1 <1>  -0.6600 
  4 C       -2.9680    -2.3130    -1.4470 C.3   1 <1>  -0.0190 
  5 C       -2.1310    -0.6160     0.7990 C.3   1 <1>   0.2200 
  6 C       -1.7270     1.3090    -0.7930 C.3   1 <1>   0.0600 
  7 C       -1.8010    -3.1590    -0.8950 C.3   1 <1>   0.1200 
  8 C       -4.2900    -2.3630    -0.6730 C.3   1 <1>   0.3430 
  9 C       -1.1090    -1.7730     0.9240 C.3   1 <1>   0.1200 
 10 C       -3.5530    -0.9610     1.3200 C.3   1 <1>   0.3430 
 11 O       -1.6160    -3.0060     0.4860 O.3   1 <1>  -0.5600 
 12 N       -4.1270    -2.2560     0.8150 N.4   1 <1>  -0.9590 
 13 C       -5.3680    -2.6530     1.5320 C.3   1 <1>   0.4860 
 14 C       -5.6130    -4.1300     1.2990 C.ar  1 <1>  -0.1440 
 15 C       -6.5350    -4.5330     0.3390 C.ar  1 <1>   0.0820 
 16 C       -4.9170    -5.0710     2.0410 C.ar  1 <1>  -0.1500 
 17 O       -7.1670    -3.5210    -0.3270 O.3   1 <1>  -0.3620 
 18 C       -6.7400    -5.9030     0.1020 C.ar  1 <1>   0.0820 
 19 C       -5.1310    -6.4180     1.8240 C.ar  1 <1>  -0.1500 
 20 C       -8.5050    -3.6550    -0.7630 C.3   1 <1>   0.0400 
 21 O       -7.6010    -6.2990    -0.8790 O.3   1 <1>  -0.3630 
 22 C       -6.0330    -6.8320     0.8620 C.ar  1 <1>  -0.1500 
 23 C       -7.8810    -7.6600    -1.1360 C.3   1 <1>   0.0400 
 24 H       -3.1810    -2.7010    -2.4270 H     1 <1>   0.0800 
 25 H       -1.7620     0.1860     1.4150 H     1 <1>   0.0800 
 26 H       -2.3550     1.9820    -0.2350 H     1 <1>   0.0800 
 27 H       -1.7720     1.5900    -1.8320 H     1 <1>   0.0800 
 28 H       -0.7090     1.4150    -0.4610 H     1 <1>   0.0800 
 29 H       -0.8790    -2.9180    -1.3990 H     1 <1>   0.0800 
 30 H       -2.0080    -4.2020    -1.0650 H     1 <1>   0.0800 
 31 H       -4.7580    -3.3060    -0.9030 H     1 <1>   0.0800 
 32 H       -4.9450    -1.5850    -1.0300 H     1 <1>   0.0800 
 33 H       -0.8470    -1.9010     1.9600 H     1 <1>   0.0800 
 34 H       -0.2060    -1.5490     0.3810 H     1 <1>   0.0800 
 35 H       -4.2150    -0.1480     1.0710 H     1 <1>   0.0800 
 36 H       -3.4970    -1.0160     2.3940 H     1 <1>   0.0800 
 37 H       -3.4080    -2.9750     1.0270 H     1 <1>   0.4500 
 38 H       -5.2560    -2.4810     2.5900 H     1 <1>   0.0800 
 39 H       -6.2050    -2.0730     1.1790 H     1 <1>   0.0800 
 40 H       -4.2060    -4.7720     2.7940 H     1 <1>   0.1500 
 41 H       -4.5930    -7.1500     2.4040 H     1 <1>   0.1500 
 42 H       -8.9210    -2.6720    -0.8920 H     1 <1>   0.0800 
 43 H       -9.0680    -4.1980    -0.0240 H     1 <1>   0.0800 
 44 H       -8.5150    -4.1760    -1.7040 H     1 <1>   0.0800 
 45 H       -6.1640    -7.8890     0.7220 H     1 <1>   0.1500 
 46 H       -8.6030    -7.7080    -1.9310 H     1 <1>   0.0800 
 47 H       -8.2900    -8.1070    -0.2470 H     1 <1>   0.0800 
 48 H       -6.9750    -8.1540    -1.4370 H     1 <1>   0.0800 
@<TRIPOS>BOND
  1   1   2  2   
  2   2   3  am  
  3   2   4  1   
  4   3   5  1   
  5   3   6  1   
  6   4   7  1   
  7   4   8  1   
  8   4  24  1   
  9   5   9  1   
 10   5  10  1   
 11   5  25  1   
 12   6  26  1   
 13   6  27  1   
 14   6  28  1   
 15   7  11  1   
 16   7  29  1   
 17   7  30  1   
 18   8  12  1   
 19   8  31  1   
 20   8  32  1   
 21   9  11  1   
 22   9  33  1   
 23   9  34  1   
 24  10  12  1   
 25  10  35  1   
 26  10  36  1   
 27  12  13  1   
 28  12  37  1   
 29  13  14  1   
 30  13  38  1   
 31  13  39  1   
 32  14  15  ar  
 33  14  16  ar  
 34  15  17  1   
 35  15  18  ar  
 36  16  19  ar  
 37  16  40  1   
 38  17  20  1   
 39  18  21  1   
 40  18  22  ar  
 41  19  22  ar  
 42  19  41  1   
 43  20  42  1   
 44  20  43  1   
 45  20  44  1   
 46  21  23  1   
 47  22  45  1   
 48  23  46  1   
 49  23  47  1   
 50  23  48  1   
@<TRIPOS>SUBSTRUCTURE
  1 ****   8 GROUP 4 **** **** 0

# MOE 2024.06 (io_trps.svl 2023.06)
