@<TRIPOS>MOLECULE
NONAME
51 52 1 0 0 
SMALL
USER_CHARGES


@<TRIPOS>ATOM
  1 S        0.5020     0.5340     0.7090 S.o2  1 <1>   1.3330 
  2 O        0.5650    -0.8030     1.2560 O.2   1 <1>  -0.6500 
  3 O        0.2070     1.6500     1.5790 O.2   1 <1>  -0.6500 
  4 N       -0.6400     0.5250    -0.5480 N.am  1 <1>  -0.8490 
  5 C        2.0390     0.8870    -0.1410 C.3   1 <1>  -0.0550 
  6 C       -0.6910    -0.7440    -1.2820 C.3   1 <1>   0.1160 
  7 C       -1.9810     0.8860    -0.0810 C.3   1 <1>   0.1160 
  8 C        3.2350     1.0570     0.8110 C.3   1 <1>  -0.0800 
  9 C        4.5240     1.3680     0.0670 C.3   1 <1>   0.2200 
 10 C        3.6040    -0.1880     1.6080 C.3   1 <1>   0.1200 
 11 N        4.7450     2.8280     0.0330 N.am  1 <1>  -0.7300 
 12 C        5.6020     0.6210     0.8560 C.3   1 <1>   0.1200 
 13 O        4.9520    -0.0290     1.9050 O.3   1 <1>  -0.5600 
 14 C        4.4130     3.6410    -1.0030 C.2   1 <1>   0.5690 
 15 O        3.9300     3.1990    -2.0180 O.2   1 <1>  -0.5700 
 16 C        4.6320     5.1440    -0.8810 C.3   1 <1>   0.1810 
 17 O        5.2570     5.4750     0.3500 O.3   1 <1>  -0.3630 
 18 C        5.4590     6.7910     0.5670 C.ar  1 <1>   0.0820 
 19 C        6.7220     7.3550     0.3960 C.ar  1 <1>  -0.1440 
 20 C        4.3820     7.5640     0.9690 C.ar  1 <1>  -0.1500 
 21 C        6.8820     8.7230     0.6080 C.ar  1 <1>  -0.1440 
 22 C        7.9100     6.4890    -0.0220 C.3   1 <1>  -0.0970 
 23 C        4.5500     8.9170     1.1840 C.ar  1 <1>  -0.1500 
 24 C        5.7950     9.4910     1.0010 C.ar  1 <1>  -0.1500 
 25 C        8.2270     9.4120     0.4210 C.3   1 <1>  -0.0970 
 26 H        2.2480     0.1020    -0.8400 H     1 <1>   0.0800 
 27 H        1.9190     1.7960    -0.7000 H     1 <1>   0.0800 
 28 H       -1.3670    -0.6600    -2.1160 H     1 <1>   0.0800 
 29 H       -1.0280    -1.5400    -0.6370 H     1 <1>   0.0800 
 30 H        0.2840    -0.9950    -1.6600 H     1 <1>   0.0800 
 31 H       -2.6760     0.8880    -0.9030 H     1 <1>   0.0800 
 32 H       -1.9680     1.8740     0.3490 H     1 <1>   0.0800 
 33 H       -2.3180     0.1880     0.6680 H     1 <1>   0.0800 
 34 H        3.0200     1.8400     1.5190 H     1 <1>   0.0800 
 35 H        4.4990     0.9800    -0.9380 H     1 <1>   0.0800 
 36 H        3.4930    -1.0860     1.0240 H     1 <1>   0.0800 
 37 H        3.0460    -0.2750     2.5250 H     1 <1>   0.0800 
 38 H        5.0880     3.2640     0.8950 H     1 <1>   0.3700 
 39 H        6.3430     1.2820     1.2700 H     1 <1>   0.0800 
 40 H        6.0720    -0.1280     0.2440 H     1 <1>   0.0800 
 41 H        3.6840     5.6470    -0.9330 H     1 <1>   0.0800 
 42 H        5.2620     5.4840    -1.6820 H     1 <1>   0.0800 
 43 H        3.4200     7.1080     1.1150 H     1 <1>   0.1500 
 44 H        8.7720     6.7210     0.5760 H     1 <1>   0.0800 
 45 H        8.1430     6.6680    -1.0560 H     1 <1>   0.0800 
 46 H        7.7050     5.4430     0.1050 H     1 <1>   0.0800 
 47 H        3.7160     9.5230     1.4950 H     1 <1>   0.1500 
 48 H        5.9110    10.5470     1.1700 H     1 <1>   0.1500 
 49 H        8.1260    10.4800     0.4860 H     1 <1>   0.0800 
 50 H        8.6370     9.1740    -0.5430 H     1 <1>   0.0800 
 51 H        8.9120     9.0900     1.1850 H     1 <1>   0.0800 
@<TRIPOS>BOND
  1   1   2  2   
  2   1   3  2   
  3   1   4  am  
  4   1   5  1   
  5   4   6  1   
  6   4   7  1   
  7   5   8  1   
  8   5  26  1   
  9   5  27  1   
 10   6  28  1   
 11   6  29  1   
 12   6  30  1   
 13   7  31  1   
 14   7  32  1   
 15   7  33  1   
 16   8   9  1   
 17   8  10  1   
 18   8  34  1   
 19   9  11  1   
 20   9  12  1   
 21   9  35  1   
 22  10  13  1   
 23  10  36  1   
 24  10  37  1   
 25  11  14  am  
 26  11  38  1   
 27  12  13  1   
 28  12  39  1   
 29  12  40  1   
 30  14  15  2   
 31  14  16  1   
 32  16  17  1   
 33  16  41  1   
 34  16  42  1   
 35  17  18  1   
 36  18  19  ar  
 37  18  20  ar  
 38  19  21  ar  
 39  19  22  1   
 40  20  23  ar  
 41  20  43  1   
 42  21  24  ar  
 43  21  25  1   
 44  22  44  1   
 45  22  45  1   
 46  22  46  1   
 47  23  24  ar  
 48  23  47  1   
 49  24  48  1   
 50  25  49  1   
 51  25  50  1   
 52  25  51  1   
@<TRIPOS>SUBSTRUCTURE
  1 ****  11 GROUP 4 **** **** 0

# MOE 2024.06 (io_trps.svl 2023.06)
