@<TRIPOS>MOLECULE
NONAME
52 54 1 0 0 
SMALL
USER_CHARGES


@<TRIPOS>ATOM
  1 S       -0.1220     0.4320    -1.0270 S.o2  1 <1>   1.0900 
  2 O        0.8190    -0.2090    -1.9160 O.2   1 <1>  -0.6500 
  3 O       -1.5320     0.1220    -1.0570 O.2   1 <1>  -0.6500 
  4 C        0.1240     2.1830    -1.1420 C.3   1 <1>  -0.0550 
  5 C        0.5110     0.3080     0.6350 C.3   1 <1>  -0.0550 
  6 C        1.3380     2.4890    -0.2640 C.3   1 <1>   0.1900 
  7 C        1.1330     1.6610     1.0200 C.3   1 <1>  -0.1600 
  8 N        1.4440     3.9310     0.0380 N.3   1 <1>  -0.8100 
  9 C        2.5840     4.2520     0.9650 C.3   1 <1>   0.1710 
 10 C        1.4910     4.7720    -1.1730 C.3   1 <1>   0.0300 
 11 C        2.7130     5.7150     1.4390 C.2   1 <1>   0.5690 
 12 O        2.1160     6.0150     2.4480 O.2   1 <1>  -0.5700 
 13 N        3.4980     6.6420     0.7850 N.am  1 <1>  -0.6600 
 14 C        4.3870     6.3860    -0.3940 C.3   1 <1>   0.1400 
 15 C        3.5650     8.0620     1.2620 C.3   1 <1>   0.1400 
 16 C        5.8420     6.8030    -0.1020 C.3   1 <1>   0.2090 
 17 C        5.0150     8.4870     1.5550 C.3   1 <1>   0.2090 
 18 N        5.9120     8.2170     0.3830 N.pl3 1 <1>  -0.8380 
 19 C        6.8260     9.1100    -0.0730 C.ar  1 <1>   0.1000 
 20 C        6.4770    10.3450    -0.6540 C.ar  1 <1>  -0.1430 
 21 C        8.1890     8.8090     0.0310 C.ar  1 <1>  -0.1500 
 22 C        7.4660    11.2050    -1.0690 C.ar  1 <1>   0.2110 
 23 C        5.0130    10.7270    -0.8540 C.3   1 <1>  -0.0970 
 24 C        9.1430     9.6920    -0.3970 C.ar  1 <1>   0.2110 
 25 N        8.7760    10.8800    -0.9370 N.ar  1 <1>  -0.1790 
 26 H       -0.7320     2.6950    -0.7460 H     1 <1>   0.0800 
 27 H        0.2860     2.4740    -2.1600 H     1 <1>   0.0800 
 28 H        1.2540    -0.4660     0.6780 H     1 <1>   0.0800 
 29 H       -0.2770     0.0610     1.3220 H     1 <1>   0.0800 
 30 H        2.2290     2.1510    -0.7710 H     1 <1>   0.0800 
 31 H        2.0620     1.5020     1.5390 H     1 <1>   0.0800 
 32 H        0.4490     2.1830     1.6670 H     1 <1>   0.0800 
 33 H        3.5080     3.9290     0.5270 H     1 <1>   0.0800 
 34 H        2.4610     3.6840     1.8680 H     1 <1>   0.0800 
 35 H        0.5970     4.6470    -1.7580 H     1 <1>   0.0800 
 36 H        2.3460     4.5200    -1.7770 H     1 <1>   0.0800 
 37 H        1.5390     5.8130    -0.9040 H     1 <1>   0.0800 
 38 H        4.0260     6.9590    -1.2300 H     1 <1>   0.0800 
 39 H        4.3710     5.3520    -0.6790 H     1 <1>   0.0800 
 40 H        2.9780     8.1960     2.1530 H     1 <1>   0.0800 
 41 H        3.1530     8.7050     0.5050 H     1 <1>   0.0800 
 42 H        6.4290     6.6970    -0.9980 H     1 <1>   0.0800 
 43 H        6.2530     6.1490     0.6480 H     1 <1>   0.0800 
 44 H        5.3700     7.9310     2.4050 H     1 <1>   0.0800 
 45 H        5.0440     9.5300     1.8120 H     1 <1>   0.0800 
 46 H        8.4700     7.8680     0.4680 H     1 <1>   0.1500 
 47 H        7.2190    12.1560    -1.5130 H     1 <1>   0.1500 
 48 H        4.4680     9.8940    -1.2620 H     1 <1>   0.0800 
 49 H        4.9110    11.5540    -1.5330 H     1 <1>   0.0800 
 50 H        4.5670    11.0030     0.0840 H     1 <1>   0.0800 
 51 H       10.1930     9.4610    -0.3100 H     1 <1>   0.1500 
 52 H        9.4960    11.5380    -1.2540 H     1 <1>   0.4570 
@<TRIPOS>BOND
  1   1   2  2   
  2   1   3  2   
  3   1   4  1   
  4   1   5  1   
  5   4   6  1   
  6   4  26  1   
  7   4  27  1   
  8   5   7  1   
  9   5  28  1   
 10   5  29  1   
 11   6   7  1   
 12   6   8  1   
 13   6  30  1   
 14   7  31  1   
 15   7  32  1   
 16   8   9  1   
 17   8  10  1   
 18   9  11  1   
 19   9  33  1   
 20   9  34  1   
 21  10  35  1   
 22  10  36  1   
 23  10  37  1   
 24  11  12  2   
 25  11  13  am  
 26  13  14  1   
 27  13  15  1   
 28  14  16  1   
 29  14  38  1   
 30  14  39  1   
 31  15  17  1   
 32  15  40  1   
 33  15  41  1   
 34  16  18  1   
 35  16  42  1   
 36  16  43  1   
 37  17  18  1   
 38  17  44  1   
 39  17  45  1   
 40  18  19  1   
 41  19  20  ar  
 42  19  21  ar  
 43  20  22  ar  
 44  20  23  1   
 45  21  24  ar  
 46  21  46  1   
 47  22  25  ar  
 48  22  47  1   
 49  23  48  1   
 50  23  49  1   
 51  23  50  1   
 52  24  25  ar  
 53  24  51  1   
 54  25  52  1   
@<TRIPOS>SUBSTRUCTURE
  1 ****  14 GROUP 4 **** **** 0

# MOE 2024.06 (io_trps.svl 2023.06)
