@<TRIPOS>MOLECULE
NONAME
46 48 1 0 0 
SMALL
USER_CHARGES


@<TRIPOS>ATOM
  1 O       -0.8420     0.5180    -1.5680 O.2   1 <1>  -0.5700 
  2 C       -1.8020     0.7790    -0.8690 C.2   1 <1>   0.5440 
  3 N       -1.7570     1.9090    -0.0790 N.am  1 <1>  -0.6600 
  4 C       -2.9390    -0.1080    -0.8890 C.ar  1 <1>   0.0860 
  5 C       -0.6820     2.9330    -0.2390 C.3   1 <1>   0.1400 
  6 C       -2.5960     2.1370     1.1360 C.3   1 <1>   0.1400 
  7 C       -2.7600    -1.4800    -0.7390 C.ar  1 <1>   0.1600 
  8 C       -4.2450     0.3390    -1.0720 C.ar  1 <1>  -0.1500 
  9 C       -1.2580     4.3510    -0.0940 C.3   1 <1>   0.1200 
 10 C       -3.0730     3.5980     1.1940 C.3   1 <1>   0.1200 
 11 N       -3.7170    -2.3930    -0.7270 N.ar  1 <1>  -0.6200 
 12 C       -5.2520    -0.5960    -1.0700 C.ar  1 <1>  -0.1500 
 13 O       -1.9880     4.4760     1.0960 O.3   1 <1>  -0.5600 
 14 C       -4.9540    -1.9440    -0.8950 C.ar  1 <1>   0.4100 
 15 N       -5.9600    -2.8670    -0.8960 N.pl3 1 <1>  -0.8690 
 16 C       -5.6910    -4.3220    -1.0160 C.3   1 <1>   0.3900 
 17 C       -6.9900    -5.1030    -0.9090 C.2   1 <1>   0.1080 
 18 N       -7.5320    -5.7630    -1.8720 N.2   1 <1>  -0.4100 
 19 C       -7.7650    -5.1950     0.2450 C.2   1 <1>  -0.1500 
 20 O       -8.6230    -6.2810    -1.3850 O.3   1 <1>  -0.0190 
 21 C       -8.7990    -5.9660    -0.1280 C.2   1 <1>  -0.0400 
 22 C      -10.0260    -6.4840     0.6090 C.3   1 <1>   0.1000 
 23 C      -11.2990    -5.8750     0.0130 C.3   1 <1>  -0.2400 
 24 C       -9.9500    -6.1780     2.1100 C.3   1 <1>  -0.2400 
 25 H       -0.2160     2.8400    -1.2050 H     1 <1>   0.0800 
 26 H        0.0730     2.7750     0.5100 H     1 <1>   0.0800 
 27 H       -2.0050     1.9310     2.0120 H     1 <1>   0.0800 
 28 H       -3.4450     1.4790     1.1530 H     1 <1>   0.0800 
 29 H       -1.7500    -1.8350    -0.6190 H     1 <1>   0.1500 
 30 H       -4.4460     1.3860    -1.2160 H     1 <1>   0.1500 
 31 H       -1.9070     4.5810    -0.9220 H     1 <1>   0.0800 
 32 H       -0.4620     5.0740    -0.0690 H     1 <1>   0.0800 
 33 H       -3.5660     3.7910     2.1310 H     1 <1>   0.0800 
 34 H       -3.7590     3.8070     0.3920 H     1 <1>   0.0800 
 35 H       -6.2750    -0.3010    -1.2040 H     1 <1>   0.1500 
 36 H       -6.8480    -2.6010    -1.3260 H     1 <1>   0.4000 
 37 H       -5.0200    -4.6340    -0.2340 H     1 <1>   0.0800 
 38 H       -5.2250    -4.5230    -1.9660 H     1 <1>   0.0800 
 39 H       -7.5460    -4.7350     1.1910 H     1 <1>   0.1500 
 40 H      -10.0610    -7.5530     0.4820 H     1 <1>   0.0800 
 41 H      -11.2810    -4.8040     0.1090 H     1 <1>   0.0800 
 42 H      -12.1700    -6.2570     0.5150 H     1 <1>   0.0800 
 43 H      -11.3720    -6.1220    -1.0310 H     1 <1>   0.0800 
 44 H       -9.9240    -5.1160     2.2770 H     1 <1>   0.0800 
 45 H       -9.0630    -6.6170     2.5310 H     1 <1>   0.0800 
 46 H      -10.8050    -6.5870     2.6170 H     1 <1>   0.0800 
@<TRIPOS>BOND
  1   1   2  2   
  2   2   3  am  
  3   2   4  1   
  4   3   5  1   
  5   3   6  1   
  6   4   7  ar  
  7   4   8  ar  
  8   5   9  1   
  9   5  25  1   
 10   5  26  1   
 11   6  10  1   
 12   6  27  1   
 13   6  28  1   
 14   7  11  ar  
 15   7  29  1   
 16   8  12  ar  
 17   8  30  1   
 18   9  13  1   
 19   9  31  1   
 20   9  32  1   
 21  10  13  1   
 22  10  33  1   
 23  10  34  1   
 24  11  14  ar  
 25  12  14  ar  
 26  12  35  1   
 27  14  15  1   
 28  15  16  1   
 29  15  36  1   
 30  16  17  1   
 31  16  37  1   
 32  16  38  1   
 33  17  18  2   
 34  17  19  1   
 35  18  20  1   
 36  19  21  2   
 37  19  39  1   
 38  20  21  1   
 39  21  22  1   
 40  22  23  1   
 41  22  24  1   
 42  22  40  1   
 43  23  41  1   
 44  23  42  1   
 45  23  43  1   
 46  24  44  1   
 47  24  45  1   
 48  24  46  1   
@<TRIPOS>SUBSTRUCTURE
  1 ****  14 GROUP 4 **** **** 0

# MOE 2024.06 (io_trps.svl 2023.06)
