@<TRIPOS>MOLECULE
NONAME
49 51 1 0 0 
SMALL
USER_CHARGES


@<TRIPOS>ATOM
  1 O       -0.9080    -0.0760    -2.1440 O.2   1 <1>  -0.5700 
  2 C       -0.7650     0.0360    -0.9520 C.2   1 <1>   0.5690 
  3 N       -1.0370    -0.9810    -0.1010 N.am  1 <1>  -0.7300 
  4 C       -0.3060     1.3560    -0.3790 C.3   1 <1>  -0.0990 
  5 C       -1.5070    -2.3260    -0.5060 C.3   1 <1>   0.2200 
  6 C       -1.5010     2.2720    -0.0980 C.3   1 <1>  -0.0170 
  7 C       -3.0010    -2.4880    -0.2530 C.3   1 <1>  -0.0800 
  8 C       -0.9480    -3.3520     0.4680 C.3   1 <1>   0.1200 
  9 C       -1.0400     3.5600     0.5640 C.ar  1 <1>  -0.1440 
 10 C       -3.0600    -2.8960     1.2250 C.3   1 <1>   0.1200 
 11 C       -3.8820    -1.2770    -0.6130 C.3   1 <1>  -0.0170 
 12 O       -1.7590    -3.2490     1.5990 O.3   1 <1>  -0.5600 
 13 C       -0.6390     4.6370    -0.2090 C.ar  1 <1>  -0.1500 
 14 C       -1.0130     3.6690     1.9460 C.ar  1 <1>  -0.1500 
 15 C       -5.3540    -1.5910    -0.3950 C.ar  1 <1>  -0.1440 
 16 C       -0.2150     5.8170     0.3810 C.ar  1 <1>   0.0820 
 17 C       -0.5900     4.8430     2.5450 C.ar  1 <1>  -0.1500 
 18 C       -6.0900    -2.2990    -1.3230 C.ar  1 <1>  -0.1500 
 19 C       -6.0300    -1.1860     0.7390 C.ar  1 <1>  -0.1500 
 20 O        0.1590     6.8180    -0.4550 O.3   1 <1>  -0.3620 
 21 C       -0.1910     5.9170     1.7690 C.ar  1 <1>  -0.1500 
 22 C       -7.4260    -2.5650    -1.0780 C.ar  1 <1>   0.1600 
 23 C       -7.3690    -1.5060     0.8870 C.ar  1 <1>   0.1600 
 24 C        0.5940     8.0640     0.0430 C.3   1 <1>   0.0400 
 25 N       -8.0830    -2.1880     0.0070 N.ar  1 <1>  -0.6200 
 26 H       -0.9340    -0.8670     0.9100 H     1 <1>   0.3700 
 27 H        0.2450     1.1820     0.5270 H     1 <1>   0.0800 
 28 H        0.3540     1.8300    -1.0830 H     1 <1>   0.0800 
 29 H       -1.2310    -2.5340    -1.5270 H     1 <1>   0.0800 
 30 H       -2.2050     1.7700     0.5430 H     1 <1>   0.0800 
 31 H       -2.0050     2.4980    -1.0220 H     1 <1>   0.0800 
 32 H       -3.3400    -3.3300    -0.8300 H     1 <1>   0.0800 
 33 H        0.0770    -3.1620     0.7350 H     1 <1>   0.0800 
 34 H       -1.0480    -4.3490     0.0760 H     1 <1>   0.0800 
 35 H       -3.7100    -3.7400     1.3790 H     1 <1>   0.0800 
 36 H       -3.3680    -2.0790     1.8540 H     1 <1>   0.0800 
 37 H       -3.7220    -1.0150    -1.6450 H     1 <1>   0.0800 
 38 H       -3.6110    -0.4240    -0.0180 H     1 <1>   0.0800 
 39 H       -0.6510     4.5740    -1.2830 H     1 <1>   0.1500 
 40 H       -1.3210     2.8430     2.5620 H     1 <1>   0.1500 
 41 H       -0.5730     4.9200     3.6180 H     1 <1>   0.1500 
 42 H       -5.6370    -2.6440    -2.2340 H     1 <1>   0.1500 
 43 H       -5.5310    -0.6260     1.5080 H     1 <1>   0.1500 
 44 H        0.1320     6.8150     2.2580 H     1 <1>   0.1500 
 45 H       -7.9850    -3.1190    -1.8130 H     1 <1>   0.1500 
 46 H       -7.8810    -1.1830     1.7780 H     1 <1>   0.1500 
 47 H        0.8290     8.6940    -0.7960 H     1 <1>   0.0800 
 48 H        1.4730     7.9110     0.6430 H     1 <1>   0.0800 
 49 H       -0.1980     8.5050     0.6210 H     1 <1>   0.0800 
@<TRIPOS>BOND
  1   1   2  2   
  2   2   3  am  
  3   2   4  1   
  4   3   5  1   
  5   3  26  1   
  6   4   6  1   
  7   4  27  1   
  8   4  28  1   
  9   5   7  1   
 10   5   8  1   
 11   5  29  1   
 12   6   9  1   
 13   6  30  1   
 14   6  31  1   
 15   7  10  1   
 16   7  11  1   
 17   7  32  1   
 18   8  12  1   
 19   8  33  1   
 20   8  34  1   
 21   9  13  ar  
 22   9  14  ar  
 23  10  12  1   
 24  10  35  1   
 25  10  36  1   
 26  11  15  1   
 27  11  37  1   
 28  11  38  1   
 29  13  16  ar  
 30  13  39  1   
 31  14  17  ar  
 32  14  40  1   
 33  15  18  ar  
 34  15  19  ar  
 35  16  20  1   
 36  16  21  ar  
 37  17  21  ar  
 38  17  41  1   
 39  18  22  ar  
 40  18  42  1   
 41  19  23  ar  
 42  19  43  1   
 43  20  24  1   
 44  21  44  1   
 45  22  25  ar  
 46  22  45  1   
 47  23  25  ar  
 48  23  46  1   
 49  24  47  1   
 50  24  48  1   
 51  24  49  1   
@<TRIPOS>SUBSTRUCTURE
  1 ****   6 GROUP 4 **** **** 0

# MOE 2024.06 (io_trps.svl 2023.06)
