@<TRIPOS>MOLECULE
NONAME
54 56 1 0 0 
SMALL
USER_CHARGES


@<TRIPOS>ATOM
  1 O       -0.6530     0.1440    -1.5030 O.2   1 <1>  -0.5700 
  2 C       -1.5800     0.7190    -0.9610 C.2   1 <1>   0.7150 
  3 N       -2.7010    -0.0220    -0.6350 N.am  1 <1>  -0.6600 
  4 C       -1.4860     2.1420    -0.6850 C.2   1 <1>   0.0550 
  5 C       -2.8990    -1.3730    -1.2700 C.3   1 <1>   0.3210 
  6 C       -3.7560     0.4880     0.2900 C.3   1 <1>   0.1400 
  7 O       -2.5740     2.9230    -0.8270 O.3   1 <1>  -0.2800 
  8 C       -0.4370     2.9130    -0.2870 C.2   1 <1>  -0.1810 
  9 C       -3.9010    -2.2770    -0.5440 C.2   1 <1>   0.0460 
 10 C       -4.9550     1.0160    -0.5180 C.3   1 <1>   0.3430 
 11 C       -2.2360     4.1730    -0.5250 C.ar  1 <1>   0.1400 
 12 C       -0.9040     4.2340    -0.1660 C.ar  1 <1>   0.0000 
 13 C        1.0010     2.5090    -0.0040 C.3   1 <1>  -0.0590 
 14 N       -5.2370    -2.0770    -0.6410 N.2   1 <1>  -0.5650 
 15 C       -3.6340    -3.3510     0.2360 C.2   1 <1>  -0.3320 
 16 N       -6.0260     1.6000     0.3530 N.4   1 <1>  -0.9590 
 17 C       -3.0510     5.2940    -0.5380 C.ar  1 <1>  -0.1500 
 18 C       -0.3570     5.4640     0.2070 C.ar  1 <1>  -0.1500 
 19 C       -5.7450    -3.0410     0.0580 C.2   1 <1>   0.0360 
 20 N       -4.8240    -3.8480     0.6200 N.pl3 1 <1>   0.0330 
 21 C       -2.3150    -3.9800     0.6590 C.3   1 <1>  -0.0600 
 22 C       -7.2670     1.8000    -0.4530 C.3   1 <1>   0.2630 
 23 C       -5.5870     2.8840     0.9860 C.3   1 <1>   0.2630 
 24 C       -2.5130     6.5070    -0.1610 C.ar  1 <1>   0.0820 
 25 C       -1.1590     6.5880     0.2110 C.ar  1 <1>  -0.1500 
 26 O       -3.3510     7.5710    -0.1740 O.3   1 <1>  -0.3620 
 27 C       -2.8880     8.8780     0.0920 C.3   1 <1>   0.0400 
 28 H       -1.9550    -1.8850    -1.3190 H     1 <1>   0.0800 
 29 H       -3.2370    -1.2350    -2.2820 H     1 <1>   0.0800 
 30 H       -3.3450     1.2720     0.8980 H     1 <1>   0.0800 
 31 H       -4.0700    -0.2950     0.9570 H     1 <1>   0.0800 
 32 H       -5.3660     0.2010    -1.0900 H     1 <1>   0.0800 
 33 H       -4.6080     1.7640    -1.2110 H     1 <1>   0.0800 
 34 H        1.1340     1.4480    -0.1190 H     1 <1>   0.0800 
 35 H        1.2690     2.7810     1.0010 H     1 <1>   0.0800 
 36 H        1.6610     3.0100    -0.6890 H     1 <1>   0.0800 
 37 H       -6.2340     0.9040     1.0860 H     1 <1>   0.4500 
 38 H       -4.0760     5.2250    -0.8430 H     1 <1>   0.1500 
 39 H        0.6800     5.5200     0.4860 H     1 <1>   0.1500 
 40 H       -6.8010    -3.2080     0.1910 H     1 <1>   0.1500 
 41 H       -4.9970    -4.6740     1.2030 H     1 <1>   0.2700 
 42 H       -1.4810    -3.4070     0.2960 H     1 <1>   0.0800 
 43 H       -2.2380    -4.9780     0.2650 H     1 <1>   0.0800 
 44 H       -2.2510    -4.0230     1.7310 H     1 <1>   0.0800 
 45 H       -7.0880     2.5060    -1.2480 H     1 <1>   0.0800 
 46 H       -8.0620     2.1760     0.1700 H     1 <1>   0.0800 
 47 H       -7.5830     0.8650    -0.8870 H     1 <1>   0.0800 
 48 H       -5.3330     3.6070     0.2270 H     1 <1>   0.0800 
 49 H       -4.7210     2.7240     1.6070 H     1 <1>   0.0800 
 50 H       -6.3760     3.2900     1.5980 H     1 <1>   0.0800 
 51 H       -0.7280     7.5270     0.5030 H     1 <1>   0.1500 
 52 H       -3.7170     9.5550    -0.0170 H     1 <1>   0.0800 
 53 H       -2.1190     9.1280    -0.6180 H     1 <1>   0.0800 
 54 H       -2.5130     8.9200     1.0990 H     1 <1>   0.0800 
@<TRIPOS>BOND
  1   1   2  2   
  2   2   3  am  
  3   2   4  1   
  4   3   5  1   
  5   3   6  1   
  6   4   7  1   
  7   4   8  2   
  8   5   9  1   
  9   5  28  1   
 10   5  29  1   
 11   6  10  1   
 12   6  30  1   
 13   6  31  1   
 14   7  11  1   
 15   8  12  1   
 16   8  13  1   
 17   9  14  1   
 18   9  15  2   
 19  10  16  1   
 20  10  32  1   
 21  10  33  1   
 22  11  12  ar  
 23  11  17  ar  
 24  12  18  ar  
 25  13  34  1   
 26  13  35  1   
 27  13  36  1   
 28  14  19  2   
 29  15  20  1   
 30  15  21  1   
 31  16  22  1   
 32  16  23  1   
 33  16  37  1   
 34  17  24  ar  
 35  17  38  1   
 36  18  25  ar  
 37  18  39  1   
 38  19  20  1   
 39  19  40  1   
 40  20  41  1   
 41  21  42  1   
 42  21  43  1   
 43  21  44  1   
 44  22  45  1   
 45  22  46  1   
 46  22  47  1   
 47  23  48  1   
 48  23  49  1   
 49  23  50  1   
 50  24  25  ar  
 51  24  26  1   
 52  25  51  1   
 53  26  27  1   
 54  27  52  1   
 55  27  53  1   
 56  27  54  1   
@<TRIPOS>SUBSTRUCTURE
  1 ****   7 GROUP 4 **** **** 0

# MOE 2024.06 (io_trps.svl 2023.06)
