@<TRIPOS>MOLECULE
NONAME
47 49 1 0 0 
SMALL
USER_CHARGES


@<TRIPOS>ATOM
  1 S        0.3930     0.3920    -1.0900 S.o2  1 <1>   1.3330 
  2 O       -0.6840     1.2870    -1.4500 O.2   1 <1>  -0.6500 
  3 O        0.5630    -0.8510    -1.8090 O.2   1 <1>  -0.6500 
  4 N        0.2020     0.0160     0.5560 N.am  1 <1>  -0.8490 
  5 C        1.9470     1.2860    -1.1520 C.3   1 <1>  -0.0550 
  6 C       -0.3330     1.1300     1.3480 C.3   1 <1>   0.1160 
  7 C       -0.6290    -1.1760     0.7560 C.3   1 <1>   0.1160 
  8 C        3.1890     0.4300    -0.8200 C.3   1 <1>  -0.0800 
  9 C        4.5210     1.1260    -1.0580 C.3   1 <1>   0.2200 
 10 C        3.2990    -0.0240     0.6410 C.3   1 <1>   0.1200 
 11 N        4.4750     2.5260    -0.5740 N.am  1 <1>  -0.7300 
 12 C        5.4250     0.3180    -0.1390 C.3   1 <1>   0.1200 
 13 O        4.6510     0.0600     0.9910 O.3   1 <1>  -0.5600 
 14 C        4.3350     3.6350    -1.3580 C.2   1 <1>   0.5440 
 15 O        4.1780     3.4750    -2.5520 O.2   1 <1>  -0.5700 
 16 C        4.2960     4.9560    -0.7700 C.ar  1 <1>   0.0860 
 17 C        5.3030     5.4150     0.1310 C.ar  1 <1>   0.0000 
 18 C        3.2360     5.7870    -1.0660 C.ar  1 <1>  -0.1500 
 19 C        5.1310     6.6660     0.7700 C.ar  1 <1>   0.0000 
 20 C        6.4880     4.6960     0.4180 C.ar  1 <1>  -0.1500 
 21 C        3.0900     7.0350    -0.4640 C.ar  1 <1>  -0.1500 
 22 C        4.0150     7.4590     0.4450 C.ar  1 <1>  -0.1500 
 23 C        6.0910     7.1020     1.7060 C.ar  1 <1>  -0.1500 
 24 C        7.4090     5.1470     1.3220 C.ar  1 <1>  -0.1500 
 25 C        7.2040     6.3610     1.9830 C.ar  1 <1>  -0.1500 
 26 H        2.0690     1.6720    -2.1460 H     1 <1>   0.0800 
 27 H        1.8970     2.1270    -0.4900 H     1 <1>   0.0800 
 28 H       -0.3490     0.8670     2.3920 H     1 <1>   0.0800 
 29 H       -1.3360     1.3700     1.0320 H     1 <1>   0.0800 
 30 H        0.2840     2.0030     1.2280 H     1 <1>   0.0800 
 31 H       -0.7230    -1.3950     1.8060 H     1 <1>   0.0800 
 32 H       -0.1770    -2.0270     0.2750 H     1 <1>   0.0800 
 33 H       -1.6100    -1.0230     0.3360 H     1 <1>   0.0800 
 34 H        3.1670    -0.4540    -1.4350 H     1 <1>   0.0800 
 35 H        4.8370     1.0860    -2.0870 H     1 <1>   0.0800 
 36 H        2.9640    -1.0390     0.7700 H     1 <1>   0.0800 
 37 H        2.7530     0.6250     1.3040 H     1 <1>   0.0800 
 38 H        4.5500     2.6220     0.4430 H     1 <1>   0.3700 
 39 H        6.3180     0.8480     0.1430 H     1 <1>   0.0800 
 40 H        5.6820    -0.6260    -0.5870 H     1 <1>   0.0800 
 41 H        2.4910     5.4650    -1.7750 H     1 <1>   0.1500 
 42 H        6.6810     3.7710    -0.0930 H     1 <1>   0.1500 
 43 H        2.2430     7.6500    -0.7220 H     1 <1>   0.1500 
 44 H        3.9060     8.4160     0.9240 H     1 <1>   0.1500 
 45 H        5.9320     8.0420     2.2030 H     1 <1>   0.1500 
 46 H        8.3000     4.5820     1.5330 H     1 <1>   0.1500 
 47 H        7.9340     6.6990     2.6980 H     1 <1>   0.1500 
@<TRIPOS>BOND
  1   1   2  2   
  2   1   3  2   
  3   1   4  am  
  4   1   5  1   
  5   4   6  1   
  6   4   7  1   
  7   5   8  1   
  8   5  26  1   
  9   5  27  1   
 10   6  28  1   
 11   6  29  1   
 12   6  30  1   
 13   7  31  1   
 14   7  32  1   
 15   7  33  1   
 16   8   9  1   
 17   8  10  1   
 18   8  34  1   
 19   9  11  1   
 20   9  12  1   
 21   9  35  1   
 22  10  13  1   
 23  10  36  1   
 24  10  37  1   
 25  11  14  am  
 26  11  38  1   
 27  12  13  1   
 28  12  39  1   
 29  12  40  1   
 30  14  15  2   
 31  14  16  1   
 32  16  17  ar  
 33  16  18  ar  
 34  17  19  ar  
 35  17  20  ar  
 36  18  21  ar  
 37  18  41  1   
 38  19  22  ar  
 39  19  23  ar  
 40  20  24  ar  
 41  20  42  1   
 42  21  22  ar  
 43  21  43  1   
 44  22  44  1   
 45  23  25  ar  
 46  23  45  1   
 47  24  25  ar  
 48  24  46  1   
 49  25  47  1   
@<TRIPOS>SUBSTRUCTURE
  1 ****  11 GROUP 4 **** **** 0

# MOE 2024.06 (io_trps.svl 2023.06)
