@<TRIPOS>MOLECULE
NONAME
60 63 1 0 0 
SMALL
USER_CHARGES


@<TRIPOS>ATOM
  1 F       -1.0420    -0.0990    -1.6180 F     1 <1>  -0.1900 
  2 C       -1.0250    -1.3720    -1.3300 C.ar  1 <1>   0.1900 
  3 C       -1.7750    -1.8200    -0.2600 C.ar  1 <1>  -0.1500 
  4 C       -0.2640    -2.2230    -2.1040 C.ar  1 <1>  -0.1500 
  5 C       -1.7640    -3.1730     0.0540 C.ar  1 <1>  -0.1440 
  6 C       -0.2500    -3.5680    -1.7850 C.ar  1 <1>  -0.1500 
  7 C       -0.9840    -4.0590    -0.7040 C.ar  1 <1>  -0.0230 
  8 C       -2.6180    -3.6650     1.2160 C.3   1 <1>   0.4870 
  9 N       -0.9280    -5.4510    -0.3990 N.pl3 1 <1>   0.5930 
 10 N       -4.0490    -3.5450     0.8460 N.4   1 <1>  -0.9590 
 11 N       -2.0440    -6.2250    -0.3500 N.2   1 <1>  -0.7070 
 12 C        0.1580    -6.1810    -0.0260 C.2   1 <1>  -0.3320 
 13 C       -4.9810    -3.7280     1.9900 C.3   1 <1>   0.3430 
 14 C       -4.4290    -4.3890    -0.3170 C.3   1 <1>   0.3430 
 15 C       -1.6370    -7.4000     0.0060 C.2   1 <1>   0.1080 
 16 C       -0.2670    -7.4340     0.2300 C.2   1 <1>  -0.1500 
 17 C        1.5780    -5.6440     0.0800 C.3   1 <1>  -0.0600 
 18 C       -6.4430    -3.6470     1.5280 C.3   1 <1>  -0.1600 
 19 C       -5.7970    -3.9470    -0.8520 C.3   1 <1>  -0.1600 
 20 C       -2.5660    -8.5830     0.1550 C.3   1 <1>  -0.0590 
 21 C       -6.6030    -3.0550     0.1130 C.3   1 <1>   0.2800 
 22 O       -5.9700    -1.8010     0.0820 O.3   1 <1>  -0.5600 
 23 C       -8.0800    -2.9620    -0.3600 C.3   1 <1>  -0.1600 
 24 C       -6.5610    -0.6920     0.7270 C.3   1 <1>   0.1200 
 25 C       -8.6440    -1.5370    -0.4710 C.3   1 <1>   0.2800 
 26 C       -8.1020    -0.6650     0.6830 C.3   1 <1>   0.2000 
 27 O       -8.2170    -0.9910    -1.6660 O.3   1 <1>  -0.6800 
 28 C      -10.1750    -1.5430    -0.5520 C.3   1 <1>  -0.2400 
 29 O       -8.5890    -1.1190     1.9140 O.3   1 <1>  -0.6800 
 30 H       -2.3520    -1.1060     0.3010 H     1 <1>   0.1500 
 31 H        0.3000    -1.8360    -2.9350 H     1 <1>   0.1500 
 32 H        0.3350    -4.2450    -2.3870 H     1 <1>   0.1500 
 33 H       -2.4140    -3.0580     2.0820 H     1 <1>   0.0800 
 34 H       -2.3850    -4.6880     1.4600 H     1 <1>   0.0800 
 35 H       -4.2320    -2.5820     0.5060 H     1 <1>   0.4500 
 36 H       -4.8060    -4.6800     2.4650 H     1 <1>   0.0800 
 37 H       -4.8030    -2.9510     2.7160 H     1 <1>   0.0800 
 38 H       -3.6950    -4.3020    -1.1020 H     1 <1>   0.0800 
 39 H       -4.4650    -5.4240    -0.0140 H     1 <1>   0.0800 
 40 H        0.3030    -8.2930     0.5420 H     1 <1>   0.1500 
 41 H        2.2310    -6.4000     0.4790 H     1 <1>   0.0800 
 42 H        1.6110    -4.7890     0.7310 H     1 <1>   0.0800 
 43 H        1.9470    -5.3600    -0.8900 H     1 <1>   0.0800 
 44 H       -7.0090    -3.0870     2.2480 H     1 <1>   0.0800 
 45 H       -6.8520    -4.6410     1.5350 H     1 <1>   0.0800 
 46 H       -6.3520    -4.8410    -1.0730 H     1 <1>   0.0800 
 47 H       -5.6650    -3.4270    -1.7850 H     1 <1>   0.0800 
 48 H       -2.0110    -9.4660     0.4130 H     1 <1>   0.0800 
 49 H       -3.0810    -8.7560    -0.7730 H     1 <1>   0.0800 
 50 H       -3.2880    -8.3860     0.9250 H     1 <1>   0.0800 
 51 H       -8.2180    -3.4650    -1.2990 H     1 <1>   0.0800 
 52 H       -8.6810    -3.5030     0.3480 H     1 <1>   0.0800 
 53 H       -6.2130    -0.6550     1.7430 H     1 <1>   0.0800 
 54 H       -6.1940     0.1780     0.2120 H     1 <1>   0.0800 
 55 H       -8.4390     0.3510     0.5710 H     1 <1>   0.0800 
 56 H       -8.5720    -1.5030    -2.4150 H     1 <1>   0.4000 
 57 H      -10.5990    -1.9760     0.3360 H     1 <1>   0.0800 
 58 H      -10.5090    -2.1230    -1.3930 H     1 <1>   0.0800 
 59 H      -10.5470    -0.5380    -0.6470 H     1 <1>   0.0800 
 60 H       -9.5480    -0.9400     1.9780 H     1 <1>   0.4000 
@<TRIPOS>BOND
  1   1   2  1   
  2   2   3  ar  
  3   2   4  ar  
  4   3   5  ar  
  5   3  30  1   
  6   4   6  ar  
  7   4  31  1   
  8   5   7  ar  
  9   5   8  1   
 10   6   7  ar  
 11   6  32  1   
 12   7   9  1   
 13   8  10  1   
 14   8  33  1   
 15   8  34  1   
 16   9  11  1   
 17   9  12  1   
 18  10  13  1   
 19  10  14  1   
 20  10  35  1   
 21  11  15  2   
 22  12  16  2   
 23  12  17  1   
 24  13  18  1   
 25  13  36  1   
 26  13  37  1   
 27  14  19  1   
 28  14  38  1   
 29  14  39  1   
 30  15  16  1   
 31  15  20  1   
 32  16  40  1   
 33  17  41  1   
 34  17  42  1   
 35  17  43  1   
 36  18  21  1   
 37  18  44  1   
 38  18  45  1   
 39  19  21  1   
 40  19  46  1   
 41  19  47  1   
 42  20  48  1   
 43  20  49  1   
 44  20  50  1   
 45  21  22  1   
 46  21  23  1   
 47  22  24  1   
 48  23  25  1   
 49  23  51  1   
 50  23  52  1   
 51  24  26  1   
 52  24  53  1   
 53  24  54  1   
 54  25  26  1   
 55  25  27  1   
 56  25  28  1   
 57  26  29  1   
 58  26  55  1   
 59  27  56  1   
 60  28  57  1   
 61  28  58  1   
 62  28  59  1   
 63  29  60  1   
@<TRIPOS>SUBSTRUCTURE
  1 ****  10 GROUP 4 **** **** 0

# MOE 2024.06 (io_trps.svl 2023.06)
