@<TRIPOS>MOLECULE
NONAME
49 51 1 0 0 
SMALL
USER_CHARGES


@<TRIPOS>ATOM
  1 O        1.5440    -0.3690    -1.2130 O.3   1 <1>  -0.6800 
  2 C        1.7380     0.4880    -0.1450 C.3   1 <1>   0.2800 
  3 C        3.2560     0.6230     0.1760 C.3   1 <1>  -0.0800 
  4 C        0.9970    -0.1350     1.0540 C.3   1 <1>  -0.1600 
  5 C        1.0860     1.8360    -0.5250 C.3   1 <1>  -0.1600 
  6 C        3.7780    -0.3000     1.2870 C.3   1 <1>  -0.0800 
  7 C        4.2200     0.3730    -0.9870 C.3   1 <1>   0.2090 
  8 C        1.5480    -1.5150     1.4730 C.3   1 <1>  -0.1600 
  9 C        1.6830     2.5390    -1.7570 C.3   1 <1>  -0.2400 
 10 C        3.0650    -1.6620     1.2520 C.3   1 <1>  -0.1600 
 11 C        5.2850    -0.4100     1.0290 C.3   1 <1>   0.2090 
 12 N        5.5270     0.0550    -0.3610 N.pl3 1 <1>  -0.8380 
 13 C        6.5130     1.0030    -0.5270 C.ar  1 <1>   0.4100 
 14 N        6.3140     2.1950     0.0240 N.ar  1 <1>  -0.6200 
 15 C        7.6490     0.6760    -1.2570 C.ar  1 <1>  -0.1500 
 16 C        7.2690     3.0950    -0.1560 C.ar  1 <1>   0.1670 
 17 C        8.6400     1.6100    -1.4420 C.ar  1 <1>  -0.1500 
 18 C        8.4330     2.8500    -0.8720 C.ar  1 <1>  -0.1500 
 19 C        7.0280     4.4660     0.4790 C.3   1 <1>   0.0630 
 20 C        6.9130     5.5640    -0.5880 C.3   1 <1>  -0.2400 
 21 C        8.1140     4.8170     1.5050 C.3   1 <1>  -0.2400 
 22 H        0.5900    -0.4730    -1.3720 H     1 <1>   0.4000 
 23 H        3.4390     1.6270     0.5160 H     1 <1>   0.0800 
 24 H        1.1040     0.5350     1.8890 H     1 <1>   0.0800 
 25 H       -0.0560    -0.2110     0.8500 H     1 <1>   0.0800 
 26 H        0.0350     1.6810    -0.6940 H     1 <1>   0.0800 
 27 H        1.1700     2.5040     0.3140 H     1 <1>   0.0800 
 28 H        3.6190     0.1470     2.2520 H     1 <1>   0.0800 
 29 H        4.2930     1.2320    -1.6300 H     1 <1>   0.0800 
 30 H        3.9200    -0.4770    -1.5730 H     1 <1>   0.0800 
 31 H        1.3180    -1.6770     2.5120 H     1 <1>   0.0800 
 32 H        1.0490    -2.2850     0.9090 H     1 <1>   0.0800 
 33 H        1.6770     1.8850    -2.6110 H     1 <1>   0.0800 
 34 H        2.6930     2.8530    -1.5650 H     1 <1>   0.0800 
 35 H        1.1030     3.4130    -1.9940 H     1 <1>   0.0800 
 36 H        3.2350    -2.1120     0.2880 H     1 <1>   0.0800 
 37 H        3.4770    -2.3210     1.9960 H     1 <1>   0.0800 
 38 H        5.6300    -1.4230     1.1390 H     1 <1>   0.0800 
 39 H        5.8220     0.2160     1.7220 H     1 <1>   0.0800 
 40 H        7.7260    -0.3120    -1.6670 H     1 <1>   0.1500 
 41 H        9.5300     1.3870    -2.0030 H     1 <1>   0.1500 
 42 H        9.1730     3.6190    -0.9880 H     1 <1>   0.1500 
 43 H        6.0880     4.4240     1.0040 H     1 <1>   0.0800 
 44 H        7.8400     5.6810    -1.1200 H     1 <1>   0.0800 
 45 H        6.6560     6.5020    -0.1300 H     1 <1>   0.0800 
 46 H        6.1420     5.3040    -1.2920 H     1 <1>   0.0800 
 47 H        9.0730     4.9240     1.0320 H     1 <1>   0.0800 
 48 H        8.1800     4.0350     2.2420 H     1 <1>   0.0800 
 49 H        7.8710     5.7370     2.0040 H     1 <1>   0.0800 
@<TRIPOS>BOND
  1   1   2  1   
  2   1  22  1   
  3   2   3  1   
  4   2   4  1   
  5   2   5  1   
  6   3   6  1   
  7   3   7  1   
  8   3  23  1   
  9   4   8  1   
 10   4  24  1   
 11   4  25  1   
 12   5   9  1   
 13   5  26  1   
 14   5  27  1   
 15   6  10  1   
 16   6  11  1   
 17   6  28  1   
 18   7  12  1   
 19   7  29  1   
 20   7  30  1   
 21   8  10  1   
 22   8  31  1   
 23   8  32  1   
 24   9  33  1   
 25   9  34  1   
 26   9  35  1   
 27  10  36  1   
 28  10  37  1   
 29  11  12  1   
 30  11  38  1   
 31  11  39  1   
 32  12  13  1   
 33  13  14  ar  
 34  13  15  ar  
 35  14  16  ar  
 36  15  17  ar  
 37  15  40  1   
 38  16  18  ar  
 39  16  19  1   
 40  17  18  ar  
 41  17  41  1   
 42  18  42  1   
 43  19  20  1   
 44  19  21  1   
 45  19  43  1   
 46  20  44  1   
 47  20  45  1   
 48  20  46  1   
 49  21  47  1   
 50  21  48  1   
 51  21  49  1   
@<TRIPOS>SUBSTRUCTURE
  1 ****   7 GROUP 4 **** **** 0

# MOE 2024.06 (io_trps.svl 2023.06)
