@<TRIPOS>MOLECULE
NONAME
51 53 1 0 0 
SMALL
USER_CHARGES


@<TRIPOS>ATOM
  1 CL      -0.3260    -0.0370     0.7210 Cl    1 <1>  -0.1770 
  2 C       -2.0390     0.2540     0.5850 C.ar  1 <1>   0.1770 
  3 C       -2.7080    -0.1320    -0.5610 C.ar  1 <1>  -0.1500 
  4 C       -2.7100     0.8680     1.6250 C.ar  1 <1>  -0.1500 
  5 C       -4.0670     0.1030    -0.6640 C.ar  1 <1>  -0.1500 
  6 C       -4.0700     1.0960     1.5110 C.ar  1 <1>  -0.1500 
  7 C       -4.7810     0.7170     0.3690 C.ar  1 <1>   0.0530 
  8 C       -6.1980     0.9720     0.2720 C.2   1 <1>   0.0870 
  9 O       -6.7060     2.0290     0.8530 O.3   1 <1>  -0.0190 
 10 C       -7.2290     0.3270    -0.3390 C.2   1 <1>  -0.0860 
 11 N       -7.9950     2.1420     0.6760 N.2   1 <1>  -0.4100 
 12 C       -8.3380     1.1250    -0.0310 C.2   1 <1>   0.3720 
 13 C       -7.2710    -0.8810    -1.1000 C.2   1 <1>   0.7160 
 14 N       -9.6550     0.8630    -0.4270 N.pl3 1 <1>  -0.8520 
 15 O       -6.5030    -1.8000    -0.8900 O.2   1 <1>  -0.5700 
 16 N       -8.2230    -1.0430    -2.0560 N.am  1 <1>  -0.7300 
 17 C      -10.7310     1.7060     0.1610 C.3   1 <1>   0.2090 
 18 C       -8.9080    -2.3520    -2.2440 C.3   1 <1>   0.2010 
 19 C      -12.1000     1.1490    -0.2320 C.3   1 <1>   0.1200 
 20 C       -9.8030    -2.6740    -1.0390 C.2   1 <1>   0.5690 
 21 O      -13.0930     1.9470     0.3340 O.3   1 <1>  -0.5600 
 22 O      -10.6870    -1.8850    -0.7780 O.2   1 <1>  -0.5700 
 23 N       -9.5920    -3.7810    -0.2630 N.am  1 <1>  -0.6600 
 24 C      -14.3850     1.5170     0.0510 C.3   1 <1>   0.0400 
 25 C       -8.4120    -4.6770    -0.3170 C.3   1 <1>   0.1400 
 26 C      -10.4380    -4.0940     0.9090 C.3   1 <1>   0.1400 
 27 C       -8.4210    -5.4130     1.0180 C.3   1 <1>  -0.1600 
 28 C       -9.8830    -5.4040     1.4550 C.3   1 <1>  -0.1600 
 29 H       -2.1680    -0.6090    -1.3590 H     1 <1>   0.1500 
 30 H       -2.1710     1.1620     2.5070 H     1 <1>   0.1500 
 31 H       -4.5800    -0.1950    -1.5610 H     1 <1>   0.1500 
 32 H       -4.5930     1.5730     2.3220 H     1 <1>   0.1500 
 33 H       -9.9130    -0.1350    -0.3180 H     1 <1>   0.4000 
 34 H       -8.8700    -0.2450    -2.1250 H     1 <1>   0.3700 
 35 H      -10.6320     2.7140    -0.2030 H     1 <1>   0.0800 
 36 H      -10.6420     1.7090     1.2350 H     1 <1>   0.0800 
 37 H       -8.1750    -3.1220    -2.3950 H     1 <1>   0.0800 
 38 H       -9.5240    -2.3030    -3.1230 H     1 <1>   0.0800 
 39 H      -12.2130     0.1460     0.1400 H     1 <1>   0.0800 
 40 H      -12.2120     1.1670    -1.3020 H     1 <1>   0.0800 
 41 H      -15.0740     2.1910     0.5280 H     1 <1>   0.0800 
 42 H      -14.5210     0.5220     0.4390 H     1 <1>   0.0800 
 43 H      -14.5390     1.5330    -1.0140 H     1 <1>   0.0800 
 44 H       -7.4980    -4.1200    -0.4420 H     1 <1>   0.0800 
 45 H       -8.5320    -5.3740    -1.1280 H     1 <1>   0.0800 
 46 H      -11.4720    -4.1850     0.6230 H     1 <1>   0.0800 
 47 H      -10.3330    -3.3070     1.6370 H     1 <1>   0.0800 
 48 H       -7.8250    -4.8600     1.7230 H     1 <1>   0.0800 
 49 H       -8.0230    -6.4080     0.9290 H     1 <1>   0.0800 
 50 H      -10.4080    -6.2240     0.9960 H     1 <1>   0.0800 
 51 H       -9.9930    -5.4710     2.5220 H     1 <1>   0.0800 
@<TRIPOS>BOND
  1   1   2  1   
  2   2   3  ar  
  3   2   4  ar  
  4   3   5  ar  
  5   3  29  1   
  6   4   6  ar  
  7   4  30  1   
  8   5   7  ar  
  9   5  31  1   
 10   6   7  ar  
 11   6  32  1   
 12   7   8  1   
 13   8   9  1   
 14   8  10  2   
 15   9  11  1   
 16  10  12  1   
 17  10  13  1   
 18  11  12  2   
 19  12  14  1   
 20  13  15  2   
 21  13  16  am  
 22  14  17  1   
 23  14  33  1   
 24  16  18  1   
 25  16  34  1   
 26  17  19  1   
 27  17  35  1   
 28  17  36  1   
 29  18  20  1   
 30  18  37  1   
 31  18  38  1   
 32  19  21  1   
 33  19  39  1   
 34  19  40  1   
 35  20  22  2   
 36  20  23  am  
 37  21  24  1   
 38  23  25  1   
 39  23  26  1   
 40  24  41  1   
 41  24  42  1   
 42  24  43  1   
 43  25  27  1   
 44  25  44  1   
 45  25  45  1   
 46  26  28  1   
 47  26  46  1   
 48  26  47  1   
 49  27  28  1   
 50  27  48  1   
 51  27  49  1   
 52  28  50  1   
 53  28  51  1   
@<TRIPOS>SUBSTRUCTURE
  1 ****  10 GROUP 4 **** **** 0

# MOE 2024.06 (io_trps.svl 2023.06)
