@<TRIPOS>MOLECULE
NONAME
50 53 1 0 0 
SMALL
USER_CHARGES


@<TRIPOS>ATOM
  1 O        0.5530     0.8230     0.0290 O.2   1 <1>  -0.5700 
  2 C        0.8780     1.9330    -0.2980 C.2   1 <1>   0.5690 
  3 N        0.6500     2.9680     0.5400 N.am  1 <1>  -0.7300 
  4 C        1.5400     2.1410    -1.6370 C.3   1 <1>  -0.1790 
  5 C        0.9680     4.3990     0.3660 C.3   1 <1>   0.2200 
  6 C        2.0880     4.8180     1.3360 C.3   1 <1>   0.2090 
  7 C       -0.3030     5.2190     0.6190 C.3   1 <1>  -0.1600 
  8 N        2.3710     6.2970     1.2150 N.pl3 1 <1>  -0.8380 
  9 C        0.0050     6.7270     0.6260 C.3   1 <1>  -0.1600 
 10 C        3.5500     6.8170     0.7890 C.ar  1 <1>   0.4610 
 11 C        1.1440     7.0780     1.5920 C.3   1 <1>   0.2090 
 12 N        3.7640     8.1320     0.8810 N.ar  1 <1>  -0.1790 
 13 C        4.6130     6.0540     0.2340 C.ar  1 <1>  -0.1500 
 14 C        4.9200     8.7830     0.4950 C.ar  1 <1>   0.3610 
 15 C        5.7870     6.6150    -0.1700 C.ar  1 <1>  -0.1440 
 16 C        5.9780     8.0250    -0.0460 C.ar  1 <1>   0.0000 
 17 C        5.0390    10.1710     0.6420 C.ar  1 <1>  -0.1500 
 18 C        6.8930     5.7460    -0.7580 C.3   1 <1>  -0.0970 
 19 C        7.1480     8.7030    -0.4300 C.ar  1 <1>  -0.1500 
 20 C        6.1980    10.7940     0.2550 C.ar  1 <1>  -0.1440 
 21 C        7.2410    10.0630    -0.2760 C.ar  1 <1>  -0.1440 
 22 C        6.5430    12.2630     0.3180 C.3   1 <1>  -0.0170 
 23 C        8.4040    10.9580    -0.6300 C.3   1 <1>  -0.0170 
 24 C        7.8030    12.3710    -0.5550 C.3   1 <1>  -0.1600 
 25 H        0.1550     2.7120     1.3980 H     1 <1>   0.3700 
 26 H        2.5120     2.5740    -1.5040 H     1 <1>   0.0800 
 27 H        0.9320     2.7810    -2.2480 H     1 <1>   0.0800 
 28 H        1.6490     1.1940    -2.1340 H     1 <1>   0.0800 
 29 H        1.3080     4.5760    -0.6400 H     1 <1>   0.0800 
 30 H        2.9580     4.2180     1.1550 H     1 <1>   0.0800 
 31 H        1.7690     4.6120     2.3440 H     1 <1>   0.0800 
 32 H       -0.7230     4.9450     1.5710 H     1 <1>   0.0800 
 33 H       -1.0290     5.0030    -0.1470 H     1 <1>   0.0800 
 34 H       -0.8820     7.2660     0.9120 H     1 <1>   0.0800 
 35 H        0.2730     7.0470    -0.3660 H     1 <1>   0.0800 
 36 H        1.3110     8.1390     1.5590 H     1 <1>   0.0800 
 37 H        0.8540     6.8230     2.6000 H     1 <1>   0.0800 
 38 H        3.0280     8.6900     1.2930 H     1 <1>   0.4570 
 39 H        4.4820     4.9970     0.1180 H     1 <1>   0.1500 
 40 H        4.2360    10.7540     1.0530 H     1 <1>   0.1500 
 41 H        6.6030     4.7110    -0.7880 H     1 <1>   0.0800 
 42 H        7.7840     5.8250    -0.1610 H     1 <1>   0.0800 
 43 H        7.1170     6.0590    -1.7630 H     1 <1>   0.0800 
 44 H        7.9800     8.1640    -0.8480 H     1 <1>   0.1500 
 45 H        6.7670    12.5380     1.3340 H     1 <1>   0.0800 
 46 H        5.7480    12.8810    -0.0610 H     1 <1>   0.0800 
 47 H        8.7900    10.7430    -1.6110 H     1 <1>   0.0800 
 48 H        9.1840    10.8400     0.1030 H     1 <1>   0.0800 
 49 H        8.5060    13.0850    -0.1610 H     1 <1>   0.0800 
 50 H        7.5140    12.6760    -1.5460 H     1 <1>   0.0800 
@<TRIPOS>BOND
  1   1   2  2   
  2   2   3  am  
  3   2   4  1   
  4   3   5  1   
  5   3  25  1   
  6   4  26  1   
  7   4  27  1   
  8   4  28  1   
  9   5   6  1   
 10   5   7  1   
 11   5  29  1   
 12   6   8  1   
 13   6  30  1   
 14   6  31  1   
 15   7   9  1   
 16   7  32  1   
 17   7  33  1   
 18   8  10  1   
 19   8  11  1   
 20   9  11  1   
 21   9  34  1   
 22   9  35  1   
 23  10  12  ar  
 24  10  13  ar  
 25  11  36  1   
 26  11  37  1   
 27  12  14  ar  
 28  12  38  1   
 29  13  15  ar  
 30  13  39  1   
 31  14  16  ar  
 32  14  17  ar  
 33  15  16  ar  
 34  15  18  1   
 35  16  19  ar  
 36  17  20  ar  
 37  17  40  1   
 38  18  41  1   
 39  18  42  1   
 40  18  43  1   
 41  19  21  ar  
 42  19  44  1   
 43  20  21  ar  
 44  20  22  1   
 45  21  23  1   
 46  22  24  1   
 47  22  45  1   
 48  22  46  1   
 49  23  24  1   
 50  23  47  1   
 51  23  48  1   
 52  24  49  1   
 53  24  50  1   
@<TRIPOS>SUBSTRUCTURE
  1 ****  10 GROUP 4 **** **** 0

# MOE 2024.06 (io_trps.svl 2023.06)
