@<TRIPOS>MOLECULE
NONAME
52 55 1 0 0 
SMALL
USER_CHARGES


@<TRIPOS>ATOM
  1 O       -2.2360     0.9090    -2.7720 O.2   1 <1>  -0.5700 
  2 C       -2.0530     1.2020    -1.6090 C.2   1 <1>   0.5440 
  3 N       -2.2640     0.2240    -0.6640 N.am  1 <1>  -0.6600 
  4 C       -1.6580     2.5510    -1.2510 C.ar  1 <1>   0.0860 
  5 C       -2.8190     0.5040     0.6950 C.3   1 <1>   0.1400 
  6 C       -2.2690    -1.2220    -1.0300 C.3   1 <1>   0.1400 
  7 C       -0.5860     2.8150    -0.3840 C.ar  1 <1>  -0.0230 
  8 C       -2.3640     3.6350    -1.7710 C.ar  1 <1>  -0.1500 
  9 C       -4.2460    -0.0730     0.8350 C.3   1 <1>   0.4230 
 10 C       -3.6960    -1.7850    -0.9220 C.3   1 <1>   0.3430 
 11 N        0.2030     1.7590     0.1350 N.pl3 1 <1>   0.5930 
 12 C       -0.2880     4.1260    -0.0280 C.ar  1 <1>  -0.1500 
 13 C       -2.0540     4.9350    -1.4210 C.ar  1 <1>  -0.1500 
 14 N       -4.3130    -1.5410     0.4420 N.4   1 <1>  -0.9590 
 15 C       -5.2510     0.7640     0.0090 C.3   1 <1>   0.1200 
 16 N        0.2210     1.4180     1.4280 N.2   1 <1>  -0.7070 
 17 C        0.9860     0.8850    -0.5200 C.2   1 <1>   0.0360 
 18 C       -1.0170     5.1810    -0.5410 C.ar  1 <1>  -0.1500 
 19 C       -5.7410    -2.0090     0.5390 C.3   1 <1>   0.4230 
 20 O       -6.5420     0.2440     0.1470 O.3   1 <1>  -0.5600 
 21 C        1.0150     0.4000     1.4490 C.2   1 <1>   0.3660 
 22 N        1.5060     0.0140     0.2650 N.2   1 <1>  -0.5650 
 23 C       -6.6930    -1.0860    -0.2610 C.3   1 <1>   0.1200 
 24 C       -5.8560    -3.4870     0.1310 C.3   1 <1>  -0.1600 
 25 C       -7.1910    -4.1120     0.5670 C.3   1 <1>  -0.1600 
 26 C       -7.2340    -5.6030     0.2190 C.3   1 <1>  -0.2400 
 27 H       -2.1780     0.0590     1.4370 H     1 <1>   0.0800 
 28 H       -2.8410     1.5630     0.8860 H     1 <1>   0.0800 
 29 H       -1.9070    -1.3580    -2.0360 H     1 <1>   0.0800 
 30 H       -1.6060    -1.7590    -0.3750 H     1 <1>   0.0800 
 31 H       -3.1690     3.4530    -2.4630 H     1 <1>   0.1500 
 32 H       -4.5350     0.0260     1.8680 H     1 <1>   0.0800 
 33 H       -3.6650    -2.8420    -1.1290 H     1 <1>   0.0800 
 34 H       -4.2970    -1.3180    -1.6840 H     1 <1>   0.0800 
 35 H        0.5220     4.3250     0.6560 H     1 <1>   0.1500 
 36 H       -2.6160     5.7570    -1.8330 H     1 <1>   0.1500 
 37 H       -3.7650    -2.0690     1.1300 H     1 <1>   0.4500 
 38 H       -4.9910     0.7780    -1.0360 H     1 <1>   0.0800 
 39 H       -5.2720     1.7790     0.3670 H     1 <1>   0.0800 
 40 H        1.1330     0.9350    -1.5840 H     1 <1>   0.1500 
 41 H       -0.7770     6.1940    -0.2610 H     1 <1>   0.1500 
 42 H       -6.0440    -1.9410     1.5720 H     1 <1>   0.0800 
 43 H        1.2830    -0.1290     2.3510 H     1 <1>   0.1500 
 44 H       -7.7180    -1.3580    -0.0800 H     1 <1>   0.0800 
 45 H       -6.5090    -1.1480    -1.3200 H     1 <1>   0.0800 
 46 H       -5.7660    -3.5890    -0.9360 H     1 <1>   0.0800 
 47 H       -5.0630    -4.0440     0.5990 H     1 <1>   0.0800 
 48 H       -7.3210    -4.0020     1.6320 H     1 <1>   0.0800 
 49 H       -8.0170    -3.6250     0.0780 H     1 <1>   0.0800 
 50 H       -6.4450    -6.1370     0.7200 H     1 <1>   0.0800 
 51 H       -7.1330    -5.7500    -0.8430 H     1 <1>   0.0800 
 52 H       -8.1740    -6.0250     0.5290 H     1 <1>   0.0800 
@<TRIPOS>BOND
  1   1   2  2   
  2   2   3  am  
  3   2   4  1   
  4   3   5  1   
  5   3   6  1   
  6   4   7  ar  
  7   4   8  ar  
  8   5   9  1   
  9   5  27  1   
 10   5  28  1   
 11   6  10  1   
 12   6  29  1   
 13   6  30  1   
 14   7  11  1   
 15   7  12  ar  
 16   8  13  ar  
 17   8  31  1   
 18   9  14  1   
 19   9  15  1   
 20   9  32  1   
 21  10  14  1   
 22  10  33  1   
 23  10  34  1   
 24  11  16  1   
 25  11  17  1   
 26  12  18  ar  
 27  12  35  1   
 28  13  18  ar  
 29  13  36  1   
 30  14  19  1   
 31  14  37  1   
 32  15  20  1   
 33  15  38  1   
 34  15  39  1   
 35  16  21  2   
 36  17  22  2   
 37  17  40  1   
 38  18  41  1   
 39  19  23  1   
 40  19  24  1   
 41  19  42  1   
 42  20  23  1   
 43  21  22  1   
 44  21  43  1   
 45  23  44  1   
 46  23  45  1   
 47  24  25  1   
 48  24  46  1   
 49  24  47  1   
 50  25  26  1   
 51  25  48  1   
 52  25  49  1   
 53  26  50  1   
 54  26  51  1   
 55  26  52  1   
@<TRIPOS>SUBSTRUCTURE
  1 ****   3 GROUP 4 **** **** 0

# MOE 2024.06 (io_trps.svl 2023.06)
