@<TRIPOS>MOLECULE
NONAME
53 55 1 0 0 
SMALL
USER_CHARGES


@<TRIPOS>ATOM
  1 S       -2.6010    -2.3200     2.2810 S.3   1 <1>  -0.0800 
  2 C       -1.3860    -2.2680     1.0340 C.2   1 <1>  -0.1400 
  3 C       -1.6630    -3.5430     3.1070 C.2   1 <1>   0.2280 
  4 C       -0.4110    -3.1360     1.3480 C.2   1 <1>   0.0770 
  5 C       -1.6110    -1.3180    -0.1170 C.3   1 <1>   0.5230 
  6 N       -0.5830    -3.8630     2.5120 N.2   1 <1>  -0.5650 
  7 N       -2.6810    -1.8770    -0.9810 N.4   1 <1>  -0.9590 
  8 C       -2.2760    -3.1560    -1.6650 C.3   1 <1>   0.3430 
  9 C       -3.2690    -0.8790    -1.9100 C.3   1 <1>   0.3430 
 10 C       -3.4700    -3.8680    -2.3390 C.3   1 <1>   0.1400 
 11 C       -4.7950    -0.9540    -1.8260 C.3   1 <1>  -0.1600 
 12 N       -4.7530    -3.4700    -1.6880 N.am  1 <1>  -0.6600 
 13 C       -5.4240    -2.2800    -2.2860 C.3   1 <1>   0.1400 
 14 C       -5.0630    -3.8850    -0.4220 C.2   1 <1>   0.5690 
 15 O       -5.3680    -3.0690     0.4140 O.2   1 <1>  -0.5700 
 16 C       -4.9360    -5.3520    -0.0280 C.3   1 <1>  -0.0190 
 17 C       -6.2090    -5.8160     0.6930 C.3   1 <1>   0.1100 
 18 C       -3.7020    -5.6100     0.8580 C.3   1 <1>  -0.1600 
 19 N       -6.1020    -7.2460     1.0300 N.3   1 <1>  -0.8100 
 20 C       -3.6640    -7.0760     1.3070 C.3   1 <1>  -0.1600 
 21 C       -4.9860    -7.4880     1.9610 C.3   1 <1>   0.1100 
 22 C       -7.3860    -7.7470     1.6100 C.3   1 <1>   0.1710 
 23 C       -7.5080    -9.2750     1.6440 C.2   1 <1>   0.5690 
 24 O       -8.2160    -9.8130     2.4560 O.2   1 <1>  -0.5700 
 25 N       -6.8110   -10.0030     0.7500 N.am  1 <1>  -0.8000 
 26 H       -2.0580    -3.9290     4.0310 H     1 <1>   0.1500 
 27 H        0.4870    -3.3260     0.7830 H     1 <1>   0.1500 
 28 H       -0.7020    -1.1950    -0.6820 H     1 <1>   0.0800 
 29 H       -1.9090    -0.3580     0.2740 H     1 <1>   0.0800 
 30 H       -3.4640    -2.1450    -0.3490 H     1 <1>   0.4500 
 31 H       -1.8620    -3.8290    -0.9320 H     1 <1>   0.0800 
 32 H       -1.5090    -2.9660    -2.3980 H     1 <1>   0.0800 
 33 H       -2.9400    -1.0620    -2.9200 H     1 <1>   0.0800 
 34 H       -2.9580     0.1140    -1.6270 H     1 <1>   0.0800 
 35 H       -3.3320    -4.9340    -2.2830 H     1 <1>   0.0800 
 36 H       -3.4990    -3.6090    -3.3830 H     1 <1>   0.0800 
 37 H       -5.2040    -0.1700    -2.4360 H     1 <1>   0.0800 
 38 H       -5.1080    -0.7440    -0.8180 H     1 <1>   0.0800 
 39 H       -5.3860    -2.3530    -3.3600 H     1 <1>   0.0800 
 40 H       -6.4640    -2.2890    -2.0030 H     1 <1>   0.0800 
 41 H       -4.8570    -5.9390    -0.9240 H     1 <1>   0.0800 
 42 H       -7.0550    -5.6620     0.0440 H     1 <1>   0.0800 
 43 H       -6.3600    -5.2370     1.5890 H     1 <1>   0.0800 
 44 H       -3.7640    -4.9860     1.7320 H     1 <1>   0.0800 
 45 H       -2.7950    -5.3700     0.3350 H     1 <1>   0.0800 
 46 H       -2.8610    -7.2190     2.0090 H     1 <1>   0.0800 
 47 H       -3.4810    -7.7170     0.4630 H     1 <1>   0.0800 
 48 H       -4.9390    -8.5330     2.2180 H     1 <1>   0.0800 
 49 H       -5.1370    -6.9260     2.8680 H     1 <1>   0.0800 
 50 H       -8.2070    -7.3850     1.0180 H     1 <1>   0.0800 
 51 H       -7.5100    -7.3680     2.6090 H     1 <1>   0.0800 
 52 H       -6.8540   -11.0210     0.7450 H     1 <1>   0.3700 
 53 H       -6.1600    -9.5340     0.1170 H     1 <1>   0.3700 
@<TRIPOS>BOND
  1   1   2  1   
  2   1   3  1   
  3   2   4  2   
  4   2   5  1   
  5   3   6  2   
  6   3  26  1   
  7   4   6  1   
  8   4  27  1   
  9   5   7  1   
 10   5  28  1   
 11   5  29  1   
 12   7   8  1   
 13   7   9  1   
 14   7  30  1   
 15   8  10  1   
 16   8  31  1   
 17   8  32  1   
 18   9  11  1   
 19   9  33  1   
 20   9  34  1   
 21  10  12  1   
 22  10  35  1   
 23  10  36  1   
 24  11  13  1   
 25  11  37  1   
 26  11  38  1   
 27  12  13  1   
 28  12  14  am  
 29  13  39  1   
 30  13  40  1   
 31  14  15  2   
 32  14  16  1   
 33  16  17  1   
 34  16  18  1   
 35  16  41  1   
 36  17  19  1   
 37  17  42  1   
 38  17  43  1   
 39  18  20  1   
 40  18  44  1   
 41  18  45  1   
 42  19  21  1   
 43  19  22  1   
 44  20  21  1   
 45  20  46  1   
 46  20  47  1   
 47  21  48  1   
 48  21  49  1   
 49  22  23  1   
 50  22  50  1   
 51  22  51  1   
 52  23  24  2   
 53  23  25  am  
 54  25  52  1   
 55  25  53  1   
@<TRIPOS>SUBSTRUCTURE
  1 ****  16 GROUP 4 **** **** 0

# MOE 2024.06 (io_trps.svl 2023.06)
