@<TRIPOS>MOLECULE
NONAME
51 53 1 0 0 
SMALL
USER_CHARGES


@<TRIPOS>ATOM
  1 O       -0.4830    -0.8420     0.0040 O.2   1 <1>  -0.5700 
  2 C        0.3660    -1.6830     0.1660 C.2   1 <1>   0.5690 
  3 N        0.1040    -2.9440     0.6260 N.am  1 <1>  -0.6600 
  4 C        1.8080    -1.3410    -0.1510 C.3   1 <1>  -0.0990 
  5 C        1.2010    -3.9240     0.8150 C.3   1 <1>   0.1400 
  6 C       -1.2650    -3.3850     1.0100 C.3   1 <1>   0.0600 
  7 C        2.4700    -2.4800    -0.9480 C.3   1 <1>  -0.0800 
  8 C        2.1470    -3.8930    -0.4030 C.3   1 <1>  -0.0800 
  9 C        3.9990    -2.3730    -1.0050 C.3   1 <1>  -0.1600 
 10 C        3.5030    -4.5620    -0.1350 C.3   1 <1>  -0.1600 
 11 C        4.4710    -3.8180    -1.0530 C.3   1 <1>   0.4230 
 12 N        5.9180    -4.0080    -0.7330 N.4   1 <1>  -0.9590 
 13 C        6.3800    -3.6660     0.6480 C.3   1 <1>   0.4860 
 14 C        6.3430    -5.3960    -1.0920 C.3   1 <1>   0.2630 
 15 C        7.0380    -2.2950     0.6440 C.ar  1 <1>  -0.1440 
 16 C        8.2510    -2.0260     0.0040 C.ar  1 <1>  -0.1440 
 17 C        6.3980    -1.2780     1.3420 C.ar  1 <1>  -0.1500 
 18 C        8.7660    -0.7380     0.0530 C.ar  1 <1>  -0.1500 
 19 C        9.0890    -3.0710    -0.7330 C.3   1 <1>  -0.0170 
 20 C        6.9230    -0.0010     1.3800 C.ar  1 <1>  -0.1500 
 21 C        8.1080     0.2710     0.7290 C.ar  1 <1>  -0.1500 
 22 C        9.8560    -3.9590     0.2500 C.3   1 <1>  -0.2400 
 23 H        1.8420    -0.4250    -0.7140 H     1 <1>   0.0800 
 24 H        2.3130    -1.1790     0.7830 H     1 <1>   0.0800 
 25 H        1.7310    -3.6620     1.7140 H     1 <1>   0.0800 
 26 H        0.7950    -4.9140     0.9370 H     1 <1>   0.0800 
 27 H       -1.5600    -4.2250     0.4070 H     1 <1>   0.0800 
 28 H       -1.9750    -2.5890     0.8600 H     1 <1>   0.0800 
 29 H       -1.2800    -3.6660     2.0490 H     1 <1>   0.0800 
 30 H        2.0840    -2.4320    -1.9550 H     1 <1>   0.0800 
 31 H        1.6570    -4.4370    -1.1950 H     1 <1>   0.0800 
 32 H        4.3450    -1.8880    -0.1160 H     1 <1>   0.0800 
 33 H        4.3190    -1.8160    -1.8680 H     1 <1>   0.0800 
 34 H        3.4610    -5.6130    -0.3620 H     1 <1>   0.0800 
 35 H        3.7650    -4.4240     0.8970 H     1 <1>   0.0800 
 36 H        4.2940    -4.1680    -2.0580 H     1 <1>   0.0800 
 37 H        6.4310    -3.3390    -1.3250 H     1 <1>   0.4500 
 38 H        5.5560    -3.6700     1.3390 H     1 <1>   0.0800 
 39 H        7.1010    -4.3890     0.9880 H     1 <1>   0.0800 
 40 H        5.8240    -6.1170    -0.4820 H     1 <1>   0.0800 
 41 H        7.4040    -5.5180    -0.9380 H     1 <1>   0.0800 
 42 H        6.1230    -5.5990    -2.1280 H     1 <1>   0.0800 
 43 H        5.4790    -1.4620     1.8720 H     1 <1>   0.1500 
 44 H        9.6990    -0.5030    -0.4320 H     1 <1>   0.1500 
 45 H        8.4870    -3.6680    -1.3860 H     1 <1>   0.0800 
 46 H        9.8080    -2.5740    -1.3640 H     1 <1>   0.0800 
 47 H        6.4150     0.7820     1.9180 H     1 <1>   0.1500 
 48 H        8.5240     1.2640     0.7550 H     1 <1>   0.1500 
 49 H        9.1920    -4.5120     0.8870 H     1 <1>   0.0800 
 50 H       10.4920    -3.3510     0.8700 H     1 <1>   0.0800 
 51 H       10.4770    -4.6550    -0.2870 H     1 <1>   0.0800 
@<TRIPOS>BOND
  1   1   2  2   
  2   2   3  am  
  3   2   4  1   
  4   3   5  1   
  5   3   6  1   
  6   4   7  1   
  7   4  23  1   
  8   4  24  1   
  9   5   8  1   
 10   5  25  1   
 11   5  26  1   
 12   6  27  1   
 13   6  28  1   
 14   6  29  1   
 15   7   8  1   
 16   7   9  1   
 17   7  30  1   
 18   8  10  1   
 19   8  31  1   
 20   9  11  1   
 21   9  32  1   
 22   9  33  1   
 23  10  11  1   
 24  10  34  1   
 25  10  35  1   
 26  11  12  1   
 27  11  36  1   
 28  12  13  1   
 29  12  14  1   
 30  12  37  1   
 31  13  15  1   
 32  13  38  1   
 33  13  39  1   
 34  14  40  1   
 35  14  41  1   
 36  14  42  1   
 37  15  16  ar  
 38  15  17  ar  
 39  16  18  ar  
 40  16  19  1   
 41  17  20  ar  
 42  17  43  1   
 43  18  21  ar  
 44  18  44  1   
 45  19  22  1   
 46  19  45  1   
 47  19  46  1   
 48  20  21  ar  
 49  20  47  1   
 50  21  48  1   
 51  22  49  1   
 52  22  50  1   
 53  22  51  1   
@<TRIPOS>SUBSTRUCTURE
  1 ****   9 GROUP 4 **** **** 0

# MOE 2024.06 (io_trps.svl 2023.06)
