@<TRIPOS>MOLECULE
NONAME
41 44 1 0 0 
SMALL
USER_CHARGES


@<TRIPOS>ATOM
  1 O       -0.8260     1.0100    -0.4740 O.2   1 <1>  -0.5700 
  2 C       -1.8670     1.1820     0.1110 C.2   1 <1>   0.5690 
  3 N       -3.0370     0.5840    -0.2830 N.am  1 <1>  -0.6600 
  4 C       -1.8360     2.0870     1.3210 C.3   1 <1>  -0.1790 
  5 C       -3.0940    -0.2800    -1.4950 C.3   1 <1>   0.1400 
  6 C       -4.3410     0.6800     0.4290 C.3   1 <1>   0.1400 
  7 C       -3.5060    -1.6930    -1.0820 C.3   1 <1>  -0.1600 
  8 C       -4.7590    -0.7200     0.8790 C.3   1 <1>  -0.1600 
  9 C       -4.8270    -1.6940    -0.3070 C.3   1 <1>   0.4600 
 10 O       -5.8170    -1.2500    -1.2100 O.3   1 <1>  -0.5600 
 11 C       -5.1650    -3.1050     0.1590 C.2   1 <1>  -0.3320 
 12 C       -7.1610    -1.5690    -0.9340 C.3   1 <1>   0.1200 
 13 N       -4.3740    -3.9200     0.9210 N.pl3 1 <1>   0.0330 
 14 C       -6.3140    -3.7460    -0.1320 C.2   1 <1>  -0.1810 
 15 C       -7.3900    -3.0900    -0.9610 C.3   1 <1>   0.0210 
 16 C       -5.0440    -5.1050     1.1090 C.ar  1 <1>  -0.1520 
 17 C       -6.2710    -5.0270     0.4550 C.ar  1 <1>   0.0000 
 18 C       -4.6760    -6.2590     1.8060 C.ar  1 <1>  -0.1500 
 19 C       -7.1460    -6.1170     0.4940 C.ar  1 <1>  -0.1500 
 20 C       -5.5470    -7.3230     1.8370 C.ar  1 <1>  -0.1500 
 21 C       -6.7820    -7.2520     1.1800 C.ar  1 <1>  -0.1500 
 22 H       -2.5150     2.9060     1.1800 H     1 <1>   0.0800 
 23 H       -0.8450     2.4810     1.4510 H     1 <1>   0.0800 
 24 H       -2.1040     1.5320     2.1990 H     1 <1>   0.0800 
 25 H       -2.1380    -0.3100    -1.9900 H     1 <1>   0.0800 
 26 H       -3.8130     0.1270    -2.1860 H     1 <1>   0.0800 
 27 H       -5.0790     1.0840    -0.2450 H     1 <1>   0.0800 
 28 H       -4.2780     1.3310     1.2820 H     1 <1>   0.0800 
 29 H       -2.7240    -2.1080    -0.4750 H     1 <1>   0.0800 
 30 H       -3.6080    -2.3140    -1.9530 H     1 <1>   0.0800 
 31 H       -5.7070    -0.6830     1.3800 H     1 <1>   0.0800 
 32 H       -4.0380    -1.0790     1.5900 H     1 <1>   0.0800 
 33 H       -7.7710    -1.0900    -1.6790 H     1 <1>   0.0800 
 34 H       -7.4170    -1.1710     0.0310 H     1 <1>   0.0800 
 35 H       -3.4380    -3.7090     1.2790 H     1 <1>   0.2700 
 36 H       -7.3400    -3.4520    -1.9720 H     1 <1>   0.0800 
 37 H       -8.3590    -3.3180    -0.5590 H     1 <1>   0.0800 
 38 H       -3.7260    -6.3050     2.3070 H     1 <1>   0.1500 
 39 H       -8.0890    -6.0490    -0.0160 H     1 <1>   0.1500 
 40 H       -5.2880    -8.2230     2.3670 H     1 <1>   0.1500 
 41 H       -7.4450    -8.0990     1.2190 H     1 <1>   0.1500 
@<TRIPOS>BOND
  1   1   2  2   
  2   2   3  am  
  3   2   4  1   
  4   3   5  1   
  5   3   6  1   
  6   4  22  1   
  7   4  23  1   
  8   4  24  1   
  9   5   7  1   
 10   5  25  1   
 11   5  26  1   
 12   6   8  1   
 13   6  27  1   
 14   6  28  1   
 15   7   9  1   
 16   7  29  1   
 17   7  30  1   
 18   8   9  1   
 19   8  31  1   
 20   8  32  1   
 21   9  10  1   
 22   9  11  1   
 23  10  12  1   
 24  11  13  1   
 25  11  14  2   
 26  12  15  1   
 27  12  33  1   
 28  12  34  1   
 29  13  16  1   
 30  13  35  1   
 31  14  15  1   
 32  14  17  1   
 33  15  36  1   
 34  15  37  1   
 35  16  17  ar  
 36  16  18  ar  
 37  17  19  ar  
 38  18  20  ar  
 39  18  38  1   
 40  19  21  ar  
 41  19  39  1   
 42  20  21  ar  
 43  20  40  1   
 44  21  41  1   
@<TRIPOS>SUBSTRUCTURE
  1 ****  11 GROUP 4 **** **** 0

# MOE 2024.06 (io_trps.svl 2023.06)
