@<TRIPOS>MOLECULE
NONAME
47 49 1 0 0 
SMALL
USER_CHARGES


@<TRIPOS>ATOM
  1 S       -0.1460    -0.0390     0.4900 S.o2  1 <1>   1.3330 
  2 O        0.1490    -0.8390     1.6570 O.2   1 <1>  -0.6500 
  3 O       -0.8340     1.2220     0.6460 O.2   1 <1>  -0.6500 
  4 N       -1.0360    -1.0030    -0.5880 N.am  1 <1>  -0.8490 
  5 C        1.3640     0.2740    -0.4260 C.3   1 <1>  -0.0550 
  6 C       -2.4830    -0.8220    -0.4320 C.3   1 <1>   0.1160 
  7 C       -0.7000    -2.4290    -0.5080 C.3   1 <1>   0.1160 
  8 C        2.3330     1.2330     0.2940 C.3   1 <1>  -0.0800 
  9 C        3.4790     1.6390    -0.6170 C.3   1 <1>   0.2200 
 10 C        3.0660     0.5500     1.4570 C.3   1 <1>   0.1200 
 11 N        4.0260     2.9330    -0.1530 N.am  1 <1>  -0.7300 
 12 C        4.4930     0.5330    -0.3550 C.3   1 <1>   0.1200 
 13 O        4.3240     0.1690     0.9820 O.3   1 <1>  -0.5600 
 14 C        4.0390     4.0920    -0.8750 C.2   1 <1>   0.5440 
 15 O        3.6000     4.0660    -2.0080 O.2   1 <1>  -0.5700 
 16 C        4.5770     5.3180    -0.3110 C.ar  1 <1>   0.0860 
 17 C        5.0850     6.3170    -1.1360 C.ar  1 <1>  -0.1500 
 18 C        4.5990     5.5360     1.0840 C.ar  1 <1>  -0.1500 
 19 C        5.6100     7.4870    -0.5940 C.ar  1 <1>   0.0000 
 20 C        5.1170     6.6900     1.6330 C.ar  1 <1>  -0.1500 
 21 C        5.6220     7.6580     0.7770 C.ar  1 <1>   0.1400 
 22 C        6.1920     8.6660    -1.1050 C.2   1 <1>  -0.1500 
 23 O        6.1630     8.8310     1.0960 O.3   1 <1>  -0.2800 
 24 C        6.5010     9.4300    -0.0410 C.2   1 <1>  -0.0400 
 25 C        7.1430    10.7970     0.0430 C.3   1 <1>  -0.0600 
 26 H        1.8590    -0.6550    -0.6310 H     1 <1>   0.0800 
 27 H        1.0890     0.7140    -1.3660 H     1 <1>   0.0800 
 28 H       -3.0140    -1.4350    -1.1390 H     1 <1>   0.0800 
 29 H       -2.7470     0.2060    -0.6150 H     1 <1>   0.0800 
 30 H       -2.7880    -1.0850     0.5670 H     1 <1>   0.0800 
 31 H       -1.2230    -2.9750    -1.2740 H     1 <1>   0.0800 
 32 H       -0.9740    -2.8270     0.4560 H     1 <1>   0.0800 
 33 H        0.3570    -2.5710    -0.6510 H     1 <1>   0.0800 
 34 H        1.7810     2.0950     0.6290 H     1 <1>   0.0800 
 35 H        3.1990     1.6940    -1.6560 H     1 <1>   0.0800 
 36 H        2.5620    -0.3240     1.8310 H     1 <1>   0.0800 
 37 H        3.2220     1.2410     2.2670 H     1 <1>   0.0800 
 38 H        4.5200     2.8810     0.7400 H     1 <1>   0.3700 
 39 H        5.5070     0.8530    -0.5200 H     1 <1>   0.0800 
 40 H        4.2800    -0.3310    -0.9590 H     1 <1>   0.0800 
 41 H        5.0750     6.1910    -2.2040 H     1 <1>   0.1500 
 42 H        4.1920     4.7870     1.7390 H     1 <1>   0.1500 
 43 H        5.1370     6.8630     2.6940 H     1 <1>   0.1500 
 44 H        6.3380     8.8660    -2.1510 H     1 <1>   0.1500 
 45 H        7.3660    11.1650    -0.9420 H     1 <1>   0.0800 
 46 H        8.0550    10.7350     0.6090 H     1 <1>   0.0800 
 47 H        6.4750    11.4820     0.5310 H     1 <1>   0.0800 
@<TRIPOS>BOND
  1   1   2  2   
  2   1   3  2   
  3   1   4  am  
  4   1   5  1   
  5   4   6  1   
  6   4   7  1   
  7   5   8  1   
  8   5  26  1   
  9   5  27  1   
 10   6  28  1   
 11   6  29  1   
 12   6  30  1   
 13   7  31  1   
 14   7  32  1   
 15   7  33  1   
 16   8   9  1   
 17   8  10  1   
 18   8  34  1   
 19   9  11  1   
 20   9  12  1   
 21   9  35  1   
 22  10  13  1   
 23  10  36  1   
 24  10  37  1   
 25  11  14  am  
 26  11  38  1   
 27  12  13  1   
 28  12  39  1   
 29  12  40  1   
 30  14  15  2   
 31  14  16  1   
 32  16  17  ar  
 33  16  18  ar  
 34  17  19  ar  
 35  17  41  1   
 36  18  20  ar  
 37  18  42  1   
 38  19  21  ar  
 39  19  22  1   
 40  20  21  ar  
 41  20  43  1   
 42  21  23  1   
 43  22  24  2   
 44  22  44  1   
 45  23  24  1   
 46  24  25  1   
 47  25  45  1   
 48  25  46  1   
 49  25  47  1   
@<TRIPOS>SUBSTRUCTURE
  1 ****  11 GROUP 4 **** **** 0

# MOE 2024.06 (io_trps.svl 2023.06)
