@<TRIPOS>MOLECULE
NONAME
44 47 1 0 0 
SMALL
USER_CHARGES


@<TRIPOS>ATOM
  1 S       -0.3780    -0.0200    -0.0280 S.3   1 <1>  -0.0800 
  2 C        0.7620    -1.3240    -0.0610 C.2   1 <1>   0.1980 
  3 C        0.6950     0.8340    -1.0790 C.2   1 <1>   0.1980 
  4 N        1.7830    -1.0630    -0.7770 N.2   1 <1>  -0.3380 
  5 C        0.4850    -2.5850     0.7510 C.3   1 <1>   0.2900 
  6 N        1.7430     0.1740    -1.3620 N.2   1 <1>  -0.3380 
  7 C        0.2960     2.2190    -1.5330 C.3   1 <1>  -0.0600 
  8 N       -0.6710    -3.3690     0.2570 N.3   1 <1>  -0.8100 
  9 C       -2.0040    -2.8580     0.6410 C.3   1 <1>   0.1100 
 10 C       -0.6050    -4.7980     0.5920 C.3   1 <1>   0.1100 
 11 C       -2.7450    -4.0150     1.3120 C.3   1 <1>   0.2000 
 12 C       -2.0570    -5.2500     0.7370 C.3   1 <1>  -0.0800 
 13 O       -2.5180    -3.9420     2.6790 O.3   1 <1>  -0.6800 
 14 C       -2.2360    -6.5530     1.5420 C.3   1 <1>  -0.0170 
 15 C       -1.4830    -7.7130     0.8970 C.ar  1 <1>  -0.1440 
 16 C       -1.9550    -8.3790    -0.2590 C.ar  1 <1>   0.0000 
 17 C       -0.3020    -8.1390     1.4300 C.ar  1 <1>  -0.1500 
 18 C       -1.1540    -9.4190    -0.7920 C.ar  1 <1>   0.3100 
 19 C       -3.1710    -8.0790    -0.9160 C.ar  1 <1>  -0.1500 
 20 C        0.4080    -9.1860     0.8300 C.ar  1 <1>   0.1600 
 21 N        0.0210    -9.8090    -0.2360 N.ar  1 <1>  -0.6200 
 22 C       -1.5880   -10.0860    -1.9490 C.ar  1 <1>  -0.1500 
 23 C       -3.5670    -8.7510    -2.0410 C.ar  1 <1>  -0.1500 
 24 C       -2.7650    -9.7660    -2.5670 C.ar  1 <1>  -0.1500 
 25 H        0.3400    -2.3240     1.7840 H     1 <1>   0.0800 
 26 H        1.3690    -3.1960     0.6850 H     1 <1>   0.0800 
 27 H        1.0560     2.6230    -2.1770 H     1 <1>   0.0800 
 28 H        0.1790     2.8640    -0.6820 H     1 <1>   0.0800 
 29 H       -0.6310     2.1720    -2.0740 H     1 <1>   0.0800 
 30 H       -1.9520    -2.0030     1.2920 H     1 <1>   0.0800 
 31 H       -2.5240    -2.5780    -0.2590 H     1 <1>   0.0800 
 32 H       -0.0970    -5.3470    -0.1830 H     1 <1>   0.0800 
 33 H       -0.0860    -4.9380     1.5250 H     1 <1>   0.0800 
 34 H       -3.8070    -3.9940     1.1390 H     1 <1>   0.0800 
 35 H       -2.4360    -5.4020    -0.2580 H     1 <1>   0.0800 
 36 H       -1.5600    -3.8410     2.8320 H     1 <1>   0.4000 
 37 H       -3.2810    -6.7930     1.6260 H     1 <1>   0.0800 
 38 H       -1.8720    -6.4150     2.5450 H     1 <1>   0.0800 
 39 H        0.1150    -7.6870     2.3120 H     1 <1>   0.1500 
 40 H       -3.8050    -7.3060    -0.5250 H     1 <1>   0.1500 
 41 H        1.3350    -9.4910     1.2840 H     1 <1>   0.1500 
 42 H       -0.9570   -10.8660    -2.3340 H     1 <1>   0.1500 
 43 H       -4.4940    -8.5100    -2.5320 H     1 <1>   0.1500 
 44 H       -3.0850   -10.2860    -3.4540 H     1 <1>   0.1500 
@<TRIPOS>BOND
  1   1   2  1   
  2   1   3  1   
  3   2   4  2   
  4   2   5  1   
  5   3   6  2   
  6   3   7  1   
  7   4   6  1   
  8   5   8  1   
  9   5  25  1   
 10   5  26  1   
 11   7  27  1   
 12   7  28  1   
 13   7  29  1   
 14   8   9  1   
 15   8  10  1   
 16   9  11  1   
 17   9  30  1   
 18   9  31  1   
 19  10  12  1   
 20  10  32  1   
 21  10  33  1   
 22  11  12  1   
 23  11  13  1   
 24  11  34  1   
 25  12  14  1   
 26  12  35  1   
 27  13  36  1   
 28  14  15  1   
 29  14  37  1   
 30  14  38  1   
 31  15  16  ar  
 32  15  17  ar  
 33  16  18  ar  
 34  16  19  ar  
 35  17  20  ar  
 36  17  39  1   
 37  18  21  ar  
 38  18  22  ar  
 39  19  23  ar  
 40  19  40  1   
 41  20  21  ar  
 42  20  41  1   
 43  22  24  ar  
 44  22  42  1   
 45  23  24  ar  
 46  23  43  1   
 47  24  44  1   
@<TRIPOS>SUBSTRUCTURE
  1 ****  10 GROUP 4 **** **** 0

# MOE 2024.06 (io_trps.svl 2023.06)
