@<TRIPOS>MOLECULE
NONAME
45 47 1 0 0 
SMALL
USER_CHARGES


@<TRIPOS>ATOM
  1 O       -0.8110    -0.1540     2.5270 O.2   1 <1>  -0.5700 
  2 C       -1.4340     0.4670     1.6960 C.2   1 <1>   0.5690 
  3 N       -2.5040    -0.1000     1.0530 N.am  1 <1>  -0.6600 
  4 C       -1.0090     1.9190     1.4410 C.3   1 <1>   0.1810 
  5 C       -3.3610     0.5520     0.0350 C.3   1 <1>   0.1400 
  6 C       -2.8940    -1.5220     1.2250 C.3   1 <1>   0.1400 
  7 O       -0.9960     2.2710     0.0780 O.3   1 <1>  -0.5600 
  8 C       -4.5850    -0.3560    -0.0610 C.3   1 <1>   0.2000 
  9 C       -4.0470    -1.7590     0.2340 C.3   1 <1>  -0.0800 
 10 C       -0.5250     3.5510    -0.1700 C.3   1 <1>   0.1200 
 11 O       -5.4620    -0.0150     0.9550 O.3   1 <1>  -0.6800 
 12 C       -3.5590    -2.4440    -1.0580 C.3   1 <1>  -0.0170 
 13 C       -0.6170     3.7890    -1.6720 C.3   1 <1>  -0.2400 
 14 C       -3.1880    -3.8980    -0.8180 C.ar  1 <1>   0.1670 
 15 N       -1.9320    -4.1820    -0.6630 N.ar  1 <1>  -0.6200 
 16 C       -4.2120    -4.8580    -0.7740 C.ar  1 <1>  -0.1500 
 17 C       -1.5970    -5.4790    -0.4420 C.ar  1 <1>   0.3100 
 18 C       -3.9060    -6.1680    -0.5580 C.ar  1 <1>  -0.1500 
 19 C       -2.5560    -6.5140    -0.3820 C.ar  1 <1>   0.0000 
 20 C       -0.2450    -5.8100    -0.2640 C.ar  1 <1>  -0.1500 
 21 C       -2.1240    -7.8350    -0.1510 C.ar  1 <1>  -0.1500 
 22 C        0.1550    -7.1010    -0.0400 C.ar  1 <1>  -0.1500 
 23 C       -0.7970    -8.1250     0.0170 C.ar  1 <1>  -0.1500 
 24 H       -0.0180     2.0570     1.8350 H     1 <1>   0.0800 
 25 H       -1.6880     2.5740     1.9550 H     1 <1>   0.0800 
 26 H       -3.6270     1.5570     0.3130 H     1 <1>   0.0800 
 27 H       -2.8340     0.5670    -0.9030 H     1 <1>   0.0800 
 28 H       -2.0500    -2.1650     1.0410 H     1 <1>   0.0800 
 29 H       -3.2290    -1.6720     2.2370 H     1 <1>   0.0800 
 30 H       -5.1050    -0.2710    -1.0000 H     1 <1>   0.0800 
 31 H       -4.8110    -2.3740     0.6780 H     1 <1>   0.0800 
 32 H       -1.1350     4.2600     0.3650 H     1 <1>   0.0800 
 33 H        0.4980     3.6170     0.1630 H     1 <1>   0.0800 
 34 H       -4.9610     0.0210     1.7950 H     1 <1>   0.4000 
 35 H       -2.7060    -1.9210    -1.4550 H     1 <1>   0.0800 
 36 H       -4.3350    -2.4100    -1.8020 H     1 <1>   0.0800 
 37 H       -1.6380     3.7090    -1.9970 H     1 <1>   0.0800 
 38 H       -0.0160     3.0670    -2.1950 H     1 <1>   0.0800 
 39 H       -0.2560     4.7730    -1.9080 H     1 <1>   0.0800 
 40 H       -5.2310    -4.5460    -0.9120 H     1 <1>   0.1500 
 41 H       -4.6620    -6.9310    -0.5180 H     1 <1>   0.1500 
 42 H        0.4690    -5.0090    -0.3100 H     1 <1>   0.1500 
 43 H       -2.8610    -8.6180    -0.1080 H     1 <1>   0.1500 
 44 H        1.1960    -7.3410     0.0950 H     1 <1>   0.1500 
 45 H       -0.4690    -9.1350     0.1930 H     1 <1>   0.1500 
@<TRIPOS>BOND
  1   1   2  2   
  2   2   3  am  
  3   2   4  1   
  4   3   5  1   
  5   3   6  1   
  6   4   7  1   
  7   4  24  1   
  8   4  25  1   
  9   5   8  1   
 10   5  26  1   
 11   5  27  1   
 12   6   9  1   
 13   6  28  1   
 14   6  29  1   
 15   7  10  1   
 16   8   9  1   
 17   8  11  1   
 18   8  30  1   
 19   9  12  1   
 20   9  31  1   
 21  10  13  1   
 22  10  32  1   
 23  10  33  1   
 24  11  34  1   
 25  12  14  1   
 26  12  35  1   
 27  12  36  1   
 28  13  37  1   
 29  13  38  1   
 30  13  39  1   
 31  14  15  ar  
 32  14  16  ar  
 33  15  17  ar  
 34  16  18  ar  
 35  16  40  1   
 36  17  19  ar  
 37  17  20  ar  
 38  18  19  ar  
 39  18  41  1   
 40  19  21  ar  
 41  20  22  ar  
 42  20  42  1   
 43  21  23  ar  
 44  21  43  1   
 45  22  23  ar  
 46  22  44  1   
 47  23  45  1   
@<TRIPOS>SUBSTRUCTURE
  1 ****   6 GROUP 4 **** **** 0

# MOE 2024.06 (io_trps.svl 2023.06)
