@<TRIPOS>MOLECULE
NONAME
42 44 1 0 0 
SMALL
USER_CHARGES


@<TRIPOS>ATOM
  1 S       -0.0730     0.0510     1.2460 S.3   1 <1>  -0.0800 
  2 C        1.0660    -0.9440     0.3640 C.2   1 <1>  -0.0450 
  3 C        0.7060     1.4830     0.6280 C.2   1 <1>   0.1980 
  4 C        1.9090    -0.1030    -0.2790 C.2   1 <1>   0.0460 
  5 C        0.9910    -2.3790     0.4540 C.2   1 <1>   0.7150 
  6 N        1.6940     1.2510    -0.1360 N.2   1 <1>  -0.5650 
  7 C        0.1470     2.8210     1.0490 C.3   1 <1>  -0.0600 
  8 C        3.0810    -0.5040    -1.1500 C.3   1 <1>  -0.0590 
  9 O        1.9950    -3.0140     0.7200 O.2   1 <1>  -0.5700 
 10 N       -0.1770    -3.0710     0.2180 N.am  1 <1>  -0.6600 
 11 C       -1.3630    -2.5240    -0.4940 C.3   1 <1>   0.1400 
 12 C       -0.2300    -4.5590     0.2160 C.3   1 <1>   0.1400 
 13 C       -2.3610    -3.6800    -0.5230 C.3   1 <1>   0.2000 
 14 C       -1.4680    -4.9180    -0.6120 C.3   1 <1>  -0.0800 
 15 O       -3.0440    -3.6840     0.6840 O.3   1 <1>  -0.6800 
 16 C       -2.1260    -6.2480    -0.2010 C.3   1 <1>   0.0210 
 17 C       -1.1390    -7.3950    -0.3050 C.2   1 <1>   0.1080 
 18 N       -0.5150    -7.6920    -1.4030 N.2   1 <1>  -0.7070 
 19 C       -0.7850    -8.2370     0.7440 C.2   1 <1>  -0.1500 
 20 N        0.2610    -8.7440    -1.0800 N.pl3 1 <1>   0.3000 
 21 C        0.1160    -9.0920     0.2160 C.2   1 <1>  -0.3320 
 22 C        0.8580   -10.2370     0.8800 C.3   1 <1>  -0.0600 
 23 H        0.7200     3.6110     0.5980 H     1 <1>   0.0800 
 24 H        0.2000     2.9180     2.1180 H     1 <1>   0.0800 
 25 H       -0.8760     2.9060     0.7330 H     1 <1>   0.0800 
 26 H        3.1670    -1.5730    -1.2160 H     1 <1>   0.0800 
 27 H        3.9890    -0.1100    -0.7320 H     1 <1>   0.0800 
 28 H        2.9510    -0.1030    -2.1380 H     1 <1>   0.0800 
 29 H       -1.7830    -1.6670     0.0010 H     1 <1>   0.0800 
 30 H       -1.0790    -2.2590    -1.4980 H     1 <1>   0.0800 
 31 H        0.6600    -4.9830    -0.2200 H     1 <1>   0.0800 
 32 H       -0.3280    -4.9080     1.2290 H     1 <1>   0.0800 
 33 H       -3.0770    -3.6080    -1.3250 H     1 <1>   0.0800 
 34 H       -1.1450    -5.0140    -1.6350 H     1 <1>   0.0800 
 35 H       -2.3940    -3.5870     1.4090 H     1 <1>   0.4000 
 36 H       -2.9590    -6.4520    -0.8490 H     1 <1>   0.0800 
 37 H       -2.4940    -6.1950     0.8070 H     1 <1>   0.0800 
 38 H       -1.1640    -8.1930     1.7500 H     1 <1>   0.1500 
 39 H        0.8760    -9.2000    -1.7640 H     1 <1>   0.2700 
 40 H        0.5720   -10.3130     1.9140 H     1 <1>   0.0800 
 41 H        1.9200   -10.0700     0.8300 H     1 <1>   0.0800 
 42 H        0.6240   -11.1650     0.3900 H     1 <1>   0.0800 
@<TRIPOS>BOND
  1   1   2  1   
  2   1   3  1   
  3   2   4  2   
  4   2   5  1   
  5   3   6  2   
  6   3   7  1   
  7   4   6  1   
  8   4   8  1   
  9   5   9  2   
 10   5  10  am  
 11   7  23  1   
 12   7  24  1   
 13   7  25  1   
 14   8  26  1   
 15   8  27  1   
 16   8  28  1   
 17  10  11  1   
 18  10  12  1   
 19  11  13  1   
 20  11  29  1   
 21  11  30  1   
 22  12  14  1   
 23  12  31  1   
 24  12  32  1   
 25  13  14  1   
 26  13  15  1   
 27  13  33  1   
 28  14  16  1   
 29  14  34  1   
 30  15  35  1   
 31  16  17  1   
 32  16  36  1   
 33  16  37  1   
 34  17  18  2   
 35  17  19  1   
 36  18  20  1   
 37  19  21  2   
 38  19  38  1   
 39  20  21  1   
 40  20  39  1   
 41  21  22  1   
 42  22  40  1   
 43  22  41  1   
 44  22  42  1   
@<TRIPOS>SUBSTRUCTURE
  1 ****  10 GROUP 4 **** **** 0

# MOE 2024.06 (io_trps.svl 2023.06)
