@<TRIPOS>MOLECULE
NONAME
61 64 1 0 0 
SMALL
USER_CHARGES


@<TRIPOS>ATOM
  1 O       -1.3510    -0.0790     2.4600 O.2   1 <1>  -0.5700 
  2 C       -1.6270     0.5140     1.4470 C.2   1 <1>   0.5690 
  3 N       -2.1300    -0.1630     0.3650 N.am  1 <1>  -0.6600 
  4 C       -1.3980     2.0310     1.4810 C.3   1 <1>  -0.0190 
  5 C       -2.5970     0.3480    -0.9490 C.3   1 <1>   0.1400 
  6 C       -2.4280    -1.6210     0.4530 C.3   1 <1>   0.1400 
  7 C       -2.7060     2.8320     1.6060 C.3   1 <1>  -0.1600 
  8 C       -0.5160     2.5910     0.3510 C.3   1 <1>  -0.1600 
  9 C       -3.6790    -0.6390    -1.3720 C.3   1 <1>   0.2000 
 10 C       -3.1580    -1.9830    -0.8500 C.3   1 <1>  -0.0800 
 11 C       -2.4220     4.3260     1.7560 C.3   1 <1>   0.3430 
 12 C       -0.2790     4.0900     0.5390 C.3   1 <1>   0.3430 
 13 O       -4.8470    -0.2900    -0.7080 O.3   1 <1>  -0.6800 
 14 C       -4.2430    -3.0710    -0.6900 C.3   1 <1>  -0.0160 
 15 N       -1.5900     4.8090     0.6120 N.4   1 <1>  -0.9590 
 16 C       -3.7620    -4.4800    -0.3200 C.ar  1 <1>  -0.1440 
 17 C       -1.4060     6.2950     0.7250 C.3   1 <1>   0.3430 
 18 C       -4.7120    -5.4770     0.0150 C.ar  1 <1>   0.0000 
 19 C       -2.4460    -4.8510    -0.3020 C.ar  1 <1>  -0.1500 
 20 C       -0.8180     6.9310    -0.5410 C.3   1 <1>   0.1200 
 21 C       -4.2330    -6.7640     0.3640 C.ar  1 <1>   0.3100 
 22 C       -6.1130    -5.2760     0.0180 C.ar  1 <1>  -0.1500 
 23 C       -2.0790    -6.1540     0.0550 C.ar  1 <1>   0.1600 
 24 O       -0.7540     8.2970    -0.3140 O.3   1 <1>  -0.5600 
 25 N       -2.9160    -7.0850     0.3800 N.ar  1 <1>  -0.6200 
 26 C       -5.1550    -7.7670     0.7070 C.ar  1 <1>  -0.1500 
 27 C       -6.9850    -6.2750     0.3550 C.ar  1 <1>  -0.1500 
 28 C       -0.2530     9.0400    -1.3820 C.3   1 <1>   0.0400 
 29 C       -6.5030    -7.5370     0.7070 C.ar  1 <1>  -0.1500 
 30 H       -0.8520     2.2070     2.3940 H     1 <1>   0.0800 
 31 H       -2.9870     1.3460    -0.9020 H     1 <1>   0.0800 
 32 H       -1.7810     0.3080    -1.6500 H     1 <1>   0.0800 
 33 H       -1.5150    -2.1800     0.5680 H     1 <1>   0.0800 
 34 H       -3.0560    -1.8030     1.3100 H     1 <1>   0.0800 
 35 H       -3.2400     2.4930     2.4780 H     1 <1>   0.0800 
 36 H       -3.3470     2.6720     0.7600 H     1 <1>   0.0800 
 37 H       -0.9560     2.4280    -0.6140 H     1 <1>   0.0800 
 38 H        0.4340     2.0840     0.3620 H     1 <1>   0.0800 
 39 H       -3.8710    -0.6320    -2.4320 H     1 <1>   0.0800 
 40 H       -2.4270    -2.3270    -1.5590 H     1 <1>   0.0800 
 41 H       -1.9000     4.5000     2.6840 H     1 <1>   0.0800 
 42 H       -3.3560     4.8660     1.7890 H     1 <1>   0.0800 
 43 H        0.3070     4.4640    -0.2850 H     1 <1>   0.0800 
 44 H        0.2760     4.2540     1.4490 H     1 <1>   0.0800 
 45 H       -4.6830    -0.3220     0.2560 H     1 <1>   0.4000 
 46 H       -4.7910    -3.1400    -1.6130 H     1 <1>   0.0800 
 47 H       -4.9320    -2.7460     0.0700 H     1 <1>   0.0800 
 48 H       -2.1160     4.6160    -0.2500 H     1 <1>   0.4500 
 49 H       -2.3610     6.7590     0.9100 H     1 <1>   0.0800 
 50 H       -0.7590     6.5190     1.5570 H     1 <1>   0.0800 
 51 H       -1.6460    -4.1840    -0.5550 H     1 <1>   0.1500 
 52 H       -1.4570     6.7580    -1.3900 H     1 <1>   0.0800 
 53 H        0.1790     6.5750    -0.7320 H     1 <1>   0.0800 
 54 H       -6.5140    -4.3170    -0.2540 H     1 <1>   0.1500 
 55 H       -1.0300    -6.3970     0.0590 H     1 <1>   0.1500 
 56 H       -4.7590    -8.7300     0.9710 H     1 <1>   0.1500 
 57 H       -8.0480    -6.1040     0.3530 H     1 <1>   0.1500 
 58 H       -0.2490    10.0780    -1.0960 H     1 <1>   0.0800 
 59 H       -0.8880     8.9080    -2.2420 H     1 <1>   0.0800 
 60 H        0.7530     8.7240    -1.6010 H     1 <1>   0.0800 
 61 H       -7.1980    -8.3160     0.9710 H     1 <1>   0.1500 
@<TRIPOS>BOND
  1   1   2  2   
  2   2   3  am  
  3   2   4  1   
  4   3   5  1   
  5   3   6  1   
  6   4   7  1   
  7   4   8  1   
  8   4  30  1   
  9   5   9  1   
 10   5  31  1   
 11   5  32  1   
 12   6  10  1   
 13   6  33  1   
 14   6  34  1   
 15   7  11  1   
 16   7  35  1   
 17   7  36  1   
 18   8  12  1   
 19   8  37  1   
 20   8  38  1   
 21   9  10  1   
 22   9  13  1   
 23   9  39  1   
 24  10  14  1   
 25  10  40  1   
 26  11  15  1   
 27  11  41  1   
 28  11  42  1   
 29  12  15  1   
 30  12  43  1   
 31  12  44  1   
 32  13  45  1   
 33  14  16  1   
 34  14  46  1   
 35  14  47  1   
 36  15  17  1   
 37  15  48  1   
 38  16  18  ar  
 39  16  19  ar  
 40  17  20  1   
 41  17  49  1   
 42  17  50  1   
 43  18  21  ar  
 44  18  22  ar  
 45  19  23  ar  
 46  19  51  1   
 47  20  24  1   
 48  20  52  1   
 49  20  53  1   
 50  21  25  ar  
 51  21  26  ar  
 52  22  27  ar  
 53  22  54  1   
 54  23  25  ar  
 55  23  55  1   
 56  24  28  1   
 57  26  29  ar  
 58  26  56  1   
 59  27  29  ar  
 60  27  57  1   
 61  28  58  1   
 62  28  59  1   
 63  28  60  1   
 64  29  61  1   
@<TRIPOS>SUBSTRUCTURE
  1 ****   3 GROUP 4 **** **** 0

# MOE 2024.06 (io_trps.svl 2023.06)
