@<TRIPOS>MOLECULE
NONAME
45 47 1 0 0 
SMALL
USER_CHARGES


@<TRIPOS>ATOM
  1 CL       0.9870    -1.8720    -0.9320 Cl    1 <1>  -0.1770 
  2 C        2.1600    -1.3930     0.2730 C.ar  1 <1>   0.1770 
  3 C        3.1690    -0.4940    -0.0470 C.ar  1 <1>  -0.1440 
  4 C        2.0440    -1.9310     1.5400 C.ar  1 <1>  -0.1500 
  5 C        4.0790    -0.1260     0.9420 C.ar  1 <1>  -0.1440 
  6 C        3.2630     0.0940    -1.4530 C.3   1 <1>  -0.0160 
  7 C        2.9500    -1.5650     2.5170 C.ar  1 <1>  -0.1500 
  8 C        3.9600    -0.6660     2.2160 C.ar  1 <1>  -0.1500 
  9 C        5.2170     0.8530     0.6740 C.3   1 <1>   0.4870 
 10 C        4.6090     0.7630    -1.7250 C.3   1 <1>   0.3430 
 11 N        4.9840     1.6180    -0.5700 N.4   1 <1>  -0.9590 
 12 C        6.1280     2.5600    -0.8990 C.3   1 <1>   0.4600 
 13 C        6.3740     3.4550     0.3120 C.ar  1 <1>  -0.1430 
 14 C        5.9590     3.3990    -2.1980 C.2   1 <1>   0.9060 
 15 C        7.6520     3.5320     0.8450 C.ar  1 <1>   0.0820 
 16 C        5.3600     4.2030     0.9010 C.ar  1 <1>   0.0820 
 17 O        6.9630     3.8090    -2.7900 O.co2 1 <1>  -0.9000 
 18 O        4.8170     3.5560    -2.6600 O.co2 1 <1>  -0.9000 
 19 O        8.6450     2.8030     0.2980 O.3   1 <1>  -0.3630 
 20 C        7.9180     4.3330     1.9460 C.ar  1 <1>  -0.1500 
 21 O        4.0990     4.1250     0.4240 O.3   1 <1>  -0.3630 
 22 C        5.6210     5.0080     2.0010 C.ar  1 <1>  -0.1500 
 23 C        9.5330     3.5140    -0.5400 C.3   1 <1>   0.0400 
 24 C        6.9010     5.0740     2.5230 C.ar  1 <1>  -0.1500 
 25 C        3.6390     5.2490    -0.2980 C.3   1 <1>   0.0400 
 26 H        1.2510    -2.6260     1.7560 H     1 <1>   0.1500 
 27 H        2.4820     0.8230    -1.5850 H     1 <1>   0.0800 
 28 H        3.1170    -0.6740    -2.1910 H     1 <1>   0.0800 
 29 H        2.8690    -1.9770     3.5090 H     1 <1>   0.1500 
 30 H        4.6560    -0.3920     2.9920 H     1 <1>   0.1500 
 31 H        6.1410     0.3060     0.5930 H     1 <1>   0.0800 
 32 H        5.3010     1.5340     1.5060 H     1 <1>   0.0800 
 33 H        4.5310     1.3500    -2.6260 H     1 <1>   0.0800 
 34 H        5.3640     0.0090    -1.8750 H     1 <1>   0.0800 
 35 H        4.2050     2.2800    -0.4110 H     1 <1>   0.4500 
 36 H        7.0120     1.9710    -1.0620 H     1 <1>   0.0800 
 37 H        8.9150     4.3730     2.3460 H     1 <1>   0.1500 
 38 H        4.8240     5.5750     2.4470 H     1 <1>   0.1500 
 39 H       10.2150     2.8130    -0.9860 H     1 <1>   0.0800 
 40 H       10.0740     4.2330     0.0500 H     1 <1>   0.0800 
 41 H        8.9700     4.0150    -1.3090 H     1 <1>   0.0800 
 42 H        7.1050     5.6990     3.3750 H     1 <1>   0.1500 
 43 H        2.7140     4.9870    -0.7800 H     1 <1>   0.0800 
 44 H        4.3690     5.5150    -1.0440 H     1 <1>   0.0800 
 45 H        3.4860     6.0680     0.3820 H     1 <1>   0.0800 
@<TRIPOS>BOND
  1   1   2  1   
  2   2   3  ar  
  3   2   4  ar  
  4   3   5  ar  
  5   3   6  1   
  6   4   7  ar  
  7   4  26  1   
  8   5   8  ar  
  9   5   9  1   
 10   6  10  1   
 11   6  27  1   
 12   6  28  1   
 13   7   8  ar  
 14   7  29  1   
 15   8  30  1   
 16   9  11  1   
 17   9  31  1   
 18   9  32  1   
 19  10  11  1   
 20  10  33  1   
 21  10  34  1   
 22  11  12  1   
 23  11  35  1   
 24  12  13  1   
 25  12  14  1   
 26  12  36  1   
 27  13  15  ar  
 28  13  16  ar  
 29  14  17  ar  
 30  14  18  ar  
 31  15  19  1   
 32  15  20  ar  
 33  16  21  1   
 34  16  22  ar  
 35  19  23  1   
 36  20  24  ar  
 37  20  37  1   
 38  21  25  1   
 39  22  24  ar  
 40  22  38  1   
 41  23  39  1   
 42  23  40  1   
 43  23  41  1   
 44  24  42  1   
 45  25  43  1   
 46  25  44  1   
 47  25  45  1   
@<TRIPOS>SUBSTRUCTURE
  1 ****  11 GROUP 4 **** **** 0

# MOE 2024.06 (io_trps.svl 2023.06)
