@<TRIPOS>MOLECULE
NONAME
58 62 1 0 0 
SMALL
USER_CHARGES


@<TRIPOS>ATOM
  1 O       -2.3260     0.4680    -1.2360 O.2   1 <1>  -0.5700 
  2 C       -3.0380     0.5800    -0.2670 C.2   1 <1>   0.6300 
  3 N       -3.2330    -0.4690     0.6020 N.am  1 <1>  -0.6600 
  4 C       -3.7400     1.9160    -0.0410 C.3   1 <1>  -0.1000 
  5 C       -4.2250    -0.4820     1.7030 C.3   1 <1>   0.1400 
  6 C       -2.4890    -1.7430     0.4350 C.3   1 <1>   0.1400 
  7 C       -5.2000     2.0970    -0.3530 C.3   1 <1>  -0.2000 
  8 C       -4.1700     2.7770    -1.1950 C.3   1 <1>  -0.2000 
  9 C       -5.2760    -1.5440     1.3700 C.3   1 <1>  -0.1600 
 10 C       -3.4970    -2.8270     0.0610 C.3   1 <1>  -0.1600 
 11 C       -4.6130    -2.9050     1.1110 C.3   1 <1>   0.4230 
 12 N       -5.6460    -3.9070     0.7420 N.4   1 <1>  -0.9060 
 13 C       -6.3240    -3.7520    -0.5810 C.3   1 <1>   0.4230 
 14 C       -7.7450    -4.3140    -0.5210 C.3   1 <1>  -0.0800 
 15 C       -5.7050    -4.7560    -1.5470 C.3   1 <1>   0.1200 
 16 C       -7.5370    -5.8210    -0.7490 C.3   1 <1>   0.1200 
 17 C       -8.5930    -3.9750     0.7230 C.3   1 <1>  -0.0170 
 18 O       -6.1840    -5.9680    -1.0680 O.3   1 <1>  -0.5600 
 19 C      -10.0140    -4.4990     0.5560 C.ar  1 <1>  -0.1440 
 20 C      -10.9740    -3.8450    -0.2550 C.ar  1 <1>   0.0000 
 21 C      -10.4010    -5.6440     1.1920 C.ar  1 <1>  -0.1500 
 22 C      -12.2530    -4.4450    -0.3710 C.ar  1 <1>   0.3100 
 23 C      -10.7470    -2.6350    -0.9530 C.ar  1 <1>  -0.1500 
 24 C      -11.6970    -6.1450     1.0180 C.ar  1 <1>   0.1600 
 25 N      -12.5940    -5.5890     0.2690 N.ar  1 <1>  -0.6200 
 26 C      -13.2200    -3.8340    -1.1850 C.ar  1 <1>  -0.1500 
 27 C      -11.7140    -2.0640    -1.7350 C.ar  1 <1>  -0.1500 
 28 C      -12.9650    -2.6700    -1.8570 C.ar  1 <1>  -0.1500 
 29 H       -3.3280     2.4350     0.8060 H     1 <1>   0.1000 
 30 H       -3.7250    -0.7180     2.6270 H     1 <1>   0.0800 
 31 H       -4.6960     0.4790     1.8210 H     1 <1>   0.0800 
 32 H       -1.7400    -1.6550    -0.3360 H     1 <1>   0.0800 
 33 H       -1.9840    -1.9860     1.3550 H     1 <1>   0.0800 
 34 H       -5.7530     1.2890    -0.7990 H     1 <1>   0.1000 
 35 H       -5.8040     2.7020     0.3020 H     1 <1>   0.1000 
 36 H       -4.0440     3.8430    -1.1130 H     1 <1>   0.1000 
 37 H       -3.9850     2.4190    -2.1940 H     1 <1>   0.1000 
 38 H       -5.8180    -1.2080     0.5040 H     1 <1>   0.0800 
 39 H       -5.9600    -1.6170     2.1960 H     1 <1>   0.0800 
 40 H       -2.9800    -3.7670    -0.0040 H     1 <1>   0.0800 
 41 H       -3.8850    -2.5740    -0.9090 H     1 <1>   0.0800 
 42 H       -4.1540    -3.2160     2.0380 H     1 <1>   0.0800 
 43 H       -6.3530    -3.9390     1.4780 H     1 <1>   0.4500 
 44 H       -5.2350    -4.8540     0.7130 H     1 <1>   0.4500 
 45 H       -6.2880    -2.7370    -0.9420 H     1 <1>   0.0800 
 46 H       -8.2680    -3.9450    -1.3870 H     1 <1>   0.0800 
 47 H       -4.6300    -4.7660    -1.5500 H     1 <1>   0.0800 
 48 H       -6.0700    -4.6180    -2.5520 H     1 <1>   0.0800 
 49 H       -8.1310    -6.1840    -1.5720 H     1 <1>   0.0800 
 50 H       -7.7400    -6.4120     0.1280 H     1 <1>   0.0800 
 51 H       -8.6230    -2.9120     0.8870 H     1 <1>   0.0800 
 52 H       -8.1680    -4.4240     1.6030 H     1 <1>   0.0800 
 53 H       -9.7400    -6.1960     1.8340 H     1 <1>   0.1500 
 54 H       -9.8000    -2.1410    -0.8720 H     1 <1>   0.1500 
 55 H      -11.9640    -7.0500     1.5370 H     1 <1>   0.1500 
 56 H      -14.1770    -4.3160    -1.2600 H     1 <1>   0.1500 
 57 H      -11.5310    -1.1440    -2.2640 H     1 <1>   0.1500 
 58 H      -13.7180    -2.2140    -2.4770 H     1 <1>   0.1500 
@<TRIPOS>BOND
  1   1   2  2   
  2   2   3  am  
  3   2   4  1   
  4   3   5  1   
  5   3   6  1   
  6   4   7  1   
  7   4   8  1   
  8   4  29  1   
  9   5   9  1   
 10   5  30  1   
 11   5  31  1   
 12   6  10  1   
 13   6  32  1   
 14   6  33  1   
 15   7   8  1   
 16   7  34  1   
 17   7  35  1   
 18   8  36  1   
 19   8  37  1   
 20   9  11  1   
 21   9  38  1   
 22   9  39  1   
 23  10  11  1   
 24  10  40  1   
 25  10  41  1   
 26  11  12  1   
 27  11  42  1   
 28  12  13  1   
 29  12  43  1   
 30  12  44  1   
 31  13  14  1   
 32  13  15  1   
 33  13  45  1   
 34  14  16  1   
 35  14  17  1   
 36  14  46  1   
 37  15  18  1   
 38  15  47  1   
 39  15  48  1   
 40  16  18  1   
 41  16  49  1   
 42  16  50  1   
 43  17  19  1   
 44  17  51  1   
 45  17  52  1   
 46  19  20  ar  
 47  19  21  ar  
 48  20  22  ar  
 49  20  23  ar  
 50  21  24  ar  
 51  21  53  1   
 52  22  25  ar  
 53  22  26  ar  
 54  23  27  ar  
 55  23  54  1   
 56  24  25  ar  
 57  24  55  1   
 58  26  28  ar  
 59  26  56  1   
 60  27  28  ar  
 61  27  57  1   
 62  28  58  1   
@<TRIPOS>SUBSTRUCTURE
  1 ****  13 GROUP 4 **** **** 0

# MOE 2024.06 (io_trps.svl 2023.06)
