@<TRIPOS>MOLECULE
NONAME
58 62 1 0 0 
SMALL
USER_CHARGES


@<TRIPOS>ATOM
  1 N       -2.7070    -0.5350     0.4380 N.ar  1 <1>  -0.6200 
  2 C       -2.4820    -1.5550     1.2570 C.ar  1 <1>   0.1660 
  3 C       -1.6360    -0.0050    -0.1360 C.ar  1 <1>   0.1660 
  4 C       -1.2240    -2.0760     1.5180 C.ar  1 <1>  -0.1500 
  5 C       -3.6990    -2.1680     1.9380 C.3   1 <1>  -0.0160 
  6 C       -0.3430    -0.4610     0.0640 C.ar  1 <1>  -0.1500 
  7 C       -1.8810     1.1710    -1.0580 C.3   1 <1>  -0.0960 
  8 C       -0.1200    -1.5240     0.9090 C.ar  1 <1>  -0.1500 
  9 C       -4.6510    -2.8200     0.9270 C.3   1 <1>   0.3430 
 10 N       -5.1790    -1.8120    -0.0330 N.4   1 <1>  -0.9590 
 11 C       -6.2780    -0.9730     0.5530 C.3   1 <1>   0.3430 
 12 C       -5.5700    -2.4130    -1.3360 C.3   1 <1>   0.3430 
 13 C       -6.6810     0.1780    -0.3850 C.3   1 <1>   0.1430 
 14 C       -5.9250    -1.3020    -2.3280 C.3   1 <1>  -0.1600 
 15 C       -7.8780     0.8860     0.2060 C.ar  1 <1>   0.1670 
 16 C       -7.0240    -0.3690    -1.7870 C.3   1 <1>  -0.1600 
 17 C       -5.6180     1.3070    -0.4420 C.3   1 <1>  -0.1600 
 18 N       -8.9460     0.2840     0.6660 N.ar  1 <1>  -0.6200 
 19 C       -7.7150     2.2350     0.2150 C.ar  1 <1>  -0.1430 
 20 C       -6.3820     2.6430    -0.3630 C.3   1 <1>  -0.0170 
 21 C       -9.9070     1.0940     1.1390 C.ar  1 <1>   0.6200 
 22 C       -8.7350     2.9940     0.7260 C.ar  1 <1>   0.1600 
 23 N       -9.8290     2.4310     1.1870 N.ar  1 <1>  -0.6200 
 24 C      -11.1270     0.4740     1.6380 C.ar  1 <1>   0.0000 
 25 C      -12.3620     1.1240     1.5570 C.ar  1 <1>  -0.1500 
 26 C      -11.1220    -0.7980     2.2190 C.ar  1 <1>  -0.1500 
 27 C      -13.5250     0.5410     2.0270 C.ar  1 <1>  -0.1500 
 28 C      -12.2810    -1.3870     2.6910 C.ar  1 <1>  -0.1500 
 29 C      -13.4870    -0.7180     2.5950 C.ar  1 <1>  -0.1500 
 30 H       -1.0930    -2.9040     2.1920 H     1 <1>   0.1500 
 31 H       -4.2110    -1.4110     2.5040 H     1 <1>   0.0800 
 32 H       -3.3810    -2.9210     2.6350 H     1 <1>   0.0800 
 33 H        0.4880     0.0100    -0.4320 H     1 <1>   0.1500 
 34 H       -2.3870     1.9520    -0.5210 H     1 <1>   0.0800 
 35 H       -2.4900     0.8630    -1.8880 H     1 <1>   0.0800 
 36 H       -0.9560     1.5630    -1.4390 H     1 <1>   0.0800 
 37 H        0.8730    -1.9020     1.0870 H     1 <1>   0.1500 
 38 H       -5.4670    -3.3010     1.4410 H     1 <1>   0.0800 
 39 H       -4.1010    -3.5730     0.3870 H     1 <1>   0.0800 
 40 H       -4.3700    -1.1750    -0.2050 H     1 <1>   0.4500 
 41 H       -5.9670    -0.5560     1.4960 H     1 <1>   0.0800 
 42 H       -7.1450    -1.5880     0.7300 H     1 <1>   0.0800 
 43 H       -6.4220    -3.0590    -1.1990 H     1 <1>   0.0800 
 44 H       -4.7550    -2.9990    -1.7310 H     1 <1>   0.0800 
 45 H       -6.2650    -1.7510    -3.2450 H     1 <1>   0.0800 
 46 H       -5.0370    -0.7410    -2.5620 H     1 <1>   0.0800 
 47 H       -7.1890     0.4460    -2.4720 H     1 <1>   0.0800 
 48 H       -7.9470    -0.9230    -1.7270 H     1 <1>   0.0800 
 49 H       -5.0070     1.2650    -1.3260 H     1 <1>   0.0800 
 50 H       -4.9730     1.2430     0.4180 H     1 <1>   0.0800 
 51 H       -6.5280     3.0610    -1.3450 H     1 <1>   0.0800 
 52 H       -5.8760     3.3550     0.2660 H     1 <1>   0.0800 
 53 H       -8.6590     4.0680     0.7580 H     1 <1>   0.1500 
 54 H      -12.4120     2.1060     1.1180 H     1 <1>   0.1500 
 55 H      -10.1950    -1.3340     2.3060 H     1 <1>   0.1500 
 56 H      -14.4600     1.0690     1.9500 H     1 <1>   0.1500 
 57 H      -12.2480    -2.3680     3.1340 H     1 <1>   0.1500 
 58 H      -14.3910    -1.1740     2.9610 H     1 <1>   0.1500 
@<TRIPOS>BOND
  1   1   2  ar  
  2   1   3  ar  
  3   2   4  ar  
  4   2   5  1   
  5   3   6  ar  
  6   3   7  1   
  7   4   8  ar  
  8   4  30  1   
  9   5   9  1   
 10   5  31  1   
 11   5  32  1   
 12   6   8  ar  
 13   6  33  1   
 14   7  34  1   
 15   7  35  1   
 16   7  36  1   
 17   8  37  1   
 18   9  10  1   
 19   9  38  1   
 20   9  39  1   
 21  10  11  1   
 22  10  12  1   
 23  10  40  1   
 24  11  13  1   
 25  11  41  1   
 26  11  42  1   
 27  12  14  1   
 28  12  43  1   
 29  12  44  1   
 30  13  15  1   
 31  13  16  1   
 32  13  17  1   
 33  14  16  1   
 34  14  45  1   
 35  14  46  1   
 36  15  18  ar  
 37  15  19  ar  
 38  16  47  1   
 39  16  48  1   
 40  17  20  1   
 41  17  49  1   
 42  17  50  1   
 43  18  21  ar  
 44  19  20  1   
 45  19  22  ar  
 46  20  51  1   
 47  20  52  1   
 48  21  23  ar  
 49  21  24  1   
 50  22  23  ar  
 51  22  53  1   
 52  24  25  ar  
 53  24  26  ar  
 54  25  27  ar  
 55  25  54  1   
 56  26  28  ar  
 57  26  55  1   
 58  27  29  ar  
 59  27  56  1   
 60  28  29  ar  
 61  28  57  1   
 62  29  58  1   
@<TRIPOS>SUBSTRUCTURE
  1 ****  11 GROUP 4 **** **** 0

# MOE 2024.06 (io_trps.svl 2023.06)
