@<TRIPOS>MOLECULE
NONAME
53 56 1 0 0 
SMALL
USER_CHARGES


@<TRIPOS>ATOM
  1 S       -0.1680     1.6900     0.5280 S.o2  1 <1>   1.2040 
  2 O        1.0430     2.0100     1.2570 O.2   1 <1>  -0.6500 
  3 O       -1.1380     2.7360     0.3050 O.2   1 <1>  -0.6500 
  4 C       -0.9360     0.1690     1.1260 C.ar  1 <1>  -0.0090 
  5 C        0.3990     1.2500    -1.0990 C.3   1 <1>  -0.0550 
  6 C       -2.2760    -0.1010     0.8730 C.ar  1 <1>  -0.1500 
  7 C       -0.1980    -0.7820     1.8210 C.ar  1 <1>  -0.1500 
  8 C        0.9670     2.4950    -1.7740 C.3   1 <1>   0.3430 
  9 C       -2.8600    -1.2850     1.2920 C.ar  1 <1>  -0.1500 
 10 C       -0.7740    -1.9680     2.2430 C.ar  1 <1>  -0.1500 
 11 N        2.1860     3.0020    -1.0720 N.4   1 <1>  -0.9590 
 12 C       -2.1070    -2.2200     1.9760 C.ar  1 <1>  -0.1500 
 13 C        2.3320     4.4870    -1.2200 C.3   1 <1>   0.3430 
 14 C        3.4410     2.2890    -1.4330 C.3   1 <1>   0.3430 
 15 C        3.7000     4.9920    -0.7230 C.3   1 <1>  -0.0800 
 16 C        4.5130     2.6100    -0.3840 C.3   1 <1>  -0.1600 
 17 C        4.3620     4.0030     0.2580 C.3   1 <1>  -0.1600 
 18 C        3.5680     6.4010    -0.1120 C.3   1 <1>   0.0200 
 19 C        4.9290     7.0210     0.1570 C.2   1 <1>   0.0060 
 20 N        5.8720     7.0580    -0.7180 N.2   1 <1>  -0.5650 
 21 N        5.2600     7.5890     1.3460 N.pl3 1 <1>   0.0330 
 22 C        6.9020     7.6830    -0.0800 C.ar  1 <1>   0.2270 
 23 C        6.5380     8.0200     1.2100 C.ar  1 <1>  -0.1520 
 24 C        8.1790     7.9930    -0.5460 C.ar  1 <1>  -0.1500 
 25 C        7.4270     8.6690     2.0690 C.ar  1 <1>  -0.1500 
 26 C        9.0640     8.6330     0.2940 C.ar  1 <1>  -0.1500 
 27 C        8.6870     8.9710     1.6010 C.ar  1 <1>  -0.1500 
 28 H       -0.4300     0.8940    -1.6810 H     1 <1>   0.0800 
 29 H        1.1370     0.4730    -1.0560 H     1 <1>   0.0800 
 30 H       -2.8810     0.6210     0.3480 H     1 <1>   0.1500 
 31 H        0.8400    -0.5990     2.0460 H     1 <1>   0.1500 
 32 H        0.2040     3.2590    -1.7600 H     1 <1>   0.0800 
 33 H        1.2030     2.2830    -2.8040 H     1 <1>   0.0800 
 34 H       -3.9000    -1.4770     1.0900 H     1 <1>   0.1500 
 35 H       -0.1890    -2.6940     2.7830 H     1 <1>   0.1500 
 36 H        2.0630     2.8430    -0.0480 H     1 <1>   0.4500 
 37 H       -2.5580    -3.1410     2.3040 H     1 <1>   0.1500 
 38 H        1.5500     4.9680    -0.6540 H     1 <1>   0.0800 
 39 H        2.2140     4.7700    -2.2540 H     1 <1>   0.0800 
 40 H        3.7760     2.6200    -2.4030 H     1 <1>   0.0800 
 41 H        3.2830     1.2230    -1.4690 H     1 <1>   0.0800 
 42 H        4.3360     5.0750    -1.5880 H     1 <1>   0.0800 
 43 H        5.4750     2.5420    -0.8630 H     1 <1>   0.0800 
 44 H        4.4960     1.8610     0.3890 H     1 <1>   0.0800 
 45 H        3.7580     3.9230     1.1470 H     1 <1>   0.0800 
 46 H        5.3350     4.3590     0.5570 H     1 <1>   0.0800 
 47 H        2.9990     6.3570     0.8000 H     1 <1>   0.0800 
 48 H        3.0490     7.0480    -0.7980 H     1 <1>   0.0800 
 49 H        4.6800     7.6860     2.1820 H     1 <1>   0.2700 
 50 H        8.4410     7.7230    -1.5510 H     1 <1>   0.1500 
 51 H        7.1300     8.9260     3.0700 H     1 <1>   0.1500 
 52 H       10.0540     8.8800    -0.0480 H     1 <1>   0.1500 
 53 H        9.3970     9.4710     2.2370 H     1 <1>   0.1500 
@<TRIPOS>BOND
  1   1   2  2   
  2   1   3  2   
  3   1   4  1   
  4   1   5  1   
  5   4   6  ar  
  6   4   7  ar  
  7   5   8  1   
  8   5  28  1   
  9   5  29  1   
 10   6   9  ar  
 11   6  30  1   
 12   7  10  ar  
 13   7  31  1   
 14   8  11  1   
 15   8  32  1   
 16   8  33  1   
 17   9  12  ar  
 18   9  34  1   
 19  10  12  ar  
 20  10  35  1   
 21  11  13  1   
 22  11  14  1   
 23  11  36  1   
 24  12  37  1   
 25  13  15  1   
 26  13  38  1   
 27  13  39  1   
 28  14  16  1   
 29  14  40  1   
 30  14  41  1   
 31  15  17  1   
 32  15  18  1   
 33  15  42  1   
 34  16  17  1   
 35  16  43  1   
 36  16  44  1   
 37  17  45  1   
 38  17  46  1   
 39  18  19  1   
 40  18  47  1   
 41  18  48  1   
 42  19  20  2   
 43  19  21  1   
 44  20  22  1   
 45  21  23  1   
 46  21  49  1   
 47  22  23  ar  
 48  22  24  ar  
 49  23  25  ar  
 50  24  26  ar  
 51  24  50  1   
 52  25  27  ar  
 53  25  51  1   
 54  26  27  ar  
 55  26  52  1   
 56  27  53  1   
@<TRIPOS>SUBSTRUCTURE
  1 ****  17 GROUP 4 **** **** 0

# MOE 2024.06 (io_trps.svl 2023.06)
