@<TRIPOS>MOLECULE
NONAME
57 59 1 0 0 
SMALL
USER_CHARGES


@<TRIPOS>ATOM
  1 O       -0.4300     0.1150    -1.3800 O.2   1 <1>  -0.5700 
  2 C        0.0420     1.2040    -1.1370 C.2   1 <1>   0.5690 
  3 N       -0.4990     2.0120    -0.1600 N.am  1 <1>  -0.6600 
  4 C        1.2640     1.6430    -1.9720 C.3   1 <1>   0.1710 
  5 C       -1.6250     1.5220     0.6910 C.3   1 <1>   0.1400 
  6 C       -0.1350     3.4470     0.0600 C.3   1 <1>   0.1400 
  7 N        2.6030     1.1920    -1.4900 N.3   1 <1>  -0.8100 
  8 C       -2.9180     2.3090     0.3890 C.3   1 <1>   0.0000 
  9 C       -1.2540     4.2300     0.7660 C.3   1 <1>  -0.1600 
 10 C        2.8870     1.6650    -0.1240 C.3   1 <1>   0.2530 
 11 C        2.7290    -0.2710    -1.5890 C.3   1 <1>   0.0300 
 12 C       -3.9690     2.0130     1.4750 C.3   1 <1>   0.2000 
 13 C       -2.6350     3.8360     0.2210 C.3   1 <1>  -0.1600 
 14 C       -3.6340     1.7770    -0.8640 C.3   1 <1>  -0.1600 
 15 C        4.3210     1.3640     0.2940 C.ar  1 <1>  -0.1440 
 16 O       -3.7570     2.7860     2.6200 O.3   1 <1>  -0.5600 
 17 C       -5.3260     2.3070     0.8260 C.3   1 <1>  -0.1600 
 18 C       -5.1040     2.1730    -0.6880 C.3   1 <1>  -0.1600 
 19 C        4.5810     0.6640     1.4620 C.ar  1 <1>  -0.1500 
 20 C        5.3830     1.7930    -0.4850 C.ar  1 <1>  -0.1500 
 21 C       -4.4870     2.3930     3.7390 C.3   1 <1>   0.0400 
 22 C        5.8850     0.4020     1.8470 C.ar  1 <1>  -0.1500 
 23 C        6.6870     1.5320    -0.1010 C.ar  1 <1>  -0.1500 
 24 C        6.9460     0.8360     1.0690 C.ar  1 <1>  -0.1440 
 25 C        8.3750     0.5480     1.4890 C.3   1 <1>  -0.0970 
 26 H        1.2790     2.7100    -2.0620 H     1 <1>   0.0800 
 27 H        1.1210     1.2610    -2.9670 H     1 <1>   0.0800 
 28 H       -1.7880     0.4680     0.5480 H     1 <1>   0.0800 
 29 H       -1.3560     1.6630     1.7230 H     1 <1>   0.0800 
 30 H        0.7640     3.5060     0.6480 H     1 <1>   0.0800 
 31 H        0.0460     3.9150    -0.8910 H     1 <1>   0.0800 
 32 H       -1.2190     4.0370     1.8250 H     1 <1>   0.0800 
 33 H       -1.0930     5.2840     0.6290 H     1 <1>   0.0800 
 34 H        2.7520     2.7320    -0.0880 H     1 <1>   0.0800 
 35 H        2.1990     1.2130     0.5700 H     1 <1>   0.0800 
 36 H        3.7390    -0.5730    -1.3670 H     1 <1>   0.0800 
 37 H        2.4960    -0.5950    -2.5890 H     1 <1>   0.0800 
 38 H        2.0600    -0.7590    -0.9000 H     1 <1>   0.0800 
 39 H       -3.9140     0.9710     1.7430 H     1 <1>   0.0800 
 40 H       -2.6580     4.1040    -0.8210 H     1 <1>   0.0800 
 41 H       -3.3940     4.4240     0.7080 H     1 <1>   0.0800 
 42 H       -3.2130     2.1530    -1.7800 H     1 <1>   0.0800 
 43 H       -3.5660     0.7020    -0.8880 H     1 <1>   0.0800 
 44 H       -6.0660     1.6070     1.1680 H     1 <1>   0.0800 
 45 H       -5.6410     3.3100     1.0570 H     1 <1>   0.0800 
 46 H       -5.7570     1.4360    -1.1230 H     1 <1>   0.0800 
 47 H       -5.2840     3.1220    -1.1630 H     1 <1>   0.0800 
 48 H        3.7700     0.3180     2.0780 H     1 <1>   0.1500 
 49 H        5.1880     2.3270    -1.3990 H     1 <1>   0.1500 
 50 H       -4.2220     3.0410     4.5550 H     1 <1>   0.0800 
 51 H       -4.2370     1.3760     3.9880 H     1 <1>   0.0800 
 52 H       -5.5390     2.4860     3.5330 H     1 <1>   0.0800 
 53 H        6.0700    -0.1440     2.7550 H     1 <1>   0.1500 
 54 H        7.4980     1.8710    -0.7210 H     1 <1>   0.1500 
 55 H        8.4480     0.4920     2.5600 H     1 <1>   0.0800 
 56 H        9.0320     1.3270     1.1450 H     1 <1>   0.0800 
 57 H        8.6950    -0.3880     1.0680 H     1 <1>   0.0800 
@<TRIPOS>BOND
  1   1   2  2   
  2   2   3  am  
  3   2   4  1   
  4   3   5  1   
  5   3   6  1   
  6   4   7  1   
  7   4  26  1   
  8   4  27  1   
  9   5   8  1   
 10   5  28  1   
 11   5  29  1   
 12   6   9  1   
 13   6  30  1   
 14   6  31  1   
 15   7  10  1   
 16   7  11  1   
 17   8  12  1   
 18   8  13  1   
 19   8  14  1   
 20   9  13  1   
 21   9  32  1   
 22   9  33  1   
 23  10  15  1   
 24  10  34  1   
 25  10  35  1   
 26  11  36  1   
 27  11  37  1   
 28  11  38  1   
 29  12  16  1   
 30  12  17  1   
 31  12  39  1   
 32  13  40  1   
 33  13  41  1   
 34  14  18  1   
 35  14  42  1   
 36  14  43  1   
 37  15  19  ar  
 38  15  20  ar  
 39  16  21  1   
 40  17  18  1   
 41  17  44  1   
 42  17  45  1   
 43  18  46  1   
 44  18  47  1   
 45  19  22  ar  
 46  19  48  1   
 47  20  23  ar  
 48  20  49  1   
 49  21  50  1   
 50  21  51  1   
 51  21  52  1   
 52  22  24  ar  
 53  22  53  1   
 54  23  24  ar  
 55  23  54  1   
 56  24  25  1   
 57  25  55  1   
 58  25  56  1   
 59  25  57  1   
@<TRIPOS>SUBSTRUCTURE
  1 ****   3 GROUP 4 **** **** 0

# MOE 2024.06 (io_trps.svl 2023.06)
