@<TRIPOS>MOLECULE
NONAME
50 54 1 0 0 
SMALL
USER_CHARGES


@<TRIPOS>ATOM
  1 O        0.4770    -0.6280     1.2620 O.3   1 <1>  -0.5600 
  2 C        1.5680    -1.0110     0.4490 C.3   1 <1>   0.4600 
  3 C       -0.8180    -0.9960     0.8500 C.3   1 <1>   0.1200 
  4 C        1.3320    -2.4240    -0.0720 C.2   1 <1>  -0.3320 
  5 C        1.7120    -0.0190    -0.7100 C.3   1 <1>  -0.1600 
  6 C        2.8080    -0.9830     1.3430 C.3   1 <1>  -0.1600 
  7 C       -0.9850    -2.5250     0.8310 C.3   1 <1>   0.0210 
  8 N        2.2250    -3.1830    -0.7750 N.pl3 1 <1>   0.0330 
  9 C        0.1900    -3.1200     0.0960 C.2   1 <1>  -0.1810 
 10 C        2.0120     1.3890    -0.2040 C.3   1 <1>   0.2090 
 11 C        3.1360     0.4330     1.8140 C.3   1 <1>   0.2090 
 12 C        1.6300    -4.3910    -1.0510 C.ar  1 <1>  -0.1520 
 13 C        0.3460    -4.3830    -0.5120 C.ar  1 <1>   0.0000 
 14 N        3.2230     1.3530     0.6490 N.pl3 1 <1>  -0.8380 
 15 C        2.1120    -5.5090    -1.7360 C.ar  1 <1>  -0.1500 
 16 C       -0.4720    -5.5080    -0.6550 C.ar  1 <1>  -0.1500 
 17 C        4.4460     1.6740     0.0980 C.ar  1 <1>   0.4100 
 18 C        1.2960    -6.6090    -1.8710 C.ar  1 <1>  -0.1500 
 19 C        0.0040    -6.6090    -1.3300 C.ar  1 <1>  -0.1500 
 20 N        5.2510     0.6640    -0.1630 N.ar  1 <1>  -0.6200 
 21 C        4.8100     2.9890    -0.1860 C.ar  1 <1>  -0.1440 
 22 C        6.3990     0.9840    -0.7200 C.ar  1 <1>   0.4700 
 23 C        6.0350     3.1810    -0.7880 C.ar  1 <1>   0.1670 
 24 C        3.8870     4.1560     0.1720 C.3   1 <1>  -0.0970 
 25 N        6.8450     2.1780    -1.0570 N.ar  1 <1>  -0.6200 
 26 C        6.5580     4.5510    -1.1850 C.3   1 <1>  -0.0970 
 27 H       -0.9940    -0.5890    -0.1300 H     1 <1>   0.0800 
 28 H       -1.5180    -0.5560     1.5370 H     1 <1>   0.0800 
 29 H        0.8240    -0.0180    -1.3120 H     1 <1>   0.0800 
 30 H        2.5250    -0.3280    -1.3410 H     1 <1>   0.0800 
 31 H        3.6540    -1.3600     0.8010 H     1 <1>   0.0800 
 32 H        2.6500    -1.6250     2.1900 H     1 <1>   0.0800 
 33 H       -1.9020    -2.7840     0.3350 H     1 <1>   0.0800 
 34 H       -1.0150    -2.9050     1.8350 H     1 <1>   0.0800 
 35 H        3.1760    -2.9120    -1.0440 H     1 <1>   0.2700 
 36 H        1.1820     1.7610     0.3730 H     1 <1>   0.0800 
 37 H        2.1720     2.0480    -1.0400 H     1 <1>   0.0800 
 38 H        4.0720     0.4330     2.3470 H     1 <1>   0.0800 
 39 H        2.3670     0.7840     2.4820 H     1 <1>   0.0800 
 40 H        3.1050    -5.5010    -2.1470 H     1 <1>   0.1500 
 41 H       -1.4600    -5.4930    -0.2350 H     1 <1>   0.1500 
 42 H        1.6440    -7.4830    -2.3940 H     1 <1>   0.1500 
 43 H       -0.6130    -7.4820    -1.4490 H     1 <1>   0.1500 
 44 H        7.0610     0.1620    -0.9310 H     1 <1>   0.1500 
 45 H        3.2620     3.9050     1.0100 H     1 <1>   0.0800 
 46 H        3.2590     4.3950    -0.6660 H     1 <1>   0.0800 
 47 H        4.4520     5.0260     0.4490 H     1 <1>   0.0800 
 48 H        5.7620     5.1800    -1.5360 H     1 <1>   0.0800 
 49 H        7.2790     4.4550    -1.9770 H     1 <1>   0.0800 
 50 H        7.0350     5.0120    -0.3400 H     1 <1>   0.0800 
@<TRIPOS>BOND
  1   1   2  1   
  2   1   3  1   
  3   2   4  1   
  4   2   5  1   
  5   2   6  1   
  6   3   7  1   
  7   3  27  1   
  8   3  28  1   
  9   4   8  1   
 10   4   9  2   
 11   5  10  1   
 12   5  29  1   
 13   5  30  1   
 14   6  11  1   
 15   6  31  1   
 16   6  32  1   
 17   7   9  1   
 18   7  33  1   
 19   7  34  1   
 20   8  12  1   
 21   8  35  1   
 22   9  13  1   
 23  10  14  1   
 24  10  36  1   
 25  10  37  1   
 26  11  14  1   
 27  11  38  1   
 28  11  39  1   
 29  12  13  ar  
 30  12  15  ar  
 31  13  16  ar  
 32  14  17  1   
 33  15  18  ar  
 34  15  40  1   
 35  16  19  ar  
 36  16  41  1   
 37  17  20  ar  
 38  17  21  ar  
 39  18  19  ar  
 40  18  42  1   
 41  19  43  1   
 42  20  22  ar  
 43  21  23  ar  
 44  21  24  1   
 45  22  25  ar  
 46  22  44  1   
 47  23  25  ar  
 48  23  26  1   
 49  24  45  1   
 50  24  46  1   
 51  24  47  1   
 52  26  48  1   
 53  26  49  1   
 54  26  50  1   
@<TRIPOS>SUBSTRUCTURE
  1 ****   2 GROUP 4 **** **** 0

# MOE 2024.06 (io_trps.svl 2023.06)
