@<TRIPOS>MOLECULE
NONAME
54 57 1 0 0 
SMALL
USER_CHARGES


@<TRIPOS>ATOM
  1 O       -1.0010     0.0910    -0.5110 O.2   1 <1>  -0.5700 
  2 C       -2.0910     0.5790    -0.3280 C.2   1 <1>   0.5690 
  3 N       -3.2290    -0.1730    -0.4270 N.am  1 <1>  -0.6600 
  4 C       -2.1370     2.0720     0.0130 C.3   1 <1>  -0.0190 
  5 C       -4.6400     0.2830    -0.3370 C.3   1 <1>   0.1400 
  6 C       -3.1730    -1.6270    -0.7210 C.3   1 <1>   0.1400 
  7 C       -1.6180     2.9090    -1.1730 C.3   1 <1>  -0.1600 
  8 C       -1.3050     2.3650     1.2780 C.3   1 <1>  -0.1600 
  9 C       -5.4780    -0.9280    -0.7460 C.3   1 <1>   0.2000 
 10 C       -4.5930    -2.1460    -0.4930 C.3   1 <1>  -0.0800 
 11 C       -1.4870     4.3910    -0.8280 C.3   1 <1>   0.3430 
 12 C       -1.1850     3.8610     1.5620 C.3   1 <1>   0.3430 
 13 O       -6.6390    -1.0170     0.0040 O.3   1 <1>  -0.6800 
 14 C       -4.9580    -3.3470    -1.3800 C.3   1 <1>  -0.0160 
 15 N       -0.6130     4.5450     0.3690 N.4   1 <1>  -0.9590 
 16 C       -4.0750    -4.5500    -1.0660 C.ar  1 <1>  -0.1440 
 17 C       -0.3350     5.9850     0.6540 C.3   1 <1>   0.2630 
 18 C       -4.2920    -5.3740     0.0640 C.ar  1 <1>   0.0000 
 19 C       -3.0260    -4.8620    -1.8810 C.ar  1 <1>  -0.1500 
 20 C       -3.3940    -6.4500     0.2750 C.ar  1 <1>   0.3100 
 21 C       -5.3430    -5.1970     0.9940 C.ar  1 <1>  -0.1500 
 22 C       -2.2030    -5.9540    -1.5850 C.ar  1 <1>   0.1600 
 23 N       -2.3590    -6.7260    -0.5570 N.ar  1 <1>  -0.6200 
 24 C       -3.5760    -7.2760     1.3960 C.ar  1 <1>  -0.1500 
 25 C       -5.4930    -6.0220     2.0750 C.ar  1 <1>  -0.1500 
 26 C       -4.5990    -7.0750     2.2820 C.ar  1 <1>  -0.1500 
 27 H       -3.1500     2.3650     0.2120 H     1 <1>   0.0800 
 28 H       -4.8570     0.5710     0.6770 H     1 <1>   0.0800 
 29 H       -4.8170     1.1050    -1.0090 H     1 <1>   0.0800 
 30 H       -2.8720    -1.7620    -1.7460 H     1 <1>   0.0800 
 31 H       -2.4650    -2.1240    -0.0770 H     1 <1>   0.0800 
 32 H       -2.2910     2.7990    -2.0060 H     1 <1>   0.0800 
 33 H       -0.6580     2.5390    -1.4920 H     1 <1>   0.0800 
 34 H       -0.3160     1.9520     1.1740 H     1 <1>   0.0800 
 35 H       -1.7620     1.8800     2.1230 H     1 <1>   0.0800 
 36 H       -5.7510    -0.8490    -1.7850 H     1 <1>   0.0800 
 37 H       -4.6610    -2.4250     0.5440 H     1 <1>   0.0800 
 38 H       -2.4610     4.8060    -0.6260 H     1 <1>   0.0800 
 39 H       -1.0610     4.9170    -1.6680 H     1 <1>   0.0800 
 40 H       -0.5460     4.0110     2.4180 H     1 <1>   0.0800 
 41 H       -2.1580     4.2680     1.7880 H     1 <1>   0.0800 
 42 H       -6.4310    -1.1790     0.9450 H     1 <1>   0.4000 
 43 H       -4.8430    -3.0750    -2.4150 H     1 <1>   0.0800 
 44 H       -5.9930    -3.6080    -1.2440 H     1 <1>   0.0800 
 45 H        0.2800     4.0750     0.1520 H     1 <1>   0.4500 
 46 H       -1.2510     6.5060     0.8850 H     1 <1>   0.0800 
 47 H        0.1220     6.4550    -0.2020 H     1 <1>   0.0800 
 48 H        0.3360     6.0780     1.4930 H     1 <1>   0.0800 
 49 H       -2.8010    -4.2860    -2.7600 H     1 <1>   0.1500 
 50 H       -6.0450    -4.3980     0.8520 H     1 <1>   0.1500 
 51 H       -1.3850    -6.1640    -2.2540 H     1 <1>   0.1500 
 52 H       -2.8770    -8.0800     1.5330 H     1 <1>   0.1500 
 53 H       -6.2980    -5.8760     2.7760 H     1 <1>   0.1500 
 54 H       -4.7260    -7.7170     3.1370 H     1 <1>   0.1500 
@<TRIPOS>BOND
  1   1   2  2   
  2   2   3  am  
  3   2   4  1   
  4   3   5  1   
  5   3   6  1   
  6   4   7  1   
  7   4   8  1   
  8   4  27  1   
  9   5   9  1   
 10   5  28  1   
 11   5  29  1   
 12   6  10  1   
 13   6  30  1   
 14   6  31  1   
 15   7  11  1   
 16   7  32  1   
 17   7  33  1   
 18   8  12  1   
 19   8  34  1   
 20   8  35  1   
 21   9  10  1   
 22   9  13  1   
 23   9  36  1   
 24  10  14  1   
 25  10  37  1   
 26  11  15  1   
 27  11  38  1   
 28  11  39  1   
 29  12  15  1   
 30  12  40  1   
 31  12  41  1   
 32  13  42  1   
 33  14  16  1   
 34  14  43  1   
 35  14  44  1   
 36  15  17  1   
 37  15  45  1   
 38  16  18  ar  
 39  16  19  ar  
 40  17  46  1   
 41  17  47  1   
 42  17  48  1   
 43  18  20  ar  
 44  18  21  ar  
 45  19  22  ar  
 46  19  49  1   
 47  20  23  ar  
 48  20  24  ar  
 49  21  25  ar  
 50  21  50  1   
 51  22  23  ar  
 52  22  51  1   
 53  24  26  ar  
 54  24  52  1   
 55  25  26  ar  
 56  25  53  1   
 57  26  54  1   
@<TRIPOS>SUBSTRUCTURE
  1 ****   6 GROUP 4 **** **** 0

# MOE 2024.06 (io_trps.svl 2023.06)
