@<TRIPOS>MOLECULE
NONAME
51 53 1 0 0 
SMALL
USER_CHARGES


@<TRIPOS>ATOM
  1 CL      -1.4330    -1.5810     0.7850 Cl    1 <1>  -0.1770 
  2 C       -2.1810     0.0010     0.7390 C.ar  1 <1>   0.1770 
  3 C       -3.2030     0.2550    -0.1660 C.ar  1 <1>  -0.1440 
  4 C       -1.7390     0.9600     1.6280 C.ar  1 <1>  -0.1500 
  5 C       -3.7910     1.5180    -0.1790 C.ar  1 <1>  -0.1440 
  6 C       -3.6440    -0.8490    -1.1070 C.3   1 <1>   0.4870 
  7 C       -2.3290     2.2090     1.6150 C.ar  1 <1>  -0.1500 
  8 C       -3.3460     2.4820     0.7160 C.ar  1 <1>  -0.1500 
  9 C       -4.9030     1.8910    -1.1530 C.3   1 <1>  -0.0970 
 10 N       -4.2920    -1.9350    -0.3080 N.4   1 <1>  -0.9590 
 11 C       -4.4810    -3.2000    -1.1070 C.3   1 <1>   0.3430 
 12 C       -5.5430    -1.4350     0.3420 C.3   1 <1>   0.3430 
 13 C       -5.2350    -4.3380    -0.3360 C.3   1 <1>   0.4230 
 14 C       -6.1480    -2.5610     1.1770 C.3   1 <1>  -0.1600 
 15 N       -5.4450    -5.6340    -1.1250 N.4   1 <1>  -0.9590 
 16 C       -6.5380    -3.7960     0.3170 C.3   1 <1>   0.0000 
 17 C       -6.5430    -6.5140    -0.5880 C.3   1 <1>   0.3430 
 18 C       -5.6270    -5.5010    -2.6120 C.3   1 <1>   0.2630 
 19 C       -7.1420    -4.8690     1.2640 C.3   1 <1>  -0.1600 
 20 C       -7.5680    -3.4210    -0.7940 C.3   1 <1>   0.1200 
 21 C       -6.7240    -6.3090     0.9140 C.3   1 <1>  -0.1600 
 22 O       -8.4160    -2.4130    -0.3800 O.3   1 <1>  -0.6800 
 23 H       -0.9440     0.7360     2.3190 H     1 <1>   0.1500 
 24 H       -2.7750    -1.2310    -1.6190 H     1 <1>   0.0800 
 25 H       -4.3290    -0.4640    -1.8440 H     1 <1>   0.0800 
 26 H       -1.9970     2.9720     2.3000 H     1 <1>   0.1500 
 27 H       -3.7870     3.4650     0.7210 H     1 <1>   0.1500 
 28 H       -5.2150     2.9100    -1.0040 H     1 <1>   0.0800 
 29 H       -5.7630     1.2630    -1.0130 H     1 <1>   0.0800 
 30 H       -4.5570     1.8030    -2.1680 H     1 <1>   0.0800 
 31 H       -3.6160    -2.1080     0.4560 H     1 <1>   0.4500 
 32 H       -5.0420    -2.9590    -1.9930 H     1 <1>   0.0800 
 33 H       -3.5150    -3.5690    -1.4100 H     1 <1>   0.0800 
 34 H       -5.3220    -0.5920     0.9790 H     1 <1>   0.0800 
 35 H       -6.2550    -1.1130    -0.4030 H     1 <1>   0.0800 
 36 H       -4.5950    -4.5970     0.4920 H     1 <1>   0.0800 
 37 H       -5.4460    -2.8370     1.9460 H     1 <1>   0.0800 
 38 H       -7.0140    -2.1740     1.6880 H     1 <1>   0.0800 
 39 H       -4.5860    -6.1930    -0.9870 H     1 <1>   0.4500 
 40 H       -7.4750    -6.2810    -1.0780 H     1 <1>   0.0800 
 41 H       -6.3170    -7.5500    -0.7890 H     1 <1>   0.0800 
 42 H       -6.5180    -4.9380    -2.8390 H     1 <1>   0.0800 
 43 H       -5.7230    -6.4770    -3.0630 H     1 <1>   0.0800 
 44 H       -4.7780    -5.0120    -3.0620 H     1 <1>   0.0800 
 45 H       -6.8480    -4.6910     2.2860 H     1 <1>   0.0800 
 46 H       -8.2180    -4.7970     1.2520 H     1 <1>   0.0800 
 47 H       -8.1730    -4.2630    -1.0870 H     1 <1>   0.0800 
 48 H       -7.0780    -3.0440    -1.6740 H     1 <1>   0.0800 
 49 H       -7.4780    -6.9900     1.2740 H     1 <1>   0.0800 
 50 H       -5.8090    -6.5660     1.4190 H     1 <1>   0.0800 
 51 H       -9.1760    -2.7540     0.1400 H     1 <1>   0.4000 
@<TRIPOS>BOND
  1   1   2  1   
  2   2   3  ar  
  3   2   4  ar  
  4   3   5  ar  
  5   3   6  1   
  6   4   7  ar  
  7   4  23  1   
  8   5   8  ar  
  9   5   9  1   
 10   6  10  1   
 11   6  24  1   
 12   6  25  1   
 13   7   8  ar  
 14   7  26  1   
 15   8  27  1   
 16   9  28  1   
 17   9  29  1   
 18   9  30  1   
 19  10  11  1   
 20  10  12  1   
 21  10  31  1   
 22  11  13  1   
 23  11  32  1   
 24  11  33  1   
 25  12  14  1   
 26  12  34  1   
 27  12  35  1   
 28  13  15  1   
 29  13  16  1   
 30  13  36  1   
 31  14  16  1   
 32  14  37  1   
 33  14  38  1   
 34  15  17  1   
 35  15  18  1   
 36  15  39  1   
 37  16  19  1   
 38  16  20  1   
 39  17  21  1   
 40  17  40  1   
 41  17  41  1   
 42  18  42  1   
 43  18  43  1   
 44  18  44  1   
 45  19  21  1   
 46  19  45  1   
 47  19  46  1   
 48  20  22  1   
 49  20  47  1   
 50  20  48  1   
 51  21  49  1   
 52  21  50  1   
 53  22  51  1   
@<TRIPOS>SUBSTRUCTURE
  1 ****  10 GROUP 4 **** **** 0

# MOE 2024.06 (io_trps.svl 2023.06)
