@<TRIPOS>MOLECULE
NONAME
41 43 1 0 0 
SMALL
USER_CHARGES


@<TRIPOS>ATOM
  1 O       -2.1620    -3.7110     1.1880 O.2   1 <1>  -0.5700 
  2 C       -0.9730    -3.7560     1.4240 C.2   1 <1>   0.7800 
  3 O       -0.4950    -4.4700     2.4270 O.3   1 <1>  -0.4300 
  4 N        0.0050    -3.2430     0.6420 N.am  1 <1>  -0.6600 
  5 C        0.9010    -4.6450     2.2900 C.3   1 <1>   0.1200 
  6 C        1.2900    -3.8130     1.0620 C.3   1 <1>   0.1400 
  7 C       -0.2170    -2.8460    -0.7880 C.3   1 <1>   0.2010 
  8 C       -0.4000    -4.0630    -1.6940 C.2   1 <1>   0.5690 
  9 O        0.3290    -4.2220    -2.6440 O.2   1 <1>  -0.5700 
 10 N       -1.3410    -4.9740    -1.3450 N.am  1 <1>  -0.7300 
 11 C       -1.3030    -6.4140    -1.6840 C.3   1 <1>   0.2200 
 12 C       -2.2880    -7.1830    -0.8120 C.3   1 <1>  -0.0800 
 13 C        0.0090    -7.0360    -1.2030 C.3   1 <1>   0.1200 
 14 C       -1.5010    -7.3810     0.4900 C.3   1 <1>   0.1200 
 15 C       -3.6790    -6.5470    -0.6210 C.3   1 <1>  -0.0160 
 16 O       -0.1450    -7.2390     0.1710 O.3   1 <1>  -0.5600 
 17 C       -4.5360    -7.3900     0.3090 C.ar  1 <1>  -0.1440 
 18 C       -5.1790    -8.5330    -0.1190 C.ar  1 <1>  -0.1500 
 19 C       -4.7100    -7.0510     1.6360 C.ar  1 <1>  -0.1500 
 20 C       -5.9410    -9.2650     0.7770 C.ar  1 <1>   0.1600 
 21 C       -5.4930    -7.8530     2.4490 C.ar  1 <1>   0.1600 
 22 N       -6.1110    -8.9540     2.0520 N.ar  1 <1>  -0.6200 
 23 H        1.3860    -4.2960     3.1840 H     1 <1>   0.0800 
 24 H        1.1020    -5.6920     2.1370 H     1 <1>   0.0800 
 25 H        1.7050    -4.4430     0.2920 H     1 <1>   0.0800 
 26 H        1.9890    -3.0360     1.3200 H     1 <1>   0.0800 
 27 H       -1.0980    -2.2330    -0.8530 H     1 <1>   0.0800 
 28 H        0.6220    -2.2700    -1.1340 H     1 <1>   0.0800 
 29 H       -1.8660    -4.7660    -0.4850 H     1 <1>   0.3700 
 30 H       -1.4620    -6.5540    -2.7400 H     1 <1>   0.0800 
 31 H       -2.4250    -8.1570    -1.2490 H     1 <1>   0.0800 
 32 H        0.8690    -6.4170    -1.3860 H     1 <1>   0.0800 
 33 H        0.1570    -7.9980    -1.6610 H     1 <1>   0.0800 
 34 H       -1.6630    -8.3570     0.9150 H     1 <1>   0.0800 
 35 H       -1.7430    -6.6250     1.2170 H     1 <1>   0.0800 
 36 H       -4.1680    -6.4580    -1.5750 H     1 <1>   0.0800 
 37 H       -3.5990    -5.5580    -0.2070 H     1 <1>   0.0800 
 38 H       -5.0960    -8.8610    -1.1390 H     1 <1>   0.1500 
 39 H       -4.2440    -6.1720     2.0460 H     1 <1>   0.1500 
 40 H       -6.4360   -10.1540     0.4260 H     1 <1>   0.1500 
 41 H       -5.6170    -7.5730     3.4810 H     1 <1>   0.1500 
@<TRIPOS>BOND
  1   1   2  2   
  2   2   3  1   
  3   2   4  am  
  4   3   5  1   
  5   4   6  1   
  6   4   7  1   
  7   5   6  1   
  8   5  23  1   
  9   5  24  1   
 10   6  25  1   
 11   6  26  1   
 12   7   8  1   
 13   7  27  1   
 14   7  28  1   
 15   8   9  2   
 16   8  10  am  
 17  10  11  1   
 18  10  29  1   
 19  11  12  1   
 20  11  13  1   
 21  11  30  1   
 22  12  14  1   
 23  12  15  1   
 24  12  31  1   
 25  13  16  1   
 26  13  32  1   
 27  13  33  1   
 28  14  16  1   
 29  14  34  1   
 30  14  35  1   
 31  15  17  1   
 32  15  36  1   
 33  15  37  1   
 34  17  18  ar  
 35  17  19  ar  
 36  18  20  ar  
 37  18  38  1   
 38  19  21  ar  
 39  19  39  1   
 40  20  22  ar  
 41  20  40  1   
 42  21  22  ar  
 43  21  41  1   
@<TRIPOS>SUBSTRUCTURE
  1 ****  14 GROUP 4 **** **** 0

# MOE 2024.06 (io_trps.svl 2023.06)
