@<TRIPOS>MOLECULE
NONAME
49 52 1 0 0 
SMALL
USER_CHARGES


@<TRIPOS>ATOM
  1 S       -1.1460    -0.0630     1.6360 S.3   1 <1>  -0.0800 
  2 C       -1.3140     1.4740     0.8010 C.2   1 <1>  -0.1400 
  3 C       -2.8930    -0.2600     1.6880 C.2   1 <1>  -0.1100 
  4 C       -2.6050     1.7750     0.6150 C.2   1 <1>  -0.1810 
  5 C       -0.1210     2.3140     0.3750 C.3   1 <1>   0.4600 
  6 C       -3.5130     0.7880     1.1110 C.2   1 <1>  -0.1500 
  7 C       -2.9840     3.0720    -0.0670 C.3   1 <1>   0.0210 
  8 O       -0.5850     3.4090    -0.3980 O.3   1 <1>  -0.5600 
  9 C        0.6640     2.8570     1.5740 C.3   1 <1>  -0.1600 
 10 C        0.8280     1.5230    -0.5390 C.3   1 <1>  -0.1600 
 11 C       -1.7870     4.0410    -0.0030 C.3   1 <1>   0.1200 
 12 C        1.8440     3.7430     1.1580 C.3   1 <1>   0.3430 
 13 C        2.1890     2.1990    -0.7560 C.3   1 <1>   0.3430 
 14 N        2.1290     3.6080    -0.3010 N.4   1 <1>  -0.9590 
 15 C        3.2340     4.4720    -0.7570 C.3   1 <1>   0.5230 
 16 C        2.7460     5.9050    -0.6760 C.2   1 <1>  -0.3320 
 17 N        3.5920     6.9750    -0.6070 N.pl3 1 <1>   0.0480 
 18 C        1.4650     6.3650    -0.6660 C.2   1 <1>  -0.1500 
 19 C        2.8260     8.0860    -0.5400 C.2   1 <1>  -0.3020 
 20 C        5.0680     6.9690    -0.6120 C.3   1 <1>   0.0160 
 21 C        1.4920     7.7650    -0.5670 C.2   1 <1>  -0.0860 
 22 C        0.3160     8.5920    -0.5060 C.2   1 <1>   0.5950 
 23 O       -0.8000     8.1370    -0.4560 O.2   1 <1>  -0.5700 
 24 C        0.4730    10.0960    -0.4920 C.3   1 <1>  -0.1790 
 25 H       -3.2760    -1.1520     2.1500 H     1 <1>   0.1500 
 26 H       -4.5780     0.9080     1.0140 H     1 <1>   0.1500 
 27 H       -3.8280     3.5170     0.4270 H     1 <1>   0.0800 
 28 H       -3.2500     2.8820    -1.0910 H     1 <1>   0.0800 
 29 H        1.0440     2.0270     2.1420 H     1 <1>   0.0800 
 30 H        0.0110     3.4010     2.2320 H     1 <1>   0.0800 
 31 H        0.3440     1.3580    -1.4850 H     1 <1>   0.0800 
 32 H        1.0140     0.5530    -0.1160 H     1 <1>   0.0800 
 33 H       -1.6650     4.4140     0.9990 H     1 <1>   0.0800 
 34 H       -1.9550     4.8780    -0.6590 H     1 <1>   0.0800 
 35 H        2.7150     3.4780     1.7360 H     1 <1>   0.0800 
 36 H        1.6010     4.7710     1.3760 H     1 <1>   0.0800 
 37 H        2.4430     2.1540    -1.8030 H     1 <1>   0.0800 
 38 H        2.9470     1.6730    -0.1980 H     1 <1>   0.0800 
 39 H        1.2810     3.9960    -0.7550 H     1 <1>   0.4500 
 40 H        3.4970     4.2410    -1.7770 H     1 <1>   0.0800 
 41 H        4.0980     4.3290    -0.1290 H     1 <1>   0.0800 
 42 H        0.5360     5.8220    -0.7230 H     1 <1>   0.1500 
 43 H        3.2540     9.0720    -0.4730 H     1 <1>   0.1500 
 44 H        5.4250     6.5030    -1.5120 H     1 <1>   0.0800 
 45 H        5.4300     6.4340     0.2470 H     1 <1>   0.0800 
 46 H        5.4310     7.9800    -0.5740 H     1 <1>   0.0800 
 47 H        1.0680    10.4070    -1.3300 H     1 <1>   0.0800 
 48 H        0.9510    10.4010     0.4200 H     1 <1>   0.0800 
 49 H       -0.4910    10.5660    -0.5560 H     1 <1>   0.0800 
@<TRIPOS>BOND
  1   1   2  1   
  2   1   3  1   
  3   2   4  2   
  4   2   5  1   
  5   3   6  2   
  6   3  25  1   
  7   4   6  1   
  8   4   7  1   
  9   5   8  1   
 10   5   9  1   
 11   5  10  1   
 12   6  26  1   
 13   7  11  1   
 14   7  27  1   
 15   7  28  1   
 16   8  11  1   
 17   9  12  1   
 18   9  29  1   
 19   9  30  1   
 20  10  13  1   
 21  10  31  1   
 22  10  32  1   
 23  11  33  1   
 24  11  34  1   
 25  12  14  1   
 26  12  35  1   
 27  12  36  1   
 28  13  14  1   
 29  13  37  1   
 30  13  38  1   
 31  14  15  1   
 32  14  39  1   
 33  15  16  1   
 34  15  40  1   
 35  15  41  1   
 36  16  17  1   
 37  16  18  2   
 38  17  19  1   
 39  17  20  1   
 40  18  21  1   
 41  18  42  1   
 42  19  21  2   
 43  19  43  1   
 44  20  44  1   
 45  20  45  1   
 46  20  46  1   
 47  21  22  1   
 48  22  23  2   
 49  22  24  1   
 50  24  47  1   
 51  24  48  1   
 52  24  49  1   
@<TRIPOS>SUBSTRUCTURE
  1 ****   8 GROUP 4 **** **** 0

# MOE 2024.06 (io_trps.svl 2023.06)
