@<TRIPOS>MOLECULE
NONAME
50 52 1 0 0 
SMALL
USER_CHARGES


@<TRIPOS>ATOM
  1 F        0.6180    -0.7430    -0.4760 F     1 <1>  -0.3400 
  2 C        1.6010    -0.7220    -1.3730 C.3   1 <1>   1.1640 
  3 F        1.1020    -1.2570    -2.4840 F     1 <1>  -0.3400 
  4 F        1.7990     0.5650    -1.6520 F     1 <1>  -0.3400 
  5 C        2.8860    -1.4390    -0.8850 C.ar  1 <1>   0.1660 
  6 N        2.8200    -2.6920    -0.4490 N.ar  1 <1>  -0.6200 
  7 C        4.0930    -0.7850    -0.9050 C.ar  1 <1>  -0.1500 
  8 C        3.9570    -3.2500    -0.0460 C.ar  1 <1>   0.7200 
  9 C        5.2140    -1.4520    -0.4630 C.ar  1 <1>   0.4100 
 10 N        5.1550    -2.6870    -0.0330 N.ar  1 <1>  -0.6200 
 11 N        3.8760    -4.5440     0.4120 N.pl3 1 <1>  -0.8380 
 12 N        6.4330    -0.8150    -0.4550 N.pl3 1 <1>  -0.8380 
 13 C        5.0600    -5.3410     0.7910 C.3   1 <1>   0.2090 
 14 C        2.6810    -5.3990     0.2450 C.3   1 <1>   0.2090 
 15 C        6.6510     0.2490     0.5550 C.3   1 <1>   0.2090 
 16 C        7.6530    -1.6070    -0.7620 C.3   1 <1>   0.2090 
 17 C        4.4990    -6.7130     1.1460 C.3   1 <1>  -0.1600 
 18 C        3.2110    -6.8260     0.3340 C.3   1 <1>  -0.1600 
 19 C        7.7220     1.2310     0.0580 C.3   1 <1>  -0.0800 
 20 C        8.7490    -0.6670    -1.2730 C.3   1 <1>  -0.1600 
 21 C        9.0260     0.4820    -0.2890 C.3   1 <1>  -0.1600 
 22 C        7.9400     2.3240     1.1140 C.3   1 <1>   0.1400 
 23 N        8.8940     3.3430     0.6200 N.am  1 <1>  -0.7300 
 24 C        8.6700     4.6210     0.2430 C.2   1 <1>   0.5690 
 25 O        9.5850     5.3040    -0.1320 O.2   1 <1>  -0.5700 
 26 C        7.2810     5.2080     0.2810 C.3   1 <1>  -0.1790 
 27 H        4.2050     0.2220    -1.2570 H     1 <1>   0.1500 
 28 H        5.5730    -4.8910     1.6230 H     1 <1>   0.0800 
 29 H        5.7250    -5.4090    -0.0530 H     1 <1>   0.0800 
 30 H        2.1980    -5.2190    -0.7010 H     1 <1>   0.0800 
 31 H        1.9930    -5.1970     1.0480 H     1 <1>   0.0800 
 32 H        6.9660    -0.2090     1.4780 H     1 <1>   0.0800 
 33 H        5.7270     0.7720     0.7360 H     1 <1>   0.0800 
 34 H        7.4250    -2.3470    -1.5110 H     1 <1>   0.0800 
 35 H        7.9800    -2.1160     0.1280 H     1 <1>   0.0800 
 36 H        4.2710    -6.7300     2.1980 H     1 <1>   0.0800 
 37 H        5.1980    -7.4990     0.9240 H     1 <1>   0.0800 
 38 H        3.4350    -7.1730    -0.6590 H     1 <1>   0.0800 
 39 H        2.4960    -7.4890     0.7860 H     1 <1>   0.0800 
 40 H        7.3390     1.7000    -0.8320 H     1 <1>   0.0800 
 41 H        8.4380    -0.2640    -2.2210 H     1 <1>   0.0800 
 42 H        9.6500    -1.2300    -1.4360 H     1 <1>   0.0800 
 43 H        9.4630     0.0790     0.6090 H     1 <1>   0.0800 
 44 H        9.7370     1.1560    -0.7340 H     1 <1>   0.0800 
 45 H        8.3330     1.8890     2.0180 H     1 <1>   0.0800 
 46 H        7.0000     2.7900     1.3530 H     1 <1>   0.0800 
 47 H        9.8660     3.0380     0.5310 H     1 <1>   0.3700 
 48 H        6.6150     4.6110    -0.3130 H     1 <1>   0.0800 
 49 H        7.3010     6.2060    -0.1190 H     1 <1>   0.0800 
 50 H        6.9310     5.2480     1.2950 H     1 <1>   0.0800 
@<TRIPOS>BOND
  1   1   2  1   
  2   2   3  1   
  3   2   4  1   
  4   2   5  1   
  5   5   6  ar  
  6   5   7  ar  
  7   6   8  ar  
  8   7   9  ar  
  9   7  27  1   
 10   8  10  ar  
 11   8  11  1   
 12   9  10  ar  
 13   9  12  1   
 14  11  13  1   
 15  11  14  1   
 16  12  15  1   
 17  12  16  1   
 18  13  17  1   
 19  13  28  1   
 20  13  29  1   
 21  14  18  1   
 22  14  30  1   
 23  14  31  1   
 24  15  19  1   
 25  15  32  1   
 26  15  33  1   
 27  16  20  1   
 28  16  34  1   
 29  16  35  1   
 30  17  18  1   
 31  17  36  1   
 32  17  37  1   
 33  18  38  1   
 34  18  39  1   
 35  19  21  1   
 36  19  22  1   
 37  19  40  1   
 38  20  21  1   
 39  20  41  1   
 40  20  42  1   
 41  21  43  1   
 42  21  44  1   
 43  22  23  1   
 44  22  45  1   
 45  22  46  1   
 46  23  24  am  
 47  23  47  1   
 48  24  25  2   
 49  24  26  1   
 50  26  48  1   
 51  26  49  1   
 52  26  50  1   
@<TRIPOS>SUBSTRUCTURE
  1 ****   9 GROUP 4 **** **** 0

# MOE 2024.06 (io_trps.svl 2023.06)
