@<TRIPOS>MOLECULE
NONAME
46 48 1 0 0 
SMALL
USER_CHARGES


@<TRIPOS>ATOM
  1 F        0.1750    -0.2840     0.2690 F     1 <1>  -0.1900 
  2 C        0.1220    -1.5840     0.4060 C.ar  1 <1>   0.1900 
  3 C        1.0530    -2.4320    -0.2040 C.ar  1 <1>   0.0830 
  4 C       -0.9080    -2.0780     1.1830 C.ar  1 <1>  -0.1500 
  5 O        2.1090    -2.0660    -0.9850 O.3   1 <1>  -0.3630 
  6 C        0.9050    -3.7960    -0.0090 C.ar  1 <1>  -0.1500 
  7 C       -1.0270    -3.4450     1.3570 C.ar  1 <1>  -0.1500 
  8 C        2.5050    -0.7230    -1.1610 C.3   1 <1>   0.0400 
  9 C       -0.1300    -4.3320     0.7580 C.ar  1 <1>   0.0860 
 10 C       -0.2590    -5.7660     0.9290 C.2   1 <1>   0.5440 
 11 O        0.7050    -6.4220     1.2750 O.2   1 <1>  -0.5700 
 12 N       -1.4510    -6.4100     0.6890 N.am  1 <1>  -0.6600 
 13 C       -2.5200    -5.8910    -0.2050 C.3   1 <1>   0.1400 
 14 C       -1.6410    -7.8650     0.8940 C.3   1 <1>   0.1400 
 15 C       -3.4070    -7.0970    -0.5500 C.3   1 <1>   0.2000 
 16 C       -2.5070    -8.3080    -0.2840 C.3   1 <1>  -0.0800 
 17 O       -4.5000    -7.1470     0.3240 O.3   1 <1>  -0.5600 
 18 C       -3.2590    -9.6280    -0.0340 C.3   1 <1>   0.0200 
 19 C       -5.6110    -6.4060    -0.0720 C.3   1 <1>   0.0400 
 20 C       -2.3360   -10.8330     0.0490 C.2   1 <1>  -0.0400 
 21 O       -2.8510   -11.9990     0.3390 O.3   1 <1>  -0.0190 
 22 C       -1.0150   -11.0030    -0.1210 C.2   1 <1>  -0.1500 
 23 N       -1.9470   -12.9360     0.3750 N.2   1 <1>  -0.4100 
 24 C       -0.8310   -12.3640     0.1030 C.2   1 <1>   0.1080 
 25 C        0.5000   -13.0800     0.0380 C.3   1 <1>  -0.0590 
 26 H       -1.6030    -1.3990     1.6450 H     1 <1>   0.1500 
 27 H        1.6150    -4.4650    -0.4620 H     1 <1>   0.1500 
 28 H       -1.8200    -3.8410     1.9700 H     1 <1>   0.1500 
 29 H        3.4080    -0.7160    -1.7450 H     1 <1>   0.0800 
 30 H        2.6910    -0.2830    -0.1970 H     1 <1>   0.0800 
 31 H        1.7290    -0.1940    -1.6840 H     1 <1>   0.0800 
 32 H       -3.0860    -5.1170     0.2830 H     1 <1>   0.0800 
 33 H       -2.0670    -5.5020    -1.1000 H     1 <1>   0.0800 
 34 H       -0.7010    -8.3880     0.9220 H     1 <1>   0.0800 
 35 H       -2.1620    -8.0170     1.8250 H     1 <1>   0.0800 
 36 H       -3.7620    -7.0760    -1.5660 H     1 <1>   0.0800 
 37 H       -1.8640    -8.4310    -1.1370 H     1 <1>   0.0800 
 38 H       -3.9600    -9.7950    -0.8320 H     1 <1>   0.0800 
 39 H       -3.8190    -9.5610     0.8820 H     1 <1>   0.0800 
 40 H       -6.3680    -6.5100     0.6860 H     1 <1>   0.0800 
 41 H       -5.9820    -6.7920    -1.0050 H     1 <1>   0.0800 
 42 H       -5.3400    -5.3690    -0.1700 H     1 <1>   0.0800 
 43 H       -0.2460   -10.2960    -0.3690 H     1 <1>   0.1500 
 44 H        1.1960   -12.6190     0.7140 H     1 <1>   0.0800 
 45 H        0.8890   -13.0330    -0.9620 H     1 <1>   0.0800 
 46 H        0.3750   -14.1110     0.3160 H     1 <1>   0.0800 
@<TRIPOS>BOND
  1   1   2  1   
  2   2   3  ar  
  3   2   4  ar  
  4   3   5  1   
  5   3   6  ar  
  6   4   7  ar  
  7   4  26  1   
  8   5   8  1   
  9   6   9  ar  
 10   6  27  1   
 11   7   9  ar  
 12   7  28  1   
 13   8  29  1   
 14   8  30  1   
 15   8  31  1   
 16   9  10  1   
 17  10  11  2   
 18  10  12  am  
 19  12  13  1   
 20  12  14  1   
 21  13  15  1   
 22  13  32  1   
 23  13  33  1   
 24  14  16  1   
 25  14  34  1   
 26  14  35  1   
 27  15  16  1   
 28  15  17  1   
 29  15  36  1   
 30  16  18  1   
 31  16  37  1   
 32  17  19  1   
 33  18  20  1   
 34  18  38  1   
 35  18  39  1   
 36  19  40  1   
 37  19  41  1   
 38  19  42  1   
 39  20  21  1   
 40  20  22  2   
 41  21  23  1   
 42  22  24  1   
 43  22  43  1   
 44  23  24  2   
 45  24  25  1   
 46  25  44  1   
 47  25  45  1   
 48  25  46  1   
@<TRIPOS>SUBSTRUCTURE
  1 ****  12 GROUP 4 **** **** 0

# MOE 2024.06 (io_trps.svl 2023.06)
