@<TRIPOS>MOLECULE
NONAME
52 55 1 0 0 
SMALL
USER_CHARGES


@<TRIPOS>ATOM
  1 F       -0.8350    -1.5890    -2.6550 F     1 <1>  -0.1900 
  2 C       -0.7430    -2.5930    -1.8190 C.ar  1 <1>   0.1900 
  3 C        0.4980    -3.0380    -1.3960 C.ar  1 <1>   0.1900 
  4 C       -1.9020    -3.1940    -1.3710 C.ar  1 <1>  -0.1500 
  5 F        1.5950    -2.4620    -1.8270 F     1 <1>  -0.1900 
  6 C        0.6040    -4.0960    -0.5120 C.ar  1 <1>  -0.1500 
  7 C       -1.8160    -4.2610    -0.4830 C.ar  1 <1>   0.1000 
  8 C       -0.5590    -4.7010    -0.0590 C.ar  1 <1>  -0.1500 
  9 N       -2.9850    -4.8620    -0.0290 N.pl3 1 <1>  -0.8380 
 10 C       -3.6270    -4.2470     1.1530 C.3   1 <1>   0.2090 
 11 C       -3.0900    -6.3370    -0.1110 C.3   1 <1>   0.2090 
 12 C       -5.1170    -4.5720     1.0980 C.3   1 <1>  -0.1600 
 13 C       -4.5700    -6.6940    -0.1950 C.3   1 <1>  -0.1600 
 14 C       -5.3260    -6.0860     0.9960 C.3   1 <1>   0.4230 
 15 N       -6.7870    -6.3830     0.9490 N.4   1 <1>  -0.9590 
 16 C       -7.5380    -5.9010    -0.2510 C.3   1 <1>   0.3430 
 17 C       -7.1340    -7.8300     1.1220 C.3   1 <1>   0.3430 
 18 C       -8.7790    -6.7930    -0.3020 C.3   1 <1>   0.2000 
 19 C       -8.2310    -8.1620     0.0950 C.3   1 <1>  -0.0800 
 20 O       -9.6510    -6.3720     0.6960 O.3   1 <1>  -0.6800 
 21 C       -7.6790    -8.9190    -1.1350 C.3   1 <1>  -0.0170 
 22 C       -7.1070   -10.2810    -0.7720 C.ar  1 <1>   0.1670 
 23 N       -5.8880   -10.2870    -0.2550 N.ar  1 <1>  -0.6200 
 24 C       -7.8550   -11.4370    -0.9950 C.ar  1 <1>   0.1600 
 25 C       -5.4680   -11.5150     0.0120 C.ar  1 <1>   0.1600 
 26 N       -7.4410   -12.6590    -0.7160 N.ar  1 <1>  -0.6200 
 27 C       -6.2200   -12.6630    -0.2100 C.ar  1 <1>   0.1600 
 28 H       -2.8600    -2.8470    -1.7050 H     1 <1>   0.1500 
 29 H        1.5720    -4.4330    -0.1890 H     1 <1>   0.1500 
 30 H       -0.4920    -5.5200     0.6330 H     1 <1>   0.1500 
 31 H       -3.1790    -4.6370     2.0520 H     1 <1>   0.0800 
 32 H       -3.4780    -3.1790     1.1340 H     1 <1>   0.0800 
 33 H       -2.5720    -6.6900    -0.9890 H     1 <1>   0.0800 
 34 H       -2.6370    -6.7850     0.7580 H     1 <1>   0.0800 
 35 H       -5.5310    -4.0680     0.2430 H     1 <1>   0.0800 
 36 H       -5.5850    -4.1900     1.9870 H     1 <1>   0.0800 
 37 H       -4.6550    -7.7640    -0.1980 H     1 <1>   0.0800 
 38 H       -4.9390    -6.3130    -1.1290 H     1 <1>   0.0800 
 39 H       -4.9210    -6.5260     1.8930 H     1 <1>   0.0800 
 40 H       -7.2390    -5.9030     1.7400 H     1 <1>   0.4500 
 41 H       -7.8070    -4.8610    -0.1690 H     1 <1>   0.0800 
 42 H       -6.9560    -6.0530    -1.1430 H     1 <1>   0.0800 
 43 H       -6.2680    -8.4510     0.9900 H     1 <1>   0.0800 
 44 H       -7.5160    -7.9890     2.1170 H     1 <1>   0.0800 
 45 H       -9.2850    -6.7620    -1.2520 H     1 <1>   0.0800 
 46 H       -8.9940    -8.7710     0.5500 H     1 <1>   0.0800 
 47 H      -10.5330    -6.7920     0.6040 H     1 <1>   0.4000 
 48 H       -6.9070    -8.3470    -1.6200 H     1 <1>   0.0800 
 49 H       -8.4700    -9.0540    -1.8520 H     1 <1>   0.0800 
 50 H       -8.8390   -11.3520    -1.4210 H     1 <1>   0.1500 
 51 H       -4.4810   -11.6250     0.4250 H     1 <1>   0.1500 
 52 H       -5.7950   -13.6190     0.0400 H     1 <1>   0.1500 
@<TRIPOS>BOND
  1   1   2  1   
  2   2   3  ar  
  3   2   4  ar  
  4   3   5  1   
  5   3   6  ar  
  6   4   7  ar  
  7   4  28  1   
  8   6   8  ar  
  9   6  29  1   
 10   7   8  ar  
 11   7   9  1   
 12   8  30  1   
 13   9  10  1   
 14   9  11  1   
 15  10  12  1   
 16  10  31  1   
 17  10  32  1   
 18  11  13  1   
 19  11  33  1   
 20  11  34  1   
 21  12  14  1   
 22  12  35  1   
 23  12  36  1   
 24  13  14  1   
 25  13  37  1   
 26  13  38  1   
 27  14  15  1   
 28  14  39  1   
 29  15  16  1   
 30  15  17  1   
 31  15  40  1   
 32  16  18  1   
 33  16  41  1   
 34  16  42  1   
 35  17  19  1   
 36  17  43  1   
 37  17  44  1   
 38  18  19  1   
 39  18  20  1   
 40  18  45  1   
 41  19  21  1   
 42  19  46  1   
 43  20  47  1   
 44  21  22  1   
 45  21  48  1   
 46  21  49  1   
 47  22  23  ar  
 48  22  24  ar  
 49  23  25  ar  
 50  24  26  ar  
 51  24  50  1   
 52  25  27  ar  
 53  25  51  1   
 54  26  27  ar  
 55  27  52  1   
@<TRIPOS>SUBSTRUCTURE
  1 ****  13 GROUP 4 **** **** 0

# MOE 2024.06 (io_trps.svl 2023.06)
