@<TRIPOS>MOLECULE
NONAME
41 42 1 0 0 
SMALL
USER_CHARGES


@<TRIPOS>ATOM
  1 O        0.4310    -1.5100     0.9840 O.co2 1 <1>  -0.9000 
  2 C        1.5550    -1.0230     1.1010 C.2   1 <1>   0.9060 
  3 O        2.3480    -1.4020     1.9750 O.co2 1 <1>  -0.9000 
  4 C        2.0860    -0.0210     0.0610 C.3   1 <1>  -0.1060 
  5 C        3.1070    -0.8260    -0.7800 C.3   1 <1>   0.2000 
  6 C        2.8320     1.1620     0.7510 C.3   1 <1>  -0.1600 
  7 C        0.9530     0.5180    -0.8780 C.3   1 <1>  -0.1600 
  8 O        4.0990    -1.3410     0.0560 O.3   1 <1>  -0.6800 
  9 C        3.8400     0.0850    -1.7720 C.3   1 <1>   0.3430 
 10 C        3.6530     2.0040    -0.2270 C.3   1 <1>   0.3430 
 11 C       -0.1240     1.3790    -0.1930 C.3   1 <1>  -0.1600 
 12 N        4.5880     1.1090    -0.9770 N.4   1 <1>  -0.9590 
 13 C       -1.2520     1.7210    -1.1700 C.3   1 <1>  -0.2400 
 14 C        5.6410     1.7980    -1.7610 C.3   1 <1>   0.4860 
 15 C        6.4280     2.7270    -0.8660 C.ar  1 <1>  -0.1430 
 16 C        6.2920     4.0930    -0.9640 C.ar  1 <1>   0.1600 
 17 C        7.3080     2.2520     0.0800 C.ar  1 <1>   0.1600 
 18 N        6.9540     4.9180    -0.1880 N.ar  1 <1>  -0.6200 
 19 N        7.9860     3.0550     0.8660 N.ar  1 <1>  -0.6200 
 20 C        7.7710     4.3490     0.6860 C.ar  1 <1>   0.4700 
 21 H        2.6240    -1.6510    -1.2770 H     1 <1>   0.0800 
 22 H        3.5030     0.7820     1.5030 H     1 <1>   0.0800 
 23 H        2.1380     1.7870     1.2810 H     1 <1>   0.0800 
 24 H        1.3570     1.0980    -1.6850 H     1 <1>   0.0800 
 25 H        0.4590    -0.3330    -1.3180 H     1 <1>   0.0800 
 26 H        3.6370    -1.6080     0.9160 H     1 <1>   0.4000 
 27 H        3.1420     0.5530    -2.4450 H     1 <1>   0.0800 
 28 H        4.5210    -0.5200    -2.3470 H     1 <1>   0.0800 
 29 H        4.2080     2.7420     0.3310 H     1 <1>   0.0800 
 30 H        2.9950     2.5130    -0.9110 H     1 <1>   0.0800 
 31 H       -0.5440     0.8420     0.6420 H     1 <1>   0.0800 
 32 H        0.2940     2.2970     0.1780 H     1 <1>   0.0800 
 33 H        5.0260     0.5150    -0.2470 H     1 <1>   0.4500 
 34 H       -1.7220     0.8200    -1.5230 H     1 <1>   0.0800 
 35 H       -0.8750     2.2730    -2.0130 H     1 <1>   0.0800 
 36 H       -1.9980     2.3170    -0.6740 H     1 <1>   0.0800 
 37 H        6.3090     1.0690    -2.1920 H     1 <1>   0.0800 
 38 H        5.1910     2.3600    -2.5620 H     1 <1>   0.0800 
 39 H        5.6270     4.5330    -1.6900 H     1 <1>   0.1500 
 40 H        7.4650     1.1920     0.2070 H     1 <1>   0.1500 
 41 H        8.3250     5.0170     1.3260 H     1 <1>   0.1500 
@<TRIPOS>BOND
  1   1   2  ar  
  2   2   3  ar  
  3   2   4  1   
  4   4   5  1   
  5   4   6  1   
  6   4   7  1   
  7   5   8  1   
  8   5   9  1   
  9   5  21  1   
 10   6  10  1   
 11   6  22  1   
 12   6  23  1   
 13   7  11  1   
 14   7  24  1   
 15   7  25  1   
 16   8  26  1   
 17   9  12  1   
 18   9  27  1   
 19   9  28  1   
 20  10  12  1   
 21  10  29  1   
 22  10  30  1   
 23  11  13  1   
 24  11  31  1   
 25  11  32  1   
 26  12  14  1   
 27  12  33  1   
 28  13  34  1   
 29  13  35  1   
 30  13  36  1   
 31  14  15  1   
 32  14  37  1   
 33  14  38  1   
 34  15  16  ar  
 35  15  17  ar  
 36  16  18  ar  
 37  16  39  1   
 38  17  19  ar  
 39  17  40  1   
 40  18  20  ar  
 41  19  20  ar  
 42  20  41  1   
@<TRIPOS>SUBSTRUCTURE
  1 ****  10 GROUP 4 **** **** 0

# MOE 2024.06 (io_trps.svl 2023.06)
