@<TRIPOS>MOLECULE
NONAME
49 52 1 0 0 
SMALL
USER_CHARGES


@<TRIPOS>ATOM
  1 O       -0.7180     1.1040    -1.4420 O.2   1 <1>  -0.5700 
  2 C       -0.7250     2.2910    -1.2120 C.2   1 <1>   0.5690 
  3 N       -1.5070     2.8720    -0.2490 N.am  1 <1>  -0.5090 
  4 C        0.1630     3.1910    -2.0640 C.3   1 <1>   0.1810 
  5 C       -1.6440     4.3600    -0.1600 C.3   1 <1>   0.3640 
  6 C       -2.3890     2.0950     0.6530 C.3   1 <1>   0.0490 
  7 O        0.5320     4.3560    -1.3720 O.3   1 <1>  -0.5600 
  8 C       -3.0420     4.7770    -0.6300 C.ar  1 <1>  -0.1440 
  9 C       -0.5650     5.1570    -0.9470 C.3   1 <1>   0.2610 
 10 C       -2.1880     2.2240     2.1310 C.3   1 <1>  -0.2000 
 11 C       -1.8270     0.9510     1.4360 C.3   1 <1>  -0.2000 
 12 C       -3.7370     5.7520     0.0720 C.ar  1 <1>  -0.1500 
 13 C       -3.6350     4.2110    -1.7530 C.ar  1 <1>  -0.1500 
 14 C       -0.0620     6.3230    -0.0890 C.2   1 <1>   0.5690 
 15 C       -4.9970     6.1570    -0.3340 C.ar  1 <1>  -0.1500 
 16 C       -4.8940     4.6120    -2.1600 C.ar  1 <1>  -0.1500 
 17 O       -0.8660     7.0970     0.3740 O.2   1 <1>  -0.5700 
 18 N        1.2780     6.4340     0.1280 N.am  1 <1>  -0.6550 
 19 C       -5.5840     5.5860    -1.4580 C.ar  1 <1>   0.0820 
 20 C        2.0460     7.4300     0.9140 C.3   1 <1>   0.2250 
 21 O       -6.8120     5.9240    -1.9250 O.3   1 <1>  -0.3620 
 22 C        1.5470     7.6700     2.3640 C.3   1 <1>   0.0000 
 23 C        1.7240     8.9190     0.6160 C.3   1 <1>   0.0000 
 24 C       -7.5840     6.9230    -1.2970 C.3   1 <1>   0.0400 
 25 C        1.8670     9.1710     2.1390 C.3   1 <1>   0.0000 
 26 H       -0.3510     3.4690    -2.9670 H     1 <1>   0.0800 
 27 H        1.0620     2.6620    -2.3210 H     1 <1>   0.0800 
 28 H       -1.5520     4.6220     0.8800 H     1 <1>   0.0800 
 29 H       -3.3940     2.0070     0.2750 H     1 <1>   0.1000 
 30 H       -1.0110     5.5770    -1.8310 H     1 <1>   0.0800 
 31 H       -1.3850     2.8300     2.5140 H     1 <1>   0.1000 
 32 H       -3.0510     2.2230     2.7730 H     1 <1>   0.1000 
 33 H       -2.4450     0.0850     1.5890 H     1 <1>   0.1000 
 34 H       -0.7900     0.6980     1.2990 H     1 <1>   0.1000 
 35 H       -3.2980     6.2130     0.9420 H     1 <1>   0.1500 
 36 H       -3.1290     3.4480    -2.3190 H     1 <1>   0.1500 
 37 H       -5.5000     6.9160     0.2340 H     1 <1>   0.1500 
 38 H       -5.3530     4.1710    -3.0260 H     1 <1>   0.1500 
 39 H        1.8540     5.7140    -0.3200 H     1 <1>   0.3700 
 40 H        3.1030     7.2310     0.8790 H     1 <1>   0.0000 
 41 H        0.4960     7.5000     2.5130 H     1 <1>   0.0000 
 42 H        2.1680     7.2170     3.1160 H     1 <1>   0.0000 
 43 H        2.4800     9.4180     0.0360 H     1 <1>   0.0000 
 44 H        0.7230     9.1030     0.2680 H     1 <1>   0.0000 
 45 H       -8.5050     7.0250    -1.8410 H     1 <1>   0.0800 
 46 H       -7.0390     7.8500    -1.3200 H     1 <1>   0.0800 
 47 H       -7.7890     6.6200    -0.2850 H     1 <1>   0.0800 
 48 H        2.8750     9.4260     2.4230 H     1 <1>   0.0000 
 49 H        1.1260     9.8390     2.5410 H     1 <1>   0.0000 
@<TRIPOS>BOND
  1   1   2  2   
  2   2   3  am  
  3   2   4  1   
  4   3   5  1   
  5   3   6  1   
  6   4   7  1   
  7   4  26  1   
  8   4  27  1   
  9   5   8  1   
 10   5   9  1   
 11   5  28  1   
 12   6  10  1   
 13   6  11  1   
 14   6  29  1   
 15   7   9  1   
 16   8  12  ar  
 17   8  13  ar  
 18   9  14  1   
 19   9  30  1   
 20  10  11  1   
 21  10  31  1   
 22  10  32  1   
 23  11  33  1   
 24  11  34  1   
 25  12  15  ar  
 26  12  35  1   
 27  13  16  ar  
 28  13  36  1   
 29  14  17  2   
 30  14  18  am  
 31  15  19  ar  
 32  15  37  1   
 33  16  19  ar  
 34  16  38  1   
 35  18  20  1   
 36  18  39  1   
 37  19  21  1   
 38  20  22  1   
 39  20  23  1   
 40  20  40  1   
 41  21  24  1   
 42  22  25  1   
 43  22  41  1   
 44  22  42  1   
 45  23  25  1   
 46  23  43  1   
 47  23  44  1   
 48  24  45  1   
 49  24  46  1   
 50  24  47  1   
 51  25  48  1   
 52  25  49  1   
@<TRIPOS>SUBSTRUCTURE
  1 ****   5 GROUP 4 **** **** 0

# MOE 2024.06 (io_trps.svl 2023.06)
