@<TRIPOS>MOLECULE
NONAME
48 50 1 0 0 
SMALL
USER_CHARGES


@<TRIPOS>ATOM
  1 F        2.7450     0.9740     0.9200 F     1 <1>  -0.1900 
  2 C        2.3860     0.0410     0.0740 C.ar  1 <1>   0.1900 
  3 C        1.9520    -1.1790     0.5840 C.ar  1 <1>   0.0820 
  4 C        2.4580     0.3300    -1.2870 C.ar  1 <1>   0.0860 
  5 O        1.9500    -1.3290     1.9450 O.3   1 <1>  -0.3630 
  6 C        1.5630    -2.1390    -0.3560 C.ar  1 <1>   0.1900 
  7 C        2.9340     1.6020    -1.7750 C.2   1 <1>   0.5440 
  8 C        2.0440    -0.6630    -2.1760 C.ar  1 <1>  -0.1500 
  9 C        1.2870    -2.3880     2.6020 C.3   1 <1>   0.0400 
 10 F        1.1520    -3.3260     0.0020 F     1 <1>  -0.1900 
 11 C        1.6010    -1.8910    -1.7170 C.ar  1 <1>  -0.1500 
 12 O        2.1320     2.3890    -2.2400 O.2   1 <1>  -0.5700 
 13 N        4.2720     1.9380    -1.7550 N.am  1 <1>  -0.6600 
 14 C        5.3760     1.0160    -1.3300 C.3   1 <1>   0.1400 
 15 C        4.7400     3.2810    -2.1930 C.3   1 <1>   0.1400 
 16 C        5.9660     1.3700     0.0480 C.3   1 <1>   0.1400 
 17 C        4.7120     4.2840    -1.0320 C.3   1 <1>  -0.1600 
 18 N        6.3430     2.8130     0.1620 N.am  1 <1>  -0.6600 
 19 C        5.1770     3.7290     0.3210 C.3   1 <1>   0.1400 
 20 C        7.6050     3.2420    -0.1900 C.2   1 <1>   0.5440 
 21 O        8.3310     2.4760    -0.7960 O.2   1 <1>  -0.5700 
 22 C        8.0760     4.5700     0.1200 C.ar  1 <1>   0.0860 
 23 C        7.9570     5.0990     1.4030 C.ar  1 <1>   0.1600 
 24 C        8.6810     5.3780    -0.8380 C.ar  1 <1>  -0.1500 
 25 N        8.3390     6.3050     1.7890 N.ar  1 <1>  -0.6200 
 26 C        9.0910     6.6330    -0.4570 C.ar  1 <1>  -0.1500 
 27 C        8.8970     7.0520     0.8550 C.ar  1 <1>   0.4100 
 28 N        9.2870     8.2760     1.2750 N.pl3 1 <1>  -0.9000 
 29 H        2.0730    -0.4580    -3.2340 H     1 <1>   0.1500 
 30 H        1.3100    -2.1910     3.6580 H     1 <1>   0.0800 
 31 H        1.8040    -3.3080     2.3940 H     1 <1>   0.0800 
 32 H        0.2680    -2.4310     2.2610 H     1 <1>   0.0800 
 33 H        1.2860    -2.6540    -2.4080 H     1 <1>   0.1500 
 34 H        6.1680     1.0590    -2.0580 H     1 <1>   0.0800 
 35 H        5.0270     0.0000    -1.3080 H     1 <1>   0.0800 
 36 H        4.1230     3.6420    -2.9990 H     1 <1>   0.0800 
 37 H        5.7460     3.2000    -2.5700 H     1 <1>   0.0800 
 38 H        6.8370     0.7600     0.2160 H     1 <1>   0.0800 
 39 H        5.2590     1.1240     0.8190 H     1 <1>   0.0800 
 40 H        3.7050     4.6460    -0.9200 H     1 <1>   0.0800 
 41 H        5.3190     5.1300    -1.2960 H     1 <1>   0.0800 
 42 H        4.3620     3.1850     0.7690 H     1 <1>   0.0800 
 43 H        5.4160     4.5410     0.9840 H     1 <1>   0.0800 
 44 H        7.5120     4.4720     2.1570 H     1 <1>   0.1500 
 45 H        8.8190     5.0150    -1.8420 H     1 <1>   0.1500 
 46 H        9.5580     7.2990    -1.1570 H     1 <1>   0.1500 
 47 H       10.0970     8.7220     0.8470 H     1 <1>   0.4000 
 48 H        9.2120     8.4150     2.2840 H     1 <1>   0.4000 
@<TRIPOS>BOND
  1   1   2  1   
  2   2   3  ar  
  3   2   4  ar  
  4   3   5  1   
  5   3   6  ar  
  6   4   7  1   
  7   4   8  ar  
  8   5   9  1   
  9   6  10  1   
 10   6  11  ar  
 11   7  12  2   
 12   7  13  am  
 13   8  11  ar  
 14   8  29  1   
 15   9  30  1   
 16   9  31  1   
 17   9  32  1   
 18  11  33  1   
 19  13  14  1   
 20  13  15  1   
 21  14  16  1   
 22  14  34  1   
 23  14  35  1   
 24  15  17  1   
 25  15  36  1   
 26  15  37  1   
 27  16  18  1   
 28  16  38  1   
 29  16  39  1   
 30  17  19  1   
 31  17  40  1   
 32  17  41  1   
 33  18  19  1   
 34  18  20  am  
 35  19  42  1   
 36  19  43  1   
 37  20  21  2   
 38  20  22  1   
 39  22  23  ar  
 40  22  24  ar  
 41  23  25  ar  
 42  23  44  1   
 43  24  26  ar  
 44  24  45  1   
 45  25  27  ar  
 46  26  27  ar  
 47  26  46  1   
 48  27  28  1   
 49  28  47  1   
 50  28  48  1   
@<TRIPOS>SUBSTRUCTURE
  1 ****  16 GROUP 4 **** **** 0

# MOE 2024.06 (io_trps.svl 2023.06)
