@<TRIPOS>MOLECULE
NONAME
55 58 1 0 0 
SMALL
USER_CHARGES


@<TRIPOS>ATOM
  1 O       -0.6510     0.0400    -2.7710 O.2   1 <1>  -0.5700 
  2 C       -1.3030     0.8340    -2.1340 C.2   1 <1>   0.5690 
  3 N       -2.2600     0.4200    -1.2450 N.am  1 <1>  -0.6600 
  4 C       -1.0380     2.3180    -2.3470 C.3   1 <1>   0.0820 
  5 C       -3.1190     1.2930    -0.3990 C.3   1 <1>   0.1400 
  6 C       -2.4440    -1.0040    -0.8790 C.3   1 <1>   0.1400 
  7 C       -0.3720     2.9810    -1.1470 C.2   1 <1>  -0.1810 
  8 C       -3.9620     0.3260     0.4320 C.3   1 <1>   0.2000 
  9 C       -3.1630    -0.9730     0.4700 C.3   1 <1>  -0.0800 
 10 C       -0.2680     4.3750    -0.9080 C.ar  1 <1>   0.0000 
 11 C        0.2230     2.3730    -0.1030 C.2   1 <1>  -0.0100 
 12 O       -4.1690     0.8020     1.7160 O.3   1 <1>  -0.6800 
 13 C       -4.0260    -2.2160     0.7380 C.3   1 <1>   0.0210 
 14 C       -0.6420     5.5540    -1.5650 C.ar  1 <1>  -0.1430 
 15 C        0.3900     4.4680     0.3100 C.ar  1 <1>   0.1400 
 16 O        0.6770     3.2500     0.7780 O.3   1 <1>  -0.2800 
 17 C       -3.1990    -3.4830     0.6350 C.2   1 <1>   0.1080 
 18 C       -0.3560     6.7640    -0.9620 C.ar  1 <1>  -0.1500 
 19 C       -1.3420     5.5300    -2.9130 C.3   1 <1>  -0.0970 
 20 C        0.6860     5.6850     0.9220 C.ar  1 <1>  -0.1430 
 21 N       -2.1370    -3.6900     1.3500 N.2   1 <1>  -0.7070 
 22 C       -3.4680    -4.5410    -0.2270 C.2   1 <1>  -0.1500 
 23 C        0.2970     6.8440     0.2720 C.ar  1 <1>  -0.1430 
 24 C        1.4120     5.7020     2.2620 C.3   1 <1>  -0.0970 
 25 N       -1.6940    -4.8990     0.9580 N.pl3 1 <1>   0.3000 
 26 C       -2.4830    -5.4350     0.0030 C.2   1 <1>  -0.3320 
 27 C        0.5640     8.2210     0.8640 C.3   1 <1>  -0.0970 
 28 C       -2.2420    -6.7870    -0.6420 C.3   1 <1>  -0.0600 
 29 H       -0.4070     2.4380    -3.2080 H     1 <1>   0.0800 
 30 H       -1.9760     2.7930    -2.5530 H     1 <1>   0.0800 
 31 H       -2.5010     1.9000     0.2390 H     1 <1>   0.0800 
 32 H       -3.7470     1.9140    -1.0130 H     1 <1>   0.0800 
 33 H       -3.0490    -1.4840    -1.6300 H     1 <1>   0.0800 
 34 H       -1.4970    -1.5140    -0.8060 H     1 <1>   0.0800 
 35 H       -4.9210     0.1850    -0.0360 H     1 <1>   0.0800 
 36 H       -2.4020    -0.9060     1.2280 H     1 <1>   0.0800 
 37 H        0.3690     1.3260     0.1040 H     1 <1>   0.1500 
 38 H       -3.3210     0.8440     2.2020 H     1 <1>   0.4000 
 39 H       -4.8370    -2.2620     0.0350 H     1 <1>   0.0800 
 40 H       -4.4420    -2.1550     1.7280 H     1 <1>   0.0800 
 41 H       -0.6410     7.6780    -1.4530 H     1 <1>   0.1500 
 42 H       -1.4260     6.5220    -3.3180 H     1 <1>   0.0800 
 43 H       -2.3320     5.1250    -2.8050 H     1 <1>   0.0800 
 44 H       -0.7830     4.9320    -3.6090 H     1 <1>   0.0800 
 45 H       -4.2880    -4.6070    -0.9180 H     1 <1>   0.1500 
 46 H        2.1860     6.4470     2.2620 H     1 <1>   0.0800 
 47 H        1.8720     4.7510     2.4620 H     1 <1>   0.0800 
 48 H        0.7140     5.9160     3.0500 H     1 <1>   0.0800 
 49 H       -0.8520    -5.3290     1.3600 H     1 <1>   0.2700 
 50 H        0.0130     8.9810     0.3400 H     1 <1>   0.0800 
 51 H        1.6120     8.4510     0.7960 H     1 <1>   0.0800 
 52 H        0.2660     8.2470     1.8970 H     1 <1>   0.0800 
 53 H       -3.0060    -6.9900    -1.3710 H     1 <1>   0.0800 
 54 H       -2.2650    -7.5640     0.1030 H     1 <1>   0.0800 
 55 H       -1.2870    -6.8000    -1.1350 H     1 <1>   0.0800 
@<TRIPOS>BOND
  1   1   2  2   
  2   2   3  am  
  3   2   4  1   
  4   3   5  1   
  5   3   6  1   
  6   4   7  1   
  7   4  29  1   
  8   4  30  1   
  9   5   8  1   
 10   5  31  1   
 11   5  32  1   
 12   6   9  1   
 13   6  33  1   
 14   6  34  1   
 15   7  10  1   
 16   7  11  2   
 17   8   9  1   
 18   8  12  1   
 19   8  35  1   
 20   9  13  1   
 21   9  36  1   
 22  10  14  ar  
 23  10  15  ar  
 24  11  16  1   
 25  11  37  1   
 26  12  38  1   
 27  13  17  1   
 28  13  39  1   
 29  13  40  1   
 30  14  18  ar  
 31  14  19  1   
 32  15  16  1   
 33  15  20  ar  
 34  17  21  2   
 35  17  22  1   
 36  18  23  ar  
 37  18  41  1   
 38  19  42  1   
 39  19  43  1   
 40  19  44  1   
 41  20  23  ar  
 42  20  24  1   
 43  21  25  1   
 44  22  26  2   
 45  22  45  1   
 46  23  27  1   
 47  24  46  1   
 48  24  47  1   
 49  24  48  1   
 50  25  26  1   
 51  25  49  1   
 52  26  28  1   
 53  27  50  1   
 54  27  51  1   
 55  27  52  1   
 56  28  53  1   
 57  28  54  1   
 58  28  55  1   
@<TRIPOS>SUBSTRUCTURE
  1 ****   3 GROUP 4 **** **** 0

# MOE 2024.06 (io_trps.svl 2023.06)
