@<TRIPOS>MOLECULE
NONAME
44 45 1 0 0 
SMALL
USER_CHARGES


@<TRIPOS>ATOM
  1 S        0.0980    -0.3490     1.2870 S.o2  1 <1>   1.5760 
  2 O        0.1670    -1.5270     2.1220 O.2   1 <1>  -0.6500 
  3 O        0.3430     0.9620     1.8490 O.2   1 <1>  -0.6500 
  4 N       -1.3580    -0.3330     0.4390 N.am  1 <1>  -0.8490 
  5 N        1.1830    -0.5460     0.0020 N.am  1 <1>  -0.8490 
  6 C       -1.7040    -1.6700    -0.0780 C.3   1 <1>   0.1960 
  7 C       -2.4560     0.1760     1.2640 C.3   1 <1>   0.1960 
  8 C        1.2180     0.6200    -0.8840 C.3   1 <1>   0.1160 
  9 C        2.5260    -0.8670     0.4790 C.3   1 <1>   0.1160 
 10 C       -2.9350    -1.5700    -0.9920 C.3   1 <1>   0.2000 
 11 C       -3.7250     0.3260     0.4110 C.3   1 <1>  -0.1600 
 12 O       -3.2160    -2.8110    -1.5410 O.3   1 <1>  -0.6800 
 13 C       -4.1680    -1.0190    -0.2340 C.3   1 <1>  -0.1060 
 14 C       -4.6030    -2.0450     0.8300 C.2   1 <1>   0.9060 
 15 C       -5.3280    -0.7910    -1.2400 C.3   1 <1>  -0.0170 
 16 O       -4.7460    -3.2290     0.4860 O.co2 1 <1>  -0.9000 
 17 O       -4.7920    -1.7000     2.0010 O.co2 1 <1>  -0.9000 
 18 C       -6.4380     0.1350    -0.7480 C.ar  1 <1>  -0.1440 
 19 C       -6.6080     1.3890    -1.3160 C.ar  1 <1>  -0.1500 
 20 C       -7.2900    -0.2660     0.2700 C.ar  1 <1>  -0.1500 
 21 C       -7.6140     2.2310    -0.8730 C.ar  1 <1>  -0.1500 
 22 C       -8.2960     0.5740     0.7150 C.ar  1 <1>  -0.1500 
 23 C       -8.4590     1.8240     0.1440 C.ar  1 <1>  -0.1500 
 24 H       -0.8810    -2.0570    -0.6530 H     1 <1>   0.0800 
 25 H       -1.9030    -2.3440     0.7390 H     1 <1>   0.0800 
 26 H       -2.6350    -0.4880     2.0960 H     1 <1>   0.0800 
 27 H       -2.1930     1.1420     1.6630 H     1 <1>   0.0800 
 28 H        1.8710     0.4300    -1.7170 H     1 <1>   0.0800 
 29 H        1.5660     1.4900    -0.3510 H     1 <1>   0.0800 
 30 H        0.2320     0.8210    -1.2670 H     1 <1>   0.0800 
 31 H        3.1880    -1.0210    -0.3550 H     1 <1>   0.0800 
 32 H        2.5000    -1.7720     1.0620 H     1 <1>   0.0800 
 33 H        2.9070    -0.0680     1.0940 H     1 <1>   0.0800 
 34 H       -2.6830    -0.9200    -1.8120 H     1 <1>   0.0800 
 35 H       -4.5110     0.6990     1.0440 H     1 <1>   0.0800 
 36 H       -3.5440     1.0620    -0.3510 H     1 <1>   0.0800 
 37 H       -3.8040    -3.2770    -0.8680 H     1 <1>   0.4000 
 38 H       -4.9260    -0.3840    -2.1500 H     1 <1>   0.0800 
 39 H       -5.7630    -1.7420    -1.4990 H     1 <1>   0.0800 
 40 H       -5.9540     1.7150    -2.1040 H     1 <1>   0.1500 
 41 H       -7.1660    -1.2340     0.7270 H     1 <1>   0.1500 
 42 H       -7.7380     3.2020    -1.3190 H     1 <1>   0.1500 
 43 H       -8.9430     0.2490     1.5100 H     1 <1>   0.1500 
 44 H       -9.2400     2.4750     0.4920 H     1 <1>   0.1500 
@<TRIPOS>BOND
  1   1   2  2   
  2   1   3  2   
  3   1   4  am  
  4   1   5  am  
  5   4   6  1   
  6   4   7  1   
  7   5   8  1   
  8   5   9  1   
  9   6  10  1   
 10   6  24  1   
 11   6  25  1   
 12   7  11  1   
 13   7  26  1   
 14   7  27  1   
 15   8  28  1   
 16   8  29  1   
 17   8  30  1   
 18   9  31  1   
 19   9  32  1   
 20   9  33  1   
 21  10  12  1   
 22  10  13  1   
 23  10  34  1   
 24  11  13  1   
 25  11  35  1   
 26  11  36  1   
 27  12  37  1   
 28  13  14  1   
 29  13  15  1   
 30  14  16  ar  
 31  14  17  ar  
 32  15  18  1   
 33  15  38  1   
 34  15  39  1   
 35  18  19  ar  
 36  18  20  ar  
 37  19  21  ar  
 38  19  40  1   
 39  20  22  ar  
 40  20  41  1   
 41  21  23  ar  
 42  21  42  1   
 43  22  23  ar  
 44  22  43  1   
 45  23  44  1   
@<TRIPOS>SUBSTRUCTURE
  1 ****  11 GROUP 4 **** **** 0

# MOE 2024.06 (io_trps.svl 2023.06)
