@<TRIPOS>MOLECULE
NONAME
38 38 1 0 0 
SMALL
USER_CHARGES


@<TRIPOS>ATOM
  1 S       -1.4670    -0.8210     0.6750 S.3   1 <1>  -0.4600 
  2 C       -1.8680     0.8120    -0.0050 C.3   1 <1>   0.0700 
  3 C       -2.4260    -1.9300    -0.3870 C.3   1 <1>  -0.0100 
  4 C       -1.2760     1.8820     0.9140 C.3   1 <1>  -0.1600 
  5 C       -1.4320     3.2890     0.3180 C.3   1 <1>   0.1830 
  6 N       -0.8070     4.2560     1.2810 N.pl3 1 <1>  -0.8690 
  7 C       -2.9060     3.6590    -0.0040 C.2   1 <1>   0.9060 
  8 C       -0.1550     5.3150     0.7210 C.ar  1 <1>   0.4100 
  9 O       -3.4490     3.1950    -1.0170 O.co2 1 <1>  -0.9000 
 10 O       -3.5050     4.4310     0.7640 O.co2 1 <1>  -0.9000 
 11 N        1.0970     5.1420     0.3490 N.ar  1 <1>  -0.6200 
 12 C       -0.8040     6.5080     0.5370 C.ar  1 <1>  -0.1500 
 13 C        1.6580     6.2000    -0.1990 C.ar  1 <1>   0.4700 
 14 C       -0.1240     7.5400    -0.0660 C.ar  1 <1>   0.4100 
 15 N        1.1400     7.3910    -0.4320 N.ar  1 <1>  -0.6200 
 16 N       -0.7470     8.7510    -0.3270 N.pl3 1 <1>  -0.8380 
 17 C        0.0380     9.9980    -0.5230 C.3   1 <1>   0.2090 
 18 C       -2.1320     8.7430    -0.8810 C.3   1 <1>   0.1290 
 19 C       -0.5720    11.1200     0.3130 C.3   1 <1>  -0.2400 
 20 H       -1.4480     0.8650    -0.9940 H     1 <1>   0.0800 
 21 H       -2.9400     0.8870    -0.0570 H     1 <1>   0.0800 
 22 H       -2.2540    -2.9360    -0.0500 H     1 <1>   0.0800 
 23 H       -2.0850    -1.7970    -1.3980 H     1 <1>   0.0800 
 24 H       -3.4630    -1.6620    -0.2910 H     1 <1>   0.0800 
 25 H       -1.7760     1.8430     1.8650 H     1 <1>   0.0800 
 26 H       -0.2290     1.6870     1.0600 H     1 <1>   0.0800 
 27 H       -0.8930     3.3280    -0.6120 H     1 <1>   0.0800 
 28 H       -1.6170     4.5810     1.8320 H     1 <1>   0.4000 
 29 H       -1.8240     6.6160     0.8450 H     1 <1>   0.1500 
 30 H        2.6830     6.0730    -0.4990 H     1 <1>   0.1500 
 31 H        1.0570     9.8500    -0.2080 H     1 <1>   0.0800 
 32 H        0.0430    10.2610    -1.5660 H     1 <1>   0.0800 
 33 H       -2.1880     9.3750    -1.7490 H     1 <1>   0.0800 
 34 H       -2.8200     9.1010    -0.1350 H     1 <1>   0.0800 
 35 H       -2.4210     7.7460    -1.1690 H     1 <1>   0.0800 
 36 H       -0.6050    10.8240     1.3460 H     1 <1>   0.0800 
 37 H       -1.5640    11.3510    -0.0270 H     1 <1>   0.0800 
 38 H        0.0330    12.0030     0.2260 H     1 <1>   0.0800 
@<TRIPOS>BOND
  1   1   2  1   
  2   1   3  1   
  3   2   4  1   
  4   2  20  1   
  5   2  21  1   
  6   3  22  1   
  7   3  23  1   
  8   3  24  1   
  9   4   5  1   
 10   4  25  1   
 11   4  26  1   
 12   5   6  1   
 13   5   7  1   
 14   5  27  1   
 15   6   8  1   
 16   6  28  1   
 17   7   9  ar  
 18   7  10  ar  
 19   8  11  ar  
 20   8  12  ar  
 21  11  13  ar  
 22  12  14  ar  
 23  12  29  1   
 24  13  15  ar  
 25  13  30  1   
 26  14  15  ar  
 27  14  16  1   
 28  16  17  1   
 29  16  18  1   
 30  17  19  1   
 31  17  31  1   
 32  17  32  1   
 33  18  33  1   
 34  18  34  1   
 35  18  35  1   
 36  19  36  1   
 37  19  37  1   
 38  19  38  1   
@<TRIPOS>SUBSTRUCTURE
  1 ****   8 GROUP 4 **** **** 0

# MOE 2024.06 (io_trps.svl 2023.06)
