@<TRIPOS>MOLECULE
NONAME
49 51 1 0 0 
SMALL
USER_CHARGES


@<TRIPOS>ATOM
  1 O       -3.1490     1.1260    -1.8720 O.2   1 <1>  -0.5700 
  2 C       -2.7110     0.9500    -0.7610 C.2   1 <1>   0.5690 
  3 N       -2.3810    -0.2900    -0.3250 N.am  1 <1>  -0.7300 
  4 C       -2.5220     2.1250     0.1980 C.3   1 <1>  -0.0190 
  5 C       -2.4520    -1.5240    -1.1410 C.3   1 <1>   0.2200 
  6 C       -3.4390     3.3210    -0.1320 C.3   1 <1>  -0.1600 
  7 C       -1.0520     2.5820     0.2230 C.3   1 <1>  -0.1600 
  8 C       -3.6330    -2.3920    -0.7250 C.3   1 <1>  -0.0800 
  9 C       -1.2930    -2.4290    -0.7520 C.3   1 <1>   0.1200 
 10 C       -3.2070     4.4930     0.8240 C.3   1 <1>   0.1400 
 11 C       -0.8420     3.7640     1.1740 C.3   1 <1>   0.1400 
 12 C       -3.0770    -3.1850     0.4640 C.3   1 <1>   0.1200 
 13 C       -4.9480    -1.6450    -0.4360 C.3   1 <1>  -0.0170 
 14 O       -1.6880    -3.0170     0.4490 O.3   1 <1>  -0.5600 
 15 N       -1.7660     4.8700     0.8040 N.am  1 <1>  -0.6600 
 16 C       -6.0680    -2.6220    -0.1160 C.ar  1 <1>  -0.1440 
 17 C       -1.2780     6.1030     0.4510 C.2   1 <1>   0.5690 
 18 C       -6.7610    -3.2810    -1.1110 C.ar  1 <1>  -0.1500 
 19 C       -6.4500    -2.9030     1.1800 C.ar  1 <1>  -0.1500 
 20 O       -0.0990     6.3620     0.4770 O.2   1 <1>  -0.5700 
 21 C       -2.2120     7.2060     0.0110 C.3   1 <1>  -0.1790 
 22 C       -7.7700    -4.1680    -0.7720 C.ar  1 <1>   0.1600 
 23 C       -7.4730    -3.8070     1.4120 C.ar  1 <1>   0.1600 
 24 N       -8.1410    -4.4490     0.4670 N.ar  1 <1>  -0.6200 
 25 H       -2.0200    -0.4440     0.6190 H     1 <1>   0.3700 
 26 H       -2.7810     1.7790     1.1820 H     1 <1>   0.0800 
 27 H       -2.4560    -1.2880    -2.1920 H     1 <1>   0.0800 
 28 H       -4.4680     3.0120    -0.0770 H     1 <1>   0.0800 
 29 H       -3.2540     3.6550    -1.1390 H     1 <1>   0.0800 
 30 H       -0.7470     2.8780    -0.7670 H     1 <1>   0.0800 
 31 H       -0.4190     1.7690     0.5290 H     1 <1>   0.0800 
 32 H       -3.8160    -3.0940    -1.5190 H     1 <1>   0.0800 
 33 H       -0.3710    -1.8930    -0.6120 H     1 <1>   0.0800 
 34 H       -1.1570    -3.2130    -1.4770 H     1 <1>   0.0800 
 35 H       -3.4770     4.2070     1.8260 H     1 <1>   0.0800 
 36 H       -3.8330     5.3170     0.5360 H     1 <1>   0.0800 
 37 H        0.1840     4.0870     1.1220 H     1 <1>   0.0800 
 38 H       -1.0420     3.4640     2.1890 H     1 <1>   0.0800 
 39 H       -3.3040    -4.2340     0.3830 H     1 <1>   0.0800 
 40 H       -3.4410    -2.8060     1.4040 H     1 <1>   0.0800 
 41 H       -5.2210    -1.0580    -1.2960 H     1 <1>   0.0800 
 42 H       -4.8230    -0.9670     0.3890 H     1 <1>   0.0800 
 43 H       -6.5270    -3.1130    -2.1470 H     1 <1>   0.1500 
 44 H       -5.9650    -2.4280     2.0130 H     1 <1>   0.1500 
 45 H       -2.7660     6.8910    -0.8530 H     1 <1>   0.0800 
 46 H       -1.6430     8.0800    -0.2470 H     1 <1>   0.0800 
 47 H       -2.8840     7.4570     0.8090 H     1 <1>   0.0800 
 48 H       -8.2990    -4.6730    -1.5620 H     1 <1>   0.1500 
 49 H       -7.7580    -4.0140     2.4290 H     1 <1>   0.1500 
@<TRIPOS>BOND
  1   1   2  2   
  2   2   3  am  
  3   2   4  1   
  4   3   5  1   
  5   3  25  1   
  6   4   6  1   
  7   4   7  1   
  8   4  26  1   
  9   5   8  1   
 10   5   9  1   
 11   5  27  1   
 12   6  10  1   
 13   6  28  1   
 14   6  29  1   
 15   7  11  1   
 16   7  30  1   
 17   7  31  1   
 18   8  12  1   
 19   8  13  1   
 20   8  32  1   
 21   9  14  1   
 22   9  33  1   
 23   9  34  1   
 24  10  15  1   
 25  10  35  1   
 26  10  36  1   
 27  11  15  1   
 28  11  37  1   
 29  11  38  1   
 30  12  14  1   
 31  12  39  1   
 32  12  40  1   
 33  13  16  1   
 34  13  41  1   
 35  13  42  1   
 36  15  17  am  
 37  16  18  ar  
 38  16  19  ar  
 39  17  20  2   
 40  17  21  1   
 41  18  22  ar  
 42  18  43  1   
 43  19  23  ar  
 44  19  44  1   
 45  21  45  1   
 46  21  46  1   
 47  21  47  1   
 48  22  24  ar  
 49  22  48  1   
 50  23  24  ar  
 51  23  49  1   
@<TRIPOS>SUBSTRUCTURE
  1 ****   2 GROUP 4 **** **** 0

# MOE 2024.06 (io_trps.svl 2023.06)
