@<TRIPOS>MOLECULE
NONAME
51 54 1 0 0 
SMALL
USER_CHARGES


@<TRIPOS>ATOM
  1 S        0.5870     0.9630     0.8230 S.3   1 <1>  -0.3320 
  2 C       -0.3010    -0.2050    -0.2220 C.ar  1 <1>   0.1020 
  3 C        2.3120     0.3200     0.9900 C.3   1 <1>   0.2500 
  4 C       -1.6220     0.0900    -0.5050 C.ar  1 <1>  -0.1500 
  5 C        0.2950    -1.3510    -0.7280 C.ar  1 <1>  -0.1500 
  6 C        3.1220     1.2880     1.8320 C.2   1 <1>  -0.0400 
  7 C       -2.3600    -0.7660    -1.3040 C.ar  1 <1>  -0.1500 
  8 C       -0.4480    -2.2040    -1.5270 C.ar  1 <1>  -0.1500 
  9 O        3.3510     2.5030     1.3840 O.3   1 <1>  -0.2800 
 10 C        3.6980     1.1230     3.0420 C.2   1 <1>  -0.1500 
 11 C       -1.7720    -1.9120    -1.8140 C.ar  1 <1>  -0.1500 
 12 C        4.0750     3.1710     2.2810 C.2   1 <1>   0.0550 
 13 C        4.3130     2.3400     3.3340 C.2   1 <1>  -0.1500 
 14 C        4.4640     4.5560     2.0970 C.2   1 <1>   0.7150 
 15 O        4.8710     5.1880     3.0590 O.2   1 <1>  -0.5700 
 16 N        4.3920     5.2250     0.8810 N.am  1 <1>  -0.6600 
 17 C        4.3900     6.7250     0.8790 C.3   1 <1>   0.1400 
 18 C        4.5670     4.4920    -0.4140 C.3   1 <1>   0.1400 
 19 C        5.7220     7.3740     0.4200 C.3   1 <1>   0.4230 
 20 C        5.6150     5.0880    -1.3780 C.3   1 <1>  -0.0800 
 21 N        5.7910     7.5910    -1.0720 N.4   1 <1>  -0.9590 
 22 C        7.0020     6.6510     0.9210 C.3   1 <1>   0.1200 
 23 C        7.0740     5.0100    -0.8800 C.3   1 <1>   0.1200 
 24 C        5.2100     6.4760    -1.8770 C.3   1 <1>   0.3430 
 25 C        5.1800     8.8980    -1.4670 C.3   1 <1>   0.2630 
 26 O        7.1850     5.3330     0.4690 O.3   1 <1>  -0.5600 
 27 H        2.2480    -0.6440     1.4610 H     1 <1>   0.0800 
 28 H        2.7230     0.2350     0.0010 H     1 <1>   0.0800 
 29 H       -2.0660     0.9830    -0.1020 H     1 <1>   0.1500 
 30 H        1.3170    -1.5960    -0.5170 H     1 <1>   0.1500 
 31 H       -3.3880    -0.5410    -1.5280 H     1 <1>   0.1500 
 32 H        0.0010    -3.0970    -1.9270 H     1 <1>   0.1500 
 33 H        3.7000     0.2540     3.6770 H     1 <1>   0.1500 
 34 H       -2.3460    -2.5770    -2.4360 H     1 <1>   0.1500 
 35 H        4.8630     2.5690     4.2300 H     1 <1>   0.1500 
 36 H        3.5750     7.0770     0.2740 H     1 <1>   0.0800 
 37 H        4.1880     7.0770     1.8760 H     1 <1>   0.0800 
 38 H        4.8750     3.4810    -0.2090 H     1 <1>   0.0800 
 39 H        3.6080     4.4370    -0.9020 H     1 <1>   0.0800 
 40 H        5.7450     8.3480     0.8790 H     1 <1>   0.0800 
 41 H        5.5740     4.4610    -2.2510 H     1 <1>   0.0800 
 42 H        6.7960     7.6240    -1.2930 H     1 <1>   0.4500 
 43 H        6.9680     6.5970     1.9960 H     1 <1>   0.0800 
 44 H        7.8770     7.2150     0.6540 H     1 <1>   0.0800 
 45 H        7.7400     5.6330    -1.4500 H     1 <1>   0.0800 
 46 H        7.4180     3.9930    -0.9690 H     1 <1>   0.0800 
 47 H        4.1340     6.5430    -1.8720 H     1 <1>   0.0800 
 48 H        5.5360     6.5830    -2.9000 H     1 <1>   0.0800 
 49 H        4.1260     8.9030    -1.2440 H     1 <1>   0.0800 
 50 H        5.3080     9.0660    -2.5250 H     1 <1>   0.0800 
 51 H        5.6500     9.7090    -0.9340 H     1 <1>   0.0800 
@<TRIPOS>BOND
  1   1   2  1   
  2   1   3  1   
  3   2   4  ar  
  4   2   5  ar  
  5   3   6  1   
  6   3  27  1   
  7   3  28  1   
  8   4   7  ar  
  9   4  29  1   
 10   5   8  ar  
 11   5  30  1   
 12   6   9  1   
 13   6  10  2   
 14   7  11  ar  
 15   7  31  1   
 16   8  11  ar  
 17   8  32  1   
 18   9  12  1   
 19  10  13  1   
 20  10  33  1   
 21  11  34  1   
 22  12  13  2   
 23  12  14  1   
 24  13  35  1   
 25  14  15  2   
 26  14  16  am  
 27  16  17  1   
 28  16  18  1   
 29  17  19  1   
 30  17  36  1   
 31  17  37  1   
 32  18  20  1   
 33  18  38  1   
 34  18  39  1   
 35  19  21  1   
 36  19  22  1   
 37  19  40  1   
 38  20  23  1   
 39  20  24  1   
 40  20  41  1   
 41  21  24  1   
 42  21  25  1   
 43  21  42  1   
 44  22  26  1   
 45  22  43  1   
 46  22  44  1   
 47  23  26  1   
 48  23  45  1   
 49  23  46  1   
 50  24  47  1   
 51  24  48  1   
 52  25  49  1   
 53  25  50  1   
 54  25  51  1   
@<TRIPOS>SUBSTRUCTURE
  1 ****   9 GROUP 4 **** **** 0

# MOE 2024.06 (io_trps.svl 2023.06)
