@<TRIPOS>MOLECULE
NONAME
44 46 1 0 0 
SMALL
USER_CHARGES


@<TRIPOS>ATOM
  1 O       -0.3060     0.1390     0.6280 O.2   1 <1>  -0.5700 
  2 C       -1.3580     0.7530     0.6880 C.2   1 <1>   0.7160 
  3 N       -2.5340     0.0360     0.6450 N.am  1 <1>  -0.6600 
  4 C       -1.3700     2.1990     0.7830 C.2   1 <1>  -0.0860 
  5 C       -3.8380     0.6150     0.2360 C.3   1 <1>   0.1400 
  6 C       -2.5600    -1.4430     0.5320 C.3   1 <1>   0.1400 
  7 C       -0.6390     3.1440     0.0980 C.2   1 <1>  -0.3320 
  8 C       -2.1880     2.9400     1.6600 C.2   1 <1>  -0.1500 
  9 C       -4.5890    -0.5450    -0.4130 C.3   1 <1>   0.2000 
 10 C       -4.0170    -1.8020     0.2370 C.3   1 <1>  -0.0800 
 11 N       -0.9780     4.3900     0.5100 N.pl3 1 <1>   0.0480 
 12 C        0.4130     2.8910    -0.9730 C.3   1 <1>  -0.0600 
 13 C       -1.9300     4.2550     1.4670 C.2   1 <1>  -0.3020 
 14 O       -5.9530    -0.4640    -0.1860 O.3   1 <1>  -0.6800 
 15 C       -4.1770    -3.0590    -0.6310 C.3   1 <1>   0.0210 
 16 C       -0.4230     5.6690     0.0350 C.3   1 <1>   0.0160 
 17 C       -3.5280    -4.2600     0.0260 C.2   1 <1>   0.1080 
 18 N       -3.9490    -4.7610     1.1460 N.2   1 <1>  -0.7070 
 19 C       -2.4260    -4.9440    -0.4750 C.2   1 <1>  -0.1500 
 20 N       -3.1190    -5.7930     1.3900 N.pl3 1 <1>   0.3000 
 21 C       -2.1860    -5.9220     0.4230 C.2   1 <1>  -0.3320 
 22 C       -1.1070    -6.9890     0.4170 C.3   1 <1>  -0.0600 
 23 H       -4.3570     0.9640     1.1100 H     1 <1>   0.0800 
 24 H       -3.6980     1.4220    -0.4630 H     1 <1>   0.0800 
 25 H       -1.9150    -1.7450    -0.2770 H     1 <1>   0.0800 
 26 H       -2.2200    -1.9020     1.4450 H     1 <1>   0.0800 
 27 H       -2.8810     2.5040     2.3580 H     1 <1>   0.1500 
 28 H       -4.4180    -0.5370    -1.4760 H     1 <1>   0.0800 
 29 H       -4.4970    -1.9690     1.1860 H     1 <1>   0.0800 
 30 H        0.5020     1.8400    -1.1810 H     1 <1>   0.0800 
 31 H        1.3700     3.2490    -0.6400 H     1 <1>   0.0800 
 32 H        0.1450     3.3940    -1.8840 H     1 <1>   0.0800 
 33 H       -2.3700     5.1010     1.9640 H     1 <1>   0.1500 
 34 H       -6.1490    -0.6240     0.7570 H     1 <1>   0.4000 
 35 H       -3.7370    -2.9000    -1.5990 H     1 <1>   0.0800 
 36 H       -5.2230    -3.2670    -0.7700 H     1 <1>   0.0800 
 37 H       -0.8810     6.4810     0.5690 H     1 <1>   0.0800 
 38 H       -0.6210     5.7720    -1.0150 H     1 <1>   0.0800 
 39 H        0.6370     5.6790     0.2080 H     1 <1>   0.0800 
 40 H       -1.8970    -4.7200    -1.3840 H     1 <1>   0.1500 
 41 H       -3.2150    -6.3870     2.2220 H     1 <1>   0.2700 
 42 H       -0.4880    -6.8840    -0.4560 H     1 <1>   0.0800 
 43 H       -1.5510    -7.9690     0.4060 H     1 <1>   0.0800 
 44 H       -0.4850    -6.8940     1.2900 H     1 <1>   0.0800 
@<TRIPOS>BOND
  1   1   2  2   
  2   2   3  am  
  3   2   4  1   
  4   3   5  1   
  5   3   6  1   
  6   4   7  2   
  7   4   8  1   
  8   5   9  1   
  9   5  23  1   
 10   5  24  1   
 11   6  10  1   
 12   6  25  1   
 13   6  26  1   
 14   7  11  1   
 15   7  12  1   
 16   8  13  2   
 17   8  27  1   
 18   9  10  1   
 19   9  14  1   
 20   9  28  1   
 21  10  15  1   
 22  10  29  1   
 23  11  13  1   
 24  11  16  1   
 25  12  30  1   
 26  12  31  1   
 27  12  32  1   
 28  13  33  1   
 29  14  34  1   
 30  15  17  1   
 31  15  35  1   
 32  15  36  1   
 33  16  37  1   
 34  16  38  1   
 35  16  39  1   
 36  17  18  2   
 37  17  19  1   
 38  18  20  1   
 39  19  21  2   
 40  19  40  1   
 41  20  21  1   
 42  20  41  1   
 43  21  22  1   
 44  22  42  1   
 45  22  43  1   
 46  22  44  1   
@<TRIPOS>SUBSTRUCTURE
  1 ****   3 GROUP 4 **** **** 0

# MOE 2024.06 (io_trps.svl 2023.06)
