@<TRIPOS>MOLECULE
NONAME
51 54 1 0 0 
SMALL
USER_CHARGES


@<TRIPOS>ATOM
  1 O       -0.3100    -2.7590    -1.5820 O.3   1 <1>  -0.6800 
  2 C        0.0820    -1.6920    -0.7880 C.3   1 <1>   0.1200 
  3 C        1.3170    -2.0300     0.0990 C.3   1 <1>   0.0000 
  4 C        2.6240    -2.3180    -0.7030 C.3   1 <1>   0.4230 
  5 C        1.5970    -0.7750     0.9730 C.3   1 <1>  -0.1600 
  6 C        0.9920    -3.2170     1.0560 C.3   1 <1>  -0.1600 
  7 N        2.6910    -3.6560    -1.4280 N.4   1 <1>  -0.9590 
  8 C        3.0460    -1.0970    -1.5490 C.3   1 <1>   0.2090 
  9 C        2.0860     0.4520     0.1840 C.3   1 <1>   0.2090 
 10 C        1.7660    -4.5060     0.7250 C.3   1 <1>  -0.1600 
 11 C        1.8600    -4.7210    -0.7830 C.3   1 <1>   0.3430 
 12 C        2.3670    -3.5930    -2.8880 C.3   1 <1>   0.2630 
 13 N        3.2560     0.0730    -0.6510 N.pl3 1 <1>  -0.8380 
 14 C        4.5200     0.3250    -0.1650 C.ar  1 <1>   0.4100 
 15 N        5.2260    -0.7150     0.1800 N.ar  1 <1>  -0.6200 
 16 C        5.0040     1.6500    -0.0260 C.ar  1 <1>   0.0000 
 17 C        6.4210    -0.4640     0.7280 C.ar  1 <1>   0.4770 
 18 C        6.2610     1.7780     0.5710 C.ar  1 <1>   0.3100 
 19 C        4.3370     2.8190    -0.4480 C.ar  1 <1>  -0.1500 
 20 N        6.9610     0.6900     0.9480 N.ar  1 <1>  -0.6200 
 21 C        7.2100    -1.6850     1.1330 C.3   1 <1>  -0.0970 
 22 C        6.8010     3.0560     0.7700 C.ar  1 <1>  -0.1500 
 23 C        4.8840     4.0600    -0.2500 C.ar  1 <1>  -0.1500 
 24 C        6.1290     4.1830     0.3710 C.ar  1 <1>  -0.1500 
 25 H       -1.2070    -2.5990    -1.9490 H     1 <1>   0.4000 
 26 H        0.2700    -0.8560    -1.4380 H     1 <1>   0.0800 
 27 H       -0.7550    -1.4410    -0.1570 H     1 <1>   0.0800 
 28 H        3.3860    -2.3790     0.0560 H     1 <1>   0.0800 
 29 H        2.3600    -1.0040     1.6990 H     1 <1>   0.0800 
 30 H        0.7140    -0.5020     1.5240 H     1 <1>   0.0800 
 31 H        1.2070    -2.9620     2.0800 H     1 <1>   0.0800 
 32 H       -0.0620    -3.4330     1.0180 H     1 <1>   0.0800 
 33 H        3.6720    -3.9520    -1.3390 H     1 <1>   0.4500 
 34 H        2.2990    -0.8520    -2.2810 H     1 <1>   0.0800 
 35 H        3.9700    -1.3110    -2.0590 H     1 <1>   0.0800 
 36 H        2.3670     1.2280     0.8780 H     1 <1>   0.0800 
 37 H        1.3070     0.8440    -0.4460 H     1 <1>   0.0800 
 38 H        1.2560    -5.3430     1.1700 H     1 <1>   0.0800 
 39 H        2.7560    -4.4720     1.1480 H     1 <1>   0.0800 
 40 H        0.8630    -4.7030    -1.1920 H     1 <1>   0.0800 
 41 H        2.2850    -5.6900    -0.9900 H     1 <1>   0.0800 
 42 H        1.3640    -3.2330    -3.0370 H     1 <1>   0.0800 
 43 H        2.4450    -4.5740    -3.3290 H     1 <1>   0.0800 
 44 H        3.0500    -2.9360    -3.3990 H     1 <1>   0.0800 
 45 H        3.3850     2.7240    -0.9380 H     1 <1>   0.1500 
 46 H        8.1490    -1.3980     1.5710 H     1 <1>   0.0800 
 47 H        7.4030    -2.2920     0.2690 H     1 <1>   0.0800 
 48 H        6.6510    -2.2530     1.8520 H     1 <1>   0.0800 
 49 H        7.7630     3.1250     1.2430 H     1 <1>   0.1500 
 50 H        4.3670     4.9490    -0.5710 H     1 <1>   0.1500 
 51 H        6.5510     5.1610     0.5250 H     1 <1>   0.1500 
@<TRIPOS>BOND
  1   1   2  1   
  2   1  25  1   
  3   2   3  1   
  4   2  26  1   
  5   2  27  1   
  6   3   4  1   
  7   3   5  1   
  8   3   6  1   
  9   4   7  1   
 10   4   8  1   
 11   4  28  1   
 12   5   9  1   
 13   5  29  1   
 14   5  30  1   
 15   6  10  1   
 16   6  31  1   
 17   6  32  1   
 18   7  11  1   
 19   7  12  1   
 20   7  33  1   
 21   8  13  1   
 22   8  34  1   
 23   8  35  1   
 24   9  13  1   
 25   9  36  1   
 26   9  37  1   
 27  10  11  1   
 28  10  38  1   
 29  10  39  1   
 30  11  40  1   
 31  11  41  1   
 32  12  42  1   
 33  12  43  1   
 34  12  44  1   
 35  13  14  1   
 36  14  15  ar  
 37  14  16  ar  
 38  15  17  ar  
 39  16  18  ar  
 40  16  19  ar  
 41  17  20  ar  
 42  17  21  1   
 43  18  20  ar  
 44  18  22  ar  
 45  19  23  ar  
 46  19  45  1   
 47  21  46  1   
 48  21  47  1   
 49  21  48  1   
 50  22  24  ar  
 51  22  49  1   
 52  23  24  ar  
 53  23  50  1   
 54  24  51  1   
@<TRIPOS>SUBSTRUCTURE
  1 ****  13 GROUP 4 **** **** 0

# MOE 2024.06 (io_trps.svl 2023.06)
