@<TRIPOS>MOLECULE
NONAME
51 55 1 0 0 
SMALL
USER_CHARGES


@<TRIPOS>ATOM
  1 O       -0.5420     0.6090     1.2100 O.2   1 <1>  -0.5700 
  2 C       -1.6020     1.1350     0.9240 C.2   1 <1>   0.5440 
  3 N       -2.7780     0.4880     1.2440 N.am  1 <1>  -0.6600 
  4 C       -1.5920     2.4160     0.2450 C.ar  1 <1>   0.0860 
  5 C       -2.8050    -0.6840     2.1630 C.3   1 <1>   0.1400 
  6 C       -4.0780     0.7440     0.5660 C.3   1 <1>   0.1400 
  7 C       -0.8330     2.5980    -0.9160 C.ar  1 <1>  -0.1500 
  8 C       -2.3330     3.5040     0.7320 C.ar  1 <1>  -0.1500 
  9 C       -3.1880    -1.9370     1.3730 C.3   1 <1>  -0.1600 
 10 C       -4.4690    -0.4940    -0.2440 C.3   1 <1>  -0.1600 
 11 C       -0.8550     3.8230    -1.5460 C.ar  1 <1>   0.0830 
 12 C       -2.3440     4.7340     0.0880 C.ar  1 <1>  -0.1500 
 13 C       -4.5190    -1.7610     0.6280 C.3   1 <1>   0.4240 
 14 O       -0.2130     4.1970    -2.6590 O.3   1 <1>  -0.3630 
 15 C       -1.5910     4.8650    -1.0610 C.ar  1 <1>   0.0830 
 16 O       -5.4850    -1.5580     1.6340 O.3   1 <1>  -0.5600 
 17 C       -4.8290    -3.0130    -0.2220 C.ar  1 <1>  -0.1430 
 18 C       -0.5520     5.5630    -2.8890 C.3   1 <1>   0.4000 
 19 O       -1.4470     5.9340    -1.8430 O.3   1 <1>  -0.3630 
 20 C       -6.8150    -1.8210     1.3140 C.3   1 <1>   0.1200 
 21 C       -5.9910    -3.7510    -0.0210 C.ar  1 <1>  -0.1430 
 22 C       -3.9480    -3.4240    -1.2170 C.ar  1 <1>  -0.1500 
 23 C       -6.9720    -3.3150     1.0490 C.3   1 <1>  -0.0170 
 24 C       -6.2590    -4.8740    -0.7870 C.ar  1 <1>  -0.1500 
 25 C       -4.2150    -4.5430    -1.9830 C.ar  1 <1>  -0.1500 
 26 C       -5.3680    -5.2780    -1.7760 C.ar  1 <1>   0.0830 
 27 O       -5.5550    -6.3630    -2.5680 O.3   1 <1>  -0.3630 
 28 C       -6.6870    -7.1900    -2.4240 C.3   1 <1>   0.0400 
 29 H       -3.5260    -0.5050     2.9420 H     1 <1>   0.0800 
 30 H       -1.8440    -0.8260     2.6290 H     1 <1>   0.0800 
 31 H       -4.0110     1.5900    -0.0940 H     1 <1>   0.0800 
 32 H       -4.8290     0.9520     1.3090 H     1 <1>   0.0800 
 33 H       -0.2390     1.7920    -1.3100 H     1 <1>   0.1500 
 34 H       -2.9050     3.3750     1.6350 H     1 <1>   0.1500 
 35 H       -3.2640    -2.7780     2.0370 H     1 <1>   0.0800 
 36 H       -2.3950    -2.1440     0.6800 H     1 <1>   0.0800 
 37 H       -3.7410    -0.6250    -1.0240 H     1 <1>   0.0800 
 38 H       -5.4160    -0.3380    -0.7230 H     1 <1>   0.0800 
 39 H       -2.9130     5.5670     0.4610 H     1 <1>   0.1500 
 40 H       -1.0470     5.6580    -3.8400 H     1 <1>   0.0800 
 41 H        0.3350     6.1690    -2.8380 H     1 <1>   0.0800 
 42 H       -7.0950    -1.2430     0.4520 H     1 <1>   0.0800 
 43 H       -7.4210    -1.5220     2.1520 H     1 <1>   0.0800 
 44 H       -3.0420    -2.8770    -1.4050 H     1 <1>   0.1500 
 45 H       -7.9810    -3.5140     0.7350 H     1 <1>   0.0800 
 46 H       -6.7850    -3.8610     1.9560 H     1 <1>   0.0800 
 47 H       -7.1610    -5.4250    -0.6040 H     1 <1>   0.1500 
 48 H       -3.5280    -4.8560    -2.7490 H     1 <1>   0.1500 
 49 H       -6.6150    -7.9830    -3.1460 H     1 <1>   0.0800 
 50 H       -7.5720    -6.6070    -2.6080 H     1 <1>   0.0800 
 51 H       -6.6940    -7.6010    -1.4300 H     1 <1>   0.0800 
@<TRIPOS>BOND
  1   1   2  2   
  2   2   3  am  
  3   2   4  1   
  4   3   5  1   
  5   3   6  1   
  6   4   7  ar  
  7   4   8  ar  
  8   5   9  1   
  9   5  29  1   
 10   5  30  1   
 11   6  10  1   
 12   6  31  1   
 13   6  32  1   
 14   7  11  ar  
 15   7  33  1   
 16   8  12  ar  
 17   8  34  1   
 18   9  13  1   
 19   9  35  1   
 20   9  36  1   
 21  10  13  1   
 22  10  37  1   
 23  10  38  1   
 24  11  14  1   
 25  11  15  ar  
 26  12  15  ar  
 27  12  39  1   
 28  13  16  1   
 29  13  17  1   
 30  14  18  1   
 31  15  19  1   
 32  16  20  1   
 33  17  21  ar  
 34  17  22  ar  
 35  18  19  1   
 36  18  40  1   
 37  18  41  1   
 38  20  23  1   
 39  20  42  1   
 40  20  43  1   
 41  21  23  1   
 42  21  24  ar  
 43  22  25  ar  
 44  22  44  1   
 45  23  45  1   
 46  23  46  1   
 47  24  26  ar  
 48  24  47  1   
 49  25  26  ar  
 50  25  48  1   
 51  26  27  1   
 52  27  28  1   
 53  28  49  1   
 54  28  50  1   
 55  28  51  1   
@<TRIPOS>SUBSTRUCTURE
  1 ****  10 GROUP 4 **** **** 0

# MOE 2024.06 (io_trps.svl 2023.06)
