@<TRIPOS>MOLECULE
NONAME
50 52 1 0 0 
SMALL
USER_CHARGES


@<TRIPOS>ATOM
  1 O        0.5280     0.3920    -0.2480 O.3   1 <1>  -0.5600 
  2 C        0.6110     1.7770    -0.0260 C.3   1 <1>   0.2000 
  3 C        1.7250    -0.3010    -0.0420 C.3   1 <1>   0.2000 
  4 C       -0.8110     2.3720    -0.1570 C.3   1 <1>  -0.0800 
  5 C        1.6290     2.3950    -1.0120 C.3   1 <1>   0.2090 
  6 C        2.8130     0.2100    -1.0160 C.3   1 <1>   0.2090 
  7 C        1.4060    -1.7910    -0.2170 C.3   1 <1>  -0.1600 
  8 C       -0.8340     3.8900     0.0940 C.3   1 <1>  -0.2400 
  9 C       -1.7950     1.7000     0.8170 C.3   1 <1>  -0.2400 
 10 N        2.9590     1.6980    -0.9320 N.pl3 1 <1>  -0.8380 
 11 C        2.5940    -2.7080     0.1190 C.3   1 <1>  -0.1600 
 12 C        4.0880     2.3110    -0.4710 C.2   1 <1>   0.2710 
 13 C        2.1930    -4.1840     0.0180 C.3   1 <1>  -0.1600 
 14 N        3.9260     3.3170     0.4000 N.2   1 <1>  -0.6210 
 15 C        5.3380     1.9170    -0.8830 C.2   1 <1>  -0.1410 
 16 C        3.3760    -5.1000     0.3450 C.3   1 <1>  -0.2400 
 17 C        4.9750     3.9160     0.8610 C.2   1 <1>   0.9190 
 18 C        6.4150     2.5930    -0.3650 C.cat 1 <1>   0.7910 
 19 N        6.2350     3.5840     0.5050 N.pl3 1 <1>  -0.6690 
 20 N        4.7940     4.9070     1.7290 N.pl3 1 <1>  -0.8500 
 21 N        7.7410     2.4850    -0.5470 N.pl3 1 <1>  -0.3930 
 22 C        7.4910     4.0410     0.8150 C.2   1 <1>   0.5030 
 23 N        8.4140     3.4010     0.2000 N.2   1 <1>  -0.2600 
 24 H        0.9620     1.9320     0.9790 H     1 <1>   0.0800 
 25 H        2.0390    -0.1220     0.9730 H     1 <1>   0.0800 
 26 H       -1.1560     2.1940    -1.1620 H     1 <1>   0.0800 
 27 H        1.7480     3.4420    -0.8040 H     1 <1>   0.0800 
 28 H        1.2450     2.3050    -2.0120 H     1 <1>   0.0800 
 29 H        2.5420    -0.0640    -2.0210 H     1 <1>   0.0800 
 30 H        3.7450    -0.2660    -0.7780 H     1 <1>   0.0800 
 31 H        0.5870    -2.0340     0.4380 H     1 <1>   0.0800 
 32 H        1.0880    -1.9680    -1.2290 H     1 <1>   0.0800 
 33 H       -0.4270     4.1190     1.0640 H     1 <1>   0.0800 
 34 H       -1.8440     4.2570     0.0540 H     1 <1>   0.0800 
 35 H       -0.2690     4.4160    -0.6540 H     1 <1>   0.0800 
 36 H       -1.4720     1.8330     1.8340 H     1 <1>   0.0800 
 37 H       -1.8600     0.6450     0.6150 H     1 <1>   0.0800 
 38 H       -2.7790     2.1190     0.7080 H     1 <1>   0.0800 
 39 H        3.4070    -2.5240    -0.5610 H     1 <1>   0.0800 
 40 H        2.9350    -2.5020     1.1200 H     1 <1>   0.0800 
 41 H        1.3880    -4.3890     0.7040 H     1 <1>   0.0800 
 42 H        1.8430    -4.3990    -0.9780 H     1 <1>   0.0800 
 43 H        5.4650     1.1240    -1.5910 H     1 <1>   0.1500 
 44 H        3.7260    -4.9200     1.3460 H     1 <1>   0.0800 
 45 H        4.1860    -4.9310    -0.3430 H     1 <1>   0.0800 
 46 H        3.0740    -6.1300     0.2690 H     1 <1>   0.0800 
 47 H        3.8320     5.1350     1.9870 H     1 <1>   0.4000 
 48 H        5.5160     5.4560     2.1840 H     1 <1>   0.4000 
 49 H        8.2100     1.8130    -1.1660 H     1 <1>   0.4500 
 50 H        7.6600     4.8540     1.5040 H     1 <1>   0.1500 
@<TRIPOS>BOND
  1   1   2  1   
  2   1   3  1   
  3   2   4  1   
  4   2   5  1   
  5   2  24  1   
  6   3   6  1   
  7   3   7  1   
  8   3  25  1   
  9   4   8  1   
 10   4   9  1   
 11   4  26  1   
 12   5  10  1   
 13   5  27  1   
 14   5  28  1   
 15   6  10  1   
 16   6  29  1   
 17   6  30  1   
 18   7  11  1   
 19   7  31  1   
 20   7  32  1   
 21   8  33  1   
 22   8  34  1   
 23   8  35  1   
 24   9  36  1   
 25   9  37  1   
 26   9  38  1   
 27  10  12  1   
 28  11  13  1   
 29  11  39  1   
 30  11  40  1   
 31  12  14  1   
 32  12  15  2   
 33  13  16  1   
 34  13  41  1   
 35  13  42  1   
 36  14  17  2   
 37  15  18  1   
 38  15  43  1   
 39  16  44  1   
 40  16  45  1   
 41  16  46  1   
 42  17  19  1   
 43  17  20  1   
 44  18  19  ar  
 45  18  21  ar  
 46  19  22  1   
 47  20  47  1   
 48  20  48  1   
 49  21  23  1   
 50  21  49  1   
 51  22  23  2   
 52  22  50  1   
@<TRIPOS>SUBSTRUCTURE
  1 ****  10 GROUP 4 **** **** 0

# MOE 2024.06 (io_trps.svl 2023.06)
