@<TRIPOS>MOLECULE
NONAME
52 55 1 0 0 
SMALL
USER_CHARGES


@<TRIPOS>ATOM
  1 F        1.4320    -1.1160     0.2960 F     1 <1>  -0.3400 
  2 C        0.4660    -1.4930    -0.5330 C.3   1 <1>   1.1640 
  3 F        0.8150    -1.0650    -1.7370 F     1 <1>  -0.3400 
  4 F       -0.6170    -0.8150    -0.1830 F     1 <1>  -0.3400 
  5 C        0.2290    -3.0160    -0.5070 C.ar  1 <1>  -0.1440 
  6 C        0.9750    -3.8780     0.2710 C.ar  1 <1>  -0.1500 
  7 C       -0.7750    -3.5630    -1.3150 C.ar  1 <1>  -0.1500 
  8 C        0.7380    -5.2620     0.2730 C.ar  1 <1>   0.3610 
  9 C       -1.0300    -4.9100    -1.3080 C.ar  1 <1>  -0.1500 
 10 N        1.5620    -6.1110     0.9770 N.ar  1 <1>  -0.1790 
 11 C       -0.3230    -5.8010    -0.4800 C.ar  1 <1>   0.0000 
 12 C        1.3960    -7.4450     0.9700 C.ar  1 <1>   0.2180 
 13 C       -0.5830    -7.2090    -0.4060 C.ar  1 <1>   0.1000 
 14 C        0.3430    -7.9930     0.2850 C.ar  1 <1>  -0.1500 
 15 C        2.3800    -8.3060     1.7430 C.3   1 <1>  -0.0970 
 16 N       -1.6920    -7.7910    -0.9300 N.pl3 1 <1>  -0.8380 
 17 C       -1.7030    -9.1510    -1.5460 C.3   1 <1>   0.2090 
 18 C       -3.0670    -7.2380    -0.7450 C.3   1 <1>   0.2090 
 19 C       -2.4910   -10.1210    -0.6630 C.3   1 <1>  -0.1600 
 20 C       -3.8800    -8.1790     0.1490 C.3   1 <1>  -0.1600 
 21 C       -3.9270    -9.6170    -0.4050 C.3   1 <1>  -0.0800 
 22 C       -4.7570   -10.5510     0.5090 C.3   1 <1>   0.3430 
 23 O       -4.1370   -10.6790     1.7410 O.3   1 <1>  -0.6800 
 24 C       -4.9450   -11.9580    -0.0790 C.ar  1 <1>   0.1670 
 25 N       -4.0600   -12.8980     0.2540 N.ar  1 <1>  -0.6200 
 26 C       -6.0240   -12.1870    -0.9220 C.ar  1 <1>  -0.1500 
 27 C       -4.2630   -14.0950    -0.2740 C.ar  1 <1>   0.1600 
 28 C       -6.2200   -13.4390    -1.4640 C.ar  1 <1>  -0.1500 
 29 C       -5.3080   -14.4130    -1.1240 C.ar  1 <1>  -0.1500 
 30 H        1.7660    -3.4890     0.8900 H     1 <1>   0.1500 
 31 H       -1.3530    -2.9150    -1.9570 H     1 <1>   0.1500 
 32 H       -1.7880    -5.3020    -1.9640 H     1 <1>   0.1500 
 33 H        2.3350    -5.6980     1.5010 H     1 <1>   0.4570 
 34 H        0.1970    -9.0570     0.3100 H     1 <1>   0.1500 
 35 H        3.3780    -8.1710     1.3640 H     1 <1>   0.0800 
 36 H        2.1260    -9.3480     1.6500 H     1 <1>   0.0800 
 37 H        2.3620    -8.0520     2.7880 H     1 <1>   0.0800 
 38 H       -0.6990    -9.5110    -1.6880 H     1 <1>   0.0800 
 39 H       -2.1650    -9.0910    -2.5170 H     1 <1>   0.0800 
 40 H       -3.5440    -7.1310    -1.7040 H     1 <1>   0.0800 
 41 H       -3.0260    -6.2720    -0.2720 H     1 <1>   0.0800 
 42 H       -1.9710   -10.2440     0.2700 H     1 <1>   0.0800 
 43 H       -2.5190   -11.0790    -1.1490 H     1 <1>   0.0800 
 44 H       -4.8790    -7.7930     0.2450 H     1 <1>   0.0800 
 45 H       -3.4370    -8.1800     1.1300 H     1 <1>   0.0800 
 46 H       -4.4320    -9.5800    -1.3540 H     1 <1>   0.0800 
 47 H       -5.7210   -10.1100     0.6890 H     1 <1>   0.0800 
 48 H       -3.7460   -11.5830     1.7310 H     1 <1>   0.4000 
 49 H       -6.7100   -11.3920    -1.1550 H     1 <1>   0.1500 
 50 H       -3.5580   -14.8670    -0.0150 H     1 <1>   0.1500 
 51 H       -7.0470   -13.6470    -2.1220 H     1 <1>   0.1500 
 52 H       -5.4030   -15.4110    -1.5120 H     1 <1>   0.1500 
@<TRIPOS>BOND
  1   1   2  1   
  2   2   3  1   
  3   2   4  1   
  4   2   5  1   
  5   5   6  ar  
  6   5   7  ar  
  7   6   8  ar  
  8   6  30  1   
  9   7   9  ar  
 10   7  31  1   
 11   8  10  ar  
 12   8  11  ar  
 13   9  11  ar  
 14   9  32  1   
 15  10  12  ar  
 16  10  33  1   
 17  11  13  ar  
 18  12  14  ar  
 19  12  15  1   
 20  13  14  ar  
 21  13  16  1   
 22  14  34  1   
 23  15  35  1   
 24  15  36  1   
 25  15  37  1   
 26  16  17  1   
 27  16  18  1   
 28  17  19  1   
 29  17  38  1   
 30  17  39  1   
 31  18  20  1   
 32  18  40  1   
 33  18  41  1   
 34  19  21  1   
 35  19  42  1   
 36  19  43  1   
 37  20  21  1   
 38  20  44  1   
 39  20  45  1   
 40  21  22  1   
 41  21  46  1   
 42  22  23  1   
 43  22  24  1   
 44  22  47  1   
 45  23  48  1   
 46  24  25  ar  
 47  24  26  ar  
 48  25  27  ar  
 49  26  28  ar  
 50  26  49  1   
 51  27  29  ar  
 52  27  50  1   
 53  28  29  ar  
 54  28  51  1   
 55  29  52  1   
@<TRIPOS>SUBSTRUCTURE
  1 ****  16 GROUP 4 **** **** 0

# MOE 2024.06 (io_trps.svl 2023.06)
