@<TRIPOS>MOLECULE
NONAME
44 46 1 0 0 
SMALL
USER_CHARGES


@<TRIPOS>ATOM
  1 CL       1.2280     0.3950    -1.5370 Cl    1 <1>  -0.1770 
  2 C        0.5890     1.7240    -0.5950 C.ar  1 <1>   0.1770 
  3 C        1.3810     2.4270     0.3090 C.ar  1 <1>  -0.1440 
  4 C       -0.7410     2.0470    -0.7920 C.ar  1 <1>  -0.1500 
  5 C        0.7970     3.4740     1.0120 C.ar  1 <1>  -0.1500 
  6 C        2.8530     2.1070     0.5610 C.3   1 <1>   0.3640 
  7 C       -1.3070     3.0900    -0.0810 C.ar  1 <1>  -0.1500 
  8 C       -0.5350     3.8020     0.8190 C.ar  1 <1>  -0.1500 
  9 N        2.9810     0.7150     1.0530 N.am  1 <1>  -0.7300 
 10 C        3.7520     2.3990    -0.6690 C.3   1 <1>   0.2610 
 11 C        3.8860    -0.1650     0.5680 C.2   1 <1>   0.5690 
 12 O        4.9740     1.6740    -0.6210 O.3   1 <1>  -0.5600 
 13 C        3.9630     3.9150    -0.7890 C.2   1 <1>   0.5690 
 14 O        3.9600    -1.2800     1.0180 O.2   1 <1>  -0.5700 
 15 C        4.8100     0.2730    -0.5710 C.3   1 <1>   0.1810 
 16 O        3.3200     4.4720    -1.6500 O.2   1 <1>  -0.5700 
 17 N        4.7970     4.6340     0.0460 N.am  1 <1>  -0.6600 
 18 C        5.6840     4.0620     1.0990 C.3   1 <1>   0.1400 
 19 C        5.0380     6.0880    -0.1830 C.3   1 <1>   0.1400 
 20 C        7.1450     4.2310     0.6730 C.3   1 <1>  -0.1600 
 21 C        6.4930     6.2970    -0.6180 C.3   1 <1>  -0.1600 
 22 C        7.4830     5.7050     0.3990 C.3   1 <1>  -0.0800 
 23 C        8.9230     5.8440    -0.1060 C.3   1 <1>  -0.2400 
 24 H       -1.3260     1.4850    -1.4970 H     1 <1>   0.1500 
 25 H        1.3730     4.0510     1.7160 H     1 <1>   0.1500 
 26 H        3.1920     2.7430     1.3590 H     1 <1>   0.0800 
 27 H       -2.3420     3.3480    -0.2300 H     1 <1>   0.1500 
 28 H       -0.9720     4.6180     1.3700 H     1 <1>   0.1500 
 29 H        2.3240     0.3960     1.7660 H     1 <1>   0.3700 
 30 H        3.2460     2.0860    -1.5630 H     1 <1>   0.0800 
 31 H        4.4050    -0.0570    -1.5110 H     1 <1>   0.0800 
 32 H        5.7800    -0.1670    -0.4350 H     1 <1>   0.0800 
 33 H        5.5160     4.5910     2.0220 H     1 <1>   0.0800 
 34 H        5.4780     3.0240     1.2770 H     1 <1>   0.0800 
 35 H        4.3780     6.4750    -0.9410 H     1 <1>   0.0800 
 36 H        4.8460     6.6250     0.7290 H     1 <1>   0.0800 
 37 H        7.7840     3.8490     1.4500 H     1 <1>   0.0800 
 38 H        7.3140     3.6400    -0.2110 H     1 <1>   0.0800 
 39 H        6.6300     5.8330    -1.5790 H     1 <1>   0.0800 
 40 H        6.6760     7.3500    -0.7340 H     1 <1>   0.0800 
 41 H        7.3920     6.2540     1.3220 H     1 <1>   0.0800 
 42 H        9.0540     5.3080    -1.0290 H     1 <1>   0.0800 
 43 H        9.6130     5.4510     0.6200 H     1 <1>   0.0800 
 44 H        9.1620     6.8790    -0.2730 H     1 <1>   0.0800 
@<TRIPOS>BOND
  1   1   2  1   
  2   2   3  ar  
  3   2   4  ar  
  4   3   5  ar  
  5   3   6  1   
  6   4   7  ar  
  7   4  24  1   
  8   5   8  ar  
  9   5  25  1   
 10   6   9  1   
 11   6  10  1   
 12   6  26  1   
 13   7   8  ar  
 14   7  27  1   
 15   8  28  1   
 16   9  11  am  
 17   9  29  1   
 18  10  12  1   
 19  10  13  1   
 20  10  30  1   
 21  11  14  2   
 22  11  15  1   
 23  12  15  1   
 24  13  16  2   
 25  13  17  am  
 26  15  31  1   
 27  15  32  1   
 28  17  18  1   
 29  17  19  1   
 30  18  20  1   
 31  18  33  1   
 32  18  34  1   
 33  19  21  1   
 34  19  35  1   
 35  19  36  1   
 36  20  22  1   
 37  20  37  1   
 38  20  38  1   
 39  21  22  1   
 40  21  39  1   
 41  21  40  1   
 42  22  23  1   
 43  22  41  1   
 44  23  42  1   
 45  23  43  1   
 46  23  44  1   
@<TRIPOS>SUBSTRUCTURE
  1 ****  10 GROUP 4 **** **** 0

# MOE 2024.06 (io_trps.svl 2023.06)
