@<TRIPOS>MOLECULE
NONAME
51 53 1 0 0 
SMALL
USER_CHARGES


@<TRIPOS>ATOM
  1 O       -1.1550     0.4810    -2.3770 O.2   1 <1>  -0.5700 
  2 C       -1.3720     1.3820    -1.6060 C.2   1 <1>   0.5690 
  3 N       -2.1780     1.3170    -0.5260 N.am  1 <1>  -0.6600 
  4 C       -0.7650     2.7480    -1.7460 C.3   1 <1>  -0.0990 
  5 C       -2.2710     2.6040     0.1870 C.3   1 <1>   0.1400 
  6 C       -3.0650     0.1760    -0.2020 C.3   1 <1>   0.2840 
  7 C       -1.1280     3.4370    -0.4150 C.3   1 <1>  -0.0190 
  8 C       -4.5080     0.6510    -0.1160 C.ar  1 <1>  -0.1440 
  9 C       -1.5130     4.8980    -0.5810 C.2   1 <1>   0.5690 
 10 C       -5.1500     1.2010    -1.2080 C.ar  1 <1>  -0.1500 
 11 C       -5.2450     0.5690     1.0490 C.ar  1 <1>  -0.1500 
 12 O       -2.5000     5.1620    -1.2220 O.2   1 <1>  -0.5700 
 13 N       -0.7160     5.8440     0.0010 N.am  1 <1>  -0.4940 
 14 C       -6.4580     1.6380    -1.0840 C.ar  1 <1>   0.1600 
 15 C       -6.5500     1.0350     1.0650 C.ar  1 <1>   0.1600 
 16 C       -0.7980     7.2590     0.0070 C.2   1 <1>  -0.0880 
 17 N       -7.1720     1.5710     0.0280 N.ar  1 <1>  -0.6200 
 18 N       -1.9160     8.0410    -0.0090 N.pl3 1 <1>   0.3140 
 19 C        0.2570     8.1090     0.0640 C.2   1 <1>  -0.1810 
 20 N       -1.5980     9.3520     0.0410 N.2   1 <1>  -0.7070 
 21 C       -3.3300     7.6450     0.0180 C.3   1 <1>   0.0160 
 22 C       -0.3040     9.3840     0.0800 C.2   1 <1>   0.1080 
 23 C        1.7360     7.7620     0.0950 C.3   1 <1>   0.0210 
 24 C        0.4560    10.6970     0.1350 C.3   1 <1>   0.0210 
 25 C        2.2260     7.6250     1.5380 C.3   1 <1>  -0.2400 
 26 C        0.7850    11.2050    -1.2730 C.3   1 <1>  -0.2400 
 27 H       -1.2220     3.2380    -2.5870 H     1 <1>   0.0800 
 28 H        0.2970     2.6810    -1.8920 H     1 <1>   0.0800 
 29 H       -2.1470     2.4660     1.2470 H     1 <1>   0.0800 
 30 H       -3.2300     3.0530    -0.0130 H     1 <1>   0.0800 
 31 H       -2.7550    -0.2560     0.7330 H     1 <1>   0.0800 
 32 H       -2.9800    -0.5800    -0.9650 H     1 <1>   0.0800 
 33 H       -0.2870     3.3580     0.2500 H     1 <1>   0.0800 
 34 H       -4.6380     1.2960    -2.1490 H     1 <1>   0.1500 
 35 H       -4.8210     0.1510     1.9430 H     1 <1>   0.1500 
 36 H        0.1430     5.4950     0.4230 H     1 <1>   0.3700 
 37 H       -6.9400     2.0670    -1.9460 H     1 <1>   0.1500 
 38 H       -7.1120     0.9640     1.9810 H     1 <1>   0.1500 
 39 H       -3.4460     6.7710     0.6290 H     1 <1>   0.0800 
 40 H       -3.6530     7.4380    -0.9850 H     1 <1>   0.0800 
 41 H       -3.9140     8.4500     0.4240 H     1 <1>   0.0800 
 42 H        2.2980     8.5270    -0.4110 H     1 <1>   0.0800 
 43 H        1.9000     6.8400    -0.4330 H     1 <1>   0.0800 
 44 H        1.3600    10.5710     0.7010 H     1 <1>   0.0800 
 45 H       -0.1520    11.4240     0.6440 H     1 <1>   0.0800 
 46 H        2.0840     8.5510     2.0670 H     1 <1>   0.0800 
 47 H        3.2710     7.3750     1.5540 H     1 <1>   0.0800 
 48 H        1.6750     6.8550     2.0480 H     1 <1>   0.0800 
 49 H        1.3960    10.4910    -1.7950 H     1 <1>   0.0800 
 50 H        1.3080    12.1420    -1.2180 H     1 <1>   0.0800 
 51 H       -0.1270    11.3470    -1.8270 H     1 <1>   0.0800 
@<TRIPOS>BOND
  1   1   2  2   
  2   2   3  am  
  3   2   4  1   
  4   3   5  1   
  5   3   6  1   
  6   4   7  1   
  7   4  27  1   
  8   4  28  1   
  9   5   7  1   
 10   5  29  1   
 11   5  30  1   
 12   6   8  1   
 13   6  31  1   
 14   6  32  1   
 15   7   9  1   
 16   7  33  1   
 17   8  10  ar  
 18   8  11  ar  
 19   9  12  2   
 20   9  13  am  
 21  10  14  ar  
 22  10  34  1   
 23  11  15  ar  
 24  11  35  1   
 25  13  16  1   
 26  13  36  1   
 27  14  17  ar  
 28  14  37  1   
 29  15  17  ar  
 30  15  38  1   
 31  16  18  1   
 32  16  19  2   
 33  18  20  1   
 34  18  21  1   
 35  19  22  1   
 36  19  23  1   
 37  20  22  2   
 38  21  39  1   
 39  21  40  1   
 40  21  41  1   
 41  22  24  1   
 42  23  25  1   
 43  23  42  1   
 44  23  43  1   
 45  24  26  1   
 46  24  44  1   
 47  24  45  1   
 48  25  46  1   
 49  25  47  1   
 50  25  48  1   
 51  26  49  1   
 52  26  50  1   
 53  26  51  1   
@<TRIPOS>SUBSTRUCTURE
  1 ****   9 GROUP 4 **** **** 0

# MOE 2024.06 (io_trps.svl 2023.06)
