@<TRIPOS>MOLECULE
NONAME
43 43 1 0 0 
SMALL
USER_CHARGES


@<TRIPOS>ATOM
  1 O        0.5570    -0.9270     1.7450 O.2   1 <1>  -0.5700 
  2 C        1.2700    -1.1550     0.7950 C.2   1 <1>   0.5690 
  3 N        1.7760    -0.1580     0.0220 N.am  1 <1>  -0.7300 
  4 C        1.5750    -2.6310     0.4840 C.3   1 <1>   0.4040 
  5 C        1.5720     1.2770     0.2780 C.3   1 <1>   0.2780 
  6 N        0.5350    -3.5730     1.0540 N.4   1 <1>  -0.9590 
  7 C        2.8640     1.9700    -0.0890 C.2   1 <1>  -0.2880 
  8 C        1.0840    -4.9540     1.2780 C.3   1 <1>   0.4230 
  9 C       -0.6960    -3.5000     0.2000 C.3   1 <1>   0.2630 
 10 C        3.0260     2.8130    -1.1140 C.2   1 <1>  -0.3000 
 11 C        0.0130    -6.0380     1.5290 C.3   1 <1>  -0.0170 
 12 C        2.0210    -4.8880     2.4880 C.3   1 <1>  -0.2400 
 13 C       -0.7190    -6.4630     0.2670 C.ar  1 <1>   0.1670 
 14 N       -0.0260    -6.4180    -0.8610 N.ar  1 <1>  -0.6200 
 15 C       -2.0430    -6.8660     0.3510 C.ar  1 <1>  -0.1500 
 16 C       -0.6780    -6.8090    -1.9470 C.ar  1 <1>   0.1600 
 17 C       -2.7160    -7.2540    -0.7890 C.ar  1 <1>  -0.1430 
 18 C       -1.9980    -7.2230    -1.9650 C.ar  1 <1>  -0.1500 
 19 C       -4.1650    -7.7070    -0.7520 C.3   1 <1>  -0.0970 
 20 H        2.3870    -0.3270    -0.7810 H     1 <1>   0.3700 
 21 H        2.5400    -2.8500     0.9030 H     1 <1>   0.0800 
 22 H        1.6390    -2.7620    -0.5820 H     1 <1>   0.0800 
 23 H        1.3310     1.4530     1.3140 H     1 <1>   0.0800 
 24 H        0.7630     1.6400    -0.3340 H     1 <1>   0.0800 
 25 H        0.2870    -3.1620     1.9700 H     1 <1>   0.4500 
 26 H        3.6690     1.7140     0.5790 H     1 <1>   0.1500 
 27 H        1.6550    -5.2550     0.4130 H     1 <1>   0.0800 
 28 H       -0.5030    -3.9230    -0.7730 H     1 <1>   0.0800 
 29 H       -1.0100    -2.4760     0.0810 H     1 <1>   0.0800 
 30 H       -1.5030    -4.0490     0.6550 H     1 <1>   0.0800 
 31 H        3.9590     3.2970    -1.3510 H     1 <1>   0.1500 
 32 H        2.2470     3.0980    -1.8020 H     1 <1>   0.1500 
 33 H       -0.6780    -5.7110     2.2840 H     1 <1>   0.0800 
 34 H        0.5000    -6.9220     1.9000 H     1 <1>   0.0800 
 35 H        1.4900    -4.5750     3.3690 H     1 <1>   0.0800 
 36 H        2.8520    -4.2300     2.3190 H     1 <1>   0.0800 
 37 H        2.4340    -5.8640     2.6800 H     1 <1>   0.0800 
 38 H       -2.5490    -6.8850     1.2990 H     1 <1>   0.1500 
 39 H       -0.1330    -6.8010    -2.8760 H     1 <1>   0.1500 
 40 H       -2.4520    -7.5230    -2.8920 H     1 <1>   0.1500 
 41 H       -4.6880    -7.2420     0.0650 H     1 <1>   0.0800 
 42 H       -4.2090    -8.7750    -0.6280 H     1 <1>   0.0800 
 43 H       -4.6640    -7.4450    -1.6680 H     1 <1>   0.0800 
@<TRIPOS>BOND
  1   1   2  2   
  2   2   3  am  
  3   2   4  1   
  4   3   5  1   
  5   3  20  1   
  6   4   6  1   
  7   4  21  1   
  8   4  22  1   
  9   5   7  1   
 10   5  23  1   
 11   5  24  1   
 12   6   8  1   
 13   6   9  1   
 14   6  25  1   
 15   7  10  2   
 16   7  26  1   
 17   8  11  1   
 18   8  12  1   
 19   8  27  1   
 20   9  28  1   
 21   9  29  1   
 22   9  30  1   
 23  10  31  1   
 24  10  32  1   
 25  11  13  1   
 26  11  33  1   
 27  11  34  1   
 28  12  35  1   
 29  12  36  1   
 30  12  37  1   
 31  13  14  ar  
 32  13  15  ar  
 33  14  16  ar  
 34  15  17  ar  
 35  15  38  1   
 36  16  18  ar  
 37  16  39  1   
 38  17  18  ar  
 39  17  19  1   
 40  18  40  1   
 41  19  41  1   
 42  19  42  1   
 43  19  43  1   
@<TRIPOS>SUBSTRUCTURE
  1 ****   9 GROUP 4 **** **** 0

# MOE 2024.06 (io_trps.svl 2023.06)
