@<TRIPOS>MOLECULE
NONAME
38 40 1 0 0 
SMALL
USER_CHARGES


@<TRIPOS>ATOM
  1 O       -0.0380    -0.0090     1.1220 O.3   1 <1>  -0.5600 
  2 C        0.7760     0.4530     0.0840 C.3   1 <1>   0.1200 
  3 C       -1.3800     0.2760     0.8510 C.3   1 <1>   0.1200 
  4 C        0.0250     1.6240    -0.5360 C.3   1 <1>   0.2890 
  5 C       -1.4080     1.1200    -0.4270 C.3   1 <1>  -0.0800 
  6 N        0.2440     2.8280     0.3070 N.pl3 1 <1>  -0.8690 
  7 C       -2.5100     2.1950    -0.4490 C.3   1 <1>  -0.0170 
  8 C        0.2100     4.1380    -0.1360 C.ar  1 <1>   0.4100 
  9 C       -3.8920     1.5620    -0.3840 C.ar  1 <1>  -0.1440 
 10 N       -0.0010     4.3050    -1.4350 N.ar  1 <1>  -0.6200 
 11 C        0.3740     5.2250     0.7540 C.ar  1 <1>   0.1670 
 12 C       -4.4890     1.0060    -1.4970 C.ar  1 <1>  -0.1500 
 13 C       -4.6190     1.5100     0.7880 C.ar  1 <1>  -0.1500 
 14 C       -0.0380     5.5790    -1.7850 C.ar  1 <1>   0.1600 
 15 N        0.3280     6.4940     0.3950 N.ar  1 <1>  -0.6200 
 16 C        0.6210     4.9730     2.2320 C.3   1 <1>  -0.0970 
 17 C       -5.7460     0.4360    -1.3870 C.ar  1 <1>   0.1600 
 18 C       -5.8700     0.9160     0.7900 C.ar  1 <1>   0.1600 
 19 C        0.1190     6.6380    -0.9040 C.ar  1 <1>   0.1600 
 20 N       -6.4500     0.3750    -0.2690 N.ar  1 <1>  -0.6200 
 21 H        1.7380     0.7370     0.4720 H     1 <1>   0.0800 
 22 H        0.8870    -0.3460    -0.6280 H     1 <1>   0.0800 
 23 H       -1.9200    -0.6480     0.7330 H     1 <1>   0.0800 
 24 H       -1.7710     0.8210     1.6930 H     1 <1>   0.0800 
 25 H        0.3300     1.8030    -1.5530 H     1 <1>   0.0800 
 26 H       -1.5810     0.4490    -1.2490 H     1 <1>   0.0800 
 27 H        0.2490     2.6320     1.3100 H     1 <1>   0.4000 
 28 H       -2.4260     2.7730    -1.3530 H     1 <1>   0.0800 
 29 H       -2.3910     2.8740     0.3770 H     1 <1>   0.0800 
 30 H       -3.9880     1.0130    -2.4480 H     1 <1>   0.1500 
 31 H       -4.2270     1.9250     1.6980 H     1 <1>   0.1500 
 32 H       -0.2020     5.7950    -2.8250 H     1 <1>   0.1500 
 33 H       -0.2570     4.5440     2.6790 H     1 <1>   0.0800 
 34 H        0.8500     5.8940     2.7380 H     1 <1>   0.0800 
 35 H        1.4520     4.3020     2.3570 H     1 <1>   0.0800 
 36 H       -6.1960     0.0070    -2.2660 H     1 <1>   0.1500 
 37 H       -6.4230     0.8840     1.7140 H     1 <1>   0.1500 
 38 H        0.0710     7.6430    -1.2840 H     1 <1>   0.1500 
@<TRIPOS>BOND
  1   1   2  1   
  2   1   3  1   
  3   2   4  1   
  4   2  21  1   
  5   2  22  1   
  6   3   5  1   
  7   3  23  1   
  8   3  24  1   
  9   4   5  1   
 10   4   6  1   
 11   4  25  1   
 12   5   7  1   
 13   5  26  1   
 14   6   8  1   
 15   6  27  1   
 16   7   9  1   
 17   7  28  1   
 18   7  29  1   
 19   8  10  ar  
 20   8  11  ar  
 21   9  12  ar  
 22   9  13  ar  
 23  10  14  ar  
 24  11  15  ar  
 25  11  16  1   
 26  12  17  ar  
 27  12  30  1   
 28  13  18  ar  
 29  13  31  1   
 30  14  19  ar  
 31  14  32  1   
 32  15  19  ar  
 33  16  33  1   
 34  16  34  1   
 35  16  35  1   
 36  17  20  ar  
 37  17  36  1   
 38  18  20  ar  
 39  18  37  1   
 40  19  38  1   
@<TRIPOS>SUBSTRUCTURE
  1 ****   7 GROUP 4 **** **** 0

# MOE 2024.06 (io_trps.svl 2023.06)
