@<TRIPOS>MOLECULE
NONAME
52 56 1 0 0 
SMALL
USER_CHARGES


@<TRIPOS>ATOM
  1 N       -0.1570    -0.2100    -0.4010 N.ar  1 <1>  -0.6200 
  2 C        0.9980     0.3870    -0.1460 C.ar  1 <1>   0.7710 
  3 C       -0.2660    -1.5040    -0.1790 C.ar  1 <1>   0.4100 
  4 N        2.0430    -0.2970     0.3540 N.ar  1 <1>  -0.1790 
  5 N        1.1370     1.7210    -0.3840 N.pl3 1 <1>  -0.8380 
  6 N       -1.4520    -2.0900    -0.4740 N.pl3 1 <1>  -0.8380 
  7 C        0.8030    -2.2450     0.3590 C.ar  1 <1>  -0.1500 
  8 C        1.9750    -1.6210     0.6250 C.ar  1 <1>   0.2180 
  9 C        2.3780     2.5450    -0.2400 C.3   1 <1>   0.2090 
 10 C       -0.0230     2.5690    -0.8200 C.3   1 <1>   0.2090 
 11 C       -1.6180    -3.5230    -0.8910 C.3   1 <1>   0.3900 
 12 C       -2.7650    -1.3990    -0.2290 C.3   1 <1>   0.2090 
 13 C        3.1890    -2.3190     1.2120 C.3   1 <1>  -0.0970 
 14 C        2.1580     3.5930     0.8550 C.3   1 <1>  -0.1600 
 15 C       -0.2960     3.6310     0.2500 C.3   1 <1>  -0.1600 
 16 C       -2.5420    -4.2020     0.1010 C.2   1 <1>  -0.1810 
 17 C       -3.4970    -2.0290     0.9760 C.3   1 <1>   0.0200 
 18 C        0.9480     4.4840     0.5400 C.3   1 <1>  -0.1600 
 19 C       -2.7440    -5.5490     0.3780 C.2   1 <1>   0.2030 
 20 C       -3.3790    -3.5440     0.9240 C.2   1 <1>  -0.3320 
 21 N       -3.6370    -5.7190     1.3070 N.2   1 <1>  -0.7070 
 22 C       -2.0320    -6.7020    -0.3070 C.3   1 <1>  -0.0140 
 23 N       -4.0290    -4.4750     1.6490 N.pl3 1 <1>   0.3000 
 24 C       -1.3940    -7.7800     0.5160 C.3   1 <1>  -0.2000 
 25 C       -0.5380    -6.8230    -0.2500 C.3   1 <1>  -0.2000 
 26 H        2.8710     0.2500     0.5380 H     1 <1>   0.4570 
 27 H        0.6610    -3.2880     0.5700 H     1 <1>   0.1500 
 28 H        2.5780     3.0450    -1.1740 H     1 <1>   0.0800 
 29 H        3.2390     1.9490    -0.0030 H     1 <1>   0.0800 
 30 H       -0.9170     1.9910    -0.9780 H     1 <1>   0.0800 
 31 H        0.2180     3.0480    -1.7550 H     1 <1>   0.0800 
 32 H       -0.6740    -4.0310    -0.9390 H     1 <1>   0.0800 
 33 H       -2.0640    -3.5570    -1.8700 H     1 <1>   0.0800 
 34 H       -3.3770    -1.5050    -1.1090 H     1 <1>   0.0800 
 35 H       -2.6250    -0.3470    -0.0520 H     1 <1>   0.0800 
 36 H        3.4580    -1.8780     2.1550 H     1 <1>   0.0800 
 37 H        4.0250    -2.2500     0.5390 H     1 <1>   0.0800 
 38 H        2.9790    -3.3620     1.3780 H     1 <1>   0.0800 
 39 H        3.0370     4.2080     0.9440 H     1 <1>   0.0800 
 40 H        2.0070     3.0990     1.7990 H     1 <1>   0.0800 
 41 H       -0.6210     3.1400     1.1510 H     1 <1>   0.0800 
 42 H       -1.0980     4.2670    -0.0800 H     1 <1>   0.0800 
 43 H       -4.5300    -1.7300     0.9600 H     1 <1>   0.0800 
 44 H       -3.0530    -1.6660     1.8860 H     1 <1>   0.0800 
 45 H        1.1680     5.0930    -0.3210 H     1 <1>   0.0800 
 46 H        0.7520     5.1440     1.3690 H     1 <1>   0.0800 
 47 H       -2.5430    -7.0190    -1.1990 H     1 <1>   0.1000 
 48 H       -4.7350    -4.3040     2.3750 H     1 <1>   0.2700 
 49 H       -1.4850    -8.7970     0.1780 H     1 <1>   0.1000 
 50 H       -1.4660    -7.6940     1.5870 H     1 <1>   0.1000 
 51 H        0.0310    -6.1070     0.3160 H     1 <1>   0.1000 
 52 H       -0.0130    -7.1830    -1.1170 H     1 <1>   0.1000 
@<TRIPOS>BOND
  1   1   2  ar  
  2   1   3  ar  
  3   2   4  ar  
  4   2   5  1   
  5   3   6  1   
  6   3   7  ar  
  7   4   8  ar  
  8   4  26  1   
  9   5   9  1   
 10   5  10  1   
 11   6  11  1   
 12   6  12  1   
 13   7   8  ar  
 14   7  27  1   
 15   8  13  1   
 16   9  14  1   
 17   9  28  1   
 18   9  29  1   
 19  10  15  1   
 20  10  30  1   
 21  10  31  1   
 22  11  16  1   
 23  11  32  1   
 24  11  33  1   
 25  12  17  1   
 26  12  34  1   
 27  12  35  1   
 28  13  36  1   
 29  13  37  1   
 30  13  38  1   
 31  14  18  1   
 32  14  39  1   
 33  14  40  1   
 34  15  18  1   
 35  15  41  1   
 36  15  42  1   
 37  16  19  1   
 38  16  20  2   
 39  17  20  1   
 40  17  43  1   
 41  17  44  1   
 42  18  45  1   
 43  18  46  1   
 44  19  21  2   
 45  19  22  1   
 46  20  23  1   
 47  21  23  1   
 48  22  24  1   
 49  22  25  1   
 50  22  47  1   
 51  23  48  1   
 52  24  25  1   
 53  24  49  1   
 54  24  50  1   
 55  25  51  1   
 56  25  52  1   
@<TRIPOS>SUBSTRUCTURE
  1 ****   3 GROUP 4 **** **** 0

# MOE 2024.06 (io_trps.svl 2023.06)
