@<TRIPOS>MOLECULE
NONAME
45 46 1 0 0 
SMALL
USER_CHARGES


@<TRIPOS>ATOM
  1 O       -2.3200     0.1270     2.1220 O.2   1 <1>  -0.5700 
  2 C       -2.9450     0.8700     1.3960 C.2   1 <1>   0.5690 
  3 N       -4.1250     0.4820     0.8190 N.am  1 <1>  -0.6600 
  4 C       -2.2740     2.2050     1.0410 C.3   1 <1>   0.4040 
  5 C       -4.3860    -0.9780     0.6990 C.3   1 <1>   0.3200 
  6 C       -4.9580     1.3470    -0.0780 C.3   1 <1>   0.1400 
  7 N       -0.9520     2.0250     0.3190 N.4   1 <1>  -0.9590 
  8 C       -3.4140    -1.5580    -0.3220 C.2   1 <1>   0.0070 
  9 C       -5.7930     2.3670     0.7130 C.3   1 <1>   0.1200 
 10 C       -0.2520     3.3020     0.0190 C.3   1 <1>   0.4230 
 11 C       -1.1560     1.1740    -0.8970 C.3   1 <1>   0.3430 
 12 N       -3.3610    -1.2140    -1.5730 N.2   1 <1>  -0.5650 
 13 N       -2.4880    -2.4810     0.0200 N.pl3 1 <1>   0.0330 
 14 O       -4.9670     3.2740     1.3720 O.3   1 <1>  -0.6800 
 15 C        1.1040     3.0010    -0.6350 C.3   1 <1>  -0.1600 
 16 C       -0.0370     4.1060     1.3020 C.3   1 <1>  -0.2400 
 17 C        0.1840     0.8530    -1.5530 C.3   1 <1>  -0.1600 
 18 C       -2.3680    -1.9730    -2.0760 C.2   1 <1>   0.0770 
 19 C       -1.8170    -2.7440    -1.1150 C.2   1 <1>  -0.3020 
 20 C        0.9650     2.1270    -1.8870 C.3   1 <1>  -0.1600 
 21 H       -2.1220     2.7400     1.9610 H     1 <1>   0.0800 
 22 H       -2.9380     2.7850     0.4270 H     1 <1>   0.0800 
 23 H       -5.3980    -1.1580     0.3800 H     1 <1>   0.0800 
 24 H       -4.2500    -1.4500     1.6570 H     1 <1>   0.0800 
 25 H       -5.6310     0.7300    -0.6490 H     1 <1>   0.0800 
 26 H       -4.3350     1.8590    -0.7900 H     1 <1>   0.0800 
 27 H       -0.3570     1.4800     0.9560 H     1 <1>   0.4500 
 28 H       -6.4030     1.8630     1.4440 H     1 <1>   0.0800 
 29 H       -6.4310     2.9210     0.0450 H     1 <1>   0.0800 
 30 H       -0.8470     3.8830    -0.6680 H     1 <1>   0.0800 
 31 H       -1.7900     1.6870    -1.6030 H     1 <1>   0.0800 
 32 H       -1.6380     0.2490    -0.6260 H     1 <1>   0.0800 
 33 H       -2.3270    -2.8820     0.9510 H     1 <1>   0.2700 
 34 H       -5.5090     3.8840     1.9180 H     1 <1>   0.4000 
 35 H        1.7480     2.5110     0.0750 H     1 <1>   0.0800 
 36 H        1.5770     3.9280    -0.9110 H     1 <1>   0.0800 
 37 H        0.4630     3.5160     2.0500 H     1 <1>   0.0800 
 38 H       -0.9670     4.4760     1.6930 H     1 <1>   0.0800 
 39 H        0.5760     4.9640     1.0900 H     1 <1>   0.0800 
 40 H        0.0050     0.2940    -2.4540 H     1 <1>   0.0800 
 41 H        0.7600     0.2260    -0.8950 H     1 <1>   0.0800 
 42 H       -2.0990    -1.9280    -3.1190 H     1 <1>   0.1500 
 43 H       -1.0120    -3.4550    -1.1780 H     1 <1>   0.1500 
 44 H        1.9400     1.8700    -2.2660 H     1 <1>   0.0800 
 45 H        0.4470     2.6760    -2.6570 H     1 <1>   0.0800 
@<TRIPOS>BOND
  1   1   2  2   
  2   2   3  am  
  3   2   4  1   
  4   3   5  1   
  5   3   6  1   
  6   4   7  1   
  7   4  21  1   
  8   4  22  1   
  9   5   8  1   
 10   5  23  1   
 11   5  24  1   
 12   6   9  1   
 13   6  25  1   
 14   6  26  1   
 15   7  10  1   
 16   7  11  1   
 17   7  27  1   
 18   8  12  2   
 19   8  13  1   
 20   9  14  1   
 21   9  28  1   
 22   9  29  1   
 23  10  15  1   
 24  10  16  1   
 25  10  30  1   
 26  11  17  1   
 27  11  31  1   
 28  11  32  1   
 29  12  18  1   
 30  13  19  1   
 31  13  33  1   
 32  14  34  1   
 33  15  20  1   
 34  15  35  1   
 35  15  36  1   
 36  16  37  1   
 37  16  38  1   
 38  16  39  1   
 39  17  20  1   
 40  17  40  1   
 41  17  41  1   
 42  18  19  2   
 43  18  42  1   
 44  19  43  1   
 45  20  44  1   
 46  20  45  1   
@<TRIPOS>SUBSTRUCTURE
  1 ****  11 GROUP 4 **** **** 0

# MOE 2024.06 (io_trps.svl 2023.06)
