@<TRIPOS>MOLECULE
NONAME
51 53 1 0 0 
SMALL
USER_CHARGES


@<TRIPOS>ATOM
  1 O       -0.4210    -0.4990    -0.4820 O.2   1 <1>  -0.5700 
  2 C        0.5100    -1.1260    -0.9470 C.2   1 <1>   0.6900 
  3 N        1.1710    -2.1150    -0.2310 N.am  1 <1>  -0.4690 
  4 N        0.9020    -0.8760    -2.2230 N.am  1 <1>  -0.4900 
  5 C        2.1900    -2.8520    -0.8270 C.2   1 <1>  -0.0410 
  6 C        0.8270    -2.3780     1.2050 C.3   1 <1>   0.2010 
  7 C        1.8930    -1.5700    -2.8450 C.2   1 <1>   0.6160 
  8 C        2.5490    -2.5940    -2.1050 C.2   1 <1>  -0.1360 
  9 C        0.3740    -3.8160     1.4800 C.2   1 <1>   0.5690 
 10 O        2.1710    -1.2900    -3.9910 O.2   1 <1>  -0.5700 
 11 O        1.2160    -4.5710     1.9100 O.2   1 <1>  -0.5700 
 12 N       -0.9270    -4.2270     1.2770 N.am  1 <1>  -0.6600 
 13 C       -1.9150    -3.3960     0.5330 C.3   1 <1>   0.2200 
 14 C       -1.3740    -5.5600     1.7860 C.3   1 <1>   0.0600 
 15 C       -2.7930    -2.5610     1.4570 C.3   1 <1>  -0.1600 
 16 C       -2.9170    -4.1510    -0.3410 C.3   1 <1>  -0.1600 
 17 C       -3.9330    -2.0970     0.5430 C.3   1 <1>  -0.0800 
 18 C       -4.0020    -3.1020    -0.6150 C.3   1 <1>  -0.0800 
 19 C       -5.3310    -2.0900     1.1740 C.3   1 <1>  -0.1600 
 20 C       -5.4480    -3.6210    -0.6310 C.3   1 <1>  -0.1600 
 21 C       -6.2760    -2.5240     0.0490 C.3   1 <1>   0.4230 
 22 N       -6.5250    -1.3910    -0.9020 N.4   1 <1>  -0.9590 
 23 C       -7.1820    -0.2130    -0.2470 C.3   1 <1>   0.2630 
 24 C       -7.3510    -1.7980    -2.0840 C.3   1 <1>   0.2630 
 25 H        0.4440    -0.1340    -2.7370 H     1 <1>   0.3700 
 26 H        2.6670    -3.6190    -0.2340 H     1 <1>   0.1500 
 27 H        1.7030    -2.1870     1.7990 H     1 <1>   0.0800 
 28 H        0.0670    -1.7010     1.5440 H     1 <1>   0.0800 
 29 H        3.3250    -3.1310    -2.6140 H     1 <1>   0.1500 
 30 H       -1.3930    -2.7310    -0.1250 H     1 <1>   0.0800 
 31 H       -2.3270    -5.4700     2.2760 H     1 <1>   0.0800 
 32 H       -0.6690    -5.9540     2.4980 H     1 <1>   0.0800 
 33 H       -1.4530    -6.2550     0.9680 H     1 <1>   0.0800 
 34 H       -3.1620    -3.1800     2.2550 H     1 <1>   0.0800 
 35 H       -2.2560    -1.7240     1.8660 H     1 <1>   0.0800 
 36 H       -2.4590    -4.4990    -1.2500 H     1 <1>   0.0800 
 37 H       -3.3400    -4.9820     0.1920 H     1 <1>   0.0800 
 38 H       -3.6950    -1.1230     0.1450 H     1 <1>   0.0800 
 39 H       -3.7770    -2.5870    -1.5350 H     1 <1>   0.0800 
 40 H       -5.5700    -1.1500     1.6340 H     1 <1>   0.0800 
 41 H       -5.3800    -2.8430     1.9430 H     1 <1>   0.0800 
 42 H       -5.5210    -4.5020    -0.0170 H     1 <1>   0.0800 
 43 H       -5.7750    -3.8920    -1.6170 H     1 <1>   0.0800 
 44 H       -7.2070    -2.9080     0.4360 H     1 <1>   0.0800 
 45 H       -5.5960    -1.0970    -1.2370 H     1 <1>   0.4500 
 46 H       -8.1160    -0.5080     0.2030 H     1 <1>   0.0800 
 47 H       -7.3780     0.5570    -0.9760 H     1 <1>   0.0800 
 48 H       -6.5460     0.2050     0.5160 H     1 <1>   0.0800 
 49 H       -8.3000    -2.1930    -1.7600 H     1 <1>   0.0800 
 50 H       -6.8440    -2.5490    -2.6660 H     1 <1>   0.0800 
 51 H       -7.5320    -0.9480    -2.7220 H     1 <1>   0.0800 
@<TRIPOS>BOND
  1   1   2  2   
  2   2   3  am  
  3   2   4  am  
  4   3   5  1   
  5   3   6  1   
  6   4   7  am  
  7   4  25  1   
  8   5   8  2   
  9   5  26  1   
 10   6   9  1   
 11   6  27  1   
 12   6  28  1   
 13   7   8  1   
 14   7  10  2   
 15   8  29  1   
 16   9  11  2   
 17   9  12  am  
 18  12  13  1   
 19  12  14  1   
 20  13  15  1   
 21  13  16  1   
 22  13  30  1   
 23  14  31  1   
 24  14  32  1   
 25  14  33  1   
 26  15  17  1   
 27  15  34  1   
 28  15  35  1   
 29  16  18  1   
 30  16  36  1   
 31  16  37  1   
 32  17  18  1   
 33  17  19  1   
 34  17  38  1   
 35  18  20  1   
 36  18  39  1   
 37  19  21  1   
 38  19  40  1   
 39  19  41  1   
 40  20  21  1   
 41  20  42  1   
 42  20  43  1   
 43  21  22  1   
 44  21  44  1   
 45  22  23  1   
 46  22  24  1   
 47  22  45  1   
 48  23  46  1   
 49  23  47  1   
 50  23  48  1   
 51  24  49  1   
 52  24  50  1   
 53  24  51  1   
@<TRIPOS>SUBSTRUCTURE
  1 ****  13 GROUP 4 **** **** 0

# MOE 2024.06 (io_trps.svl 2023.06)
