@<TRIPOS>MOLECULE
NONAME
40 41 1 0 0 
SMALL
USER_CHARGES


@<TRIPOS>ATOM
  1 O        0.3630    -0.8000    -0.0280 O.3   1 <1>  -0.3630 
  2 C        0.1490    -2.1100    -0.2670 C.ar  1 <1>   0.3920 
  3 C        0.3320    -0.2940     1.2890 C.3   1 <1>   0.1200 
  4 N       -0.0810    -2.9240     0.7580 N.ar  1 <1>  -0.6200 
  5 C        0.1820    -2.5180    -1.5920 C.ar  1 <1>  -0.1500 
  6 C        0.5950     1.2080     1.2300 C.3   1 <1>  -0.2400 
  7 C       -0.2900    -4.1920     0.4370 C.ar  1 <1>   0.1600 
  8 C       -0.0340    -3.8410    -1.9060 C.ar  1 <1>  -0.1500 
  9 C       -0.2780    -4.7010    -0.8520 C.ar  1 <1>  -0.1440 
 10 C       -0.5240    -6.1810    -1.0880 C.3   1 <1>   0.2530 
 11 N       -1.8500    -6.5920    -0.5940 N.3   1 <1>  -0.8100 
 12 C       -1.9820    -8.0660    -0.6650 C.3   1 <1>   0.2900 
 13 C       -2.9580    -5.9120    -1.3190 C.3   1 <1>   0.1100 
 14 C       -3.1370    -8.5620     0.1880 C.2   1 <1>   0.0060 
 15 C       -3.5760    -4.7470    -0.5210 C.3   1 <1>   0.1200 
 16 N       -3.8720    -9.5930    -0.0830 N.2   1 <1>  -0.5650 
 17 N       -3.4840    -7.9380     1.3320 N.pl3 1 <1>   0.0330 
 18 O       -4.1480    -5.1990     0.6640 O.3   1 <1>  -0.6800 
 19 C       -4.7440    -9.6440     0.9430 C.2   1 <1>   0.0770 
 20 C       -4.5250    -8.6370     1.8170 C.2   1 <1>  -0.3020 
 21 H        1.0920    -0.7960     1.8640 H     1 <1>   0.0800 
 22 H       -0.6370    -0.5000     1.7100 H     1 <1>   0.0800 
 23 H        0.3770    -1.7890    -2.3570 H     1 <1>   0.1500 
 24 H        1.5610     1.3970     0.7970 H     1 <1>   0.0800 
 25 H        0.5750     1.6190     2.2230 H     1 <1>   0.0800 
 26 H       -0.1650     1.6920     0.6420 H     1 <1>   0.0800 
 27 H       -0.4940    -4.8680     1.2500 H     1 <1>   0.1500 
 28 H       -0.0110    -4.1800    -2.9270 H     1 <1>   0.1500 
 29 H        0.2390    -6.7320    -0.5640 H     1 <1>   0.0800 
 30 H       -0.4370    -6.4100    -2.1370 H     1 <1>   0.0800 
 31 H       -1.0860    -8.5300    -0.2920 H     1 <1>   0.0800 
 32 H       -2.1240    -8.3820    -1.6850 H     1 <1>   0.0800 
 33 H       -3.7470    -6.6110    -1.5440 H     1 <1>   0.0800 
 34 H       -2.6030    -5.5340    -2.2620 H     1 <1>   0.0800 
 35 H       -4.3510    -4.2770    -1.1000 H     1 <1>   0.0800 
 36 H       -2.8380    -4.0040    -0.2770 H     1 <1>   0.0800 
 37 H       -3.0630    -7.0610     1.6680 H     1 <1>   0.2700 
 38 H       -4.7830    -5.9180     0.4720 H     1 <1>   0.4000 
 39 H       -5.4970   -10.4130     0.9980 H     1 <1>   0.1500 
 40 H       -5.0360    -8.3850     2.7280 H     1 <1>   0.1500 
@<TRIPOS>BOND
  1   1   2  1   
  2   1   3  1   
  3   2   4  ar  
  4   2   5  ar  
  5   3   6  1   
  6   3  21  1   
  7   3  22  1   
  8   4   7  ar  
  9   5   8  ar  
 10   5  23  1   
 11   6  24  1   
 12   6  25  1   
 13   6  26  1   
 14   7   9  ar  
 15   7  27  1   
 16   8   9  ar  
 17   8  28  1   
 18   9  10  1   
 19  10  11  1   
 20  10  29  1   
 21  10  30  1   
 22  11  12  1   
 23  11  13  1   
 24  12  14  1   
 25  12  31  1   
 26  12  32  1   
 27  13  15  1   
 28  13  33  1   
 29  13  34  1   
 30  14  16  2   
 31  14  17  1   
 32  15  18  1   
 33  15  35  1   
 34  15  36  1   
 35  16  19  1   
 36  17  20  1   
 37  17  37  1   
 38  18  38  1   
 39  19  20  2   
 40  19  39  1   
 41  20  40  1   
@<TRIPOS>SUBSTRUCTURE
  1 ****  11 GROUP 4 **** **** 0

# MOE 2024.06 (io_trps.svl 2023.06)
