@<TRIPOS>MOLECULE
NONAME
48 50 1 0 0 
SMALL
USER_CHARGES


@<TRIPOS>ATOM
  1 O       -1.0660     0.2310     2.6640 O.2   1 <1>  -0.5700 
  2 C       -1.2820     0.8010     1.6210 C.2   1 <1>   0.5690 
  3 N       -1.7030     0.1280     0.5070 N.am  1 <1>  -0.6600 
  4 C       -1.0650     2.3000     1.5720 C.3   1 <1>  -0.0990 
  5 C       -1.9980     0.7190    -0.8230 C.3   1 <1>   0.1400 
  6 C       -1.9570    -1.3310     0.4990 C.3   1 <1>   0.1400 
  7 C        0.3210     2.6450     1.0170 C.3   1 <1>  -0.0160 
  8 C       -2.4700    -0.4530    -1.6850 C.3   1 <1>   0.2000 
  9 C       -2.8660    -1.5610    -0.7100 C.3   1 <1>  -0.0800 
 10 C        0.4150     4.1340     0.7080 C.ar  1 <1>  -0.1440 
 11 O       -3.5600    -0.1030    -2.4670 O.3   1 <1>  -0.6800 
 12 C       -2.7490    -2.9630    -1.3310 C.3   1 <1>  -0.0170 
 13 C       -0.1140     4.6590    -0.4700 C.ar  1 <1>   0.0820 
 14 C        1.0330     4.9760     1.6180 C.ar  1 <1>  -0.1500 
 15 C       -3.1860    -4.0500    -0.3620 C.ar  1 <1>   0.1670 
 16 O       -0.7220     3.8010    -1.3350 O.3   1 <1>  -0.3630 
 17 C       -0.0090     6.0260    -0.7190 C.ar  1 <1>  -0.1500 
 18 C        1.1330     6.3330     1.3650 C.ar  1 <1>  -0.1500 
 19 N       -2.2780    -4.4700     0.5040 N.ar  1 <1>  -0.6200 
 20 C       -4.4860    -4.5500    -0.4160 C.ar  1 <1>   0.1600 
 21 C       -1.2310     4.2370    -2.5760 C.3   1 <1>   0.0400 
 22 C        0.6130     6.8570     0.1960 C.ar  1 <1>  -0.1500 
 23 C       -2.7520    -5.4080     1.3070 C.ar  1 <1>   0.1600 
 24 N       -4.9630    -5.4890     0.3850 N.ar  1 <1>  -0.6200 
 25 C       -4.0510    -5.9000     1.2490 C.ar  1 <1>   0.1600 
 26 H       -1.8300     2.7540     0.9730 H     1 <1>   0.0800 
 27 H       -1.1580     2.6990     2.5650 H     1 <1>   0.0800 
 28 H       -2.7680     1.4640    -0.7260 H     1 <1>   0.0800 
 29 H       -1.1100     1.1570    -1.2430 H     1 <1>   0.0800 
 30 H       -1.0200    -1.8490     0.3840 H     1 <1>   0.0800 
 31 H       -2.4260    -1.6480     1.4160 H     1 <1>   0.0800 
 32 H        0.5150     2.0850     0.1200 H     1 <1>   0.0800 
 33 H        1.0720     2.3610     1.7340 H     1 <1>   0.0800 
 34 H       -1.6720    -0.7680    -2.3360 H     1 <1>   0.0800 
 35 H       -3.8760    -1.4010    -0.3770 H     1 <1>   0.0800 
 36 H       -4.2980     0.1980    -1.9020 H     1 <1>   0.4000 
 37 H       -1.7320    -3.1500    -1.6300 H     1 <1>   0.0800 
 38 H       -3.3580    -3.0080    -2.2170 H     1 <1>   0.0800 
 39 H        1.4410     4.5800     2.5320 H     1 <1>   0.1500 
 40 H       -0.4040     6.4640    -1.6150 H     1 <1>   0.1500 
 41 H        1.6160     6.9780     2.0770 H     1 <1>   0.1500 
 42 H       -5.1620    -4.1560    -1.1530 H     1 <1>   0.1500 
 43 H       -1.6370     3.3840    -3.0910 H     1 <1>   0.0800 
 44 H       -0.4290     4.6620    -3.1530 H     1 <1>   0.0800 
 45 H       -2.0070     4.9610    -2.4010 H     1 <1>   0.0800 
 46 H        0.6920     7.9120     0.0000 H     1 <1>   0.1500 
 47 H       -2.0820    -5.8070     2.0470 H     1 <1>   0.1500 
 48 H       -4.3440    -6.6650     1.9460 H     1 <1>   0.1500 
@<TRIPOS>BOND
  1   1   2  2   
  2   2   3  am  
  3   2   4  1   
  4   3   5  1   
  5   3   6  1   
  6   4   7  1   
  7   4  26  1   
  8   4  27  1   
  9   5   8  1   
 10   5  28  1   
 11   5  29  1   
 12   6   9  1   
 13   6  30  1   
 14   6  31  1   
 15   7  10  1   
 16   7  32  1   
 17   7  33  1   
 18   8   9  1   
 19   8  11  1   
 20   8  34  1   
 21   9  12  1   
 22   9  35  1   
 23  10  13  ar  
 24  10  14  ar  
 25  11  36  1   
 26  12  15  1   
 27  12  37  1   
 28  12  38  1   
 29  13  16  1   
 30  13  17  ar  
 31  14  18  ar  
 32  14  39  1   
 33  15  19  ar  
 34  15  20  ar  
 35  16  21  1   
 36  17  22  ar  
 37  17  40  1   
 38  18  22  ar  
 39  18  41  1   
 40  19  23  ar  
 41  20  24  ar  
 42  20  42  1   
 43  21  43  1   
 44  21  44  1   
 45  21  45  1   
 46  22  46  1   
 47  23  25  ar  
 48  23  47  1   
 49  24  25  ar  
 50  25  48  1   
@<TRIPOS>SUBSTRUCTURE
  1 ****   3 GROUP 4 **** **** 0

# MOE 2024.06 (io_trps.svl 2023.06)
