@<TRIPOS>MOLECULE
NONAME
50 53 1 0 0 
SMALL
USER_CHARGES


@<TRIPOS>ATOM
  1 O       -0.5440     0.0090    -0.1930 O.3   1 <1>  -0.3630 
  2 C       -0.4220     1.3540    -0.0480 C.ar  1 <1>   0.0830 
  3 C       -1.8490    -0.5250    -0.1140 C.3   1 <1>   0.2000 
  4 C       -1.4690     2.1180     0.4730 C.ar  1 <1>   0.0830 
  5 C        0.7580     1.9670    -0.4300 C.ar  1 <1>  -0.1500 
  6 C       -2.6010     0.1340     1.0560 C.3   1 <1>   0.1200 
  7 C       -1.6970    -2.0470     0.0350 C.3   1 <1>   0.3430 
  8 O       -2.6260     1.5330     0.8760 O.3   1 <1>  -0.3630 
  9 C       -1.3340     3.4900     0.5880 C.ar  1 <1>  -0.1500 
 10 C        0.8910     3.3410    -0.3070 C.ar  1 <1>  -0.1500 
 11 N       -2.9950    -2.8160     0.0440 N.4   1 <1>  -0.9590 
 12 C       -0.1530     4.1010     0.1980 C.ar  1 <1>  -0.1500 
 13 C       -2.7320    -4.2510     0.3620 C.3   1 <1>   0.3430 
 14 C       -3.7490    -2.6820    -1.2410 C.3   1 <1>   0.3430 
 15 C       -4.0540    -4.9970     0.5200 C.3   1 <1>  -0.1600 
 16 C       -5.0970    -3.3830    -1.1180 C.3   1 <1>  -0.1600 
 17 C       -4.9310    -4.8500    -0.7270 C.3   1 <1>   0.2000 
 18 O       -6.1970    -5.3160    -0.4240 O.3   1 <1>  -0.5600 
 19 C       -6.4100    -6.6920    -0.6340 C.3   1 <1>   0.2630 
 20 C       -7.7470    -7.1590    -0.0660 C.ar  1 <1>   0.1670 
 21 N       -7.8530    -8.4680     0.1220 N.ar  1 <1>  -0.6200 
 22 C       -8.7650    -6.2570     0.2190 C.ar  1 <1>  -0.1500 
 23 C       -9.0080    -8.8900     0.6140 C.ar  1 <1>   0.1600 
 24 C       -9.9620    -6.7110     0.7300 C.ar  1 <1>  -0.1500 
 25 C      -10.0760    -8.0690     0.9300 C.ar  1 <1>  -0.1500 
 26 H       -2.3370    -0.2870    -1.0420 H     1 <1>   0.0800 
 27 H        1.5660     1.3760    -0.8230 H     1 <1>   0.1500 
 28 H       -2.1100    -0.0690     1.9920 H     1 <1>   0.0800 
 29 H       -3.6210    -0.2000     1.1080 H     1 <1>   0.0800 
 30 H       -1.1680    -2.2370     0.9550 H     1 <1>   0.0800 
 31 H       -1.0840    -2.4020    -0.7780 H     1 <1>   0.0800 
 32 H       -2.1460     4.0730     0.9830 H     1 <1>   0.1500 
 33 H        1.8080     3.8210    -0.6050 H     1 <1>   0.1500 
 34 H       -3.6000    -2.4570     0.7970 H     1 <1>   0.4500 
 35 H       -0.0460     5.1680     0.2880 H     1 <1>   0.1500 
 36 H       -2.1690    -4.3300     1.2780 H     1 <1>   0.0800 
 37 H       -2.1550    -4.7020    -0.4300 H     1 <1>   0.0800 
 38 H       -3.1830    -3.1220    -2.0470 H     1 <1>   0.0800 
 39 H       -3.9150    -1.6420    -1.4730 H     1 <1>   0.0800 
 40 H       -4.5760    -4.6170     1.3810 H     1 <1>   0.0800 
 41 H       -3.8410    -6.0370     0.6930 H     1 <1>   0.0800 
 42 H       -5.6100    -3.3270    -2.0620 H     1 <1>   0.0800 
 43 H       -5.6960    -2.8730    -0.3840 H     1 <1>   0.0800 
 44 H       -4.5300    -5.4090    -1.5590 H     1 <1>   0.0800 
 45 H       -5.6240    -7.2450    -0.1530 H     1 <1>   0.0800 
 46 H       -6.3870    -6.8870    -1.6910 H     1 <1>   0.0800 
 47 H       -8.6270    -5.2060     0.0430 H     1 <1>   0.1500 
 48 H       -9.1090    -9.9500     0.7730 H     1 <1>   0.1500 
 49 H      -10.7680    -6.0350     0.9610 H     1 <1>   0.1500 
 50 H      -10.9820    -8.4890     1.3260 H     1 <1>   0.1500 
@<TRIPOS>BOND
  1   1   2  1   
  2   1   3  1   
  3   2   4  ar  
  4   2   5  ar  
  5   3   6  1   
  6   3   7  1   
  7   3  26  1   
  8   4   8  1   
  9   4   9  ar  
 10   5  10  ar  
 11   5  27  1   
 12   6   8  1   
 13   6  28  1   
 14   6  29  1   
 15   7  11  1   
 16   7  30  1   
 17   7  31  1   
 18   9  12  ar  
 19   9  32  1   
 20  10  12  ar  
 21  10  33  1   
 22  11  13  1   
 23  11  14  1   
 24  11  34  1   
 25  12  35  1   
 26  13  15  1   
 27  13  36  1   
 28  13  37  1   
 29  14  16  1   
 30  14  38  1   
 31  14  39  1   
 32  15  17  1   
 33  15  40  1   
 34  15  41  1   
 35  16  17  1   
 36  16  42  1   
 37  16  43  1   
 38  17  18  1   
 39  17  44  1   
 40  18  19  1   
 41  19  20  1   
 42  19  45  1   
 43  19  46  1   
 44  20  21  ar  
 45  20  22  ar  
 46  21  23  ar  
 47  22  24  ar  
 48  22  47  1   
 49  23  25  ar  
 50  23  48  1   
 51  24  25  ar  
 52  24  49  1   
 53  25  50  1   
@<TRIPOS>SUBSTRUCTURE
  1 ****  11 GROUP 4 **** **** 0

# MOE 2024.06 (io_trps.svl 2023.06)
