@<TRIPOS>MOLECULE
NONAME
21 21 1 0 0 
SMALL
USER_CHARGES


@<TRIPOS>ATOM
  1 F        0.7120    -0.6380     1.7350 F     1 <1>  -0.1900 
  2 C        1.5430    -0.9880     0.7860 C.ar  1 <1>   0.1900 
  3 C        2.3440    -0.0380     0.1600 C.ar  1 <1>   0.1660 
  4 C        1.5920    -2.3170     0.4290 C.ar  1 <1>  -0.1500 
  5 N        3.1970    -0.3460    -0.8110 N.ar  1 <1>  -0.6200 
  6 C        2.2890     1.4320     0.5550 C.3   1 <1>  -0.0160 
  7 C        2.4800    -2.6330    -0.5780 C.ar  1 <1>  -0.1500 
  8 C        3.2440    -1.6270    -1.1540 C.ar  1 <1>   0.1600 
  9 C        1.3910     2.2270    -0.4030 C.3   1 <1>  -0.1600 
 10 C        1.3750     3.7110    -0.0420 C.3   1 <1>   0.1200 
 11 O        0.5320     4.3620    -0.9190 O.3   1 <1>  -0.6800 
 12 H        0.9740    -3.0520     0.9120 H     1 <1>   0.1500 
 13 H        3.2880     1.8310     0.5290 H     1 <1>   0.0800 
 14 H        1.9260     1.5350     1.5620 H     1 <1>   0.0800 
 15 H        2.5820    -3.6480    -0.9180 H     1 <1>   0.1500 
 16 H        3.9320    -1.8910    -1.9400 H     1 <1>   0.1500 
 17 H        0.3890     1.8360    -0.3500 H     1 <1>   0.0800 
 18 H        1.7600     2.1030    -1.4070 H     1 <1>   0.0800 
 19 H        2.3570     4.1460    -0.1280 H     1 <1>   0.0800 
 20 H        0.9990     3.8650     0.9550 H     1 <1>   0.0800 
 21 H        0.8170     4.2110    -1.8410 H     1 <1>   0.4000 
@<TRIPOS>BOND
  1   1   2  1   
  2   2   3  ar  
  3   2   4  ar  
  4   3   5  ar  
  5   3   6  1   
  6   4   7  ar  
  7   4  12  1   
  8   5   8  ar  
  9   6   9  1   
 10   6  13  1   
 11   6  14  1   
 12   7   8  ar  
 13   7  15  1   
 14   8  16  1   
 15   9  10  1   
 16   9  17  1   
 17   9  18  1   
 18  10  11  1   
 19  10  19  1   
 20  10  20  1   
 21  11  21  1   
@<TRIPOS>SUBSTRUCTURE
  1 ****   3 GROUP 4 **** **** 0

# MOE 2024.06 (io_trps.svl 2023.06)
