@<TRIPOS>MOLECULE
NONAME
48 50 1 0 0 
SMALL
USER_CHARGES


@<TRIPOS>ATOM
  1 O        1.1930     1.8660    -0.4440 O.2   1 <1>  -0.5700 
  2 C        0.4540     2.4350     0.3290 C.2   1 <1>   0.7800 
  3 O        0.4870     2.2050     1.6330 O.3   1 <1>  -0.4300 
  4 N       -0.4360     3.3960     0.0130 N.am  1 <1>  -0.6600 
  5 C       -0.4190     3.0530     2.3160 C.3   1 <1>   0.1200 
  6 C       -1.0470     3.9340     1.2290 C.3   1 <1>   0.1400 
  7 C       -0.5500     4.0900    -1.3050 C.3   1 <1>   0.2010 
  8 C        0.0960     5.4800    -1.3050 C.2   1 <1>   0.5690 
  9 O       -0.6300     6.4160    -1.0520 O.2   1 <1>  -0.5700 
 10 N        1.4350     5.6680    -1.5550 N.am  1 <1>  -0.6600 
 11 C        2.4470     4.5840    -1.7950 C.3   1 <1>   0.1400 
 12 C        2.0130     7.0390    -1.5770 C.3   1 <1>   0.1400 
 13 C        3.3610     4.3370    -0.5820 C.3   1 <1>   0.1400 
 14 C        2.3870     7.5090    -0.1640 C.3   1 <1>  -0.1600 
 15 N        3.9970     5.5960    -0.0780 N.am  1 <1>  -0.6600 
 16 C        3.0760     6.4560     0.7160 C.3   1 <1>   0.1400 
 17 C        5.2940     5.9040    -0.3920 C.2   1 <1>   0.5690 
 18 O        5.9390     5.2180    -1.1500 O.2   1 <1>  -0.5700 
 19 C        5.9490     7.1410     0.2060 C.3   1 <1>  -0.0990 
 20 C        7.4240     7.3090    -0.1820 C.3   1 <1>   0.0210 
 21 C        7.9980     8.5560     0.4620 C.2   1 <1>  -0.1810 
 22 C        7.7570     9.8740     0.0830 C.2   1 <1>   0.1390 
 23 C        8.8410     8.6510     1.5110 C.2   1 <1>  -0.3020 
 24 N        8.3880    10.7250     0.8330 N.2   1 <1>  -0.7070 
 25 N        9.0630     9.9650     1.7160 N.pl3 1 <1>   0.3000 
 26 H        0.1250     3.6340     3.0390 H     1 <1>   0.0800 
 27 H       -1.1570     2.4430     2.8070 H     1 <1>   0.0800 
 28 H       -2.1170     3.8270     1.2030 H     1 <1>   0.0800 
 29 H       -0.7830     4.9700     1.3670 H     1 <1>   0.0800 
 30 H       -1.5920     4.2050    -1.5410 H     1 <1>   0.0800 
 31 H       -0.1150     3.4830    -2.0750 H     1 <1>   0.0800 
 32 H        3.0630     4.8560    -2.6340 H     1 <1>   0.0800 
 33 H        1.9660     3.6600    -2.0550 H     1 <1>   0.0800 
 34 H        1.3050     7.7260    -2.0090 H     1 <1>   0.0800 
 35 H        2.8910     7.0450    -2.2000 H     1 <1>   0.0800 
 36 H        4.1210     3.6290    -0.8640 H     1 <1>   0.0800 
 37 H        2.7930     3.8830     0.2090 H     1 <1>   0.0800 
 38 H        1.4930     7.8360     0.3350 H     1 <1>   0.0800 
 39 H        3.0220     8.3710    -0.2520 H     1 <1>   0.0800 
 40 H        2.3200     5.8340     1.1640 H     1 <1>   0.0800 
 41 H        3.6060     6.9370     1.5190 H     1 <1>   0.0800 
 42 H        5.8850     7.0780     1.2760 H     1 <1>   0.0800 
 43 H        5.4050     8.0070    -0.1180 H     1 <1>   0.0800 
 44 H        7.5190     7.3810    -1.2520 H     1 <1>   0.0800 
 45 H        7.9830     6.4480     0.1430 H     1 <1>   0.0800 
 46 H        7.1220    10.1670    -0.7360 H     1 <1>   0.1500 
 47 H        9.2860     7.8780     2.1100 H     1 <1>   0.1500 
 48 H        9.6640    10.3740     2.4420 H     1 <1>   0.2700 
@<TRIPOS>BOND
  1   1   2  2   
  2   2   3  1   
  3   2   4  am  
  4   3   5  1   
  5   4   6  1   
  6   4   7  1   
  7   5   6  1   
  8   5  26  1   
  9   5  27  1   
 10   6  28  1   
 11   6  29  1   
 12   7   8  1   
 13   7  30  1   
 14   7  31  1   
 15   8   9  2   
 16   8  10  am  
 17  10  11  1   
 18  10  12  1   
 19  11  13  1   
 20  11  32  1   
 21  11  33  1   
 22  12  14  1   
 23  12  34  1   
 24  12  35  1   
 25  13  15  1   
 26  13  36  1   
 27  13  37  1   
 28  14  16  1   
 29  14  38  1   
 30  14  39  1   
 31  15  16  1   
 32  15  17  am  
 33  16  40  1   
 34  16  41  1   
 35  17  18  2   
 36  17  19  1   
 37  19  20  1   
 38  19  42  1   
 39  19  43  1   
 40  20  21  1   
 41  20  44  1   
 42  20  45  1   
 43  21  22  1   
 44  21  23  2   
 45  22  24  2   
 46  22  46  1   
 47  23  25  1   
 48  23  47  1   
 49  24  25  1   
 50  25  48  1   
@<TRIPOS>SUBSTRUCTURE
  1 ****  15 GROUP 4 **** **** 0

# MOE 2024.06 (io_trps.svl 2023.06)
