@<TRIPOS>MOLECULE
NONAME
44 46 1 0 0 
SMALL
USER_CHARGES


@<TRIPOS>ATOM
  1 O        1.0550     1.3200     0.6430 O.3   1 <1>  -0.0190 
  2 N        2.0260     0.4590     0.6820 N.2   1 <1>  -0.4100 
  3 C        1.0240     1.9660    -0.4910 C.2   1 <1>  -0.0400 
  4 C        2.6190     0.5340    -0.4560 C.2   1 <1>   0.1080 
  5 C        2.0180     1.4980    -1.2610 C.2   1 <1>  -0.1500 
  6 C       -0.0140     3.0490    -0.7130 C.3   1 <1>   0.0200 
  7 C        3.8060    -0.3160    -0.8530 C.3   1 <1>  -0.0590 
  8 C       -0.1100     3.9850     0.5090 C.3   1 <1>  -0.0800 
  9 C       -0.9080     5.2510     0.1960 C.3   1 <1>   0.2000 
 10 C        1.2760     4.4900     0.9510 C.3   1 <1>   0.3430 
 11 O       -1.4790     5.7020     1.3800 O.3   1 <1>  -0.6800 
 12 C        0.1730     6.2530    -0.2080 C.3   1 <1>   0.3430 
 13 N        1.2870     5.9680     0.7400 N.4   1 <1>  -0.9590 
 14 C        2.6280     6.5010     0.3550 C.3   1 <1>   0.3430 
 15 C        2.6580     8.0300     0.3620 C.3   1 <1>  -0.0170 
 16 C        4.0570     8.4840    -0.0060 C.ar  1 <1>  -0.1440 
 17 C        4.3860     8.7420    -1.3290 C.ar  1 <1>  -0.1500 
 18 C        5.0240     8.6330     0.9770 C.ar  1 <1>  -0.1500 
 19 C        5.6690     9.1380    -1.6650 C.ar  1 <1>  -0.1500 
 20 C        6.3070     9.0280     0.6400 C.ar  1 <1>  -0.1500 
 21 C        6.6300     9.2800    -0.6810 C.ar  1 <1>  -0.1500 
 22 H        2.3180     1.7660    -2.2580 H     1 <1>   0.1500 
 23 H        0.2480     3.5980    -1.6010 H     1 <1>   0.0800 
 24 H       -0.9690     2.5800    -0.8810 H     1 <1>   0.0800 
 25 H        4.6460     0.3110    -1.0870 H     1 <1>   0.0800 
 26 H        3.5580    -0.9130    -1.7110 H     1 <1>   0.0800 
 27 H        4.0770    -0.9710    -0.0440 H     1 <1>   0.0800 
 28 H       -0.5630     3.4310     1.3140 H     1 <1>   0.0800 
 29 H       -1.6800     5.1300    -0.5460 H     1 <1>   0.0800 
 30 H        2.0480     4.0190     0.3650 H     1 <1>   0.0800 
 31 H        1.4450     4.2580     1.9910 H     1 <1>   0.0800 
 32 H       -2.2620     5.1640     1.6290 H     1 <1>   0.4000 
 33 H       -0.1840     7.2660    -0.1230 H     1 <1>   0.0800 
 34 H        0.4900     6.0600    -1.2190 H     1 <1>   0.0800 
 35 H        0.9860     6.3820     1.6370 H     1 <1>   0.4500 
 36 H        3.3700     6.1440     1.0510 H     1 <1>   0.0800 
 37 H        2.8980     6.1450    -0.6250 H     1 <1>   0.0800 
 38 H        1.9580     8.4290    -0.3500 H     1 <1>   0.0800 
 39 H        2.4080     8.4030     1.3390 H     1 <1>   0.0800 
 40 H        3.6530     8.6430    -2.1100 H     1 <1>   0.1500 
 41 H        4.7930     8.4470     2.0120 H     1 <1>   0.1500 
 42 H        5.9220     9.3390    -2.6920 H     1 <1>   0.1500 
 43 H        7.0550     9.1440     1.4060 H     1 <1>   0.1500 
 44 H        7.6280     9.5880    -0.9420 H     1 <1>   0.1500 
@<TRIPOS>BOND
  1   1   2  1   
  2   1   3  1   
  3   2   4  2   
  4   3   5  2   
  5   3   6  1   
  6   4   5  1   
  7   4   7  1   
  8   5  22  1   
  9   6   8  1   
 10   6  23  1   
 11   6  24  1   
 12   7  25  1   
 13   7  26  1   
 14   7  27  1   
 15   8   9  1   
 16   8  10  1   
 17   8  28  1   
 18   9  11  1   
 19   9  12  1   
 20   9  29  1   
 21  10  13  1   
 22  10  30  1   
 23  10  31  1   
 24  11  32  1   
 25  12  13  1   
 26  12  33  1   
 27  12  34  1   
 28  13  14  1   
 29  13  35  1   
 30  14  15  1   
 31  14  36  1   
 32  14  37  1   
 33  15  16  1   
 34  15  38  1   
 35  15  39  1   
 36  16  17  ar  
 37  16  18  ar  
 38  17  19  ar  
 39  17  40  1   
 40  18  20  ar  
 41  18  41  1   
 42  19  21  ar  
 43  19  42  1   
 44  20  21  ar  
 45  20  43  1   
 46  21  44  1   
@<TRIPOS>SUBSTRUCTURE
  1 ****  14 GROUP 4 **** **** 0

# MOE 2024.06 (io_trps.svl 2023.06)
