@<TRIPOS>MOLECULE
NONAME
57 59 1 0 0 
SMALL
USER_CHARGES


@<TRIPOS>ATOM
  1 F       -0.7760    -5.0490    -0.1280 F     1 <1>  -0.1900 
  2 C       -1.9300    -4.6380     0.3240 C.ar  1 <1>   0.1900 
  3 C       -2.1960    -3.2830     0.3350 C.ar  1 <1>  -0.1500 
  4 C       -2.8400    -5.5740     0.7740 C.ar  1 <1>  -0.1500 
  5 C       -3.4220    -2.8530     0.8150 C.ar  1 <1>  -0.1500 
  6 C       -4.0630    -5.1310     1.2490 C.ar  1 <1>  -0.1500 
  7 C       -4.3600    -3.7730     1.2710 C.ar  1 <1>  -0.1430 
  8 C       -5.7080    -3.3020     1.7970 C.3   1 <1>   0.2540 
  9 N       -6.7830    -3.6590     0.8540 N.3   1 <1>  -0.8100 
 10 C       -8.1230    -3.4720     1.4840 C.3   1 <1>   0.1710 
 11 C       -6.6740    -2.8680    -0.3860 C.3   1 <1>   0.0300 
 12 C       -9.3350    -3.9530     0.6600 C.2   1 <1>   0.5690 
 13 O      -10.3200    -3.2540     0.6690 O.2   1 <1>  -0.5700 
 14 N       -9.3320    -5.1340    -0.0500 N.am  1 <1>  -0.6600 
 15 C      -10.4450    -5.4670    -0.9990 C.3   1 <1>   0.1400 
 16 C       -8.2090    -6.1280    -0.0080 C.3   1 <1>   0.1400 
 17 C      -11.0220    -6.8870    -0.7680 C.3   1 <1>   0.4230 
 18 C       -8.6910    -7.5740    -0.2540 C.3   1 <1>   0.3430 
 19 N      -10.1380    -7.7310     0.1330 N.4   1 <1>  -0.9590 
 20 C      -11.2790    -7.5840    -2.1250 C.3   1 <1>   0.1200 
 21 C      -10.6510    -9.1420     0.2040 C.3   1 <1>   0.4230 
 22 O      -11.7390    -8.8910    -1.9400 O.3   1 <1>  -0.5600 
 23 C      -10.8870    -9.7260    -1.2080 C.3   1 <1>   0.1200 
 24 C       -9.7250   -10.0150     1.0670 C.3   1 <1>  -0.1600 
 25 C      -10.3890   -11.3350     1.4890 C.3   1 <1>  -0.1600 
 26 C       -9.4680   -12.1360     2.4130 C.3   1 <1>  -0.2400 
 27 H       -1.4600    -2.5860    -0.0230 H     1 <1>   0.1500 
 28 H       -2.5920    -6.6190     0.7500 H     1 <1>   0.1500 
 29 H       -3.6450    -1.8000     0.8280 H     1 <1>   0.1500 
 30 H       -4.7890    -5.8410     1.6020 H     1 <1>   0.1500 
 31 H       -5.6970    -2.2370     1.9610 H     1 <1>   0.0800 
 32 H       -5.8850    -3.7800     2.7460 H     1 <1>   0.0800 
 33 H       -8.1480    -4.0010     2.4190 H     1 <1>   0.0800 
 34 H       -8.2660    -2.4280     1.7020 H     1 <1>   0.0800 
 35 H       -5.7300    -3.0570    -0.8670 H     1 <1>   0.0800 
 36 H       -6.7520    -1.8150    -0.1720 H     1 <1>   0.0800 
 37 H       -7.4550    -3.1390    -1.0760 H     1 <1>   0.0800 
 38 H      -11.2470    -4.7540    -0.9180 H     1 <1>   0.0800 
 39 H      -10.0630    -5.3840    -2.0020 H     1 <1>   0.0800 
 40 H       -7.4640    -5.8630    -0.7400 H     1 <1>   0.0800 
 41 H       -7.7340    -6.0910     0.9570 H     1 <1>   0.0800 
 42 H      -11.9810    -6.7690    -0.2910 H     1 <1>   0.0800 
 43 H       -8.0670    -8.2430     0.3150 H     1 <1>   0.0800 
 44 H       -8.5650    -7.8150    -1.2960 H     1 <1>   0.0800 
 45 H      -10.2280    -7.3090     1.0660 H     1 <1>   0.4500 
 46 H      -10.3850    -7.6200    -2.7230 H     1 <1>   0.0800 
 47 H      -12.0350    -7.0520    -2.6760 H     1 <1>   0.0800 
 48 H      -11.6120    -9.1220     0.6920 H     1 <1>   0.0800 
 49 H      -11.3660   -10.6860    -1.1410 H     1 <1>   0.0800 
 50 H       -9.9630    -9.8420    -1.7480 H     1 <1>   0.0800 
 51 H       -8.8210   -10.2450     0.5290 H     1 <1>   0.0800 
 52 H       -9.4670    -9.4750     1.9610 H     1 <1>   0.0800 
 53 H      -11.3120   -11.1340     2.0090 H     1 <1>   0.0800 
 54 H      -10.6170   -11.9390     0.6280 H     1 <1>   0.0800 
 55 H       -9.2430   -11.5800     3.3070 H     1 <1>   0.0800 
 56 H       -8.5460   -12.3810     1.9150 H     1 <1>   0.0800 
 57 H       -9.9480   -13.0550     2.7020 H     1 <1>   0.0800 
@<TRIPOS>BOND
  1   1   2  1   
  2   2   3  ar  
  3   2   4  ar  
  4   3   5  ar  
  5   3  27  1   
  6   4   6  ar  
  7   4  28  1   
  8   5   7  ar  
  9   5  29  1   
 10   6   7  ar  
 11   6  30  1   
 12   7   8  1   
 13   8   9  1   
 14   8  31  1   
 15   8  32  1   
 16   9  10  1   
 17   9  11  1   
 18  10  12  1   
 19  10  33  1   
 20  10  34  1   
 21  11  35  1   
 22  11  36  1   
 23  11  37  1   
 24  12  13  2   
 25  12  14  am  
 26  14  15  1   
 27  14  16  1   
 28  15  17  1   
 29  15  38  1   
 30  15  39  1   
 31  16  18  1   
 32  16  40  1   
 33  16  41  1   
 34  17  19  1   
 35  17  20  1   
 36  17  42  1   
 37  18  19  1   
 38  18  43  1   
 39  18  44  1   
 40  19  21  1   
 41  19  45  1   
 42  20  22  1   
 43  20  46  1   
 44  20  47  1   
 45  21  23  1   
 46  21  24  1   
 47  21  48  1   
 48  22  23  1   
 49  23  49  1   
 50  23  50  1   
 51  24  25  1   
 52  24  51  1   
 53  24  52  1   
 54  25  26  1   
 55  25  53  1   
 56  25  54  1   
 57  26  55  1   
 58  26  56  1   
 59  26  57  1   
@<TRIPOS>SUBSTRUCTURE
  1 ****  16 GROUP 4 **** **** 0

# MOE 2024.06 (io_trps.svl 2023.06)
