@<TRIPOS>MOLECULE
NONAME
54 55 1 0 0 
SMALL
USER_CHARGES


@<TRIPOS>ATOM
  1 S        0.9660     2.0830    -0.4190 S.o2  1 <1>   1.3330 
  2 O        2.2300     2.4460     0.1860 O.2   1 <1>  -0.6500 
  3 O        0.1810     3.1350    -1.0200 O.2   1 <1>  -0.6500 
  4 N        1.1970     0.8220    -1.5220 N.am  1 <1>  -0.8490 
  5 C       -0.0520     1.3710     0.8810 C.3   1 <1>  -0.0550 
  6 C        1.3160     1.3040    -2.9050 C.3   1 <1>   0.1160 
  7 C        2.3380    -0.0450    -1.2040 C.3   1 <1>   0.1160 
  8 C       -0.4000     2.3060     2.0740 C.3   1 <1>  -0.0800 
  9 C       -1.1920     3.5550     1.6590 C.3   1 <1>   0.2000 
 10 C        0.8280     2.8880     2.7850 C.3   1 <1>   0.3430 
 11 O       -2.0770     3.8680     2.6830 O.3   1 <1>  -0.6800 
 12 C       -0.1610     4.6870     1.5120 C.3   1 <1>   0.3430 
 13 N        1.1250     4.1530     2.0700 N.4   1 <1>  -0.9590 
 14 C        1.9480     5.1550     2.7900 C.3   1 <1>   0.4860 
 15 C        2.2960     6.2540     1.8050 C.ar  1 <1>  -0.1440 
 16 C        3.0130     5.9560     0.6550 C.ar  1 <1>  -0.1500 
 17 C        1.8850     7.5590     2.0270 C.ar  1 <1>  -0.1500 
 18 C        3.3020     6.9360    -0.2810 C.ar  1 <1>  -0.1440 
 19 C        2.1800     8.5490     1.1060 C.ar  1 <1>  -0.1500 
 20 C        2.8880     8.2450    -0.0550 C.ar  1 <1>   0.0820 
 21 C        4.0720     6.5460    -1.5370 C.3   1 <1>   0.2640 
 22 O        3.2000     9.1780    -0.9910 O.3   1 <1>  -0.3630 
 23 O        3.3570     5.5560    -2.1900 O.3   1 <1>  -0.6800 
 24 C        2.9080    10.5460    -0.8130 C.3   1 <1>   0.1200 
 25 C        3.4460    11.3030    -2.0240 C.3   1 <1>  -0.2400 
 26 H       -0.9700     1.0280     0.4410 H     1 <1>   0.0800 
 27 H        0.4480     0.5030     1.2660 H     1 <1>   0.0800 
 28 H        1.4360     0.4750    -3.5810 H     1 <1>   0.0800 
 29 H        2.1630     1.9650    -3.0020 H     1 <1>   0.0800 
 30 H        0.4260     1.8410    -3.1880 H     1 <1>   0.0800 
 31 H        2.3790    -0.8700    -1.8940 H     1 <1>   0.0800 
 32 H        2.2390    -0.4420    -0.2090 H     1 <1>   0.0800 
 33 H        3.2610     0.5090    -1.2670 H     1 <1>   0.0800 
 34 H       -0.9730     1.7170     2.7710 H     1 <1>   0.0800 
 35 H       -1.7710     3.4170     0.7600 H     1 <1>   0.0800 
 36 H        1.6680     2.2120     2.7550 H     1 <1>   0.0800 
 37 H        0.5790     3.1020     3.8120 H     1 <1>   0.0800 
 38 H       -1.6450     4.0000     3.5480 H     1 <1>   0.4000 
 39 H       -0.4930     5.5620     2.0450 H     1 <1>   0.0800 
 40 H       -0.0280     4.9400     0.4720 H     1 <1>   0.0800 
 41 H        1.7060     3.8910     1.2470 H     1 <1>   0.4500 
 42 H        1.4030     5.5610     3.6260 H     1 <1>   0.0800 
 43 H        2.8570     4.7000     3.1520 H     1 <1>   0.0800 
 44 H        3.3560     4.9520     0.4620 H     1 <1>   0.1500 
 45 H        1.3330     7.8230     2.9130 H     1 <1>   0.1500 
 46 H        1.8490     9.5500     1.3070 H     1 <1>   0.1500 
 47 H        5.0390     6.1490    -1.2820 H     1 <1>   0.0800 
 48 H        4.1990     7.3700    -2.2160 H     1 <1>   0.0800 
 49 H        2.4630     5.8950    -2.3880 H     1 <1>   0.4000 
 50 H        1.8410    10.6610    -0.7370 H     1 <1>   0.0800 
 51 H        3.3880    10.8830     0.0900 H     1 <1>   0.0800 
 52 H        2.9740    10.9460    -2.9220 H     1 <1>   0.0800 
 53 H        4.5100    11.1700    -2.1000 H     1 <1>   0.0800 
 54 H        3.2370    12.3520    -1.9200 H     1 <1>   0.0800 
@<TRIPOS>BOND
  1   1   2  2   
  2   1   3  2   
  3   1   4  am  
  4   1   5  1   
  5   4   6  1   
  6   4   7  1   
  7   5   8  1   
  8   5  26  1   
  9   5  27  1   
 10   6  28  1   
 11   6  29  1   
 12   6  30  1   
 13   7  31  1   
 14   7  32  1   
 15   7  33  1   
 16   8   9  1   
 17   8  10  1   
 18   8  34  1   
 19   9  11  1   
 20   9  12  1   
 21   9  35  1   
 22  10  13  1   
 23  10  36  1   
 24  10  37  1   
 25  11  38  1   
 26  12  13  1   
 27  12  39  1   
 28  12  40  1   
 29  13  14  1   
 30  13  41  1   
 31  14  15  1   
 32  14  42  1   
 33  14  43  1   
 34  15  16  ar  
 35  15  17  ar  
 36  16  18  ar  
 37  16  44  1   
 38  17  19  ar  
 39  17  45  1   
 40  18  20  ar  
 41  18  21  1   
 42  19  20  ar  
 43  19  46  1   
 44  20  22  1   
 45  21  23  1   
 46  21  47  1   
 47  21  48  1   
 48  22  24  1   
 49  23  49  1   
 50  24  25  1   
 51  24  50  1   
 52  24  51  1   
 53  25  52  1   
 54  25  53  1   
 55  25  54  1   
@<TRIPOS>SUBSTRUCTURE
  1 ****  16 GROUP 4 **** **** 0

# MOE 2024.06 (io_trps.svl 2023.06)
