@<TRIPOS>MOLECULE
NONAME
48 51 1 0 0 
SMALL
USER_CHARGES


@<TRIPOS>ATOM
  1 O       -0.3340    -0.8400    -1.2810 O.3   1 <1>  -0.5600 
  2 C        0.9190    -0.9310    -0.6570 C.3   1 <1>   0.4600 
  3 C       -1.4640    -1.3370    -0.6040 C.3   1 <1>   0.1200 
  4 C        1.0540    -2.2990     0.0190 C.2   1 <1>  -0.3320 
  5 C        1.0170     0.2190     0.3480 C.3   1 <1>  -0.1600 
  6 C        1.9230    -0.7540    -1.7950 C.3   1 <1>  -0.1600 
  7 C       -1.3540    -2.8550    -0.4000 C.3   1 <1>   0.0210 
  8 N        2.1620    -2.8670     0.5950 N.pl3 1 <1>   0.0330 
  9 C        0.0240    -3.1640     0.1310 C.2   1 <1>  -0.1810 
 10 C        2.4430     0.4220     0.8360 C.3   1 <1>   0.3430 
 11 C        3.3400    -0.5080    -1.3000 C.3   1 <1>   0.3430 
 12 C        1.8170    -4.1040     1.0730 C.ar  1 <1>  -0.1520 
 13 C        0.4730    -4.3250     0.7930 C.ar  1 <1>   0.0000 
 14 N        3.3530     0.6190    -0.3280 N.4   1 <1>  -0.9590 
 15 C        2.5780    -5.0700     1.7370 C.ar  1 <1>  -0.1500 
 16 C       -0.1270    -5.5270     1.1780 C.ar  1 <1>  -0.1500 
 17 C        4.7360     1.0330     0.0730 C.3   1 <1>   0.3430 
 18 C        1.9760    -6.2480     2.1120 C.ar  1 <1>  -0.1500 
 19 C        0.6230    -6.4770     1.8320 C.ar  1 <1>  -0.1500 
 20 C        4.7630     2.5340     0.4330 C.3   1 <1>   0.2000 
 21 O        3.8670     3.2120    -0.3940 O.3   1 <1>  -0.6800 
 22 C        6.1530     3.1750     0.2780 C.3   1 <1>   0.1200 
 23 O        6.0270     4.5570     0.3740 O.3   1 <1>  -0.6800 
 24 H       -2.3320    -1.1060    -1.1960 H     1 <1>   0.0800 
 25 H       -1.5490    -0.8360     0.3440 H     1 <1>   0.0800 
 26 H        0.3940     0.0070     1.1970 H     1 <1>   0.0800 
 27 H        0.6700     1.1290    -0.1070 H     1 <1>   0.0800 
 28 H        1.6250     0.0790    -2.4070 H     1 <1>   0.0800 
 29 H        1.9100    -1.6350    -2.4110 H     1 <1>   0.0800 
 30 H       -1.5060    -3.3630    -1.3340 H     1 <1>   0.0800 
 31 H       -2.1050    -3.1820     0.2960 H     1 <1>   0.0800 
 32 H        3.1080    -2.4910     0.6710 H     1 <1>   0.2700 
 33 H        2.7550    -0.4340     1.4100 H     1 <1>   0.0800 
 34 H        2.4740     1.2900     1.4760 H     1 <1>   0.0800 
 35 H        3.9710    -0.2750    -2.1430 H     1 <1>   0.0800 
 36 H        3.7200    -1.4010    -0.8340 H     1 <1>   0.0800 
 37 H        3.0070     1.4730    -0.8160 H     1 <1>   0.4500 
 38 H        3.6170    -4.8940     1.9500 H     1 <1>   0.1500 
 39 H       -1.1650    -5.6910     0.9570 H     1 <1>   0.1500 
 40 H        5.4050     0.8820    -0.7580 H     1 <1>   0.0800 
 41 H        5.0940     0.4410     0.8990 H     1 <1>   0.0800 
 42 H        2.5380    -7.0090     2.6240 H     1 <1>   0.1500 
 43 H        0.1760    -7.4080     2.1350 H     1 <1>   0.1500 
 44 H        4.4320     2.6700     1.4490 H     1 <1>   0.0800 
 45 H        4.1150     4.1690    -0.3520 H     1 <1>   0.4000 
 46 H        6.5780     2.9430    -0.6850 H     1 <1>   0.0800 
 47 H        6.8200     2.8380     1.0530 H     1 <1>   0.0800 
 48 H        6.8980     5.0050     0.3040 H     1 <1>   0.4000 
@<TRIPOS>BOND
  1   1   2  1   
  2   1   3  1   
  3   2   4  1   
  4   2   5  1   
  5   2   6  1   
  6   3   7  1   
  7   3  24  1   
  8   3  25  1   
  9   4   8  1   
 10   4   9  2   
 11   5  10  1   
 12   5  26  1   
 13   5  27  1   
 14   6  11  1   
 15   6  28  1   
 16   6  29  1   
 17   7   9  1   
 18   7  30  1   
 19   7  31  1   
 20   8  12  1   
 21   8  32  1   
 22   9  13  1   
 23  10  14  1   
 24  10  33  1   
 25  10  34  1   
 26  11  14  1   
 27  11  35  1   
 28  11  36  1   
 29  12  13  ar  
 30  12  15  ar  
 31  13  16  ar  
 32  14  17  1   
 33  14  37  1   
 34  15  18  ar  
 35  15  38  1   
 36  16  19  ar  
 37  16  39  1   
 38  17  20  1   
 39  17  40  1   
 40  17  41  1   
 41  18  19  ar  
 42  18  42  1   
 43  19  43  1   
 44  20  21  1   
 45  20  22  1   
 46  20  44  1   
 47  21  45  1   
 48  22  23  1   
 49  22  46  1   
 50  22  47  1   
 51  23  48  1   
@<TRIPOS>SUBSTRUCTURE
  1 ****   4 GROUP 4 **** **** 0

# MOE 2024.06 (io_trps.svl 2023.06)
