@<TRIPOS>MOLECULE
NONAME
53 55 1 0 0 
SMALL
USER_CHARGES


@<TRIPOS>ATOM
  1 F       -1.1200    -0.9740    -2.1640 F     1 <1>  -0.3400 
  2 C       -1.9610    -1.7470    -1.4820 C.3   1 <1>   1.1640 
  3 F       -1.2320    -2.7880    -1.1010 F     1 <1>  -0.3400 
  4 F       -2.8310    -2.1900    -2.3830 F     1 <1>  -0.3400 
  5 C       -2.6270    -0.9960    -0.3040 C.ar  1 <1>  -0.1440 
  6 C       -3.3080    -1.6480     0.7340 C.ar  1 <1>  -0.1440 
  7 C       -2.5530     0.3970    -0.2690 C.ar  1 <1>  -0.1500 
  8 C       -3.8720    -0.9030     1.7620 C.ar  1 <1>  -0.1500 
  9 C       -3.4910    -3.1660     0.8050 C.3   1 <1>   0.2540 
 10 C       -3.1200     1.1260     0.7590 C.ar  1 <1>  -0.1500 
 11 C       -3.7800     0.4740     1.7790 C.ar  1 <1>  -0.1500 
 12 N       -4.3330    -3.6670    -0.2990 N.3   1 <1>  -0.8100 
 13 C       -4.5470    -5.1390    -0.1960 C.3   1 <1>   0.3330 
 14 C       -5.6240    -2.9580    -0.3860 C.3   1 <1>   0.1100 
 15 C       -3.1920    -5.8370    -0.3440 C.ar  1 <1>  -0.1430 
 16 C       -5.5620    -5.6740    -1.2550 C.3   1 <1>   0.2000 
 17 C       -6.4720    -3.5210    -1.5300 C.3   1 <1>   0.1200 
 18 C       -2.7180    -6.6630     0.6660 C.ar  1 <1>  -0.1500 
 19 C       -2.4230    -5.6590    -1.4860 C.ar  1 <1>  -0.1500 
 20 O       -6.7180    -4.8750    -1.3080 O.3   1 <1>  -0.5600 
 21 C       -6.0750    -7.1050    -0.9980 C.3   1 <1>   0.1200 
 22 C       -1.5020    -7.3110     0.5380 C.ar  1 <1>   0.0830 
 23 C       -1.1990    -6.2930    -1.6180 C.ar  1 <1>  -0.1500 
 24 O       -5.0580    -8.0340    -0.8010 O.3   1 <1>  -0.6800 
 25 O       -1.1220    -8.1340     1.5450 O.3   1 <1>  -0.3630 
 26 C       -0.7240    -7.1100    -0.6070 C.ar  1 <1>   0.0830 
 27 C       -1.1340    -9.5120     1.2470 C.3   1 <1>   0.0400 
 28 O        0.4920    -7.6820    -0.7800 O.3   1 <1>  -0.3630 
 29 C        1.5100    -7.2610     0.1010 C.3   1 <1>   0.0400 
 30 H       -2.0480     0.9430    -1.0490 H     1 <1>   0.1500 
 31 H       -4.3940    -1.3940     2.5650 H     1 <1>   0.1500 
 32 H       -3.9460    -3.4340     1.7430 H     1 <1>   0.0800 
 33 H       -2.5250    -3.6380     0.7790 H     1 <1>   0.0800 
 34 H       -3.0470     2.2000     0.7640 H     1 <1>   0.1500 
 35 H       -4.2210     1.0370     2.5830 H     1 <1>   0.1500 
 36 H       -4.9520    -5.3630     0.7760 H     1 <1>   0.0800 
 37 H       -6.1660    -3.0480     0.5400 H     1 <1>   0.0800 
 38 H       -5.4570    -1.9120    -0.5800 H     1 <1>   0.0800 
 39 H       -5.1100    -5.6380    -2.2300 H     1 <1>   0.0800 
 40 H       -5.9660    -3.4030    -2.4730 H     1 <1>   0.0800 
 41 H       -7.4210    -3.0170    -1.5750 H     1 <1>   0.0800 
 42 H       -3.2950    -6.8260     1.5580 H     1 <1>   0.1500 
 43 H       -2.7710    -5.0100    -2.2720 H     1 <1>   0.1500 
 44 H       -6.6550    -7.4330    -1.8420 H     1 <1>   0.0800 
 45 H       -6.6950    -7.1210    -0.1190 H     1 <1>   0.0800 
 46 H       -0.6030    -6.1460    -2.5000 H     1 <1>   0.1500 
 47 H       -4.2700    -7.8210    -1.3430 H     1 <1>   0.4000 
 48 H       -0.8830   -10.0520     2.1420 H     1 <1>   0.0800 
 49 H       -0.4100    -9.7160     0.4790 H     1 <1>   0.0800 
 50 H       -2.1200    -9.7860     0.9140 H     1 <1>   0.0800 
 51 H        2.4380    -7.6910    -0.2280 H     1 <1>   0.0800 
 52 H        1.2820    -7.5970     1.0960 H     1 <1>   0.0800 
 53 H        1.5700    -6.1870     0.0740 H     1 <1>   0.0800 
@<TRIPOS>BOND
  1   1   2  1   
  2   2   3  1   
  3   2   4  1   
  4   2   5  1   
  5   5   6  ar  
  6   5   7  ar  
  7   6   8  ar  
  8   6   9  1   
  9   7  10  ar  
 10   7  30  1   
 11   8  11  ar  
 12   8  31  1   
 13   9  12  1   
 14   9  32  1   
 15   9  33  1   
 16  10  11  ar  
 17  10  34  1   
 18  11  35  1   
 19  12  13  1   
 20  12  14  1   
 21  13  15  1   
 22  13  16  1   
 23  13  36  1   
 24  14  17  1   
 25  14  37  1   
 26  14  38  1   
 27  15  18  ar  
 28  15  19  ar  
 29  16  20  1   
 30  16  21  1   
 31  16  39  1   
 32  17  20  1   
 33  17  40  1   
 34  17  41  1   
 35  18  22  ar  
 36  18  42  1   
 37  19  23  ar  
 38  19  43  1   
 39  21  24  1   
 40  21  44  1   
 41  21  45  1   
 42  22  25  1   
 43  22  26  ar  
 44  23  26  ar  
 45  23  46  1   
 46  24  47  1   
 47  25  27  1   
 48  26  28  1   
 49  27  48  1   
 50  27  49  1   
 51  27  50  1   
 52  28  29  1   
 53  29  51  1   
 54  29  52  1   
 55  29  53  1   
@<TRIPOS>SUBSTRUCTURE
  1 ****  12 GROUP 4 **** **** 0

# MOE 2024.06 (io_trps.svl 2023.06)
