@<TRIPOS>MOLECULE
NONAME
55 58 1 0 0 
SMALL
USER_CHARGES


@<TRIPOS>ATOM
  1 O        0.9710     0.6000     1.0750 O.3   1 <1>  -0.3630 
  2 C        1.4970    -0.5080     0.4970 C.ar  1 <1>   0.0820 
  3 C        0.5020     1.6020     0.2020 C.3   1 <1>   0.1200 
  4 C        0.6720    -1.5610     0.0950 C.ar  1 <1>   0.0820 
  5 C        2.8710    -0.5720     0.3180 C.ar  1 <1>  -0.1440 
  6 C        1.6220     2.5800    -0.1920 C.3   1 <1>  -0.1600 
  7 O       -0.6730    -1.4390     0.2890 O.3   1 <1>  -0.3620 
  8 C        1.2520    -2.6840    -0.4910 C.ar  1 <1>  -0.1500 
  9 C        3.4290    -1.6950    -0.2730 C.ar  1 <1>  -0.1500 
 10 C        3.7440     0.5940     0.7540 C.3   1 <1>   0.3530 
 11 C        2.7100     1.9900    -1.1060 C.3   1 <1>   0.2090 
 12 C       -1.5470    -2.5240     0.0740 C.3   1 <1>   0.0400 
 13 C        2.6230    -2.7470    -0.6730 C.ar  1 <1>  -0.1500 
 14 N        3.9340     1.5550    -0.3650 N.pl3 1 <1>  -0.8380 
 15 C        4.9990     2.4270    -0.2720 C.ar  1 <1>   0.4100 
 16 N        4.7520     3.6940    -0.1500 N.ar  1 <1>  -0.6200 
 17 C        6.3030     1.9190    -0.3050 C.ar  1 <1>  -0.1500 
 18 C        5.7960     4.5580    -0.0350 C.ar  1 <1>   0.3100 
 19 C        7.3860     2.7340    -0.1900 C.ar  1 <1>  -0.1430 
 20 C        7.1560     4.1330    -0.0360 C.ar  1 <1>   0.0000 
 21 C        5.4940     5.9410     0.0940 C.ar  1 <1>   0.0820 
 22 C        8.7650     2.0840    -0.2430 C.3   1 <1>  -0.0970 
 23 C        8.1630     5.1320     0.1130 C.ar  1 <1>   0.0820 
 24 O        4.1770     6.3150     0.0810 O.3   1 <1>  -0.3630 
 25 C        6.5000     6.8690     0.2270 C.ar  1 <1>  -0.1500 
 26 O        9.4680     4.7490     0.1310 O.3   1 <1>  -0.3620 
 27 C        7.8280     6.4630     0.2380 C.ar  1 <1>  -0.1500 
 28 C        3.7640     7.6500     0.2660 C.3   1 <1>   0.0400 
 29 C       10.5430     5.6560     0.2520 C.3   1 <1>   0.0400 
 30 H       -0.2730     2.1320     0.7260 H     1 <1>   0.0800 
 31 H        0.0680     1.1320    -0.6650 H     1 <1>   0.0800 
 32 H        2.0640     3.0280     0.6810 H     1 <1>   0.0800 
 33 H        1.1560     3.3760    -0.7410 H     1 <1>   0.0800 
 34 H        0.6560    -3.5150    -0.8150 H     1 <1>   0.1500 
 35 H        4.4930    -1.7460    -0.4280 H     1 <1>   0.1500 
 36 H        4.6980     0.2210     1.0790 H     1 <1>   0.0800 
 37 H        3.3020     1.1080     1.5900 H     1 <1>   0.0800 
 38 H        3.0010     2.7450    -1.8170 H     1 <1>   0.0800 
 39 H        2.3180     1.1630    -1.6720 H     1 <1>   0.0800 
 40 H       -2.5360    -2.2160     0.3610 H     1 <1>   0.0800 
 41 H       -1.2310    -3.3520     0.6830 H     1 <1>   0.0800 
 42 H       -1.5330    -2.7820    -0.9700 H     1 <1>   0.0800 
 43 H        3.0650    -3.6150    -1.1300 H     1 <1>   0.1500 
 44 H        6.4050     0.8600    -0.4350 H     1 <1>   0.1500 
 45 H        8.6920     1.0220    -0.3860 H     1 <1>   0.0800 
 46 H        9.2910     2.2610     0.6770 H     1 <1>   0.0800 
 47 H        9.3310     2.4910    -1.0610 H     1 <1>   0.0800 
 48 H        6.3000     7.9190     0.3250 H     1 <1>   0.1500 
 49 H        8.5690     7.2310     0.3480 H     1 <1>   0.1500 
 50 H        2.6900     7.6700     0.2410 H     1 <1>   0.0800 
 51 H        4.1590     8.2510    -0.5330 H     1 <1>   0.0800 
 52 H        4.1140     7.9940     1.2230 H     1 <1>   0.0800 
 53 H       11.4580     5.0920     0.2290 H     1 <1>   0.0800 
 54 H       10.4590     6.1750     1.1900 H     1 <1>   0.0800 
 55 H       10.5170     6.3420    -0.5770 H     1 <1>   0.0800 
@<TRIPOS>BOND
  1   1   2  1   
  2   1   3  1   
  3   2   4  ar  
  4   2   5  ar  
  5   3   6  1   
  6   3  30  1   
  7   3  31  1   
  8   4   7  1   
  9   4   8  ar  
 10   5   9  ar  
 11   5  10  1   
 12   6  11  1   
 13   6  32  1   
 14   6  33  1   
 15   7  12  1   
 16   8  13  ar  
 17   8  34  1   
 18   9  13  ar  
 19   9  35  1   
 20  10  14  1   
 21  10  36  1   
 22  10  37  1   
 23  11  14  1   
 24  11  38  1   
 25  11  39  1   
 26  12  40  1   
 27  12  41  1   
 28  12  42  1   
 29  13  43  1   
 30  14  15  1   
 31  15  16  ar  
 32  15  17  ar  
 33  16  18  ar  
 34  17  19  ar  
 35  17  44  1   
 36  18  20  ar  
 37  18  21  ar  
 38  19  20  ar  
 39  19  22  1   
 40  20  23  ar  
 41  21  24  1   
 42  21  25  ar  
 43  22  45  1   
 44  22  46  1   
 45  22  47  1   
 46  23  26  1   
 47  23  27  ar  
 48  24  28  1   
 49  25  27  ar  
 50  25  48  1   
 51  26  29  1   
 52  27  49  1   
 53  28  50  1   
 54  28  51  1   
 55  28  52  1   
 56  29  53  1   
 57  29  54  1   
 58  29  55  1   
@<TRIPOS>SUBSTRUCTURE
  1 ****  15 GROUP 4 **** **** 0

# MOE 2024.06 (io_trps.svl 2023.06)
