@<TRIPOS>MOLECULE
NONAME
50 52 1 0 0 
SMALL
USER_CHARGES


@<TRIPOS>ATOM
  1 S        0.3200    -0.6630    -2.3990 S.3   1 <1>   0.1810 
  2 N        0.8040     0.9460    -2.2130 N.2   1 <1>  -0.2210 
  3 C        1.3690    -1.2320    -1.1500 C.2   1 <1>  -0.0450 
  4 N        1.6800     1.0440    -1.3130 N.2   1 <1>  -0.2270 
  5 C        2.0210    -0.1420    -0.7040 C.2   1 <1>   0.0460 
  6 C        1.3720    -2.6320    -0.8540 C.2   1 <1>   0.7150 
  7 C        3.0880    -0.0820     0.3870 C.3   1 <1>   0.1010 
  8 O        2.3360    -3.3070    -1.1580 O.2   1 <1>  -0.5700 
  9 N        0.3060    -3.2340    -0.2220 N.am  1 <1>  -0.6600 
 10 C        4.4530    -0.4760    -0.1860 C.3   1 <1>  -0.2400 
 11 C        2.7440    -0.9550     1.6010 C.3   1 <1>  -0.2400 
 12 C        0.2060    -4.7190    -0.0540 C.3   1 <1>   0.1400 
 13 C       -0.8630    -2.5090     0.3610 C.3   1 <1>   0.1400 
 14 C       -1.1740    -5.2370    -0.5020 C.3   1 <1>   0.3440 
 15 C       -2.1820    -3.1250    -0.1520 C.3   1 <1>   0.2000 
 16 O       -2.1970    -4.5000     0.1180 O.3   1 <1>  -0.5600 
 17 C       -1.3300    -6.7150    -0.1570 C.ar  1 <1>  -0.1440 
 18 C       -3.4420    -2.4700     0.4610 C.3   1 <1>  -0.0800 
 19 C       -0.9650    -7.6780    -1.0880 C.ar  1 <1>  -0.1500 
 20 C       -1.8170    -7.1220     1.0770 C.ar  1 <1>  -0.1500 
 21 C       -3.5600    -2.6680     1.9830 C.3   1 <1>  -0.2400 
 22 C       -4.7140    -2.9990    -0.2200 C.3   1 <1>  -0.2400 
 23 C       -1.0840    -9.0250    -0.7900 C.ar  1 <1>  -0.1500 
 24 C       -1.9370    -8.4680     1.3770 C.ar  1 <1>  -0.1500 
 25 C       -1.5700    -9.4210     0.4440 C.ar  1 <1>  -0.1500 
 26 H        3.1490     0.9370     0.7310 H     1 <1>   0.0800 
 27 H        4.4350    -1.4930    -0.5390 H     1 <1>   0.0800 
 28 H        5.2170    -0.3830     0.5640 H     1 <1>   0.0800 
 29 H        4.7030     0.1670    -1.0120 H     1 <1>   0.0800 
 30 H        2.7950    -2.0010     1.3570 H     1 <1>   0.0800 
 31 H        1.7540    -0.7250     1.9540 H     1 <1>   0.0800 
 32 H        3.4410    -0.7650     2.3970 H     1 <1>   0.0800 
 33 H        0.9680    -5.2210    -0.6250 H     1 <1>   0.0800 
 34 H        0.3560    -4.9700     0.9810 H     1 <1>   0.0800 
 35 H       -0.8190    -2.5960     1.4320 H     1 <1>   0.0800 
 36 H       -0.8370    -1.4630     0.1170 H     1 <1>   0.0800 
 37 H       -1.2790    -5.1100    -1.5650 H     1 <1>   0.0800 
 38 H       -2.2250    -3.0000    -1.2210 H     1 <1>   0.0800 
 39 H       -3.3900    -1.4120     0.2670 H     1 <1>   0.0800 
 40 H       -0.5850    -7.3870    -2.0520 H     1 <1>   0.1500 
 41 H       -2.1090    -6.3890     1.8090 H     1 <1>   0.1500 
 42 H       -3.5810    -3.7170     2.2240 H     1 <1>   0.0800 
 43 H       -4.4680    -2.2200     2.3470 H     1 <1>   0.0800 
 44 H       -2.7370    -2.2130     2.5010 H     1 <1>   0.0800 
 45 H       -4.8240    -4.0550    -0.0410 H     1 <1>   0.0800 
 46 H       -4.6680    -2.8360    -1.2820 H     1 <1>   0.0800 
 47 H       -5.5830    -2.4950     0.1630 H     1 <1>   0.0800 
 48 H       -0.8000    -9.7650    -1.5170 H     1 <1>   0.1500 
 49 H       -2.3170    -8.7720     2.3370 H     1 <1>   0.1500 
 50 H       -1.6630   -10.4670     0.6760 H     1 <1>   0.1500 
@<TRIPOS>BOND
  1   1   2  1   
  2   1   3  1   
  3   2   4  2   
  4   3   5  2   
  5   3   6  1   
  6   4   5  1   
  7   5   7  1   
  8   6   8  2   
  9   6   9  am  
 10   7  10  1   
 11   7  11  1   
 12   7  26  1   
 13   9  12  1   
 14   9  13  1   
 15  10  27  1   
 16  10  28  1   
 17  10  29  1   
 18  11  30  1   
 19  11  31  1   
 20  11  32  1   
 21  12  14  1   
 22  12  33  1   
 23  12  34  1   
 24  13  15  1   
 25  13  35  1   
 26  13  36  1   
 27  14  16  1   
 28  14  17  1   
 29  14  37  1   
 30  15  16  1   
 31  15  18  1   
 32  15  38  1   
 33  17  19  ar  
 34  17  20  ar  
 35  18  21  1   
 36  18  22  1   
 37  18  39  1   
 38  19  23  ar  
 39  19  40  1   
 40  20  24  ar  
 41  20  41  1   
 42  21  42  1   
 43  21  43  1   
 44  21  44  1   
 45  22  45  1   
 46  22  46  1   
 47  22  47  1   
 48  23  25  ar  
 49  23  48  1   
 50  24  25  ar  
 51  24  49  1   
 52  25  50  1   
@<TRIPOS>SUBSTRUCTURE
  1 ****   9 GROUP 4 **** **** 0

# MOE 2024.06 (io_trps.svl 2023.06)
