@<TRIPOS>MOLECULE
NONAME
48 51 1 0 0 
SMALL
USER_CHARGES


@<TRIPOS>ATOM
  1 O       -0.1690     0.6780     1.5340 O.2   1 <1>  -0.5700 
  2 C       -0.1320     1.8780     1.2990 C.2   1 <1>   0.7160 
  3 N       -1.3440     2.5560     1.2750 N.am  1 <1>  -0.6600 
  4 C        1.1570     2.5250     1.0420 C.2   1 <1>   0.2030 
  5 C       -2.5850     1.9880     1.8730 C.3   1 <1>   0.1400 
  6 C       -1.5250     3.9130     0.6890 C.3   1 <1>   0.1400 
  7 N        1.5090     3.7540     1.4000 N.2   1 <1>  -0.7070 
  8 C        2.2310     1.9140     0.3670 C.2   1 <1>  -0.1810 
  9 C       -3.6820     1.9210     0.8090 C.3   1 <1>  -0.1600 
 10 C       -2.6200     3.8610    -0.3790 C.3   1 <1>  -0.1600 
 11 N        2.7670     3.9160     0.9660 N.pl3 1 <1>   0.3000 
 12 C        3.2190     2.8230     0.3300 C.2   1 <1>  -0.3320 
 13 C        2.3490     0.5260    -0.2420 C.3   1 <1>   0.0210 
 14 C       -3.9340     3.2890     0.1710 C.3   1 <1>   0.4180 
 15 C        4.5820     2.6270    -0.3060 C.3   1 <1>   0.0200 
 16 C        3.8210     0.2030    -0.5670 C.3   1 <1>  -0.1600 
 17 O       -4.4150     4.1210     1.1990 O.3   1 <1>  -0.5600 
 18 C       -4.9770     3.1560    -0.9360 C.2   1 <1>  -0.2880 
 19 C        4.5480     1.3930    -1.2250 C.3   1 <1>  -0.1600 
 20 C       -5.1100     5.2770     0.8230 C.3   1 <1>   0.1200 
 21 C       -6.1050     3.8700    -0.9930 C.2   1 <1>  -0.2760 
 22 C       -6.3970     4.9120     0.0700 C.3   1 <1>  -0.0220 
 23 C       -7.1670     3.7160    -2.0670 C.3   1 <1>  -0.1020 
 24 H       -2.9020     2.6210     2.6840 H     1 <1>   0.0800 
 25 H       -2.4060     1.0050     2.2720 H     1 <1>   0.0800 
 26 H       -0.6180     4.2640     0.2330 H     1 <1>   0.0800 
 27 H       -1.8000     4.6000     1.4710 H     1 <1>   0.0800 
 28 H       -4.5940     1.5630     1.2470 H     1 <1>   0.0800 
 29 H       -3.3830     1.2170     0.0540 H     1 <1>   0.0800 
 30 H       -2.2770     3.2370    -1.1840 H     1 <1>   0.0800 
 31 H       -2.7820     4.8400    -0.7880 H     1 <1>   0.0800 
 32 H        3.2950     4.7840     1.1180 H     1 <1>   0.2700 
 33 H        1.7600     0.4940    -1.1410 H     1 <1>   0.0800 
 34 H        1.9670    -0.2140     0.4390 H     1 <1>   0.0800 
 35 H        5.3120     2.4800     0.4710 H     1 <1>   0.0800 
 36 H        4.8590     3.4950    -0.8780 H     1 <1>   0.0800 
 37 H        3.8620    -0.6560    -1.2130 H     1 <1>   0.0800 
 38 H        4.3280    -0.0490     0.3480 H     1 <1>   0.0800 
 39 H       -4.7130     2.4150    -1.6680 H     1 <1>   0.1500 
 40 H        5.5530     1.1110    -1.4830 H     1 <1>   0.0800 
 41 H        4.0340     1.6510    -2.1350 H     1 <1>   0.0800 
 42 H       -4.4690     5.8790     0.2040 H     1 <1>   0.0800 
 43 H       -5.3430     5.8260     1.7170 H     1 <1>   0.0800 
 44 H       -6.7940     5.8040    -0.3800 H     1 <1>   0.0800 
 45 H       -7.1260     4.5310     0.7620 H     1 <1>   0.0800 
 46 H       -7.2910     4.6400    -2.6040 H     1 <1>   0.0800 
 47 H       -8.1070     3.4440    -1.6210 H     1 <1>   0.0800 
 48 H       -6.8870     2.9500    -2.7670 H     1 <1>   0.0800 
@<TRIPOS>BOND
  1   1   2  2   
  2   2   3  am  
  3   2   4  1   
  4   3   5  1   
  5   3   6  1   
  6   4   7  2   
  7   4   8  1   
  8   5   9  1   
  9   5  24  1   
 10   5  25  1   
 11   6  10  1   
 12   6  26  1   
 13   6  27  1   
 14   7  11  1   
 15   8  12  2   
 16   8  13  1   
 17   9  14  1   
 18   9  28  1   
 19   9  29  1   
 20  10  14  1   
 21  10  30  1   
 22  10  31  1   
 23  11  12  1   
 24  11  32  1   
 25  12  15  1   
 26  13  16  1   
 27  13  33  1   
 28  13  34  1   
 29  14  17  1   
 30  14  18  1   
 31  15  19  1   
 32  15  35  1   
 33  15  36  1   
 34  16  19  1   
 35  16  37  1   
 36  16  38  1   
 37  17  20  1   
 38  18  21  2   
 39  18  39  1   
 40  19  40  1   
 41  19  41  1   
 42  20  22  1   
 43  20  42  1   
 44  20  43  1   
 45  21  22  1   
 46  21  23  1   
 47  22  44  1   
 48  22  45  1   
 49  23  46  1   
 50  23  47  1   
 51  23  48  1   
@<TRIPOS>SUBSTRUCTURE
  1 ****   3 GROUP 4 **** **** 0

# MOE 2024.06 (io_trps.svl 2023.06)
