@<TRIPOS>MOLECULE
NONAME
40 41 1 0 0 
SMALL
USER_CHARGES


@<TRIPOS>ATOM
  1 O        0.2570    -0.4150    -1.5360 O.3   1 <1>  -0.3630 
  2 C        1.3370     0.2830    -1.1070 C.ar  1 <1>   0.0830 
  3 C       -0.0230    -1.7040    -1.0300 C.3   1 <1>   0.1200 
  4 C        1.5080     1.5540    -1.6280 C.ar  1 <1>  -0.1500 
  5 C        2.2610    -0.2060    -0.1860 C.ar  1 <1>  -0.1500 
  6 C       -1.3290    -2.2020    -1.6470 C.3   1 <1>   0.2090 
  7 C        2.5830     2.3340    -1.2400 C.ar  1 <1>  -0.1500 
  8 C        3.3350     0.5770     0.1990 C.ar  1 <1>  -0.1500 
  9 N       -1.5800    -3.6170    -1.2550 N.pl3 1 <1>  -0.8690 
 10 C        3.5040     1.8490    -0.3240 C.ar  1 <1>  -0.1430 
 11 C       -2.1610    -3.9800    -0.0640 C.ar  1 <1>   0.4100 
 12 C        4.6840     2.7060     0.1050 C.3   1 <1>  -0.0170 
 13 N       -2.2800    -3.0600     0.8750 N.ar  1 <1>  -0.6200 
 14 C       -2.5980    -5.2660     0.1440 C.ar  1 <1>  -0.1500 
 15 C        4.3220     3.5380     1.3410 C.3   1 <1>  -0.1600 
 16 C       -2.8390    -3.4650     1.9990 C.ar  1 <1>   0.4700 
 17 C       -3.1650    -5.5610     1.3580 C.ar  1 <1>   0.4100 
 18 C        5.4960     4.4090     1.7980 C.3   1 <1>  -0.2400 
 19 N       -3.2970    -4.6630     2.3050 N.ar  1 <1>  -0.6200 
 20 N       -3.6390    -6.7930     1.6670 N.pl3 1 <1>  -0.9000 
 21 H       -0.1220    -1.6380     0.0390 H     1 <1>   0.0800 
 22 H        0.7880    -2.3560    -1.2980 H     1 <1>   0.0800 
 23 H        0.7930     1.9290    -2.3370 H     1 <1>   0.1500 
 24 H        2.1610    -1.1860     0.2400 H     1 <1>   0.1500 
 25 H       -1.2640    -2.1400    -2.7190 H     1 <1>   0.0800 
 26 H       -2.1440    -1.5830    -1.3110 H     1 <1>   0.0800 
 27 H        2.6980     3.3200    -1.6530 H     1 <1>   0.1500 
 28 H        4.0420     0.1910     0.9130 H     1 <1>   0.1500 
 29 H       -1.6600    -4.2730    -2.0350 H     1 <1>   0.4000 
 30 H        4.9690     3.3580    -0.7020 H     1 <1>   0.0800 
 31 H        5.5260     2.0730     0.3260 H     1 <1>   0.0800 
 32 H       -2.4930    -6.0160    -0.6110 H     1 <1>   0.1500 
 33 H        4.0320     2.8780     2.1410 H     1 <1>   0.0800 
 34 H        3.4780     4.1660     1.1110 H     1 <1>   0.0800 
 35 H       -2.9360    -2.7170     2.7680 H     1 <1>   0.1500 
 36 H        6.3420     3.7960     2.0550 H     1 <1>   0.0800 
 37 H        5.2120     4.9800     2.6650 H     1 <1>   0.0800 
 38 H        5.7840     5.0920     1.0190 H     1 <1>   0.0800 
 39 H       -4.1450    -6.8250     2.5540 H     1 <1>   0.4000 
 40 H       -4.0610    -7.3550     0.9300 H     1 <1>   0.4000 
@<TRIPOS>BOND
  1   1   2  1   
  2   1   3  1   
  3   2   4  ar  
  4   2   5  ar  
  5   3   6  1   
  6   3  21  1   
  7   3  22  1   
  8   4   7  ar  
  9   4  23  1   
 10   5   8  ar  
 11   5  24  1   
 12   6   9  1   
 13   6  25  1   
 14   6  26  1   
 15   7  10  ar  
 16   7  27  1   
 17   8  10  ar  
 18   8  28  1   
 19   9  11  1   
 20   9  29  1   
 21  10  12  1   
 22  11  13  ar  
 23  11  14  ar  
 24  12  15  1   
 25  12  30  1   
 26  12  31  1   
 27  13  16  ar  
 28  14  17  ar  
 29  14  32  1   
 30  15  18  1   
 31  15  33  1   
 32  15  34  1   
 33  16  19  ar  
 34  16  35  1   
 35  17  19  ar  
 36  17  20  1   
 37  18  36  1   
 38  18  37  1   
 39  18  38  1   
 40  20  39  1   
 41  20  40  1   
@<TRIPOS>SUBSTRUCTURE
  1 ****   3 GROUP 4 **** **** 0

# MOE 2024.06 (io_trps.svl 2023.06)
