@<TRIPOS>MOLECULE
NONAME
54 56 1 0 0 
SMALL
USER_CHARGES


@<TRIPOS>ATOM
  1 O        2.9050     1.6650     0.0800 O.2   1 <1>  -0.5700 
  2 C        1.8820     1.0240     0.2340 C.2   1 <1>   0.5440 
  3 N        0.7670     1.6860     0.6750 N.am  1 <1>  -0.7300 
  4 C        1.8440    -0.4030    -0.0360 C.ar  1 <1>   0.0860 
  5 C        0.7540     3.1200     1.0430 C.3   1 <1>   0.1400 
  6 C        2.9830    -1.1900     0.1240 C.ar  1 <1>  -0.1500 
  7 C        0.6780    -1.0430    -0.4630 C.ar  1 <1>  -0.1500 
  8 C        0.5990     3.9740    -0.2140 C.3   1 <1>  -0.0990 
  9 C        2.9700    -2.5530    -0.1120 C.ar  1 <1>   0.0830 
 10 C        0.6500    -2.4060    -0.7030 C.ar  1 <1>  -0.1500 
 11 C        1.1950     5.3340     0.0380 C.2   1 <1>   0.5690 
 12 O        4.1360    -3.2170     0.0830 O.3   1 <1>  -0.3630 
 13 C        1.7920    -3.1650    -0.5280 C.ar  1 <1>  -0.1500 
 14 O        0.4810     6.2420     0.3840 O.2   1 <1>  -0.5700 
 15 N        2.5320     5.4690    -0.1070 N.am  1 <1>  -0.7300 
 16 C        4.2420    -4.6030    -0.1530 C.3   1 <1>   0.0400 
 17 C        3.3160     6.6850     0.1740 C.3   1 <1>   0.2200 
 18 C        4.3310     6.9080    -0.9360 C.3   1 <1>   0.1200 
 19 C        4.2290     6.4180     1.3510 C.3   1 <1>  -0.1600 
 20 O        5.3820     6.0370    -0.6570 O.3   1 <1>  -0.5600 
 21 C        5.4890     5.8030     0.7180 C.3   1 <1>   0.2800 
 22 C        5.5570     4.2790     0.9290 C.3   1 <1>  -0.1600 
 23 C        6.7800     6.4760     1.2200 C.3   1 <1>  -0.1600 
 24 C        6.8260     3.6520     0.3290 C.3   1 <1>  -0.1600 
 25 C        8.0480     5.8470     0.6200 C.3   1 <1>  -0.1600 
 26 C        8.0900     4.3340     0.8690 C.3   1 <1>  -0.1600 
 27 H       -0.0760     1.1550     0.8970 H     1 <1>   0.3700 
 28 H        1.6860     3.3550     1.5310 H     1 <1>   0.0800 
 29 H       -0.0450     3.3220     1.7350 H     1 <1>   0.0800 
 30 H        3.9010    -0.7270     0.4410 H     1 <1>   0.1500 
 31 H       -0.2170    -0.4690    -0.6180 H     1 <1>   0.1500 
 32 H       -0.4390     4.0760    -0.4690 H     1 <1>   0.0800 
 33 H        1.1190     3.5270    -1.0410 H     1 <1>   0.0800 
 34 H       -0.2610    -2.8780    -1.0310 H     1 <1>   0.1500 
 35 H        1.7470    -4.2210    -0.7190 H     1 <1>   0.1500 
 36 H        3.1020     4.6610    -0.3840 H     1 <1>   0.3700 
 37 H        5.2530    -4.9010     0.0580 H     1 <1>   0.0800 
 38 H        4.0100    -4.8010    -1.1840 H     1 <1>   0.0800 
 39 H        3.5640    -5.1220     0.5020 H     1 <1>   0.0800 
 40 H        2.6690     7.5340     0.3220 H     1 <1>   0.0800 
 41 H        4.7170     7.9120    -0.9030 H     1 <1>   0.0800 
 42 H        3.9320     6.6970    -1.9130 H     1 <1>   0.0800 
 43 H        3.7740     5.7850     2.0910 H     1 <1>   0.0800 
 44 H        4.4760     7.3530     1.8190 H     1 <1>   0.0800 
 45 H        4.6920     3.8070     0.5010 H     1 <1>   0.0800 
 46 H        5.5440     4.0740     1.9850 H     1 <1>   0.0800 
 47 H        6.8230     6.3810     2.2910 H     1 <1>   0.0800 
 48 H        6.7540     7.5250     0.9860 H     1 <1>   0.0800 
 49 H        6.7960     3.7550    -0.7430 H     1 <1>   0.0800 
 50 H        6.8520     2.6010     0.5580 H     1 <1>   0.0800 
 51 H        8.9200     6.3100     1.0480 H     1 <1>   0.0800 
 52 H        8.0640     6.0300    -0.4410 H     1 <1>   0.0800 
 53 H        8.9560     3.9140     0.3890 H     1 <1>   0.0800 
 54 H        8.1740     4.1460     1.9260 H     1 <1>   0.0800 
@<TRIPOS>BOND
  1   1   2  2   
  2   2   3  am  
  3   2   4  1   
  4   3   5  1   
  5   3  27  1   
  6   4   6  ar  
  7   4   7  ar  
  8   5   8  1   
  9   5  28  1   
 10   5  29  1   
 11   6   9  ar  
 12   6  30  1   
 13   7  10  ar  
 14   7  31  1   
 15   8  11  1   
 16   8  32  1   
 17   8  33  1   
 18   9  12  1   
 19   9  13  ar  
 20  10  13  ar  
 21  10  34  1   
 22  11  14  2   
 23  11  15  am  
 24  12  16  1   
 25  13  35  1   
 26  15  17  1   
 27  15  36  1   
 28  16  37  1   
 29  16  38  1   
 30  16  39  1   
 31  17  18  1   
 32  17  19  1   
 33  17  40  1   
 34  18  20  1   
 35  18  41  1   
 36  18  42  1   
 37  19  21  1   
 38  19  43  1   
 39  19  44  1   
 40  20  21  1   
 41  21  22  1   
 42  21  23  1   
 43  22  24  1   
 44  22  45  1   
 45  22  46  1   
 46  23  25  1   
 47  23  47  1   
 48  23  48  1   
 49  24  26  1   
 50  24  49  1   
 51  24  50  1   
 52  25  26  1   
 53  25  51  1   
 54  25  52  1   
 55  26  53  1   
 56  26  54  1   
@<TRIPOS>SUBSTRUCTURE
  1 ****   1 GROUP 4 **** **** 0

# MOE 2024.06 (io_trps.svl 2023.06)
