@<TRIPOS>MOLECULE
NONAME
49 52 1 0 0 
SMALL
USER_CHARGES


@<TRIPOS>ATOM
  1 S       -1.4350     0.2860     0.2890 S.3   1 <1>  -0.0800 
  2 C       -0.4920     1.6060    -0.4040 C.2   1 <1>   0.3250 
  3 C       -1.3950     1.0560     1.8410 C.2   1 <1>  -0.1100 
  4 N       -0.2090     2.5110     0.4850 N.2   1 <1>  -0.5650 
  5 C       -0.1330     1.5540    -1.8160 C.ar  1 <1>   0.6730 
  6 C       -0.7100     2.2030     1.7340 C.2   1 <1>   0.0460 
  7 N        0.6460     2.5490    -2.2870 N.ar  1 <1>  -0.6200 
  8 N       -0.5850     0.5330    -2.5530 N.ar  1 <1>  -0.6200 
  9 C       -0.4390     3.1760     2.8700 C.3   1 <1>   0.0210 
 10 C        0.9810     2.4810    -3.5570 C.ar  1 <1>   0.1600 
 11 C       -0.2370     0.4970    -3.8160 C.ar  1 <1>   0.1600 
 12 C        1.0600     3.4850     3.0120 C.3   1 <1>   0.2090 
 13 C        0.5590     1.4620    -4.3740 C.ar  1 <1>  -0.1500 
 14 N        1.3770     4.8980     2.6560 N.pl3 1 <1>  -0.8690 
 15 C        1.5250     5.5230     1.4810 C.ar  1 <1>   0.7710 
 16 N        1.9640     6.7640     1.5470 N.ar  1 <1>  -0.6200 
 17 N        1.2330     4.9140     0.3210 N.ar  1 <1>  -0.1790 
 18 C        2.1400     7.4210     0.4150 C.ar  1 <1>   0.4100 
 19 C        1.3660     5.5600    -0.8590 C.ar  1 <1>   0.2110 
 20 N        2.6320     8.6860     0.4870 N.pl3 1 <1>  -0.8380 
 21 C        1.8250     6.8330    -0.8270 C.ar  1 <1>  -0.1500 
 22 C        3.4710     9.3360    -0.5720 C.3   1 <1>   0.2090 
 23 C        2.4410     9.5580     1.6870 C.3   1 <1>   0.2090 
 24 C        2.8220    10.6530    -1.0280 C.3   1 <1>   0.2000 
 25 C        1.7860    10.8790     1.2610 C.3   1 <1>  -0.1600 
 26 O        3.6490    11.2910    -1.9350 O.3   1 <1>  -0.6800 
 27 C        2.5760    11.5980     0.1530 C.3   1 <1>  -0.1600 
 28 H       -1.8900     0.5640     2.6590 H     1 <1>   0.1500 
 29 H       -0.7870     2.7320     3.7860 H     1 <1>   0.0800 
 30 H       -1.0010     4.0810     2.7150 H     1 <1>   0.0800 
 31 H        1.6100     3.2550    -3.9650 H     1 <1>   0.1500 
 32 H       -0.5960    -0.3230    -4.4190 H     1 <1>   0.1500 
 33 H        1.6460     2.8120     2.4080 H     1 <1>   0.0800 
 34 H        1.3520     3.3230     4.0370 H     1 <1>   0.0800 
 35 H        0.8410     1.4200    -5.4100 H     1 <1>   0.1500 
 36 H        1.6180     5.4910     3.4580 H     1 <1>   0.4000 
 37 H        0.8510     3.9650     0.3770 H     1 <1>   0.4570 
 38 H        1.0960     5.0510    -1.7690 H     1 <1>   0.1500 
 39 H        1.9340     7.4050    -1.7280 H     1 <1>   0.1500 
 40 H        3.6070     8.6870    -1.4170 H     1 <1>   0.0800 
 41 H        4.4410     9.5440    -0.1550 H     1 <1>   0.0800 
 42 H        3.3990     9.7490     2.1420 H     1 <1>   0.0800 
 43 H        1.8160     9.0770     2.4200 H     1 <1>   0.0800 
 44 H        1.8970    10.4350    -1.5330 H     1 <1>   0.0800 
 45 H        1.7010    11.5230     2.1180 H     1 <1>   0.0800 
 46 H        0.7890    10.6680     0.9150 H     1 <1>   0.0800 
 47 H        4.3980    11.7170    -1.4760 H     1 <1>   0.4000 
 48 H        2.0230    12.4580    -0.1820 H     1 <1>   0.0800 
 49 H        3.5170    11.9270     0.5600 H     1 <1>   0.0800 
@<TRIPOS>BOND
  1   1   2  1   
  2   1   3  1   
  3   2   4  2   
  4   2   5  1   
  5   3   6  2   
  6   3  28  1   
  7   4   6  1   
  8   5   7  ar  
  9   5   8  ar  
 10   6   9  1   
 11   7  10  ar  
 12   8  11  ar  
 13   9  12  1   
 14   9  29  1   
 15   9  30  1   
 16  10  13  ar  
 17  10  31  1   
 18  11  13  ar  
 19  11  32  1   
 20  12  14  1   
 21  12  33  1   
 22  12  34  1   
 23  13  35  1   
 24  14  15  1   
 25  14  36  1   
 26  15  16  ar  
 27  15  17  ar  
 28  16  18  ar  
 29  17  19  ar  
 30  17  37  1   
 31  18  20  1   
 32  18  21  ar  
 33  19  21  ar  
 34  19  38  1   
 35  20  22  1   
 36  20  23  1   
 37  21  39  1   
 38  22  24  1   
 39  22  40  1   
 40  22  41  1   
 41  23  25  1   
 42  23  42  1   
 43  23  43  1   
 44  24  26  1   
 45  24  27  1   
 46  24  44  1   
 47  25  27  1   
 48  25  45  1   
 49  25  46  1   
 50  26  47  1   
 51  27  48  1   
 52  27  49  1   
@<TRIPOS>SUBSTRUCTURE
  1 ****  17 GROUP 4 **** **** 0

# MOE 2024.06 (io_trps.svl 2023.06)
