@<TRIPOS>MOLECULE
NONAME
42 44 1 0 0 
SMALL
USER_CHARGES


@<TRIPOS>ATOM
  1 CL      -4.5870     3.5240     2.2070 Cl    1 <1>  -0.1770 
  2 C       -3.9850     2.1960     1.2440 C.ar  1 <1>   0.1770 
  3 C       -2.7790     1.5870     1.5490 C.ar  1 <1>   0.1770 
  4 C       -4.7390     1.7600     0.1690 C.ar  1 <1>  -0.1500 
  5 CL      -1.8200     2.1260     2.9070 Cl    1 <1>  -0.1770 
  6 C       -2.3160     0.5360     0.7790 C.ar  1 <1>  -0.1500 
  7 C       -4.2830     0.7010    -0.6070 C.ar  1 <1>  -0.1440 
  8 C       -3.0700     0.0970    -0.2980 C.ar  1 <1>  -0.1500 
  9 C       -5.1030     0.2000    -1.7940 C.3   1 <1>   0.0440 
 10 C       -5.3360    -1.3050    -1.7610 C.2   1 <1>   0.5690 
 11 O       -4.8080    -1.9760    -2.6160 O.2   1 <1>  -0.5700 
 12 N       -6.1230    -1.8740    -0.7960 N.am  1 <1>  -0.6600 
 13 C       -6.7890    -1.1750     0.3310 C.3   1 <1>   0.1400 
 14 C       -6.3360    -3.3380    -0.7070 C.3   1 <1>   0.1400 
 15 C       -7.6080    -2.2590     1.0310 C.3   1 <1>   0.2000 
 16 C       -6.9150    -3.5750     0.6880 C.3   1 <1>  -0.0800 
 17 O       -7.6360    -2.0730     2.4030 O.3   1 <1>  -0.6800 
 18 C       -7.8540    -4.7880     0.7680 C.3   1 <1>   0.0200 
 19 C       -7.1400    -6.0580     0.3470 C.2   1 <1>  -0.0400 
 20 O       -6.1160    -6.4900     1.0340 O.3   1 <1>  -0.0190 
 21 C       -7.3430    -6.9070    -0.6700 C.2   1 <1>  -0.1500 
 22 N       -5.6210    -7.5820     0.5280 N.2   1 <1>  -0.4100 
 23 C       -6.3400    -7.8580    -0.5000 C.2   1 <1>   0.1080 
 24 C       -6.1180    -9.0540    -1.3970 C.3   1 <1>  -0.0590 
 25 H       -5.6690     2.2520    -0.0490 H     1 <1>   0.1500 
 26 H       -1.3780     0.0680     1.0200 H     1 <1>   0.1500 
 27 H       -2.7070    -0.7230    -0.8980 H     1 <1>   0.1500 
 28 H       -4.5810     0.4450    -2.7010 H     1 <1>   0.0800 
 29 H       -6.0570     0.6900    -1.8310 H     1 <1>   0.0800 
 30 H       -6.0400    -0.7780     0.9940 H     1 <1>   0.0800 
 31 H       -7.4270    -0.3880    -0.0310 H     1 <1>   0.0800 
 32 H       -7.0320    -3.6350    -1.4730 H     1 <1>   0.0800 
 33 H       -5.4090    -3.8720    -0.8450 H     1 <1>   0.0800 
 34 H       -8.6210    -2.2400     0.6660 H     1 <1>   0.0800 
 35 H       -6.0820    -3.7260     1.3540 H     1 <1>   0.0800 
 36 H       -6.7390    -2.1650     2.7810 H     1 <1>   0.4000 
 37 H       -8.7080    -4.6360     0.1320 H     1 <1>   0.0800 
 38 H       -8.2080    -4.9040     1.7780 H     1 <1>   0.0800 
 39 H       -8.0840    -6.8920    -1.4480 H     1 <1>   0.1500 
 40 H       -6.9950    -9.6740    -1.4030 H     1 <1>   0.0800 
 41 H       -5.2850    -9.6320    -1.0380 H     1 <1>   0.0800 
 42 H       -5.9070    -8.7260    -2.3980 H     1 <1>   0.0800 
@<TRIPOS>BOND
  1   1   2  1   
  2   2   3  ar  
  3   2   4  ar  
  4   3   5  1   
  5   3   6  ar  
  6   4   7  ar  
  7   4  25  1   
  8   6   8  ar  
  9   6  26  1   
 10   7   8  ar  
 11   7   9  1   
 12   8  27  1   
 13   9  10  1   
 14   9  28  1   
 15   9  29  1   
 16  10  11  2   
 17  10  12  am  
 18  12  13  1   
 19  12  14  1   
 20  13  15  1   
 21  13  30  1   
 22  13  31  1   
 23  14  16  1   
 24  14  32  1   
 25  14  33  1   
 26  15  16  1   
 27  15  17  1   
 28  15  34  1   
 29  16  18  1   
 30  16  35  1   
 31  17  36  1   
 32  18  19  1   
 33  18  37  1   
 34  18  38  1   
 35  19  20  1   
 36  19  21  2   
 37  20  22  1   
 38  21  23  1   
 39  21  39  1   
 40  22  23  2   
 41  23  24  1   
 42  24  40  1   
 43  24  41  1   
 44  24  42  1   
@<TRIPOS>SUBSTRUCTURE
  1 ****  12 GROUP 4 **** **** 0

# MOE 2024.06 (io_trps.svl 2023.06)
