@<TRIPOS>MOLECULE
NONAME
49 52 1 0 0 
SMALL
USER_CHARGES


@<TRIPOS>ATOM
  1 O       -3.9600    -1.0590    -2.9640 O.2   1 <1>  -0.5700 
  2 C       -3.6060    -1.2580    -1.8260 C.2   1 <1>   0.5690 
  3 N       -3.3260    -0.2380    -0.9650 N.am  1 <1>  -0.6600 
  4 C       -3.4600    -2.6930    -1.3750 C.3   1 <1>  -0.0190 
  5 C       -3.0650    -0.4880     0.4800 C.3   1 <1>   0.2200 
  6 C       -3.3750     1.1900    -1.3900 C.3   1 <1>   0.0600 
  7 C       -2.0140    -2.9840    -0.9350 C.3   1 <1>   0.1200 
  8 C       -4.5820    -3.1140    -0.4050 C.3   1 <1>   0.1400 
  9 C       -1.7310    -1.2480     0.7020 C.3   1 <1>   0.1200 
 10 C       -4.3150    -1.1010     1.1510 C.3   1 <1>   0.1400 
 11 O       -1.7470    -2.6140     0.3810 O.3   1 <1>  -0.5600 
 12 N       -4.4660    -2.5860     0.9960 N.am  1 <1>  -0.6600 
 13 C       -4.2630    -3.4180     2.0900 C.2   1 <1>   0.7150 
 14 O       -3.7790    -2.9350     3.1020 O.2   1 <1>  -0.5700 
 15 C       -4.6030    -4.8250     2.1020 C.2   1 <1>   0.0550 
 16 O       -5.6180    -5.3230     1.4000 O.3   1 <1>  -0.2800 
 17 C       -4.0330    -5.8460     2.7980 C.2   1 <1>  -0.1500 
 18 C       -5.7170    -6.6270     1.6050 C.2   1 <1>   0.0870 
 19 C       -4.7410    -6.9980     2.4770 C.2   1 <1>  -0.1500 
 20 C       -6.7420    -7.3960     0.9390 C.ar  1 <1>   0.0530 
 21 C       -7.7880    -6.7750     0.2550 C.ar  1 <1>  -0.1500 
 22 C       -6.7260    -8.7910     0.9520 C.ar  1 <1>  -0.1500 
 23 C       -8.7720    -7.5040    -0.3860 C.ar  1 <1>  -0.1500 
 24 C       -7.7060    -9.5280     0.3140 C.ar  1 <1>  -0.1500 
 25 C       -8.7360    -8.8950    -0.3600 C.ar  1 <1>   0.0820 
 26 O       -9.6560    -9.6870    -0.9590 O.3   1 <1>  -0.3630 
 27 C      -10.7510    -9.1430    -1.6620 C.3   1 <1>   0.0400 
 28 H       -3.6110    -3.2810    -2.2620 H     1 <1>   0.0800 
 29 H       -2.9310     0.4750     0.9400 H     1 <1>   0.0800 
 30 H       -2.4450     1.6750    -1.1490 H     1 <1>   0.0800 
 31 H       -4.1810     1.6930    -0.8860 H     1 <1>   0.0800 
 32 H       -3.5330     1.2680    -2.4520 H     1 <1>   0.0800 
 33 H       -1.3080    -2.4890    -1.5810 H     1 <1>   0.0800 
 34 H       -1.8360    -4.0430    -0.9920 H     1 <1>   0.0800 
 35 H       -4.5810    -4.1870    -0.3910 H     1 <1>   0.0800 
 36 H       -5.5300    -2.8040    -0.8090 H     1 <1>   0.0800 
 37 H       -1.4800    -1.1930     1.7460 H     1 <1>   0.0800 
 38 H       -0.9410    -0.7780     0.1440 H     1 <1>   0.0800 
 39 H       -5.1940    -0.6210     0.7570 H     1 <1>   0.0800 
 40 H       -4.2790    -0.8510     2.1970 H     1 <1>   0.0800 
 41 H       -3.1960    -5.7790     3.4710 H     1 <1>   0.1500 
 42 H       -4.5360    -7.9790     2.8650 H     1 <1>   0.1500 
 43 H       -7.8300    -5.7000     0.2290 H     1 <1>   0.1500 
 44 H       -5.9370    -9.3080     1.4660 H     1 <1>   0.1500 
 45 H       -9.5550    -6.9770    -0.8970 H     1 <1>   0.1500 
 46 H       -7.6800   -10.6020     0.3330 H     1 <1>   0.1500 
 47 H      -11.3410    -9.9570    -2.0430 H     1 <1>   0.0800 
 48 H      -10.3820    -8.5460    -2.4770 H     1 <1>   0.0800 
 49 H      -11.3410    -8.5510    -0.9850 H     1 <1>   0.0800 
@<TRIPOS>BOND
  1   1   2  2   
  2   2   3  am  
  3   2   4  1   
  4   3   5  1   
  5   3   6  1   
  6   4   7  1   
  7   4   8  1   
  8   4  28  1   
  9   5   9  1   
 10   5  10  1   
 11   5  29  1   
 12   6  30  1   
 13   6  31  1   
 14   6  32  1   
 15   7  11  1   
 16   7  33  1   
 17   7  34  1   
 18   8  12  1   
 19   8  35  1   
 20   8  36  1   
 21   9  11  1   
 22   9  37  1   
 23   9  38  1   
 24  10  12  1   
 25  10  39  1   
 26  10  40  1   
 27  12  13  am  
 28  13  14  2   
 29  13  15  1   
 30  15  16  1   
 31  15  17  2   
 32  16  18  1   
 33  17  19  1   
 34  17  41  1   
 35  18  19  2   
 36  18  20  1   
 37  19  42  1   
 38  20  21  ar  
 39  20  22  ar  
 40  21  23  ar  
 41  21  43  1   
 42  22  24  ar  
 43  22  44  1   
 44  23  25  ar  
 45  23  45  1   
 46  24  25  ar  
 47  24  46  1   
 48  25  26  1   
 49  26  27  1   
 50  27  47  1   
 51  27  48  1   
 52  27  49  1   
@<TRIPOS>SUBSTRUCTURE
  1 ****  16 GROUP 4 **** **** 0

# MOE 2024.06 (io_trps.svl 2023.06)
