@<TRIPOS>MOLECULE
NONAME
52 55 1 0 0 
SMALL
USER_CHARGES


@<TRIPOS>ATOM
  1 O       -4.6200    -0.2060    -2.8660 O.2   1 <1>  -0.5700 
  2 C       -4.6030    -0.6950    -1.7600 C.2   1 <1>   0.5690 
  3 N       -4.6770     0.0680    -0.6310 N.am  1 <1>  -0.6600 
  4 C       -4.4890    -2.1980    -1.6570 C.3   1 <1>  -0.0190 
  5 C       -4.6750    -0.5410     0.7300 C.3   1 <1>   0.2200 
  6 C       -4.8080     1.5520    -0.6860 C.3   1 <1>   0.0600 
  7 C       -3.1660    -2.6050    -0.9780 C.3   1 <1>   0.1200 
  8 C       -5.7900    -2.8170    -1.1140 C.3   1 <1>   0.1400 
  9 C       -3.3370    -1.2690     1.0180 C.3   1 <1>   0.1200 
 10 C       -5.9600    -1.3680     0.9700 C.3   1 <1>   0.1400 
 11 O       -3.1830    -2.5280     0.4170 O.3   1 <1>  -0.5600 
 12 N       -5.9450    -2.7400     0.3700 N.am  1 <1>  -0.6600 
 13 C       -5.9770    -3.8610     1.1750 C.2   1 <1>   0.5440 
 14 O       -6.3020    -3.7460     2.3440 O.2   1 <1>  -0.5700 
 15 C       -5.6090    -5.1720     0.6880 C.ar  1 <1>   0.0860 
 16 C       -6.4440    -5.9930    -0.0910 C.ar  1 <1>   0.0820 
 17 C       -4.3330    -5.6490     0.9890 C.ar  1 <1>  -0.1500 
 18 O       -7.6930    -5.6490    -0.4800 O.3   1 <1>  -0.3630 
 19 C       -5.9890    -7.2210    -0.5480 C.ar  1 <1>  -0.1500 
 20 C       -3.8900    -6.8780     0.5390 C.ar  1 <1>  -0.1500 
 21 C       -8.6550    -5.1600     0.4390 C.3   1 <1>   0.2630 
 22 C       -4.7200    -7.6680    -0.2350 C.ar  1 <1>  -0.1500 
 23 C       -9.1120    -3.7710     0.0110 C.ar  1 <1>  -0.1440 
 24 C       -9.4190    -3.5010    -1.3150 C.ar  1 <1>  -0.1500 
 25 C       -9.2290    -2.7580     0.9510 C.ar  1 <1>  -0.1500 
 26 C       -9.8320    -2.2360    -1.6970 C.ar  1 <1>  -0.1500 
 27 C       -9.6460    -1.4940     0.5720 C.ar  1 <1>  -0.1500 
 28 C       -9.9470    -1.2320    -0.7520 C.ar  1 <1>  -0.1500 
 29 H       -4.4090    -2.5430    -2.6720 H     1 <1>   0.0800 
 30 H       -4.7200     0.2740     1.4300 H     1 <1>   0.0800 
 31 H       -3.9860     2.0100    -0.1660 H     1 <1>   0.0800 
 32 H       -5.7340     1.8530    -0.2290 H     1 <1>   0.0800 
 33 H       -4.8020     1.9000    -1.7050 H     1 <1>   0.0800 
 34 H       -2.3530    -2.0000    -1.3400 H     1 <1>   0.0800 
 35 H       -2.9540    -3.6320    -1.2190 H     1 <1>   0.0800 
 36 H       -5.8310    -3.8400    -1.4350 H     1 <1>   0.0800 
 37 H       -6.6330    -2.3220    -1.5660 H     1 <1>   0.0800 
 38 H       -3.2680    -1.4390     2.0780 H     1 <1>   0.0800 
 39 H       -2.5080    -0.6500     0.7260 H     1 <1>   0.0800 
 40 H       -6.8070    -0.8300     0.5840 H     1 <1>   0.0800 
 41 H       -6.0980    -1.4450     2.0340 H     1 <1>   0.0800 
 42 H       -3.6830    -5.0290     1.5840 H     1 <1>   0.1500 
 43 H       -6.6400    -7.8260    -1.1530 H     1 <1>   0.1500 
 44 H       -2.8990    -7.2180     0.7890 H     1 <1>   0.1500 
 45 H       -9.4890    -5.8370     0.4180 H     1 <1>   0.0800 
 46 H       -8.2430    -5.1600     1.4320 H     1 <1>   0.0800 
 47 H       -4.3790    -8.6250    -0.5900 H     1 <1>   0.1500 
 48 H       -9.3320    -4.2780    -2.0550 H     1 <1>   0.1500 
 49 H       -8.9840    -2.9500     1.9820 H     1 <1>   0.1500 
 50 H      -10.0640    -2.0350    -2.7280 H     1 <1>   0.1500 
 51 H       -9.7340    -0.7160     1.3100 H     1 <1>   0.1500 
 52 H      -10.2690    -0.2490    -1.0490 H     1 <1>   0.1500 
@<TRIPOS>BOND
  1   1   2  2   
  2   2   3  am  
  3   2   4  1   
  4   3   5  1   
  5   3   6  1   
  6   4   7  1   
  7   4   8  1   
  8   4  29  1   
  9   5   9  1   
 10   5  10  1   
 11   5  30  1   
 12   6  31  1   
 13   6  32  1   
 14   6  33  1   
 15   7  11  1   
 16   7  34  1   
 17   7  35  1   
 18   8  12  1   
 19   8  36  1   
 20   8  37  1   
 21   9  11  1   
 22   9  38  1   
 23   9  39  1   
 24  10  12  1   
 25  10  40  1   
 26  10  41  1   
 27  12  13  am  
 28  13  14  2   
 29  13  15  1   
 30  15  16  ar  
 31  15  17  ar  
 32  16  18  1   
 33  16  19  ar  
 34  17  20  ar  
 35  17  42  1   
 36  18  21  1   
 37  19  22  ar  
 38  19  43  1   
 39  20  22  ar  
 40  20  44  1   
 41  21  23  1   
 42  21  45  1   
 43  21  46  1   
 44  22  47  1   
 45  23  24  ar  
 46  23  25  ar  
 47  24  26  ar  
 48  24  48  1   
 49  25  27  ar  
 50  25  49  1   
 51  26  28  ar  
 52  26  50  1   
 53  27  28  ar  
 54  27  51  1   
 55  28  52  1   
@<TRIPOS>SUBSTRUCTURE
  1 ****  12 GROUP 4 **** **** 0

# MOE 2024.06 (io_trps.svl 2023.06)
