@<TRIPOS>MOLECULE
NONAME
49 52 1 0 0 
SMALL
USER_CHARGES


@<TRIPOS>ATOM
  1 O        0.3300     0.0650    -0.2730 O.3   1 <1>  -0.5600 
  2 C        1.5690    -0.5240    -0.5600 C.3   1 <1>   0.3440 
  3 C        0.2310     1.4250    -0.5750 C.3   1 <1>   0.2950 
  4 C        1.5360    -1.9990    -0.1900 C.ar  1 <1>  -0.1440 
  5 C        2.6830     0.1790     0.2500 C.3   1 <1>   0.3430 
  6 C       -1.1920     1.8700    -0.2320 C.3   1 <1>  -0.1950 
  7 C        1.2730     2.2260     0.2380 C.3   1 <1>   0.3430 
  8 C        2.2390    -2.9170    -0.9590 C.ar  1 <1>  -0.1500 
  9 C        0.8290    -2.4480     0.9180 C.ar  1 <1>  -0.1500 
 10 N        2.6740     1.6800     0.0930 N.4   1 <1>  -0.9590 
 11 C       -2.3210     1.6480    -1.1870 C.3   1 <1>  -0.2000 
 12 C       -1.8240     3.0410    -0.9190 C.3   1 <1>  -0.2000 
 13 C        2.2450    -4.2580    -0.6190 C.ar  1 <1>  -0.1500 
 14 C        0.8350    -3.7890     1.2580 C.ar  1 <1>  -0.1500 
 15 C        3.6090     2.3510     1.0320 C.3   1 <1>   0.5240 
 16 C        1.5450    -4.6950     0.4910 C.ar  1 <1>  -0.1500 
 17 C        3.6690     3.8070     0.6380 C.2   1 <1>  -0.1810 
 18 C        4.3520     4.3510    -0.4460 C.2   1 <1>   0.1080 
 19 C        3.0690     4.8650     1.2300 C.2   1 <1>  -0.3020 
 20 N        4.1710     5.6260    -0.5320 N.2   1 <1>  -0.7070 
 21 C        5.2250     3.6280    -1.4510 C.3   1 <1>  -0.0590 
 22 N        3.3920     5.9550     0.5080 N.pl3 1 <1>   0.3140 
 23 C        3.0020     7.3480     0.7600 C.3   1 <1>   0.0160 
 24 H        1.7480    -0.4250    -1.6170 H     1 <1>   0.0800 
 25 H        0.4000     1.5530    -1.6310 H     1 <1>   0.0800 
 26 H        3.6370    -0.2220    -0.0520 H     1 <1>   0.0800 
 27 H        2.5370    -0.0790     1.2860 H     1 <1>   0.0800 
 28 H       -1.4170     1.7380     0.8130 H     1 <1>   0.1000 
 29 H        0.9770     2.1950     1.2740 H     1 <1>   0.0800 
 30 H        1.2440     3.2570    -0.0760 H     1 <1>   0.0800 
 31 H        2.7880    -2.6050    -1.8310 H     1 <1>   0.1500 
 32 H        0.2620    -1.7600     1.5220 H     1 <1>   0.1500 
 33 H        2.9940     1.9320    -0.8510 H     1 <1>   0.4500 
 34 H       -2.1190     1.1940    -2.1420 H     1 <1>   0.1000 
 35 H       -3.2780     1.3520    -0.7910 H     1 <1>   0.1000 
 36 H       -2.4600     3.7020    -0.3550 H     1 <1>   0.1000 
 37 H       -1.3160     3.5490    -1.7220 H     1 <1>   0.1000 
 38 H        2.7910    -4.9670    -1.2180 H     1 <1>   0.1500 
 39 H        0.2830    -4.1310     2.1170 H     1 <1>   0.1500 
 40 H        3.2570     2.2580     2.0460 H     1 <1>   0.0800 
 41 H        4.5940     1.9190     0.9640 H     1 <1>   0.0800 
 42 H        1.5470    -5.7390     0.7550 H     1 <1>   0.1500 
 43 H        2.4470     4.9190     2.1060 H     1 <1>   0.1500 
 44 H        5.5060     2.6540    -1.1030 H     1 <1>   0.0800 
 45 H        6.1200     4.2030    -1.6130 H     1 <1>   0.0800 
 46 H        4.7060     3.5450    -2.3880 H     1 <1>   0.0800 
 47 H        2.3040     7.3900     1.5740 H     1 <1>   0.0800 
 48 H        2.5530     7.7510    -0.1290 H     1 <1>   0.0800 
 49 H        3.8810     7.9160     1.0030 H     1 <1>   0.0800 
@<TRIPOS>BOND
  1   1   2  1   
  2   1   3  1   
  3   2   4  1   
  4   2   5  1   
  5   2  24  1   
  6   3   6  1   
  7   3   7  1   
  8   3  25  1   
  9   4   8  ar  
 10   4   9  ar  
 11   5  10  1   
 12   5  26  1   
 13   5  27  1   
 14   6  11  1   
 15   6  12  1   
 16   6  28  1   
 17   7  10  1   
 18   7  29  1   
 19   7  30  1   
 20   8  13  ar  
 21   8  31  1   
 22   9  14  ar  
 23   9  32  1   
 24  10  15  1   
 25  10  33  1   
 26  11  12  1   
 27  11  34  1   
 28  11  35  1   
 29  12  36  1   
 30  12  37  1   
 31  13  16  ar  
 32  13  38  1   
 33  14  16  ar  
 34  14  39  1   
 35  15  17  1   
 36  15  40  1   
 37  15  41  1   
 38  16  42  1   
 39  17  18  1   
 40  17  19  2   
 41  18  20  2   
 42  18  21  1   
 43  19  22  1   
 44  19  43  1   
 45  20  22  1   
 46  21  44  1   
 47  21  45  1   
 48  21  46  1   
 49  22  23  1   
 50  23  47  1   
 51  23  48  1   
 52  23  49  1   
@<TRIPOS>SUBSTRUCTURE
  1 ****  10 GROUP 4 **** **** 0

# MOE 2024.06 (io_trps.svl 2023.06)
