@<TRIPOS>MOLECULE
NONAME
31 32 1 0 0 
SMALL
USER_CHARGES


@<TRIPOS>ATOM
  1 O        0.4050     0.4800     0.1380 O.2   1 <1>  -0.5700 
  2 C        1.4720     0.9980     0.3340 C.2   1 <1>   0.6590 
  3 O        2.6050     0.3860     0.0390 O.3   1 <1>  -0.2330 
  4 C        1.5830     2.3610     0.9600 C.3   1 <1>  -0.0990 
  5 C        3.8000     1.0210    -0.0330 C.ar  1 <1>   0.0830 
  6 C        2.6110     3.2330     0.2220 C.3   1 <1>   0.1440 
  7 C        3.9160     2.4170     0.0170 C.ar  1 <1>  -0.1440 
  8 C        4.9010     0.1980    -0.1830 C.ar  1 <1>  -0.1500 
  9 C        2.7560     4.5000     1.0900 C.3   1 <1>  -0.2400 
 10 C        2.0530     3.6290    -1.1550 C.3   1 <1>  -0.2400 
 11 C        5.2000     2.9570    -0.1550 C.ar  1 <1>  -0.1440 
 12 C        6.1620     0.7400    -0.3070 C.ar  1 <1>  -0.1430 
 13 C        6.2950     2.1140    -0.2980 C.ar  1 <1>  -0.1500 
 14 C        5.5230     4.4450    -0.2260 C.3   1 <1>  -0.0970 
 15 C        7.3830    -0.1480    -0.4650 C.3   1 <1>  -0.0970 
 16 H        1.8900     2.2190     1.9800 H     1 <1>   0.0800 
 17 H        0.6130     2.8240     0.9630 H     1 <1>   0.0800 
 18 H        4.7600    -0.8670    -0.2070 H     1 <1>   0.1500 
 19 H        3.3660     4.2920     1.9520 H     1 <1>   0.0800 
 20 H        1.7950     4.8400     1.4320 H     1 <1>   0.0800 
 21 H        3.1850     5.3150     0.5420 H     1 <1>   0.0800 
 22 H        1.8910     2.7580    -1.7650 H     1 <1>   0.0800 
 23 H        2.7470     4.2660    -1.6720 H     1 <1>   0.0800 
 24 H        1.1200     4.1540    -1.0540 H     1 <1>   0.0800 
 25 H        7.2810     2.5290    -0.4120 H     1 <1>   0.1500 
 26 H        4.8450     4.9470    -0.8890 H     1 <1>   0.0800 
 27 H        6.5130     4.6100    -0.6110 H     1 <1>   0.0800 
 28 H        5.4770     4.8850     0.7530 H     1 <1>   0.0800 
 29 H        7.1510    -1.1650    -0.2050 H     1 <1>   0.0800 
 30 H        8.1750     0.1950     0.1750 H     1 <1>   0.0800 
 31 H        7.7220    -0.1210    -1.4850 H     1 <1>   0.0800 
@<TRIPOS>BOND
  1   1   2  2   
  2   2   3  1   
  3   2   4  1   
  4   3   5  1   
  5   4   6  1   
  6   4  16  1   
  7   4  17  1   
  8   5   7  ar  
  9   5   8  ar  
 10   6   7  1   
 11   6   9  1   
 12   6  10  1   
 13   7  11  ar  
 14   8  12  ar  
 15   8  18  1   
 16   9  19  1   
 17   9  20  1   
 18   9  21  1   
 19  10  22  1   
 20  10  23  1   
 21  10  24  1   
 22  11  13  ar  
 23  11  14  1   
 24  12  13  ar  
 25  12  15  1   
 26  13  25  1   
 27  14  26  1   
 28  14  27  1   
 29  14  28  1   
 30  15  29  1   
 31  15  30  1   
 32  15  31  1   
@<TRIPOS>SUBSTRUCTURE
  1 ****   7 GROUP 4 **** **** 0

# MOE 2024.06 (io_trps.svl 2023.06)
