@<TRIPOS>MOLECULE
NONAME
52 55 1 0 0 
SMALL
USER_CHARGES


@<TRIPOS>ATOM
  1 O        1.3070    -1.6500     0.7670 O.3   1 <1>  -0.5600 
  2 C        0.5020    -2.0090    -0.3360 C.3   1 <1>   0.4180 
  3 C        1.3290    -0.2940     1.1320 C.3   1 <1>   0.1200 
  4 C       -0.8230    -1.2580    -0.3050 C.2   1 <1>  -0.2880 
  5 C        0.2580    -3.5180    -0.2050 C.3   1 <1>  -0.1600 
  6 C        1.2820    -1.7400    -1.6280 C.3   1 <1>  -0.1600 
  7 C       -0.0670     0.1720     1.5670 C.3   1 <1>  -0.0220 
  8 C       -1.1050    -0.2800     0.5580 C.2   1 <1>  -0.2760 
  9 C        1.4760    -4.3780    -0.5680 C.3   1 <1>   0.3430 
 10 C        2.6280    -2.4720    -1.6670 C.3   1 <1>   0.3430 
 11 C       -2.4360     0.4480     0.6260 C.3   1 <1>  -0.1020 
 12 N        2.6950    -3.5340    -0.6160 N.4   1 <1>  -0.9590 
 13 C        3.9730    -4.2910    -0.6150 C.3   1 <1>   0.4860 
 14 C        5.0990    -3.2970    -0.4120 C.ar  1 <1>  -0.1440 
 15 C        5.9290    -2.9560    -1.4690 C.ar  1 <1>  -0.1500 
 16 C        5.2900    -2.6930     0.8220 C.ar  1 <1>  -0.1500 
 17 C        6.9170    -2.0050    -1.2960 C.ar  1 <1>  -0.1500 
 18 C        6.2830    -1.7450     0.9860 C.ar  1 <1>  -0.1500 
 19 C        7.1120    -1.3750    -0.0700 C.ar  1 <1>   0.0000 
 20 C        8.1340    -0.3620     0.0880 C.ar  1 <1>   0.3100 
 21 N        8.1360     0.6510    -0.7800 N.ar  1 <1>  -0.6200 
 22 C        9.0680    -0.4640     1.1170 C.ar  1 <1>  -0.1500 
 23 C        9.0720     1.5690    -0.6140 C.ar  1 <1>   0.1600 
 24 C       10.0390     0.4990     1.2800 C.ar  1 <1>  -0.1500 
 25 C       10.0310     1.5440     0.3830 C.ar  1 <1>  -0.1500 
 26 H        1.6710     0.2860     0.2930 H     1 <1>   0.0800 
 27 H        2.0280    -0.1770     1.9410 H     1 <1>   0.0800 
 28 H       -1.5240    -1.5980    -1.0460 H     1 <1>   0.1500 
 29 H       -0.5510    -3.8080    -0.8510 H     1 <1>   0.0800 
 30 H       -0.0600    -3.7340     0.8000 H     1 <1>   0.0800 
 31 H        1.4360    -0.6850    -1.7600 H     1 <1>   0.0800 
 32 H        0.6900    -2.0660    -2.4630 H     1 <1>   0.0800 
 33 H       -0.0600     1.2450     1.6410 H     1 <1>   0.0800 
 34 H       -0.3010    -0.2270     2.5380 H     1 <1>   0.0800 
 35 H        1.3200    -4.8380    -1.5300 H     1 <1>   0.0800 
 36 H        1.5890    -5.1580     0.1680 H     1 <1>   0.0800 
 37 H        3.4160    -1.7560    -1.4910 H     1 <1>   0.0800 
 38 H        2.7800    -2.9010    -2.6440 H     1 <1>   0.0800 
 39 H       -2.8770     0.3230     1.6000 H     1 <1>   0.0800 
 40 H       -3.1190     0.0600    -0.1080 H     1 <1>   0.0800 
 41 H       -2.2970     1.4980     0.4400 H     1 <1>   0.0800 
 42 H        2.6680    -2.9860     0.2660 H     1 <1>   0.4500 
 43 H        4.1000    -4.8130    -1.5480 H     1 <1>   0.0800 
 44 H        3.9800    -5.0090     0.1890 H     1 <1>   0.0800 
 45 H        5.8160    -3.4150    -2.4370 H     1 <1>   0.1500 
 46 H        4.6690    -2.9450     1.6650 H     1 <1>   0.1500 
 47 H        7.5530    -1.7320    -2.1220 H     1 <1>   0.1500 
 48 H        6.4150    -1.2730     1.9440 H     1 <1>   0.1500 
 49 H        9.0300    -1.3050     1.7840 H     1 <1>   0.1500 
 50 H        9.0760     2.3890    -1.3110 H     1 <1>   0.1500 
 51 H       10.7690     0.4390     2.0690 H     1 <1>   0.1500 
 52 H       10.7600     2.3310     0.4510 H     1 <1>   0.1500 
@<TRIPOS>BOND
  1   1   2  1   
  2   1   3  1   
  3   2   4  1   
  4   2   5  1   
  5   2   6  1   
  6   3   7  1   
  7   3  26  1   
  8   3  27  1   
  9   4   8  2   
 10   4  28  1   
 11   5   9  1   
 12   5  29  1   
 13   5  30  1   
 14   6  10  1   
 15   6  31  1   
 16   6  32  1   
 17   7   8  1   
 18   7  33  1   
 19   7  34  1   
 20   8  11  1   
 21   9  12  1   
 22   9  35  1   
 23   9  36  1   
 24  10  12  1   
 25  10  37  1   
 26  10  38  1   
 27  11  39  1   
 28  11  40  1   
 29  11  41  1   
 30  12  13  1   
 31  12  42  1   
 32  13  14  1   
 33  13  43  1   
 34  13  44  1   
 35  14  15  ar  
 36  14  16  ar  
 37  15  17  ar  
 38  15  45  1   
 39  16  18  ar  
 40  16  46  1   
 41  17  19  ar  
 42  17  47  1   
 43  18  19  ar  
 44  18  48  1   
 45  19  20  1   
 46  20  21  ar  
 47  20  22  ar  
 48  21  23  ar  
 49  22  24  ar  
 50  22  49  1   
 51  23  25  ar  
 52  23  50  1   
 53  24  25  ar  
 54  24  51  1   
 55  25  52  1   
@<TRIPOS>SUBSTRUCTURE
  1 ****  16 GROUP 4 **** **** 0

# MOE 2024.06 (io_trps.svl 2023.06)
