@<TRIPOS>MOLECULE
NONAME
51 55 1 0 0 
SMALL
USER_CHARGES


@<TRIPOS>ATOM
  1 O       -4.7580     3.5030    -1.2640 O.2   1 <1>  -0.5700 
  2 C       -3.6500     3.0250    -1.3050 C.2   1 <1>   0.5690 
  3 N       -3.3720     1.9210    -2.0400 N.am  1 <1>  -0.7300 
  4 C       -2.5350     3.6410    -0.4790 C.3   1 <1>   0.0440 
  5 C       -4.3660     1.0410    -2.6910 C.3   1 <1>   0.2200 
  6 C       -1.8570     2.5750     0.3760 C.ar  1 <1>  -0.1440 
  7 C       -4.5270    -0.2570    -1.9090 C.3   1 <1>  -0.0800 
  8 C       -3.7690     0.5090    -3.9860 C.3   1 <1>   0.1200 
  9 C       -0.7010     1.9440    -0.0740 C.ar  1 <1>  -0.1500 
 10 C       -2.4250     2.2050     1.5960 C.ar  1 <1>  -0.1500 
 11 C       -3.3490    -1.1030    -2.4070 C.3   1 <1>   0.1200 
 12 C       -4.5960    -0.1180    -0.3730 C.3   1 <1>  -0.0160 
 13 O       -2.9060    -0.5170    -3.5970 O.3   1 <1>  -0.5600 
 14 C       -0.1590     0.9440     0.7090 C.ar  1 <1>   0.0820 
 15 C       -1.8630     1.1970     2.3700 C.ar  1 <1>  -0.1500 
 16 C       -4.7050    -1.4740     0.3150 C.ar  1 <1>  -0.1440 
 17 O        0.9260     0.2020     0.4680 O.3   1 <1>  -0.3630 
 18 C       -0.7250     0.5780     1.8940 C.ar  1 <1>   0.0820 
 19 C       -5.9060    -2.2210     0.3480 C.ar  1 <1>   0.0000 
 20 C       -3.6120    -2.0100     0.9310 C.ar  1 <1>  -0.1500 
 21 C        1.0760    -0.6760     1.5810 C.3   1 <1>   0.4000 
 22 O       -0.0250    -0.4170     2.4500 O.3   1 <1>  -0.3630 
 23 C       -5.8770    -3.4850     0.9880 C.ar  1 <1>   0.3100 
 24 C       -7.1320    -1.7900    -0.2100 C.ar  1 <1>  -0.1500 
 25 C       -3.6940    -3.2630     1.5500 C.ar  1 <1>   0.1600 
 26 N       -4.7660    -3.9890     1.5830 N.ar  1 <1>  -0.6200 
 27 C       -7.0480    -4.2580     1.0180 C.ar  1 <1>  -0.1500 
 28 C       -8.2570    -2.5670    -0.1610 C.ar  1 <1>  -0.1500 
 29 C       -8.2170    -3.8190     0.4570 C.ar  1 <1>  -0.1500 
 30 H       -2.4350     1.5110    -2.0020 H     1 <1>   0.3700 
 31 H       -1.8260     4.1010    -1.1410 H     1 <1>   0.0800 
 32 H       -2.9450     4.4090     0.1510 H     1 <1>   0.0800 
 33 H       -5.2970     1.5620    -2.8460 H     1 <1>   0.0800 
 34 H       -5.4250    -0.7380    -2.2500 H     1 <1>   0.0800 
 35 H       -3.2220     1.2580    -4.5320 H     1 <1>   0.0800 
 36 H       -4.5320     0.0800    -4.6120 H     1 <1>   0.0800 
 37 H       -0.2280     2.2070    -1.0030 H     1 <1>   0.1500 
 38 H       -3.3190     2.6950     1.9440 H     1 <1>   0.1500 
 39 H       -3.6420    -2.1200    -2.6010 H     1 <1>   0.0800 
 40 H       -2.5270    -1.0870    -1.7120 H     1 <1>   0.0800 
 41 H       -5.4240     0.5090    -0.0940 H     1 <1>   0.0800 
 42 H       -3.7070     0.3650    -0.0150 H     1 <1>   0.0800 
 43 H       -2.2930     0.8990     3.3090 H     1 <1>   0.1500 
 44 H       -2.6690    -1.4940     0.9590 H     1 <1>   0.1500 
 45 H        1.0400    -1.6970     1.2450 H     1 <1>   0.0800 
 46 H        1.9970    -0.4570     2.0920 H     1 <1>   0.0800 
 47 H       -7.1870    -0.8270    -0.6820 H     1 <1>   0.1500 
 48 H       -2.8080    -3.6460     2.0250 H     1 <1>   0.1500 
 49 H       -6.9940    -5.2150     1.5030 H     1 <1>   0.1500 
 50 H       -9.1830    -2.2270    -0.5920 H     1 <1>   0.1500 
 51 H       -9.1070    -4.4230     0.4880 H     1 <1>   0.1500 
@<TRIPOS>BOND
  1   1   2  2   
  2   2   3  am  
  3   2   4  1   
  4   3   5  1   
  5   3  30  1   
  6   4   6  1   
  7   4  31  1   
  8   4  32  1   
  9   5   7  1   
 10   5   8  1   
 11   5  33  1   
 12   6   9  ar  
 13   6  10  ar  
 14   7  11  1   
 15   7  12  1   
 16   7  34  1   
 17   8  13  1   
 18   8  35  1   
 19   8  36  1   
 20   9  14  ar  
 21   9  37  1   
 22  10  15  ar  
 23  10  38  1   
 24  11  13  1   
 25  11  39  1   
 26  11  40  1   
 27  12  16  1   
 28  12  41  1   
 29  12  42  1   
 30  14  17  1   
 31  14  18  ar  
 32  15  18  ar  
 33  15  43  1   
 34  16  19  ar  
 35  16  20  ar  
 36  17  21  1   
 37  18  22  1   
 38  19  23  ar  
 39  19  24  ar  
 40  20  25  ar  
 41  20  44  1   
 42  21  22  1   
 43  21  45  1   
 44  21  46  1   
 45  23  26  ar  
 46  23  27  ar  
 47  24  28  ar  
 48  24  47  1   
 49  25  26  ar  
 50  25  48  1   
 51  27  29  ar  
 52  27  49  1   
 53  28  29  ar  
 54  28  50  1   
 55  29  51  1   
@<TRIPOS>SUBSTRUCTURE
  1 ****  12 GROUP 4 **** **** 0

# MOE 2024.06 (io_trps.svl 2023.06)
