@<TRIPOS>MOLECULE
NONAME
51 54 1 0 0 
SMALL
USER_CHARGES


@<TRIPOS>ATOM
  1 CL       0.4770    -3.2410    -3.5210 Cl    1 <1>  -0.1770 
  2 C       -0.2270    -3.8660    -2.0510 C.ar  1 <1>   0.1770 
  3 C       -1.4210    -3.3410    -1.5960 C.ar  1 <1>  -0.1500 
  4 C        0.4210    -4.8750    -1.3660 C.ar  1 <1>  -0.1500 
  5 C       -1.9900    -3.8360    -0.4320 C.ar  1 <1>  -0.1440 
  6 C       -0.1400    -5.3730    -0.2040 C.ar  1 <1>  -0.1500 
  7 C       -1.3540    -4.8650     0.2630 C.ar  1 <1>   0.0830 
  8 C       -3.2940    -3.2350     0.0760 C.3   1 <1>  -0.0960 
  9 O       -1.9720    -5.3350     1.3800 O.3   1 <1>  -0.3630 
 10 C       -1.4900    -6.4590     2.1080 C.3   1 <1>   0.1810 
 11 C       -1.5180    -7.7700     1.3100 C.2   1 <1>   0.5690 
 12 O       -0.6000    -8.5320     1.4930 O.2   1 <1>  -0.5700 
 13 N       -2.5240    -8.0980     0.4270 N.am  1 <1>  -0.6600 
 14 C       -3.7800    -7.3030     0.2360 C.3   1 <1>   0.1400 
 15 C       -2.3750    -9.2600    -0.5010 C.3   1 <1>   0.1400 
 16 C       -4.9930    -8.1540    -0.2180 C.3   1 <1>   0.4230 
 17 C       -3.5650   -10.2340    -0.4010 C.3   1 <1>   0.3430 
 18 N       -4.8380    -9.6170     0.1390 N.4   1 <1>  -0.9590 
 19 C       -5.2960    -7.9960    -1.7250 C.3   1 <1>   0.1200 
 20 C       -6.0690   -10.3620    -0.2800 C.3   1 <1>   0.5180 
 21 O       -6.4380    -8.7340    -2.0600 O.3   1 <1>  -0.5600 
 22 C       -5.9210   -11.8490     0.1030 C.3   1 <1>  -0.1950 
 23 C       -6.3800   -10.1090    -1.7790 C.3   1 <1>   0.1200 
 24 C       -5.2830   -12.9010    -0.7570 C.3   1 <1>  -0.2000 
 25 C       -6.7630   -12.9320    -0.5010 C.3   1 <1>  -0.2000 
 26 H       -1.8880    -2.5500    -2.1530 H     1 <1>   0.1500 
 27 H        1.3540    -5.2590    -1.7390 H     1 <1>   0.1500 
 28 H        0.3880    -6.1510     0.3160 H     1 <1>   0.1500 
 29 H       -3.6070    -2.4110    -0.5400 H     1 <1>   0.0800 
 30 H       -3.1600    -2.8730     1.0800 H     1 <1>   0.0800 
 31 H       -4.0700    -3.9770     0.0770 H     1 <1>   0.0800 
 32 H       -0.4870    -6.2440     2.4290 H     1 <1>   0.0800 
 33 H       -2.1050    -6.5660     2.9810 H     1 <1>   0.0800 
 34 H       -4.0400    -6.8290     1.1660 H     1 <1>   0.0800 
 35 H       -3.5960    -6.5160    -0.4770 H     1 <1>   0.0800 
 36 H       -2.3040    -8.8880    -1.5080 H     1 <1>   0.0800 
 37 H       -1.4640    -9.8020    -0.3080 H     1 <1>   0.0800 
 38 H       -5.8540    -7.7610     0.2960 H     1 <1>   0.0800 
 39 H       -3.2780   -11.0570     0.2340 H     1 <1>   0.0800 
 40 H       -3.7400   -10.6440    -1.3820 H     1 <1>   0.0800 
 41 H       -4.7630    -9.6660     1.1620 H     1 <1>   0.4500 
 42 H       -4.4760    -8.3250    -2.3380 H     1 <1>   0.0800 
 43 H       -5.5010    -6.9650    -1.9560 H     1 <1>   0.0800 
 44 H       -6.9080    -9.9760     0.2760 H     1 <1>   0.0800 
 45 H       -5.7850   -11.9460     1.1670 H     1 <1>   0.1000 
 46 H       -7.3400   -10.5250    -2.0310 H     1 <1>   0.0800 
 47 H       -5.6410   -10.5560    -2.4180 H     1 <1>   0.0800 
 48 H       -4.9710   -12.7050    -1.7690 H     1 <1>   0.1000 
 49 H       -4.6810   -13.6660    -0.2940 H     1 <1>   0.1000 
 50 H       -7.1510   -13.7080     0.1390 H     1 <1>   0.1000 
 51 H       -7.4190   -12.7390    -1.3330 H     1 <1>   0.1000 
@<TRIPOS>BOND
  1   1   2  1   
  2   2   3  ar  
  3   2   4  ar  
  4   3   5  ar  
  5   3  26  1   
  6   4   6  ar  
  7   4  27  1   
  8   5   7  ar  
  9   5   8  1   
 10   6   7  ar  
 11   6  28  1   
 12   7   9  1   
 13   8  29  1   
 14   8  30  1   
 15   8  31  1   
 16   9  10  1   
 17  10  11  1   
 18  10  32  1   
 19  10  33  1   
 20  11  12  2   
 21  11  13  am  
 22  13  14  1   
 23  13  15  1   
 24  14  16  1   
 25  14  34  1   
 26  14  35  1   
 27  15  17  1   
 28  15  36  1   
 29  15  37  1   
 30  16  18  1   
 31  16  19  1   
 32  16  38  1   
 33  17  18  1   
 34  17  39  1   
 35  17  40  1   
 36  18  20  1   
 37  18  41  1   
 38  19  21  1   
 39  19  42  1   
 40  19  43  1   
 41  20  22  1   
 42  20  23  1   
 43  20  44  1   
 44  21  23  1   
 45  22  24  1   
 46  22  25  1   
 47  22  45  1   
 48  23  46  1   
 49  23  47  1   
 50  24  25  1   
 51  24  48  1   
 52  24  49  1   
 53  25  50  1   
 54  25  51  1   
@<TRIPOS>SUBSTRUCTURE
  1 ****  14 GROUP 4 **** **** 0

# MOE 2024.06 (io_trps.svl 2023.06)
