@<TRIPOS>MOLECULE
NONAME
52 54 1 0 0 
SMALL
USER_CHARGES


@<TRIPOS>ATOM
  1 O       -3.0490     0.9010    -2.0180 O.2   1 <1>  -0.5700 
  2 C       -2.6510     0.7560    -0.8870 C.2   1 <1>   0.5690 
  3 N       -2.5550    -0.4710    -0.3150 N.am  1 <1>  -0.7300 
  4 C       -2.2340     1.9720    -0.0560 C.3   1 <1>  -0.0190 
  5 C       -2.8900    -1.7430    -0.9750 C.3   1 <1>   0.2200 
  6 C       -2.8740     3.2890    -0.5450 C.3   1 <1>  -0.1600 
  7 C       -0.6940     2.1020    -0.0030 C.3   1 <1>  -0.1600 
  8 C       -4.0400    -2.4040    -0.2170 C.3   1 <1>  -0.1600 
  9 C       -1.6500    -2.6340    -0.9840 C.3   1 <1>  -0.1600 
 10 C       -2.5630     4.4760     0.3940 C.3   1 <1>   0.2000 
 11 C       -0.2000     3.5110     0.3860 C.3   1 <1>  -0.1600 
 12 C       -4.3650    -3.7710    -0.8180 C.3   1 <1>   0.2090 
 13 C       -1.9720    -4.0170    -1.5540 C.3   1 <1>   0.2090 
 14 O       -2.4570     5.6450    -0.3810 O.3   1 <1>  -0.5600 
 15 C       -1.2490     4.2770     1.1950 C.3   1 <1>   0.2000 
 16 N       -3.1380    -4.6090    -0.8410 N.pl3 1 <1>  -0.8380 
 17 C       -3.6670     6.1880    -0.8100 C.3   1 <1>   0.0400 
 18 O       -0.7240     5.5110     1.5200 O.3   1 <1>  -0.6800 
 19 C       -2.9340    -5.5510     0.1550 C.ar  1 <1>   0.4100 
 20 N       -1.9800    -5.2510     1.0340 N.ar  1 <1>  -0.6200 
 21 C       -3.6940    -6.7300     0.2150 C.ar  1 <1>   0.0730 
 22 C       -1.7700    -6.1230     2.0010 C.ar  1 <1>   0.1600 
 23 C       -4.6980    -7.0130    -0.7630 C.1   1 <1>   0.4840 
 24 C       -3.4510    -7.6240     1.2410 C.ar  1 <1>  -0.1500 
 25 C       -2.4660    -7.3070     2.1520 C.ar  1 <1>  -0.1500 
 26 N       -5.5260    -7.2600    -1.5090 N.1   1 <1>  -0.5570 
 27 H       -2.1950    -0.5670     0.6340 H     1 <1>   0.3700 
 28 H       -2.5930     1.7990     0.9430 H     1 <1>   0.0800 
 29 H       -3.1980    -1.5570    -1.9920 H     1 <1>   0.0800 
 30 H       -3.9390     3.1640    -0.6190 H     1 <1>   0.0800 
 31 H       -2.4920     3.5020    -1.5300 H     1 <1>   0.0800 
 32 H       -0.3110     1.3830     0.7000 H     1 <1>   0.0800 
 33 H       -0.2810     1.8570    -0.9670 H     1 <1>   0.0800 
 34 H       -3.7740    -2.5400     0.8160 H     1 <1>   0.0800 
 35 H       -4.9130    -1.7800    -0.2720 H     1 <1>   0.0800 
 36 H       -0.8820    -2.1790    -1.5820 H     1 <1>   0.0800 
 37 H       -1.2760    -2.7580     0.0160 H     1 <1>   0.0800 
 38 H       -3.3630     4.6060     1.1040 H     1 <1>   0.0800 
 39 H        0.0050     4.0670    -0.5140 H     1 <1>   0.0800 
 40 H        0.7140     3.4330     0.9490 H     1 <1>   0.0800 
 41 H       -4.7350    -3.6580    -1.8230 H     1 <1>   0.0800 
 42 H       -5.1310    -4.2480    -0.2300 H     1 <1>   0.0800 
 43 H       -1.1150    -4.6620    -1.4510 H     1 <1>   0.0800 
 44 H       -2.2070    -3.9380    -2.6010 H     1 <1>   0.0800 
 45 H       -1.4460     3.7510     2.1140 H     1 <1>   0.0800 
 46 H       -3.4530     7.0870    -1.3590 H     1 <1>   0.0800 
 47 H       -4.2760     6.4230     0.0460 H     1 <1>   0.0800 
 48 H       -4.1700     5.4860    -1.4520 H     1 <1>   0.0800 
 49 H       -0.9880     6.1120     0.7870 H     1 <1>   0.4000 
 50 H       -0.9990    -5.8820     2.7140 H     1 <1>   0.1500 
 51 H       -4.0110    -8.5400     1.3270 H     1 <1>   0.1500 
 52 H       -2.2370    -7.9690     2.9680 H     1 <1>   0.1500 
@<TRIPOS>BOND
  1   1   2  2   
  2   2   3  am  
  3   2   4  1   
  4   3   5  1   
  5   3  27  1   
  6   4   6  1   
  7   4   7  1   
  8   4  28  1   
  9   5   8  1   
 10   5   9  1   
 11   5  29  1   
 12   6  10  1   
 13   6  30  1   
 14   6  31  1   
 15   7  11  1   
 16   7  32  1   
 17   7  33  1   
 18   8  12  1   
 19   8  34  1   
 20   8  35  1   
 21   9  13  1   
 22   9  36  1   
 23   9  37  1   
 24  10  14  1   
 25  10  15  1   
 26  10  38  1   
 27  11  15  1   
 28  11  39  1   
 29  11  40  1   
 30  12  16  1   
 31  12  41  1   
 32  12  42  1   
 33  13  16  1   
 34  13  43  1   
 35  13  44  1   
 36  14  17  1   
 37  15  18  1   
 38  15  45  1   
 39  16  19  1   
 40  17  46  1   
 41  17  47  1   
 42  17  48  1   
 43  18  49  1   
 44  19  20  ar  
 45  19  21  ar  
 46  20  22  ar  
 47  21  23  1   
 48  21  24  ar  
 49  22  25  ar  
 50  22  50  1   
 51  23  26  3   
 52  24  25  ar  
 53  24  51  1   
 54  25  52  1   
@<TRIPOS>SUBSTRUCTURE
  1 ****   3 GROUP 4 **** **** 0

# MOE 2024.06 (io_trps.svl 2023.06)
