@<TRIPOS>MOLECULE
NONAME
41 42 1 0 0 
SMALL
USER_CHARGES


@<TRIPOS>ATOM
  1 O       -1.4170    -0.6830    -1.3420 O.2   1 <1>  -0.5700 
  2 C       -1.8520     0.2610    -0.7090 C.2   1 <1>   0.5690 
  3 N       -2.4420     0.0540     0.5160 N.am  1 <1>  -0.6600 
  4 C       -1.7050     1.6780    -1.3200 C.3   1 <1>   0.4050 
  5 C       -2.5300    -1.3230     1.0880 C.3   1 <1>   0.3200 
  6 C       -3.1330     1.1060     1.3210 C.3   1 <1>   0.1400 
  7 O       -1.3700     1.6210    -2.6730 O.3   1 <1>  -0.6800 
  8 C       -0.6320     2.4940    -0.6020 C.ar  1 <1>  -0.1440 
  9 C       -3.7160    -2.0640     0.4990 C.2   1 <1>   0.0060 
 10 C       -2.2080     1.6520     2.4140 C.3   1 <1>   0.1200 
 11 C       -0.9290     3.7620    -0.1220 C.ar  1 <1>  -0.1500 
 12 C        0.6410     1.9770    -0.4000 C.ar  1 <1>  -0.1500 
 13 N       -4.7460    -2.4720     1.1690 N.2   1 <1>  -0.5650 
 14 N       -3.7730    -2.3600    -0.8170 N.pl3 1 <1>   0.0330 
 15 O       -2.8220     2.7460     3.0020 O.3   1 <1>  -0.6800 
 16 C        0.0260     4.4930     0.5610 C.ar  1 <1>  -0.1500 
 17 C        1.5990     2.7070     0.2820 C.ar  1 <1>  -0.1500 
 18 C       -5.5180    -3.0670     0.2370 C.2   1 <1>   0.0770 
 19 C       -4.9400    -3.0080    -0.9820 C.2   1 <1>  -0.3020 
 20 C        1.2920     3.9730     0.7720 C.ar  1 <1>   0.0830 
 21 O        2.1670     4.7510     1.4570 O.3   1 <1>  -0.3620 
 22 C        3.5120     4.3640     1.6290 C.3   1 <1>   0.0400 
 23 H       -2.6500     2.1860    -1.2680 H     1 <1>   0.0800 
 24 H       -2.6390    -1.2740     2.1580 H     1 <1>   0.0800 
 25 H       -1.6270    -1.8670     0.8740 H     1 <1>   0.0800 
 26 H       -4.0160     0.6860     1.7750 H     1 <1>   0.0800 
 27 H       -3.4460     1.9160     0.6890 H     1 <1>   0.0800 
 28 H       -0.8090     0.8290    -2.8030 H     1 <1>   0.4000 
 29 H       -1.2710     1.9790     2.0000 H     1 <1>   0.0800 
 30 H       -2.0360     0.9110     3.1760 H     1 <1>   0.0800 
 31 H       -1.9050     4.1900    -0.2740 H     1 <1>   0.1500 
 32 H        0.8950     0.9990    -0.7740 H     1 <1>   0.1500 
 33 H       -3.0580    -2.1060    -1.5120 H     1 <1>   0.2700 
 34 H       -2.2240     3.1700     3.6500 H     1 <1>   0.4000 
 35 H       -0.2040     5.4740     0.9350 H     1 <1>   0.1500 
 36 H        2.5720     2.2770     0.4210 H     1 <1>   0.1500 
 37 H       -6.4640    -3.5130     0.4980 H     1 <1>   0.1500 
 38 H       -5.2840    -3.3790    -1.9310 H     1 <1>   0.1500 
 39 H        4.0190     5.1480     2.1610 H     1 <1>   0.0800 
 40 H        3.9620     4.2280     0.6620 H     1 <1>   0.0800 
 41 H        3.5430     3.4540     2.2020 H     1 <1>   0.0800 
@<TRIPOS>BOND
  1   1   2  2   
  2   2   3  am  
  3   2   4  1   
  4   3   5  1   
  5   3   6  1   
  6   4   7  1   
  7   4   8  1   
  8   4  23  1   
  9   5   9  1   
 10   5  24  1   
 11   5  25  1   
 12   6  10  1   
 13   6  26  1   
 14   6  27  1   
 15   7  28  1   
 16   8  11  ar  
 17   8  12  ar  
 18   9  13  2   
 19   9  14  1   
 20  10  15  1   
 21  10  29  1   
 22  10  30  1   
 23  11  16  ar  
 24  11  31  1   
 25  12  17  ar  
 26  12  32  1   
 27  13  18  1   
 28  14  19  1   
 29  14  33  1   
 30  15  34  1   
 31  16  20  ar  
 32  16  35  1   
 33  17  20  ar  
 34  17  36  1   
 35  18  19  2   
 36  18  37  1   
 37  19  38  1   
 38  20  21  1   
 39  21  22  1   
 40  22  39  1   
 41  22  40  1   
 42  22  41  1   
@<TRIPOS>SUBSTRUCTURE
  1 ****   2 GROUP 4 **** **** 0

# MOE 2024.06 (io_trps.svl 2023.06)
