@<TRIPOS>MOLECULE
NONAME
52 55 1 0 0 
SMALL
USER_CHARGES


@<TRIPOS>ATOM
  1 O       -2.8320     2.3690    -2.7160 O.2   1 <1>  -0.5700 
  2 C       -2.3100     1.9550    -1.6960 C.2   1 <1>   0.5440 
  3 N       -2.4360     0.6280    -1.4310 N.am  1 <1>  -0.7300 
  4 C       -1.5670     2.8360    -0.8080 C.ar  1 <1>   0.0860 
  5 C       -2.8960    -0.4120    -2.3750 C.3   1 <1>   0.2200 
  6 C       -0.7380     2.3860     0.2500 C.ar  1 <1>   0.1000 
  7 C       -1.6690     4.2190    -1.0020 C.ar  1 <1>  -0.1500 
  8 C       -3.4590    -1.6150    -1.6340 C.3   1 <1>  -0.0800 
  9 C       -1.6870    -1.0360    -3.0590 C.3   1 <1>   0.1200 
 10 N       -0.5400     1.0360     0.5610 N.pl3 1 <1>  -0.8380 
 11 C       -0.0640     3.3240     1.0300 C.ar  1 <1>  -0.1500 
 12 C       -0.9970     5.1300    -0.2130 C.ar  1 <1>  -0.1500 
 13 C       -2.2090    -2.4430    -1.3190 C.3   1 <1>   0.1200 
 14 C       -4.3300    -1.2950    -0.4050 C.3   1 <1>  -0.0170 
 15 O       -1.1910    -1.9880    -2.1630 O.3   1 <1>  -0.5600 
 16 C        0.5730     0.2920    -0.1130 C.3   1 <1>   0.2090 
 17 C       -0.8880     0.5150     1.9200 C.3   1 <1>   0.2090 
 18 C       -0.1870     4.6780     0.8100 C.ar  1 <1>  -0.1500 
 19 C       -4.9290    -2.5640     0.1800 C.ar  1 <1>  -0.1430 
 20 C        1.7290     0.0010     0.8590 C.3   1 <1>   0.1200 
 21 C        0.3640     0.1820     2.7540 C.3   1 <1>   0.1200 
 22 C       -4.3500    -3.2310     1.2410 C.ar  1 <1>  -0.1500 
 23 C       -6.0880    -3.1160    -0.3270 C.ar  1 <1>  -0.1500 
 24 O        1.2620    -0.6110     2.0300 O.3   1 <1>  -0.5600 
 25 C       -4.9400    -4.3870     1.7260 C.ar  1 <1>   0.1600 
 26 C       -6.5960    -4.2770     0.2320 C.ar  1 <1>   0.1600 
 27 N       -6.0490    -4.9260     1.2460 N.ar  1 <1>  -0.6200 
 28 H       -1.8270     0.3010    -0.6670 H     1 <1>   0.3700 
 29 H       -3.5920     0.0060    -3.0840 H     1 <1>   0.0800 
 30 H       -2.2940     4.5880    -1.7970 H     1 <1>   0.1500 
 31 H       -4.0520    -2.1810    -2.3310 H     1 <1>   0.0800 
 32 H       -0.9220    -0.3140    -3.2860 H     1 <1>   0.0800 
 33 H       -1.9830    -1.5520    -3.9560 H     1 <1>   0.0800 
 34 H        0.5750     2.9820     1.8210 H     1 <1>   0.1500 
 35 H       -1.1020     6.1860    -0.3950 H     1 <1>   0.1500 
 36 H       -2.3690    -3.4930    -1.4950 H     1 <1>   0.0800 
 37 H       -1.8770    -2.2900    -0.3060 H     1 <1>   0.0800 
 38 H       -5.1220    -0.6270    -0.6950 H     1 <1>   0.0800 
 39 H       -3.7490    -0.7930     0.3490 H     1 <1>   0.0800 
 40 H        0.1990    -0.6410    -0.4940 H     1 <1>   0.0800 
 41 H        0.9400     0.8640    -0.9470 H     1 <1>   0.0800 
 42 H       -1.4870     1.2390     2.4450 H     1 <1>   0.0800 
 43 H       -1.4780    -0.3780     1.8100 H     1 <1>   0.0800 
 44 H        0.3440     5.3830     1.4280 H     1 <1>   0.1500 
 45 H        2.2360     0.9120     1.1230 H     1 <1>   0.0800 
 46 H        2.4360    -0.6670     0.4000 H     1 <1>   0.0800 
 47 H        0.0840    -0.3650     3.6370 H     1 <1>   0.0800 
 48 H        0.8690     1.0810     3.0580 H     1 <1>   0.0800 
 49 H       -3.4480    -2.8660     1.6950 H     1 <1>   0.1500 
 50 H       -6.6010    -2.6550    -1.1520 H     1 <1>   0.1500 
 51 H       -4.4750    -4.8950     2.5530 H     1 <1>   0.1500 
 52 H       -7.5020    -4.6920    -0.1770 H     1 <1>   0.1500 
@<TRIPOS>BOND
  1   1   2  2   
  2   2   3  am  
  3   2   4  1   
  4   3   5  1   
  5   3  28  1   
  6   4   6  ar  
  7   4   7  ar  
  8   5   8  1   
  9   5   9  1   
 10   5  29  1   
 11   6  10  1   
 12   6  11  ar  
 13   7  12  ar  
 14   7  30  1   
 15   8  13  1   
 16   8  14  1   
 17   8  31  1   
 18   9  15  1   
 19   9  32  1   
 20   9  33  1   
 21  10  16  1   
 22  10  17  1   
 23  11  18  ar  
 24  11  34  1   
 25  12  18  ar  
 26  12  35  1   
 27  13  15  1   
 28  13  36  1   
 29  13  37  1   
 30  14  19  1   
 31  14  38  1   
 32  14  39  1   
 33  16  20  1   
 34  16  40  1   
 35  16  41  1   
 36  17  21  1   
 37  17  42  1   
 38  17  43  1   
 39  18  44  1   
 40  19  22  ar  
 41  19  23  ar  
 42  20  24  1   
 43  20  45  1   
 44  20  46  1   
 45  21  24  1   
 46  21  47  1   
 47  21  48  1   
 48  22  25  ar  
 49  22  49  1   
 50  23  26  ar  
 51  23  50  1   
 52  25  27  ar  
 53  25  51  1   
 54  26  27  ar  
 55  26  52  1   
@<TRIPOS>SUBSTRUCTURE
  1 ****   3 GROUP 4 **** **** 0

# MOE 2024.06 (io_trps.svl 2023.06)
