@<TRIPOS>MOLECULE
NONAME
51 53 1 0 0 
SMALL
USER_CHARGES


@<TRIPOS>ATOM
  1 O        1.1890    -2.2080    -0.9960 O.3   1 <1>  -0.3630 
  2 C        0.5890    -3.1100    -0.1730 C.ar  1 <1>   0.0820 
  3 C        0.9190    -0.8220    -0.9770 C.3   1 <1>   0.1200 
  4 C        0.8710    -4.4550    -0.3910 C.ar  1 <1>  -0.1440 
  5 C       -0.2790    -2.7430     0.8530 C.ar  1 <1>  -0.1500 
  6 C       -0.3980    -0.5510    -1.7060 C.3   1 <1>  -0.2400 
  7 C        0.2780    -5.4110     0.4240 C.ar  1 <1>  -0.1500 
  8 C        1.8040    -4.8250    -1.5440 C.3   1 <1>   0.2630 
  9 C       -0.8730    -3.7060     1.6470 C.ar  1 <1>  -0.1500 
 10 C       -0.6030    -5.0480     1.4300 C.ar  1 <1>  -0.1440 
 11 O        2.2030    -6.1520    -1.4570 O.3   1 <1>  -0.6800 
 12 C       -1.2770    -6.1210     2.2620 C.3   1 <1>   0.4860 
 13 N       -2.1820    -6.8810     1.3660 N.4   1 <1>  -0.9590 
 14 C       -3.2850    -6.0810     0.7550 C.3   1 <1>   0.3430 
 15 C       -2.7860    -8.1160     1.9120 C.3   1 <1>   0.3430 
 16 C       -4.4130    -7.0810     0.4610 C.3   1 <1>   0.2000 
 17 C       -3.9170    -8.4550     0.9380 C.3   1 <1>  -0.0800 
 18 O       -5.5430    -6.7320     1.1930 O.3   1 <1>  -0.6800 
 19 C       -3.4680    -9.3740    -0.2280 C.3   1 <1>  -0.0170 
 20 C       -2.0890    -9.0900    -0.8240 C.ar  1 <1>   0.1670 
 21 N       -1.8890    -7.8860    -1.3390 N.ar  1 <1>  -0.6200 
 22 C       -1.1120   -10.0850    -0.8070 C.ar  1 <1>   0.1600 
 23 C       -0.6780    -7.7580    -1.8670 C.ar  1 <1>   0.1600 
 24 N        0.1100    -9.9390    -1.2870 N.ar  1 <1>  -0.6200 
 25 C        0.2920    -8.7510    -1.8350 C.ar  1 <1>   0.1600 
 26 H        0.9100    -0.4700     0.0390 H     1 <1>   0.0800 
 27 H        1.7270    -0.3360    -1.4960 H     1 <1>   0.0800 
 28 H       -0.5050    -1.7120     1.0470 H     1 <1>   0.1500 
 29 H       -1.2210    -1.0300    -1.2090 H     1 <1>   0.0800 
 30 H       -0.3370    -0.9070    -2.7190 H     1 <1>   0.0800 
 31 H       -0.5860     0.5080    -1.7300 H     1 <1>   0.0800 
 32 H        0.4980    -6.4520     0.2700 H     1 <1>   0.1500 
 33 H        2.6880    -4.2090    -1.5370 H     1 <1>   0.0800 
 34 H        1.2960    -4.6910    -2.4840 H     1 <1>   0.0800 
 35 H       -1.5450    -3.3940     2.4290 H     1 <1>   0.1500 
 36 H        2.8460    -6.2390    -0.7260 H     1 <1>   0.4000 
 37 H       -1.8330    -5.6740     3.0690 H     1 <1>   0.0800 
 38 H       -0.5260    -6.7740     2.6750 H     1 <1>   0.0800 
 39 H       -1.6250    -7.1680     0.5370 H     1 <1>   0.4500 
 40 H       -3.6350    -5.3190     1.4310 H     1 <1>   0.0800 
 41 H       -2.9420    -5.6220    -0.1590 H     1 <1>   0.0800 
 42 H       -2.0640    -8.9150     1.9810 H     1 <1>   0.0800 
 43 H       -3.1970    -7.9190     2.8890 H     1 <1>   0.0800 
 44 H       -4.6830    -7.0690    -0.5820 H     1 <1>   0.0800 
 45 H       -4.7050    -8.9720     1.4600 H     1 <1>   0.0800 
 46 H       -5.4230    -6.8180     2.1580 H     1 <1>   0.4000 
 47 H       -4.1960    -9.3250    -1.0200 H     1 <1>   0.0800 
 48 H       -3.4820   -10.3900     0.1270 H     1 <1>   0.0800 
 49 H       -1.3420   -11.0450    -0.3790 H     1 <1>   0.1500 
 50 H       -0.4310    -6.8230    -2.3420 H     1 <1>   0.1500 
 51 H        1.2530    -8.5490    -2.2780 H     1 <1>   0.1500 
@<TRIPOS>BOND
  1   1   2  1   
  2   1   3  1   
  3   2   4  ar  
  4   2   5  ar  
  5   3   6  1   
  6   3  26  1   
  7   3  27  1   
  8   4   7  ar  
  9   4   8  1   
 10   5   9  ar  
 11   5  28  1   
 12   6  29  1   
 13   6  30  1   
 14   6  31  1   
 15   7  10  ar  
 16   7  32  1   
 17   8  11  1   
 18   8  33  1   
 19   8  34  1   
 20   9  10  ar  
 21   9  35  1   
 22  10  12  1   
 23  11  36  1   
 24  12  13  1   
 25  12  37  1   
 26  12  38  1   
 27  13  14  1   
 28  13  15  1   
 29  13  39  1   
 30  14  16  1   
 31  14  40  1   
 32  14  41  1   
 33  15  17  1   
 34  15  42  1   
 35  15  43  1   
 36  16  17  1   
 37  16  18  1   
 38  16  44  1   
 39  17  19  1   
 40  17  45  1   
 41  18  46  1   
 42  19  20  1   
 43  19  47  1   
 44  19  48  1   
 45  20  21  ar  
 46  20  22  ar  
 47  21  23  ar  
 48  22  24  ar  
 49  22  49  1   
 50  23  25  ar  
 51  23  50  1   
 52  24  25  ar  
 53  25  51  1   
@<TRIPOS>SUBSTRUCTURE
  1 ****   7 GROUP 4 **** **** 0

# MOE 2024.06 (io_trps.svl 2023.06)
