@<TRIPOS>MOLECULE
NONAME
47 49 1 0 0 
SMALL
USER_CHARGES


@<TRIPOS>ATOM
  1 O        0.9250    -0.1780     0.2320 O.2   1 <1>  -0.5700 
  2 C        0.2390     0.3530    -0.6130 C.2   1 <1>   0.5690 
  3 N       -0.9660    -0.1830    -0.9850 N.am  1 <1>  -0.6600 
  4 C        0.7640     1.6240    -1.2440 C.3   1 <1>   0.1570 
  5 C       -1.9960     0.4840    -1.8250 C.3   1 <1>   0.1400 
  6 C       -1.6010    -1.2730    -0.2060 C.3   1 <1>   0.1400 
  7 N        0.1560     2.7840    -0.5830 N.pl3 1 <1>   0.3140 
  8 C       -3.3380     0.0710    -1.2090 C.3   1 <1>   0.2000 
  9 C       -3.0510    -1.3450    -0.7010 C.3   1 <1>  -0.0800 
 10 N       -0.5940     3.6900    -1.2650 N.2   1 <1>  -0.7070 
 11 C        0.2720     3.1180     0.7310 C.2   1 <1>  -0.0680 
 12 O       -3.6560     0.8750    -0.1050 O.3   1 <1>  -0.5600 
 13 C       -4.0370    -1.8520     0.3680 C.3   1 <1>   0.0200 
 14 C       -0.9220     4.5710    -0.3740 C.2   1 <1>   0.1080 
 15 N        0.9720     2.3900     1.7050 N.pl3 1 <1>  -0.8840 
 16 C       -0.4160     4.2700     0.8860 C.2   1 <1>  -0.1500 
 17 C       -4.0640     2.1780    -0.3890 C.3   1 <1>   0.0400 
 18 C       -3.8180    -3.3100     0.7400 C.2   1 <1>  -0.0400 
 19 C       -1.7600     5.7830    -0.7050 C.3   1 <1>  -0.0590 
 20 O       -4.5160    -3.8170     1.7220 O.3   1 <1>  -0.0190 
 21 C       -3.0210    -4.2800     0.2640 C.2   1 <1>  -0.1500 
 22 N       -4.2270    -5.0690     1.9300 N.2   1 <1>  -0.4100 
 23 C       -3.3280    -5.3750     1.0660 C.2   1 <1>   0.1080 
 24 C       -2.6950    -6.7430     0.9460 C.3   1 <1>  -0.0590 
 25 H        0.5310     1.6490    -2.2900 H     1 <1>   0.0800 
 26 H        1.8270     1.6800    -1.1160 H     1 <1>   0.0800 
 27 H       -1.8810     1.5490    -1.8610 H     1 <1>   0.0800 
 28 H       -1.9270     0.0930    -2.8240 H     1 <1>   0.0800 
 29 H       -1.0760    -2.2000    -0.3560 H     1 <1>   0.0800 
 30 H       -1.5720    -1.0130     0.8400 H     1 <1>   0.0800 
 31 H       -4.1520     0.1010    -1.9120 H     1 <1>   0.0800 
 32 H       -3.0830    -2.0100    -1.5450 H     1 <1>   0.0800 
 33 H       -5.0440    -1.7410     0.0070 H     1 <1>   0.0800 
 34 H       -3.9450    -1.2560     1.2600 H     1 <1>   0.0800 
 35 H        1.0660     1.3760     1.5090 H     1 <1>   0.4000 
 36 H        0.6340     2.5240     2.6630 H     1 <1>   0.4000 
 37 H       -0.5480     4.8440     1.7840 H     1 <1>   0.1500 
 38 H       -4.4070     2.6240     0.5270 H     1 <1>   0.0800 
 39 H       -4.8680     2.1570    -1.1040 H     1 <1>   0.0800 
 40 H       -3.2310     2.7460    -0.7640 H     1 <1>   0.0800 
 41 H       -1.9350     6.3710     0.1760 H     1 <1>   0.0800 
 42 H       -2.7030     5.4690    -1.1130 H     1 <1>   0.0800 
 43 H       -1.2470     6.3830    -1.4340 H     1 <1>   0.0800 
 44 H       -2.3060    -4.2660    -0.5360 H     1 <1>   0.1500 
 45 H       -1.6350    -6.6700     1.1040 H     1 <1>   0.0800 
 46 H       -2.8830    -7.1480    -0.0310 H     1 <1>   0.0800 
 47 H       -3.1120    -7.4060     1.6830 H     1 <1>   0.0800 
@<TRIPOS>BOND
  1   1   2  2   
  2   2   3  am  
  3   2   4  1   
  4   3   5  1   
  5   3   6  1   
  6   4   7  1   
  7   4  25  1   
  8   4  26  1   
  9   5   8  1   
 10   5  27  1   
 11   5  28  1   
 12   6   9  1   
 13   6  29  1   
 14   6  30  1   
 15   7  10  1   
 16   7  11  1   
 17   8   9  1   
 18   8  12  1   
 19   8  31  1   
 20   9  13  1   
 21   9  32  1   
 22  10  14  2   
 23  11  15  1   
 24  11  16  2   
 25  12  17  1   
 26  13  18  1   
 27  13  33  1   
 28  13  34  1   
 29  14  16  1   
 30  14  19  1   
 31  15  35  1   
 32  15  36  1   
 33  16  37  1   
 34  17  38  1   
 35  17  39  1   
 36  17  40  1   
 37  18  20  1   
 38  18  21  2   
 39  19  41  1   
 40  19  42  1   
 41  19  43  1   
 42  20  22  1   
 43  21  23  1   
 44  21  44  1   
 45  22  23  2   
 46  23  24  1   
 47  24  45  1   
 48  24  46  1   
 49  24  47  1   
@<TRIPOS>SUBSTRUCTURE
  1 ****   6 GROUP 4 **** **** 0

# MOE 2024.06 (io_trps.svl 2023.06)
