@<TRIPOS>MOLECULE
NONAME
39 41 1 0 0 
SMALL
USER_CHARGES


@<TRIPOS>ATOM
  1 O        1.4840    -0.0500     1.3980 O.3   1 <1>  -0.6800 
  2 C        1.7400    -0.0880     0.0280 C.3   1 <1>   0.2000 
  3 C        2.4980    -1.3680    -0.3420 C.3   1 <1>  -0.0800 
  4 C        2.7040     1.0470    -0.3440 C.3   1 <1>   0.2090 
  5 C        3.9720    -1.0160    -0.1430 C.3   1 <1>   0.2090 
  6 C        2.0810    -2.6490     0.4030 C.3   1 <1>   0.0210 
  7 N        4.0610     0.4400    -0.3930 N.pl3 1 <1>  -0.8380 
  8 C        2.8830    -3.8380    -0.0860 C.2   1 <1>   0.1080 
  9 C        5.2110     1.1590    -0.1930 C.ar  1 <1>   0.7200 
 10 N        2.7240    -4.3530    -1.2650 N.2   1 <1>  -0.7070 
 11 C        3.8680    -4.4920     0.6470 C.2   1 <1>  -0.1500 
 12 N        6.3160     0.4690     0.0590 N.ar  1 <1>  -0.6200 
 13 N        5.1140     2.4840    -0.2870 N.ar  1 <1>  -0.6200 
 14 N        3.6160    -5.3600    -1.3180 N.pl3 1 <1>   0.3000 
 15 C        4.3210    -5.4640    -0.1720 C.2   1 <1>  -0.3320 
 16 C        7.4070     1.1660     0.2360 C.ar  1 <1>   0.4100 
 17 C        6.2260     3.1560    -0.1050 C.ar  1 <1>   0.1600 
 18 C        5.4020    -6.5010     0.0730 C.3   1 <1>  -0.0600 
 19 N        8.5060     0.4020     0.4920 N.pl3 1 <1>  -0.9000 
 20 C        7.4280     2.5520     0.1630 C.ar  1 <1>   0.0730 
 21 C        8.6210     3.3060     0.3500 C.1   1 <1>   0.4840 
 22 N        9.5780     3.9120     0.4830 N.1   1 <1>  -0.5570 
 23 H        0.8170    -0.7190     1.6410 H     1 <1>   0.4000 
 24 H        0.8020     0.0050    -0.4900 H     1 <1>   0.0800 
 25 H        2.3600    -1.5340    -1.3960 H     1 <1>   0.0800 
 26 H        2.6550     1.8480     0.3750 H     1 <1>   0.0800 
 27 H        2.4660     1.4270    -1.3210 H     1 <1>   0.0800 
 28 H        4.6020    -1.5630    -0.8250 H     1 <1>   0.0800 
 29 H        4.2780    -1.2160     0.8700 H     1 <1>   0.0800 
 30 H        1.0390    -2.8470     0.2280 H     1 <1>   0.0800 
 31 H        2.2340    -2.5390     1.4610 H     1 <1>   0.0800 
 32 H        4.1820    -4.2510     1.6470 H     1 <1>   0.1500 
 33 H        3.7200    -5.9530    -2.1500 H     1 <1>   0.2700 
 34 H        6.1720     4.2300    -0.1740 H     1 <1>   0.1500 
 35 H        5.8150    -6.3770     1.0590 H     1 <1>   0.0800 
 36 H        6.1940    -6.3900    -0.6460 H     1 <1>   0.0800 
 37 H        4.9920    -7.4920    -0.0040 H     1 <1>   0.0800 
 38 H        8.3750    -0.6080     0.3910 H     1 <1>   0.4000 
 39 H        9.4590     0.7370     0.3330 H     1 <1>   0.4000 
@<TRIPOS>BOND
  1   1   2  1   
  2   1  23  1   
  3   2   3  1   
  4   2   4  1   
  5   2  24  1   
  6   3   5  1   
  7   3   6  1   
  8   3  25  1   
  9   4   7  1   
 10   4  26  1   
 11   4  27  1   
 12   5   7  1   
 13   5  28  1   
 14   5  29  1   
 15   6   8  1   
 16   6  30  1   
 17   6  31  1   
 18   7   9  1   
 19   8  10  2   
 20   8  11  1   
 21   9  12  ar  
 22   9  13  ar  
 23  10  14  1   
 24  11  15  2   
 25  11  32  1   
 26  12  16  ar  
 27  13  17  ar  
 28  14  15  1   
 29  14  33  1   
 30  15  18  1   
 31  16  19  1   
 32  16  20  ar  
 33  17  20  ar  
 34  17  34  1   
 35  18  35  1   
 36  18  36  1   
 37  18  37  1   
 38  19  38  1   
 39  19  39  1   
 40  20  21  1   
 41  21  22  3   
@<TRIPOS>SUBSTRUCTURE
  1 ****   5 GROUP 4 **** **** 0

# MOE 2024.06 (io_trps.svl 2023.06)
