@<TRIPOS>MOLECULE
NONAME
48 51 1 0 0 
SMALL
USER_CHARGES


@<TRIPOS>ATOM
  1 S       -1.5050     1.1680    -0.1590 S.3   1 <1>  -0.0800 
  2 C       -0.5140     2.5170     0.3520 C.2   1 <1>  -0.1400 
  3 C       -0.3500     0.7760    -1.4250 C.2   1 <1>  -0.1100 
  4 C        0.5990     2.6290    -0.3830 C.2   1 <1>  -0.1810 
  5 C       -0.9050     3.4260     1.4860 C.3   1 <1>   0.0200 
  6 C        0.6910     1.6320    -1.4120 C.2   1 <1>  -0.1500 
  7 C        1.6240     3.7310    -0.1010 C.3   1 <1>   0.4610 
  8 C       -0.0610     4.7040     1.3550 C.3   1 <1>   0.1200 
  9 O        1.2910     4.3980     1.1060 O.3   1 <1>  -0.5600 
 10 C        1.6680     4.7500    -1.2480 C.3   1 <1>  -0.1600 
 11 C        3.0110     3.1210     0.1270 C.3   1 <1>  -0.1600 
 12 C        2.7490     5.8030    -1.0180 C.3   1 <1>   0.2090 
 13 C        4.0660     4.2050     0.3380 C.3   1 <1>   0.2090 
 14 N        4.0550     5.1160    -0.8330 N.pl3 1 <1>  -0.8380 
 15 C        5.2130     5.8180    -1.0990 C.ar  1 <1>   0.4100 
 16 N        5.2020     7.1180    -0.8570 N.ar  1 <1>  -0.6200 
 17 C        6.3220     5.1380    -1.5910 C.ar  1 <1>  -0.1500 
 18 C        6.3330     7.8050    -1.0960 C.ar  1 <1>   0.3960 
 19 C        7.4850     5.8180    -1.8470 C.ar  1 <1>  -0.1500 
 20 C        6.3920     9.2520    -0.8480 C.2   1 <1>   0.5440 
 21 C        7.4740     7.1720    -1.5910 C.ar  1 <1>  -0.1500 
 22 O        7.0650     9.9490    -1.5930 O.2   1 <1>  -0.5700 
 23 N        5.7470     9.8860     0.2100 N.am  1 <1>  -0.6600 
 24 C        5.6530    11.3700     0.3040 C.3   1 <1>   0.0600 
 25 C        5.1100     9.1540     1.3390 C.3   1 <1>   0.0600 
 26 H       -0.5770    -0.0650    -2.0550 H     1 <1>   0.1500 
 27 H       -0.7100     2.9440     2.4270 H     1 <1>   0.0800 
 28 H       -1.9500     3.6710     1.4300 H     1 <1>   0.0800 
 29 H        1.5260     1.6020    -2.0890 H     1 <1>   0.1500 
 30 H       -0.1060     5.2740     2.2660 H     1 <1>   0.0800 
 31 H       -0.4280     5.3140     0.5490 H     1 <1>   0.0800 
 32 H        0.7110     5.2210    -1.3680 H     1 <1>   0.0800 
 33 H        1.8880     4.2390    -2.1660 H     1 <1>   0.0800 
 34 H        3.2970     2.5340    -0.7250 H     1 <1>   0.0800 
 35 H        2.9760     2.4700     0.9800 H     1 <1>   0.0800 
 36 H        2.5250     6.3890    -0.1420 H     1 <1>   0.0800 
 37 H        2.8040     6.4640    -1.8660 H     1 <1>   0.0800 
 38 H        5.0380     3.7550     0.4490 H     1 <1>   0.0800 
 39 H        3.8490     4.7680     1.2310 H     1 <1>   0.0800 
 40 H        6.2440     4.0830    -1.7690 H     1 <1>   0.1500 
 41 H        8.3600     5.3220    -2.2310 H     1 <1>   0.1500 
 42 H        8.3560     7.7580    -1.7770 H     1 <1>   0.1500 
 43 H        5.9330    11.8320    -0.6270 H     1 <1>   0.0800 
 44 H        6.3100    11.7240     1.0780 H     1 <1>   0.0800 
 45 H        4.6430    11.6570     0.5340 H     1 <1>   0.0800 
 46 H        5.6140     8.2190     1.5120 H     1 <1>   0.0800 
 47 H        4.0790     8.9570     1.1030 H     1 <1>   0.0800 
 48 H        5.1640     9.7400     2.2400 H     1 <1>   0.0800 
@<TRIPOS>BOND
  1   1   2  1   
  2   1   3  1   
  3   2   4  2   
  4   2   5  1   
  5   3   6  2   
  6   3  26  1   
  7   4   6  1   
  8   4   7  1   
  9   5   8  1   
 10   5  27  1   
 11   5  28  1   
 12   6  29  1   
 13   7   9  1   
 14   7  10  1   
 15   7  11  1   
 16   8   9  1   
 17   8  30  1   
 18   8  31  1   
 19  10  12  1   
 20  10  32  1   
 21  10  33  1   
 22  11  13  1   
 23  11  34  1   
 24  11  35  1   
 25  12  14  1   
 26  12  36  1   
 27  12  37  1   
 28  13  14  1   
 29  13  38  1   
 30  13  39  1   
 31  14  15  1   
 32  15  16  ar  
 33  15  17  ar  
 34  16  18  ar  
 35  17  19  ar  
 36  17  40  1   
 37  18  20  1   
 38  18  21  ar  
 39  19  21  ar  
 40  19  41  1   
 41  20  22  2   
 42  20  23  am  
 43  21  42  1   
 44  23  24  1   
 45  23  25  1   
 46  24  43  1   
 47  24  44  1   
 48  24  45  1   
 49  25  46  1   
 50  25  47  1   
 51  25  48  1   
@<TRIPOS>SUBSTRUCTURE
  1 ****  14 GROUP 4 **** **** 0

# MOE 2024.06 (io_trps.svl 2023.06)
