@<TRIPOS>MOLECULE
NONAME
47 48 1 0 0 
SMALL
USER_CHARGES


@<TRIPOS>ATOM
  1 O        3.4020    -0.6280     2.2170 O.2   1 <1>  -0.5700 
  2 C        2.5150    -1.0230     1.4990 C.2   1 <1>   0.5690 
  3 N        1.8560    -0.2580     0.5800 N.am  1 <1>  -0.5470 
  4 C        2.0780    -2.4860     1.6040 C.3   1 <1>   0.1710 
  5 C        1.9570     1.0850     0.1910 C.ar  1 <1>   0.1170 
  6 N        0.7100    -2.7530     1.0610 N.3   1 <1>  -0.8100 
  7 C        1.0060     1.5930    -0.6850 C.ar  1 <1>  -0.1500 
  8 C        2.9620     1.9380     0.6330 C.ar  1 <1>  -0.1500 
  9 C        0.5240    -4.2050     0.7990 C.3   1 <1>   0.2900 
 10 C       -0.3270    -2.2550     1.9870 C.3   1 <1>   0.0300 
 11 C        1.0540     2.9100    -1.1050 C.ar  1 <1>  -0.1500 
 12 C        3.0110     3.2560     0.2140 C.ar  1 <1>  -0.1500 
 13 C       -0.8040    -4.5410     0.1260 C.2   1 <1>   0.2980 
 14 C        2.0580     3.7580    -0.6590 C.ar  1 <1>  -0.1430 
 15 O       -1.0500    -4.1490    -1.0830 O.3   1 <1>  -0.2800 
 16 N       -1.7750    -5.2070     0.6270 N.2   1 <1>  -0.3380 
 17 C        2.1250     5.2160    -1.1090 C.3   1 <1>   0.0630 
 18 C       -2.2380    -4.6040    -1.3130 C.2   1 <1>   0.2980 
 19 N       -2.7160    -5.2460    -0.3170 N.2   1 <1>  -0.3380 
 20 C        0.8830     5.9810    -0.6140 C.3   1 <1>  -0.1600 
 21 C        2.2990     5.2930    -2.6320 C.3   1 <1>  -0.2400 
 22 C       -2.8980    -4.3480    -2.6470 C.3   1 <1>  -0.0600 
 23 C        0.9600     7.4960    -0.8520 C.3   1 <1>  -0.2400 
 24 H        1.1020    -0.7930     0.1390 H     1 <1>   0.3700 
 25 H        2.1330    -2.7910     2.6350 H     1 <1>   0.0800 
 26 H        2.8010    -3.0610     1.0530 H     1 <1>   0.0800 
 27 H        0.2200     0.9550    -1.0430 H     1 <1>   0.1500 
 28 H        3.7170     1.5800     1.3070 H     1 <1>   0.1500 
 29 H        0.5870    -4.7510     1.7240 H     1 <1>   0.0800 
 30 H        1.3110    -4.5530     0.1530 H     1 <1>   0.0800 
 31 H       -0.1780    -1.2080     2.1940 H     1 <1>   0.0800 
 32 H       -0.2990    -2.7980     2.9170 H     1 <1>   0.0800 
 33 H       -1.3050    -2.3690     1.5500 H     1 <1>   0.0800 
 34 H        0.3030     3.2740    -1.7830 H     1 <1>   0.1500 
 35 H        3.8020     3.8880     0.5770 H     1 <1>   0.1500 
 36 H        2.9930     5.6680    -0.6590 H     1 <1>   0.0800 
 37 H        0.7790     5.8070     0.4430 H     1 <1>   0.0800 
 38 H        0.0020     5.5930    -1.0930 H     1 <1>   0.0800 
 39 H        1.4120     4.9530    -3.1350 H     1 <1>   0.0800 
 40 H        3.1230     4.6710    -2.9340 H     1 <1>   0.0800 
 41 H        2.5080     6.3000    -2.9410 H     1 <1>   0.0800 
 42 H       -2.9900    -3.2910    -2.8080 H     1 <1>   0.0800 
 43 H       -3.8770    -4.7930    -2.6610 H     1 <1>   0.0800 
 44 H       -2.3050    -4.7780    -3.4320 H     1 <1>   0.0800 
 45 H        1.8500     7.9030    -0.4040 H     1 <1>   0.0800 
 46 H        0.1060     7.9770    -0.4080 H     1 <1>   0.0800 
 47 H        0.9630     7.7210    -1.9030 H     1 <1>   0.0800 
@<TRIPOS>BOND
  1   1   2  2   
  2   2   3  am  
  3   2   4  1   
  4   3   5  1   
  5   3  24  1   
  6   4   6  1   
  7   4  25  1   
  8   4  26  1   
  9   5   7  ar  
 10   5   8  ar  
 11   6   9  1   
 12   6  10  1   
 13   7  11  ar  
 14   7  27  1   
 15   8  12  ar  
 16   8  28  1   
 17   9  13  1   
 18   9  29  1   
 19   9  30  1   
 20  10  31  1   
 21  10  32  1   
 22  10  33  1   
 23  11  14  ar  
 24  11  34  1   
 25  12  14  ar  
 26  12  35  1   
 27  13  15  1   
 28  13  16  2   
 29  14  17  1   
 30  15  18  1   
 31  16  19  1   
 32  17  20  1   
 33  17  21  1   
 34  17  36  1   
 35  18  19  2   
 36  18  22  1   
 37  20  23  1   
 38  20  37  1   
 39  20  38  1   
 40  21  39  1   
 41  21  40  1   
 42  21  41  1   
 43  22  42  1   
 44  22  43  1   
 45  22  44  1   
 46  23  45  1   
 47  23  46  1   
 48  23  47  1   
@<TRIPOS>SUBSTRUCTURE
  1 ****   3 GROUP 4 **** **** 0

# MOE 2024.06 (io_trps.svl 2023.06)
