@<TRIPOS>MOLECULE
NONAME
33 34 1 0 0 
SMALL
USER_CHARGES


@<TRIPOS>ATOM
  1 BR      -0.3010     1.0930    -1.5520 Br    1 <1>  -0.0580 
  2 C       -2.0340     0.7770    -0.7860 C.2   1 <1>   0.0980 
  3 S       -2.9850     2.2010    -0.4300 S.3   1 <1>  -0.0800 
  4 C       -2.6590    -0.3680    -0.4680 C.2   1 <1>  -0.1500 
  5 C       -4.2870     1.1790     0.1760 C.2   1 <1>  -0.0450 
  6 C       -3.9590    -0.1280     0.0870 C.2   1 <1>  -0.1500 
  7 C       -5.5270     1.8850     0.6830 C.3   1 <1>  -0.0150 
  8 C       -6.5290     2.3970    -0.3010 C.3   1 <1>   0.0490 
  9 C       -6.8750     1.2470     0.6000 C.3   1 <1>  -0.2000 
 10 N       -7.1030     3.7510    -0.1030 N.am  1 <1>  -0.5790 
 11 C       -7.5460     4.3710     1.0270 C.2   1 <1>   0.7800 
 12 O       -7.5560     3.8380     2.1150 O.2   1 <1>  -0.5700 
 13 O       -7.9880     5.6290     0.9670 O.3   1 <1>  -0.4300 
 14 C       -8.0520     6.5330    -0.1140 C.3   1 <1>   0.2800 
 15 C       -8.6310     7.8170     0.4820 C.3   1 <1>  -0.2400 
 16 C       -9.0070     6.0080    -1.1940 C.3   1 <1>  -0.2400 
 17 C       -6.6450     6.8210    -0.6540 C.3   1 <1>  -0.2400 
 18 H       -2.2660    -1.3610    -0.5980 H     1 <1>   0.1500 
 19 H       -4.5860    -0.9460     0.3950 H     1 <1>   0.1500 
 20 H       -5.3270     2.4830     1.5560 H     1 <1>   0.1000 
 21 H       -6.3630     2.1740    -1.3420 H     1 <1>   0.1000 
 22 H       -7.5660     1.3950     1.4110 H     1 <1>   0.1000 
 23 H       -6.9480     0.2630     0.1740 H     1 <1>   0.1000 
 24 H       -7.1040     4.3290    -0.9370 H     1 <1>   0.3700 
 25 H       -8.7200     8.5780    -0.2720 H     1 <1>   0.0800 
 26 H       -7.9900     8.1870     1.2630 H     1 <1>   0.0800 
 27 H       -9.6070     7.6300     0.8930 H     1 <1>   0.0800 
 28 H       -9.1810     6.7750    -1.9270 H     1 <1>   0.0800 
 29 H       -9.9530     5.7460    -0.7540 H     1 <1>   0.0800 
 30 H       -8.6110     5.1560    -1.7100 H     1 <1>   0.0800 
 31 H       -6.6870     7.6320    -1.3590 H     1 <1>   0.0800 
 32 H       -6.2210     5.9780    -1.1620 H     1 <1>   0.0800 
 33 H       -5.9930     7.1120     0.1510 H     1 <1>   0.0800 
@<TRIPOS>BOND
  1   1   2  1   
  2   2   3  1   
  3   2   4  2   
  4   3   5  1   
  5   4   6  1   
  6   4  18  1   
  7   5   6  2   
  8   5   7  1   
  9   6  19  1   
 10   7   8  1   
 11   7   9  1   
 12   7  20  1   
 13   8   9  1   
 14   8  10  1   
 15   8  21  1   
 16   9  22  1   
 17   9  23  1   
 18  10  11  am  
 19  10  24  1   
 20  11  12  2   
 21  11  13  1   
 22  13  14  1   
 23  14  15  1   
 24  14  16  1   
 25  14  17  1   
 26  15  25  1   
 27  15  26  1   
 28  15  27  1   
 29  16  28  1   
 30  16  29  1   
 31  16  30  1   
 32  17  31  1   
 33  17  32  1   
 34  17  33  1   
@<TRIPOS>SUBSTRUCTURE
  1 ****   8 GROUP 4 **** **** 0

# MOE 2024.06 (io_trps.svl 2023.06)
