@<TRIPOS>MOLECULE
NONAME
51 53 1 0 0 
SMALL
USER_CHARGES


@<TRIPOS>ATOM
  1 O       -1.8110     0.0360    -0.3850 O.2   1 <1>  -0.5700 
  2 C       -2.1910     1.1950    -0.4380 C.2   1 <1>   0.7670 
  3 N       -1.3310     2.1520     0.0470 N.2   1 <1>  -0.6610 
  4 C       -3.4680     1.5560    -0.9650 C.2   1 <1>   0.0290 
  5 C       -1.6810     3.3790    -0.0210 C.2   1 <1>   0.4390 
  6 C       -4.3590     0.5450    -1.4460 C.2   1 <1>   0.6160 
  7 C       -3.7740     2.8840    -1.0200 C.2   1 <1>  -0.0500 
  8 N       -2.8730     3.7880    -0.5430 N.pl3 1 <1>  -0.5500 
  9 C       -0.7580     4.4570     0.4900 C.3   1 <1>  -0.1790 
 10 O       -4.7870     0.6490    -2.5820 O.2   1 <1>  -0.5700 
 11 N       -4.8340    -0.4910    -0.6670 N.am  1 <1>  -0.6600 
 12 C       -5.5840    -1.6350    -1.2740 C.3   1 <1>   0.1400 
 13 C       -4.7630    -0.5270     0.8200 C.3   1 <1>   0.1400 
 14 C       -7.1060    -1.4810    -1.1210 C.3   1 <1>   0.1400 
 15 C       -5.9010     0.2880     1.4510 C.3   1 <1>  -0.1600 
 16 N       -7.5190    -1.2260     0.3010 N.am  1 <1>  -0.6600 
 17 C       -7.2620     0.1700     0.7500 C.3   1 <1>   0.1400 
 18 C       -8.1260    -2.1360     1.1380 C.2   1 <1>   0.5690 
 19 O       -8.4980    -1.8040     2.2430 O.2   1 <1>  -0.5700 
 20 C       -8.3210    -3.5940     0.7210 C.3   1 <1>   0.2370 
 21 N       -9.5200    -3.6780    -0.1420 N.pl3 1 <1>   0.3140 
 22 C       -8.4100    -4.5810     1.9110 C.3   1 <1>  -0.1600 
 23 N       -9.4540    -4.1580    -1.4030 N.2   1 <1>  -0.7070 
 24 C      -10.7820    -3.3110     0.1680 C.2   1 <1>  -0.3020 
 25 C       -8.4830    -6.0530     1.4740 C.3   1 <1>  -0.2400 
 26 C      -10.6700    -4.0870    -1.8530 C.2   1 <1>   0.1390 
 27 C      -11.5480    -3.5620    -0.9130 C.2   1 <1>  -0.1500 
 28 H       -4.7050     3.2370    -1.4360 H     1 <1>   0.1500 
 29 H       -3.0610     4.7950    -0.5790 H     1 <1>   0.4000 
 30 H       -1.2360     5.0080     1.2780 H     1 <1>   0.0800 
 31 H       -0.4970     5.1260    -0.3090 H     1 <1>   0.0800 
 32 H        0.1440     4.0170     0.8760 H     1 <1>   0.0800 
 33 H       -5.2680    -2.5540    -0.8130 H     1 <1>   0.0800 
 34 H       -5.3470    -1.7110    -2.3210 H     1 <1>   0.0800 
 35 H       -3.8150    -0.1600     1.1700 H     1 <1>   0.0800 
 36 H       -4.8420    -1.5490     1.1490 H     1 <1>   0.0800 
 37 H       -7.5840    -2.3600    -1.5100 H     1 <1>   0.0800 
 38 H       -7.4310    -0.6610    -1.7380 H     1 <1>   0.0800 
 39 H       -5.6200     1.3250     1.4780 H     1 <1>   0.0800 
 40 H       -6.0160    -0.0280     2.4730 H     1 <1>   0.0800 
 41 H       -7.2810     0.8260    -0.1040 H     1 <1>   0.0800 
 42 H       -8.0430     0.4920     1.4190 H     1 <1>   0.0800 
 43 H       -7.4760    -3.8810     0.1270 H     1 <1>   0.0800 
 44 H       -9.2690    -4.3400     2.5150 H     1 <1>   0.0800 
 45 H       -7.5390    -4.4490     2.5290 H     1 <1>   0.0800 
 46 H      -11.0530    -2.8980     1.1240 H     1 <1>   0.1500 
 47 H       -9.3760    -6.2380     0.9010 H     1 <1>   0.0800 
 48 H       -8.5000    -6.6930     2.3390 H     1 <1>   0.0800 
 49 H       -7.6300    -6.3120     0.8720 H     1 <1>   0.0800 
 50 H      -10.9560    -4.4010    -2.8430 H     1 <1>   0.1500 
 51 H      -12.6030    -3.4020    -1.0470 H     1 <1>   0.1500 
@<TRIPOS>BOND
  1   1   2  2   
  2   2   3  1   
  3   2   4  1   
  4   3   5  2   
  5   4   6  1   
  6   4   7  2   
  7   5   8  1   
  8   5   9  1   
  9   6  10  2   
 10   6  11  am  
 11   7   8  1   
 12   7  28  1   
 13   8  29  1   
 14   9  30  1   
 15   9  31  1   
 16   9  32  1   
 17  11  12  1   
 18  11  13  1   
 19  12  14  1   
 20  12  33  1   
 21  12  34  1   
 22  13  15  1   
 23  13  35  1   
 24  13  36  1   
 25  14  16  1   
 26  14  37  1   
 27  14  38  1   
 28  15  17  1   
 29  15  39  1   
 30  15  40  1   
 31  16  17  1   
 32  16  18  am  
 33  17  41  1   
 34  17  42  1   
 35  18  19  2   
 36  18  20  1   
 37  20  21  1   
 38  20  22  1   
 39  20  43  1   
 40  21  23  1   
 41  21  24  1   
 42  22  25  1   
 43  22  44  1   
 44  22  45  1   
 45  23  26  2   
 46  24  27  2   
 47  24  46  1   
 48  25  47  1   
 49  25  48  1   
 50  25  49  1   
 51  26  27  1   
 52  26  50  1   
 53  27  51  1   
@<TRIPOS>SUBSTRUCTURE
  1 ****  11 GROUP 4 **** **** 0

# MOE 2024.06 (io_trps.svl 2023.06)
