@<TRIPOS>MOLECULE
NONAME
53 55 1 0 0 
SMALL
USER_CHARGES


@<TRIPOS>ATOM
  1 O        0.5510     0.5890     0.8950 O.3   1 <1>  -0.5600 
  2 C        1.1260    -0.2050    -0.1000 C.3   1 <1>   0.2000 
  3 C       -0.4150    -0.1350     1.5980 C.3   1 <1>   0.1200 
  4 C        1.1330    -1.6070     0.4890 C.3   1 <1>  -0.1600 
  5 C        2.5220     0.3490    -0.4540 C.3   1 <1>   0.3430 
  6 C       -0.1250    -1.6130     1.3410 C.3   1 <1>  -0.1600 
  7 N        2.5350     1.8360    -0.2950 N.4   1 <1>  -0.9590 
  8 C        1.8970     2.5360    -1.4460 C.3   1 <1>   0.3430 
  9 C        3.8870     2.3610     0.0490 C.3   1 <1>   0.3430 
 10 C        1.7970     4.0290    -1.1530 C.3   1 <1>  -0.1600 
 11 C        3.7990     3.8510     0.3510 C.3   1 <1>  -0.1600 
 12 C        3.1750     4.5910    -0.8280 C.3   1 <1>   0.2890 
 13 N        3.0460     6.0130    -0.4890 N.pl3 1 <1>  -0.8690 
 14 C        4.0380     6.9430    -0.6970 C.ar  1 <1>   0.4100 
 15 N        5.1500     6.5430    -1.2850 N.ar  1 <1>  -0.6200 
 16 C        3.8720     8.2440    -0.2930 C.ar  1 <1>  -0.1500 
 17 C        6.0650     7.4810    -1.4480 C.ar  1 <1>   0.4700 
 18 C        4.8950     9.1330    -0.5140 C.ar  1 <1>   0.4100 
 19 N        6.0150     8.7500    -1.1000 N.ar  1 <1>  -0.6200 
 20 N        4.7720    10.4570    -0.1410 N.pl3 1 <1>  -0.8380 
 21 C        5.9740    11.1970     0.3250 C.3   1 <1>   0.2090 
 22 C        3.7370    11.2800    -0.8220 C.3   1 <1>   0.1290 
 23 C        5.6110    12.0400     1.5430 C.3   1 <1>  -0.2400 
 24 H        0.4750    -0.1690    -0.9580 H     1 <1>   0.0800 
 25 H       -1.3890     0.1430     1.2320 H     1 <1>   0.0800 
 26 H       -0.3330     0.1130     2.6430 H     1 <1>   0.0800 
 27 H        1.9970    -1.7460     1.1160 H     1 <1>   0.0800 
 28 H        1.1170    -2.3700    -0.2700 H     1 <1>   0.0800 
 29 H        2.8020     0.0590    -1.4530 H     1 <1>   0.0800 
 30 H        3.2320    -0.0880     0.2290 H     1 <1>   0.0800 
 31 H       -0.9500    -2.0510     0.8050 H     1 <1>   0.0800 
 32 H        0.0130    -2.1530     2.2620 H     1 <1>   0.0800 
 33 H        1.9040     1.9770     0.5200 H     1 <1>   0.4500 
 34 H        0.9090     2.1390    -1.6170 H     1 <1>   0.0800 
 35 H        2.4850     2.3840    -2.3370 H     1 <1>   0.0800 
 36 H        4.5610     2.2020    -0.7770 H     1 <1>   0.0800 
 37 H        4.2760     1.8440     0.9120 H     1 <1>   0.0800 
 38 H        1.1190     4.1880    -0.3330 H     1 <1>   0.0800 
 39 H        1.4060     4.5320    -2.0200 H     1 <1>   0.0800 
 40 H        4.7910     4.2320     0.5200 H     1 <1>   0.0800 
 41 H        3.2210     4.0080     1.2440 H     1 <1>   0.0800 
 42 H        3.8070     4.4850    -1.6960 H     1 <1>   0.0800 
 43 H        2.3050     6.2640     0.1680 H     1 <1>   0.4000 
 44 H        2.9740     8.5690     0.1870 H     1 <1>   0.1500 
 45 H        6.9760     7.1690    -1.9290 H     1 <1>   0.1500 
 46 H        6.3510    11.8180    -0.4700 H     1 <1>   0.0800 
 47 H        6.7480    10.5000     0.6020 H     1 <1>   0.0800 
 48 H        3.1000    10.6590    -1.4290 H     1 <1>   0.0800 
 49 H        4.2060    12.0110    -1.4580 H     1 <1>   0.0800 
 50 H        3.1330    11.7840    -0.0880 H     1 <1>   0.0800 
 51 H        4.8950    12.7970     1.2830 H     1 <1>   0.0800 
 52 H        6.4940    12.5220     1.9220 H     1 <1>   0.0800 
 53 H        5.2060    11.4100     2.3140 H     1 <1>   0.0800 
@<TRIPOS>BOND
  1   1   2  1   
  2   1   3  1   
  3   2   4  1   
  4   2   5  1   
  5   2  24  1   
  6   3   6  1   
  7   3  25  1   
  8   3  26  1   
  9   4   6  1   
 10   4  27  1   
 11   4  28  1   
 12   5   7  1   
 13   5  29  1   
 14   5  30  1   
 15   6  31  1   
 16   6  32  1   
 17   7   8  1   
 18   7   9  1   
 19   7  33  1   
 20   8  10  1   
 21   8  34  1   
 22   8  35  1   
 23   9  11  1   
 24   9  36  1   
 25   9  37  1   
 26  10  12  1   
 27  10  38  1   
 28  10  39  1   
 29  11  12  1   
 30  11  40  1   
 31  11  41  1   
 32  12  13  1   
 33  12  42  1   
 34  13  14  1   
 35  13  43  1   
 36  14  15  ar  
 37  14  16  ar  
 38  15  17  ar  
 39  16  18  ar  
 40  16  44  1   
 41  17  19  ar  
 42  17  45  1   
 43  18  19  ar  
 44  18  20  1   
 45  20  21  1   
 46  20  22  1   
 47  21  23  1   
 48  21  46  1   
 49  21  47  1   
 50  22  48  1   
 51  22  49  1   
 52  22  50  1   
 53  23  51  1   
 54  23  52  1   
 55  23  53  1   
@<TRIPOS>SUBSTRUCTURE
  1 ****  12 GROUP 4 **** **** 0

# MOE 2024.06 (io_trps.svl 2023.06)
