@<TRIPOS>MOLECULE
NONAME
60 63 1 0 0 
SMALL
USER_CHARGES


@<TRIPOS>ATOM
  1 O        0.3410     2.1020    -0.7490 O.2   1 <1>  -0.5700 
  2 C       -0.3520     3.0910    -0.7210 C.2   1 <1>   0.5690 
  3 N       -1.1680     3.4300     0.3250 N.am  1 <1>  -0.6600 
  4 C       -0.2600     4.0740    -1.8820 C.3   1 <1>   0.1810 
  5 C       -1.8090     4.7870     0.3420 C.3   1 <1>   0.3640 
  6 C       -1.4810     2.5640     1.4950 C.3   1 <1>   0.2200 
  7 O       -0.0470     5.3700    -1.3850 O.3   1 <1>  -0.5600 
  8 C       -3.2850     4.7030    -0.0520 C.ar  1 <1>  -0.1440 
  9 C       -1.0870     5.8550    -0.5350 C.3   1 <1>   0.2610 
 10 C       -0.2570     2.4600     2.4020 C.3   1 <1>  -0.2400 
 11 C       -1.9850     1.1880     1.0580 C.3   1 <1>  -0.2400 
 12 C       -3.7790     3.7430    -0.9280 C.ar  1 <1>  -0.1500 
 13 C       -4.1640     5.6380     0.4790 C.ar  1 <1>  -0.1500 
 14 C       -0.5600     6.9730     0.3740 C.2   1 <1>   0.5690 
 15 C       -5.1220     3.7190    -1.2620 C.ar  1 <1>  -0.1500 
 16 C       -5.5070     5.6150     0.1450 C.ar  1 <1>  -0.1500 
 17 O       -1.2240     7.9790     0.4410 O.2   1 <1>  -0.5700 
 18 N        0.6220     6.8760     1.0830 N.am  1 <1>  -0.6600 
 19 C       -5.9870     4.6540    -0.7260 C.ar  1 <1>  -0.1500 
 20 C        1.5430     5.7010     1.0700 C.3   1 <1>   0.1400 
 21 C        1.2940     8.1080     1.5910 C.3   1 <1>   0.1400 
 22 C        2.7300     5.9990     0.1370 C.3   1 <1>   0.3430 
 23 C        2.4990     8.4380     0.6880 C.3   1 <1>   0.3430 
 24 N        3.4490     7.2690     0.5280 N.4   1 <1>  -0.9590 
 25 C        4.5300     7.5720    -0.4470 C.3   1 <1>   0.4380 
 26 C        5.4440     8.6550     0.1260 C.3   1 <1>  -0.1950 
 27 C        5.1770    10.1210    -0.0470 C.3   1 <1>  -0.2000 
 28 C        6.3030     9.4660    -0.7930 C.3   1 <1>  -0.2000 
 29 H       -1.1660     4.0630    -2.4620 H     1 <1>   0.0800 
 30 H        0.5690     3.8170    -2.5160 H     1 <1>   0.0800 
 31 H       -1.7840     5.1370     1.3600 H     1 <1>   0.0800 
 32 H       -2.2770     3.0240     2.0600 H     1 <1>   0.0800 
 33 H       -1.8180     6.3020    -1.1850 H     1 <1>   0.0800 
 34 H        0.5560     1.9800     1.8880 H     1 <1>   0.0800 
 35 H       -0.4990     1.8710     3.2690 H     1 <1>   0.0800 
 36 H        0.0480     3.4350     2.7320 H     1 <1>   0.0800 
 37 H       -1.2130     0.6240     0.5670 H     1 <1>   0.0800 
 38 H       -2.8270     1.2910     0.3990 H     1 <1>   0.0800 
 39 H       -2.3020     0.6310     1.9200 H     1 <1>   0.0800 
 40 H       -3.1320     3.0010    -1.3600 H     1 <1>   0.1500 
 41 H       -3.8140     6.4010     1.1550 H     1 <1>   0.1500 
 42 H       -5.4950     2.9700    -1.9400 H     1 <1>   0.1500 
 43 H       -6.1790     6.3450     0.5620 H     1 <1>   0.1500 
 44 H       -7.0310     4.6360    -0.9860 H     1 <1>   0.1500 
 45 H        1.9000     5.5140     2.0680 H     1 <1>   0.0800 
 46 H        1.0420     4.8120     0.7460 H     1 <1>   0.0800 
 47 H        0.6150     8.9430     1.5960 H     1 <1>   0.0800 
 48 H        1.6200     7.9510     2.6050 H     1 <1>   0.0800 
 49 H        2.3500     6.0890    -0.8680 H     1 <1>   0.0800 
 50 H        3.4140     5.1660     0.1590 H     1 <1>   0.0800 
 51 H        3.0230     9.2830     1.1010 H     1 <1>   0.0800 
 52 H        2.1200     8.7280    -0.2790 H     1 <1>   0.0800 
 53 H        3.8990     7.1140     1.4380 H     1 <1>   0.4500 
 54 H        5.1140     6.6860    -0.6360 H     1 <1>   0.0800 
 55 H        4.1060     7.9040    -1.3810 H     1 <1>   0.0800 
 56 H        5.9320     8.3340     1.0310 H     1 <1>   0.1000 
 57 H        4.3460    10.4740    -0.6340 H     1 <1>   0.1000 
 58 H        5.4310    10.8020     0.7480 H     1 <1>   0.1000 
 59 H        7.3130     9.7010    -0.4980 H     1 <1>   0.1000 
 60 H        6.2080     9.3630    -1.8620 H     1 <1>   0.1000 
@<TRIPOS>BOND
  1   1   2  2   
  2   2   3  am  
  3   2   4  1   
  4   3   5  1   
  5   3   6  1   
  6   4   7  1   
  7   4  29  1   
  8   4  30  1   
  9   5   8  1   
 10   5   9  1   
 11   5  31  1   
 12   6  10  1   
 13   6  11  1   
 14   6  32  1   
 15   7   9  1   
 16   8  12  ar  
 17   8  13  ar  
 18   9  14  1   
 19   9  33  1   
 20  10  34  1   
 21  10  35  1   
 22  10  36  1   
 23  11  37  1   
 24  11  38  1   
 25  11  39  1   
 26  12  15  ar  
 27  12  40  1   
 28  13  16  ar  
 29  13  41  1   
 30  14  17  2   
 31  14  18  am  
 32  15  19  ar  
 33  15  42  1   
 34  16  19  ar  
 35  16  43  1   
 36  18  20  1   
 37  18  21  1   
 38  19  44  1   
 39  20  22  1   
 40  20  45  1   
 41  20  46  1   
 42  21  23  1   
 43  21  47  1   
 44  21  48  1   
 45  22  24  1   
 46  22  49  1   
 47  22  50  1   
 48  23  24  1   
 49  23  51  1   
 50  23  52  1   
 51  24  25  1   
 52  24  53  1   
 53  25  26  1   
 54  25  54  1   
 55  25  55  1   
 56  26  27  1   
 57  26  28  1   
 58  26  56  1   
 59  27  28  1   
 60  27  57  1   
 61  27  58  1   
 62  28  59  1   
 63  28  60  1   
@<TRIPOS>SUBSTRUCTURE
  1 ****   9 GROUP 4 **** **** 0

# MOE 2024.06 (io_trps.svl 2023.06)
