@<TRIPOS>MOLECULE
NONAME
49 52 1 0 0 
SMALL
USER_CHARGES


@<TRIPOS>ATOM
  1 S        0.5020     0.0860     0.7780 S.3   1 <1>  -0.0800 
  2 C       -0.6870    -1.1280     0.4480 C.2   1 <1>  -0.1400 
  3 C       -0.8050     1.2740     0.7510 C.2   1 <1>   0.1980 
  4 C       -1.8770    -0.5700     0.3540 C.2   1 <1>   0.0460 
  5 C       -0.6290    -2.6090     0.2590 C.3   1 <1>   0.0200 
  6 N       -1.9690     0.7960     0.5230 N.2   1 <1>  -0.5650 
  7 C       -0.4350     2.7200     0.9920 C.3   1 <1>   0.0200 
  8 C       -2.9410    -1.5890     0.0680 C.3   1 <1>   0.0210 
  9 C       -2.1320    -2.9210     0.0040 C.3   1 <1>  -0.1600 
 10 C        0.2240     3.3110    -0.2500 C.3   1 <1>   0.2090 
 11 N        0.5080     4.7550    -0.0300 N.pl3 1 <1>  -0.8690 
 12 C        1.4910     5.4320    -0.7160 C.ar  1 <1>   0.4100 
 13 N        2.3440     4.7210    -1.4390 N.ar  1 <1>  -0.6200 
 14 C        1.5410     6.8150    -0.6250 C.ar  1 <1>  -0.1500 
 15 C        3.2600     5.4090    -2.0960 C.ar  1 <1>   0.1600 
 16 C        2.5070     7.5390    -1.2960 C.ar  1 <1>   0.0860 
 17 C        3.3830     6.7830    -2.0620 C.ar  1 <1>  -0.1500 
 18 C        2.5820     8.9840    -1.2090 C.2   1 <1>   0.5440 
 19 O        1.5850     9.6340    -1.4590 O.2   1 <1>  -0.5700 
 20 N        3.7440     9.6360    -0.8470 N.am  1 <1>  -0.6600 
 21 C        4.8790     8.9770    -0.1400 C.3   1 <1>   0.1400 
 22 C        3.8750    11.1160    -0.9600 C.3   1 <1>   0.1400 
 23 C        5.0360     9.5780     1.2610 C.3   1 <1>  -0.1600 
 24 C        4.0180    11.7320     0.4350 C.3   1 <1>  -0.1600 
 25 C        5.1840    11.1050     1.2120 C.3   1 <1>  -0.1600 
 26 H       -0.2650    -3.0940     1.1470 H     1 <1>   0.0800 
 27 H       -0.0180    -2.8620    -0.5900 H     1 <1>   0.0800 
 28 H        0.2370     2.7820     1.8270 H     1 <1>   0.0800 
 29 H       -1.3300     3.2680     1.2200 H     1 <1>   0.0800 
 30 H       -3.4210    -1.3690    -0.8690 H     1 <1>   0.0800 
 31 H       -3.6650    -1.6010     0.8630 H     1 <1>   0.0800 
 32 H       -2.4950    -3.6050     0.7500 H     1 <1>   0.0800 
 33 H       -2.2520    -3.3740    -0.9650 H     1 <1>   0.0800 
 34 H       -0.4290     3.2020    -1.1000 H     1 <1>   0.0800 
 35 H        1.1370     2.7770    -0.4530 H     1 <1>   0.0800 
 36 H       -0.3230     5.3090     0.1830 H     1 <1>   0.4000 
 37 H        0.8200     7.3330    -0.0230 H     1 <1>   0.1500 
 38 H        3.9520     4.8410    -2.6950 H     1 <1>   0.1500 
 39 H        4.1520     7.2740    -2.6300 H     1 <1>   0.1500 
 40 H        5.7810     9.1320    -0.7070 H     1 <1>   0.0800 
 41 H        4.7170     7.9180    -0.0470 H     1 <1>   0.0800 
 42 H        3.0180    11.5400    -1.4570 H     1 <1>   0.0800 
 43 H        4.7450    11.3450    -1.5510 H     1 <1>   0.0800 
 44 H        5.8970     9.1470     1.7390 H     1 <1>   0.0800 
 45 H        4.1710     9.3190     1.8470 H     1 <1>   0.0800 
 46 H        3.0970    11.5810     0.9720 H     1 <1>   0.0800 
 47 H        4.1720    12.7920     0.3410 H     1 <1>   0.0800 
 48 H        6.1120    11.3600     0.7300 H     1 <1>   0.0800 
 49 H        5.2080    11.5010     2.2130 H     1 <1>   0.0800 
@<TRIPOS>BOND
  1   1   2  1   
  2   1   3  1   
  3   2   4  2   
  4   2   5  1   
  5   3   6  2   
  6   3   7  1   
  7   4   6  1   
  8   4   8  1   
  9   5   9  1   
 10   5  26  1   
 11   5  27  1   
 12   7  10  1   
 13   7  28  1   
 14   7  29  1   
 15   8   9  1   
 16   8  30  1   
 17   8  31  1   
 18   9  32  1   
 19   9  33  1   
 20  10  11  1   
 21  10  34  1   
 22  10  35  1   
 23  11  12  1   
 24  11  36  1   
 25  12  13  ar  
 26  12  14  ar  
 27  13  15  ar  
 28  14  16  ar  
 29  14  37  1   
 30  15  17  ar  
 31  15  38  1   
 32  16  17  ar  
 33  16  18  1   
 34  17  39  1   
 35  18  19  2   
 36  18  20  am  
 37  20  21  1   
 38  20  22  1   
 39  21  23  1   
 40  21  40  1   
 41  21  41  1   
 42  22  24  1   
 43  22  42  1   
 44  22  43  1   
 45  23  25  1   
 46  23  44  1   
 47  23  45  1   
 48  24  25  1   
 49  24  46  1   
 50  24  47  1   
 51  25  48  1   
 52  25  49  1   
@<TRIPOS>SUBSTRUCTURE
  1 ****  12 GROUP 4 **** **** 0

# MOE 2024.06 (io_trps.svl 2023.06)
