@<TRIPOS>MOLECULE
NONAME
52 54 1 0 0 
SMALL
USER_CHARGES


@<TRIPOS>ATOM
  1 O       -1.3940    -0.7490     2.3230 O.2   1 <1>  -0.5700 
  2 C       -1.5300    -0.9390     1.1350 C.2   1 <1>   0.5440 
  3 N       -1.6250     0.1640     0.3580 N.am  1 <1>  -0.8000 
  4 C       -1.5750    -2.2830     0.5860 C.ar  1 <1>   0.0860 
  5 C       -0.9200    -3.3340     1.2250 C.ar  1 <1>  -0.1500 
  6 C       -2.2740    -2.5860    -0.5830 C.ar  1 <1>  -0.1500 
  7 C       -0.9600    -4.6240     0.7320 C.ar  1 <1>  -0.1500 
  8 C       -2.3230    -3.8750    -1.0830 C.ar  1 <1>  -0.1500 
  9 C       -1.6730    -4.9070    -0.4230 C.ar  1 <1>  -0.1430 
 10 C       -1.7570    -6.3290    -0.9450 C.3   1 <1>   0.4860 
 11 N       -2.6570    -7.1010    -0.0450 N.4   1 <1>  -0.9590 
 12 C       -4.0550    -6.5240    -0.0240 C.3   1 <1>   0.3430 
 13 C       -2.6930    -8.5620    -0.4030 C.3   1 <1>   0.3430 
 14 C       -5.0540    -7.3950     0.7690 C.3   1 <1>   0.2950 
 15 C       -3.7460    -9.3390     0.4230 C.3   1 <1>   0.2000 
 16 O       -4.9890    -8.7150     0.3020 O.3   1 <1>  -0.5600 
 17 C       -6.4840    -6.8580     0.5980 C.3   1 <1>  -0.1950 
 18 C       -3.9250   -10.7820    -0.0610 C.3   1 <1>  -0.1600 
 19 C       -7.6910    -7.7290     0.7530 C.3   1 <1>  -0.2000 
 20 C       -7.3260    -7.1800    -0.5980 C.3   1 <1>  -0.2000 
 21 C       -2.6550   -11.6320     0.1090 C.3   1 <1>  -0.1600 
 22 C       -2.9070   -13.0810    -0.3230 C.3   1 <1>  -0.1600 
 23 C       -1.6460   -13.9330    -0.1570 C.3   1 <1>  -0.2400 
 24 H       -1.5480     1.0770     0.8100 H     1 <1>   0.3700 
 25 H       -1.5730     0.1580    -0.6590 H     1 <1>   0.3700 
 26 H       -0.3690    -3.1210     2.1280 H     1 <1>   0.1500 
 27 H       -2.7950    -1.8000    -1.1020 H     1 <1>   0.1500 
 28 H       -0.4270    -5.3950     1.2640 H     1 <1>   0.1500 
 29 H       -2.8750    -4.0590    -1.9910 H     1 <1>   0.1500 
 30 H       -0.7720    -6.7660    -0.9530 H     1 <1>   0.0800 
 31 H       -2.1430    -6.3310    -1.9510 H     1 <1>   0.0800 
 32 H       -2.2800    -7.0040     0.9050 H     1 <1>   0.4500 
 33 H       -4.0390    -5.5350     0.4050 H     1 <1>   0.0800 
 34 H       -4.4270    -6.4360    -1.0310 H     1 <1>   0.0800 
 35 H       -2.9420    -8.6770    -1.4450 H     1 <1>   0.0800 
 36 H       -1.7240    -9.0040    -0.2440 H     1 <1>   0.0800 
 37 H       -4.8050    -7.3960     1.8170 H     1 <1>   0.0800 
 38 H       -3.4750    -9.3490     1.4660 H     1 <1>   0.0800 
 39 H       -6.5790    -5.8630     1.0000 H     1 <1>   0.1000 
 40 H       -4.7200   -11.2330     0.5090 H     1 <1>   0.0800 
 41 H       -4.2210   -10.7800    -1.0960 H     1 <1>   0.0800 
 42 H       -7.5690    -8.7860     0.9210 H     1 <1>   0.1000 
 43 H       -8.5610    -7.3350     1.2510 H     1 <1>   0.1000 
 44 H       -7.9590    -6.4200    -1.0220 H     1 <1>   0.1000 
 45 H       -6.9790    -7.8830    -1.3360 H     1 <1>   0.1000 
 46 H       -1.8510   -11.2330    -0.4840 H     1 <1>   0.0800 
 47 H       -2.3510   -11.6250     1.1430 H     1 <1>   0.0800 
 48 H       -3.6990   -13.5060     0.2720 H     1 <1>   0.0800 
 49 H       -3.2170   -13.1080    -1.3540 H     1 <1>   0.0800 
 50 H       -1.3300   -13.9460     0.8720 H     1 <1>   0.0800 
 51 H       -0.8450   -13.5490    -0.7630 H     1 <1>   0.0800 
 52 H       -1.8460   -14.9460    -0.4620 H     1 <1>   0.0800 
@<TRIPOS>BOND
  1   1   2  2   
  2   2   3  am  
  3   2   4  1   
  4   3  24  1   
  5   3  25  1   
  6   4   5  ar  
  7   4   6  ar  
  8   5   7  ar  
  9   5  26  1   
 10   6   8  ar  
 11   6  27  1   
 12   7   9  ar  
 13   7  28  1   
 14   8   9  ar  
 15   8  29  1   
 16   9  10  1   
 17  10  11  1   
 18  10  30  1   
 19  10  31  1   
 20  11  12  1   
 21  11  13  1   
 22  11  32  1   
 23  12  14  1   
 24  12  33  1   
 25  12  34  1   
 26  13  15  1   
 27  13  35  1   
 28  13  36  1   
 29  14  16  1   
 30  14  17  1   
 31  14  37  1   
 32  15  16  1   
 33  15  18  1   
 34  15  38  1   
 35  17  19  1   
 36  17  20  1   
 37  17  39  1   
 38  18  21  1   
 39  18  40  1   
 40  18  41  1   
 41  19  20  1   
 42  19  42  1   
 43  19  43  1   
 44  20  44  1   
 45  20  45  1   
 46  21  22  1   
 47  21  46  1   
 48  21  47  1   
 49  22  23  1   
 50  22  48  1   
 51  22  49  1   
 52  23  50  1   
 53  23  51  1   
 54  23  52  1   
@<TRIPOS>SUBSTRUCTURE
  1 ****  11 GROUP 4 **** **** 0

# MOE 2024.06 (io_trps.svl 2023.06)
