@<TRIPOS>MOLECULE
NONAME
40 41 1 0 0 
SMALL
USER_CHARGES


@<TRIPOS>ATOM
  1 O       -0.0230    -0.1090     0.7400 O.2   1 <1>  -0.5700 
  2 C        1.0380    -0.5480     0.3340 C.2   1 <1>   0.7150 
  3 N        2.0620     0.3000    -0.0210 N.am  1 <1>  -0.4940 
  4 C        1.2410    -1.9660     0.2200 C.2   1 <1>   0.0550 
  5 C        2.1410     1.7140     0.0170 C.2   1 <1>  -0.0880 
  6 O        2.3800    -2.4560    -0.2150 O.3   1 <1>  -0.0190 
  7 C        0.4510    -3.0320     0.4830 C.2   1 <1>  -0.1500 
  8 N        3.2160     2.4440    -0.3880 N.pl3 1 <1>   0.3140 
  9 C        1.2220     2.6130     0.4420 C.2   1 <1>  -0.1500 
 10 N        2.3940    -3.7520    -0.2560 N.2   1 <1>  -0.4100 
 11 C        1.2360    -4.1310     0.1620 C.2   1 <1>   0.1080 
 12 N        3.0070     3.7700    -0.2320 N.2   1 <1>  -0.7070 
 13 C        4.4820     1.9370    -0.9550 C.3   1 <1>   0.0960 
 14 C        1.8140     3.8570     0.2640 C.2   1 <1>   0.1080 
 15 C        0.8120    -5.5910     0.2800 C.3   1 <1>   0.1010 
 16 C        5.4060     1.3960     0.1470 C.3   1 <1>  -0.1600 
 17 C        1.1730     5.1820     0.5990 C.3   1 <1>  -0.0590 
 18 C       -0.3890    -5.8850    -0.6270 C.3   1 <1>  -0.2400 
 19 C        0.4890    -5.9500     1.7350 C.3   1 <1>  -0.2400 
 20 C        6.6970     0.8190    -0.4430 C.3   1 <1>  -0.2400 
 21 H        2.8940    -0.1940    -0.3420 H     1 <1>   0.3700 
 22 H       -0.5560    -3.0380     0.8560 H     1 <1>   0.1500 
 23 H        0.2400     2.4270     0.8360 H     1 <1>   0.1500 
 24 H        4.9640     2.7470    -1.4720 H     1 <1>   0.0800 
 25 H        4.2520     1.1680    -1.6690 H     1 <1>   0.0800 
 26 H        1.6380    -6.2030    -0.0440 H     1 <1>   0.0800 
 27 H        4.9010     0.6280     0.7060 H     1 <1>   0.0800 
 28 H        5.6520     2.1990     0.8210 H     1 <1>   0.0800 
 29 H        0.1860     5.0330     0.9960 H     1 <1>   0.0800 
 30 H        1.1090     5.7830    -0.2900 H     1 <1>   0.0800 
 31 H        1.7730     5.6970     1.3260 H     1 <1>   0.0800 
 32 H       -1.2450    -5.3090    -0.3250 H     1 <1>   0.0800 
 33 H       -0.6410    -6.9300    -0.5830 H     1 <1>   0.0800 
 34 H       -0.1480    -5.6350    -1.6450 H     1 <1>   0.0800 
 35 H       -0.3460    -5.3760     2.0940 H     1 <1>   0.0800 
 36 H        1.3420    -5.7450     2.3590 H     1 <1>   0.0800 
 37 H        0.2510    -6.9960     1.8160 H     1 <1>   0.0800 
 38 H        6.4810     0.0000    -1.1060 H     1 <1>   0.0800 
 39 H        7.3320     0.4580     0.3480 H     1 <1>   0.0800 
 40 H        7.2340     1.5760    -0.9880 H     1 <1>   0.0800 
@<TRIPOS>BOND
  1   1   2  2   
  2   2   3  am  
  3   2   4  1   
  4   3   5  1   
  5   3  21  1   
  6   4   6  1   
  7   4   7  2   
  8   5   8  1   
  9   5   9  2   
 10   6  10  1   
 11   7  11  1   
 12   7  22  1   
 13   8  12  1   
 14   8  13  1   
 15   9  14  1   
 16   9  23  1   
 17  10  11  2   
 18  11  15  1   
 19  12  14  2   
 20  13  16  1   
 21  13  24  1   
 22  13  25  1   
 23  14  17  1   
 24  15  18  1   
 25  15  19  1   
 26  15  26  1   
 27  16  20  1   
 28  16  27  1   
 29  16  28  1   
 30  17  29  1   
 31  17  30  1   
 32  17  31  1   
 33  18  32  1   
 34  18  33  1   
 35  18  34  1   
 36  19  35  1   
 37  19  36  1   
 38  19  37  1   
 39  20  38  1   
 40  20  39  1   
 41  20  40  1   
@<TRIPOS>SUBSTRUCTURE
  1 ****   3 GROUP 4 **** **** 0

# MOE 2024.06 (io_trps.svl 2023.06)
