@<TRIPOS>MOLECULE
NONAME
38 40 1 0 0 
SMALL
USER_CHARGES


@<TRIPOS>ATOM
  1 S       -0.2360     0.1320    -0.0670 S.3   1 <1>  -0.0800 
  2 C        1.2070     1.1390    -0.1720 C.2   1 <1>  -0.0450 
  3 C        0.6490    -1.3670    -0.3390 C.2   1 <1>  -0.0450 
  4 C        1.0750     2.5650    -0.0120 C.2   1 <1>   0.7150 
  5 C        2.2720     0.3250    -0.4020 C.2   1 <1>  -0.1500 
  6 C       -0.0360    -2.6270    -0.3650 C.2   1 <1>   0.5940 
  7 C        1.9620    -1.0550    -0.4940 C.2   1 <1>  -0.1500 
  8 O       -0.0080     3.0780     0.2030 O.2   1 <1>  -0.5700 
  9 N        2.2030     3.3470    -0.1090 N.am  1 <1>  -0.4940 
 10 O        0.5380    -3.6710    -0.5490 O.2   1 <1>  -0.5700 
 11 C       -1.5360    -2.6880    -0.1590 C.3   1 <1>  -0.1790 
 12 C        2.3620     4.7490     0.0430 C.2   1 <1>  -0.0880 
 13 N        3.5310     5.4300    -0.1290 N.pl3 1 <1>   0.3140 
 14 C        1.4350     5.6760     0.3850 C.2   1 <1>  -0.1500 
 15 N        3.3640     6.7570     0.1000 N.2   1 <1>  -0.7070 
 16 C        4.8400     4.8260    -0.5210 C.3   1 <1>   0.1760 
 17 C        2.1110     6.8870     0.4040 C.2   1 <1>   0.1390 
 18 C        5.5410     4.1420     0.6560 C.3   1 <1>  -0.1600 
 19 C        5.8860     5.8160    -1.0390 C.3   1 <1>  -0.1600 
 20 C        7.0320     4.1200     0.2950 C.3   1 <1>  -0.1600 
 21 C        7.2110     5.0670    -0.8980 C.3   1 <1>  -0.1600 
 22 H        3.2900     0.6510    -0.5130 H     1 <1>   0.1500 
 23 H        2.7270    -1.7930    -0.6740 H     1 <1>   0.1500 
 24 H        3.0470     2.8160    -0.3020 H     1 <1>   0.3700 
 25 H       -2.0330    -2.1220    -0.9240 H     1 <1>   0.0800 
 26 H       -1.7890    -2.2910     0.8060 H     1 <1>   0.0800 
 27 H       -1.8710    -3.7080    -0.2120 H     1 <1>   0.0800 
 28 H        0.3920     5.5340     0.6030 H     1 <1>   0.1500 
 29 H        4.6580     4.1020    -1.2930 H     1 <1>   0.0800 
 30 H        1.6540     7.8330     0.6430 H     1 <1>   0.1500 
 31 H        5.1620     3.1520     0.8320 H     1 <1>   0.0800 
 32 H        5.4070     4.7400     1.5430 H     1 <1>   0.0800 
 33 H        5.9160     6.6890    -0.4090 H     1 <1>   0.0800 
 34 H        5.6930     6.1120    -2.0550 H     1 <1>   0.0800 
 35 H        7.3480     3.1260     0.0270 H     1 <1>   0.0800 
 36 H        7.6200     4.4530     1.1340 H     1 <1>   0.0800 
 37 H        8.0320     5.7480    -0.7480 H     1 <1>   0.0800 
 38 H        7.3960     4.4920    -1.7890 H     1 <1>   0.0800 
@<TRIPOS>BOND
  1   1   2  1   
  2   1   3  1   
  3   2   4  1   
  4   2   5  2   
  5   3   6  1   
  6   3   7  2   
  7   4   8  2   
  8   4   9  am  
  9   5   7  1   
 10   5  22  1   
 11   6  10  2   
 12   6  11  1   
 13   7  23  1   
 14   9  12  1   
 15   9  24  1   
 16  11  25  1   
 17  11  26  1   
 18  11  27  1   
 19  12  13  1   
 20  12  14  2   
 21  13  15  1   
 22  13  16  1   
 23  14  17  1   
 24  14  28  1   
 25  15  17  2   
 26  16  18  1   
 27  16  19  1   
 28  16  29  1   
 29  17  30  1   
 30  18  20  1   
 31  18  31  1   
 32  18  32  1   
 33  19  21  1   
 34  19  33  1   
 35  19  34  1   
 36  20  21  1   
 37  20  35  1   
 38  20  36  1   
 39  21  37  1   
 40  21  38  1   
@<TRIPOS>SUBSTRUCTURE
  1 ****   9 GROUP 4 **** **** 0

# MOE 2024.06 (io_trps.svl 2023.06)
