@<TRIPOS>MOLECULE
NONAME
51 53 1 0 0 
SMALL
USER_CHARGES


@<TRIPOS>ATOM
  1 O       -0.1280     0.7400    -0.9540 O.2   1 <1>  -0.5700 
  2 C       -1.0800     1.2430    -0.3890 C.2   1 <1>   0.5440 
  3 N       -1.3500     2.5540    -0.6500 N.am  1 <1>  -0.7300 
  4 C       -1.8920     0.4760     0.5440 C.ar  1 <1>   0.0860 
  5 C       -0.5370     3.4430    -1.5310 C.3   1 <1>   0.2010 
  6 C       -3.1750     0.8830     0.9230 C.ar  1 <1>  -0.1500 
  7 C       -1.4130    -0.7100     1.1020 C.ar  1 <1>  -0.1500 
  8 C       -0.4940     4.8940    -1.0280 C.2   1 <1>   0.5690 
  9 C       -3.9320     0.1490     1.8180 C.ar  1 <1>  -0.1500 
 10 C       -2.1650    -1.4500     1.9970 C.ar  1 <1>  -0.1500 
 11 O       -1.4540     5.2880    -0.4010 O.2   1 <1>  -0.5700 
 12 N        0.5860     5.7130    -1.2810 N.am  1 <1>  -0.6600 
 13 C       -3.4280    -1.0200     2.3590 C.ar  1 <1>  -0.1500 
 14 C        1.7780     5.2880    -2.0790 C.3   1 <1>   0.1400 
 15 C        0.6010     7.1160    -0.7680 C.3   1 <1>   0.1400 
 16 C        2.8540     4.6550    -1.1820 C.3   1 <1>   0.1400 
 17 C        1.9500     7.5400    -0.1710 C.3   1 <1>  -0.1600 
 18 N        3.5550     5.6610    -0.3220 N.am  1 <1>  -0.6600 
 19 C        2.6770     6.4340     0.6030 C.3   1 <1>   0.1400 
 20 C        4.9270     5.7610    -0.3510 C.2   1 <1>   0.6300 
 21 O        5.6000     5.0420    -1.0550 O.2   1 <1>  -0.5700 
 22 C        5.6920     6.7380     0.5430 C.3   1 <1>  -0.0950 
 23 C        6.6780     7.6710    -0.1070 C.3   1 <1>  -0.2000 
 24 C        5.4320     8.2210     0.5140 C.3   1 <1>  -0.2000 
 25 C        6.1170     6.0520     1.8440 C.3   1 <1>   0.2150 
 26 O        7.0750     5.1000     1.5460 O.3   1 <1>  -0.6800 
 27 H       -2.0370     3.0690    -0.0910 H     1 <1>   0.3700 
 28 H       -0.9670     3.4380    -2.5150 H     1 <1>   0.0800 
 29 H        0.4580     3.0460    -1.5940 H     1 <1>   0.0800 
 30 H       -3.5940     1.7820     0.5100 H     1 <1>   0.1500 
 31 H       -0.4310    -1.0550     0.8260 H     1 <1>   0.1500 
 32 H       -4.9170     0.4850     2.0940 H     1 <1>   0.1500 
 33 H       -1.7670    -2.3600     2.4120 H     1 <1>   0.1500 
 34 H       -4.0160    -1.5930     3.0550 H     1 <1>   0.1500 
 35 H        2.1960     6.1310    -2.6020 H     1 <1>   0.0800 
 36 H        1.4790     4.5740    -2.8250 H     1 <1>   0.0800 
 37 H       -0.1480     7.2230    -0.0010 H     1 <1>   0.0800 
 38 H        0.3350     7.7850    -1.5680 H     1 <1>   0.0800 
 39 H        3.5640     4.1590    -1.8210 H     1 <1>   0.0800 
 40 H        2.4100     3.9000    -0.5560 H     1 <1>   0.0800 
 41 H        1.7580     8.3570     0.5010 H     1 <1>   0.0800 
 42 H        2.5850     7.9230    -0.9490 H     1 <1>   0.0800 
 43 H        1.9660     5.7730     1.0710 H     1 <1>   0.0800 
 44 H        3.2630     6.8760     1.3880 H     1 <1>   0.0800 
 45 H        6.7650     7.6490    -1.1800 H     1 <1>   0.1000 
 46 H        7.6260     7.8320     0.3770 H     1 <1>   0.1000 
 47 H        5.5270     8.7940     1.4210 H     1 <1>   0.1000 
 48 H        4.6950     8.6300    -0.1530 H     1 <1>   0.1000 
 49 H        5.2820     5.5590     2.3100 H     1 <1>   0.0800 
 50 H        6.5540     6.7510     2.5360 H     1 <1>   0.0800 
 51 H        6.8830     4.7190     0.6590 H     1 <1>   0.4000 
@<TRIPOS>BOND
  1   1   2  2   
  2   2   3  am  
  3   2   4  1   
  4   3   5  1   
  5   3  27  1   
  6   4   6  ar  
  7   4   7  ar  
  8   5   8  1   
  9   5  28  1   
 10   5  29  1   
 11   6   9  ar  
 12   6  30  1   
 13   7  10  ar  
 14   7  31  1   
 15   8  11  2   
 16   8  12  am  
 17   9  13  ar  
 18   9  32  1   
 19  10  13  ar  
 20  10  33  1   
 21  12  14  1   
 22  12  15  1   
 23  13  34  1   
 24  14  16  1   
 25  14  35  1   
 26  14  36  1   
 27  15  17  1   
 28  15  37  1   
 29  15  38  1   
 30  16  18  1   
 31  16  39  1   
 32  16  40  1   
 33  17  19  1   
 34  17  41  1   
 35  17  42  1   
 36  18  19  1   
 37  18  20  am  
 38  19  43  1   
 39  19  44  1   
 40  20  21  2   
 41  20  22  1   
 42  22  23  1   
 43  22  24  1   
 44  22  25  1   
 45  23  24  1   
 46  23  45  1   
 47  23  46  1   
 48  24  47  1   
 49  24  48  1   
 50  25  26  1   
 51  25  49  1   
 52  25  50  1   
 53  26  51  1   
@<TRIPOS>SUBSTRUCTURE
  1 ****  16 GROUP 4 **** **** 0

# MOE 2024.06 (io_trps.svl 2023.06)
