@<TRIPOS>MOLECULE
NONAME
44 46 1 0 0 
SMALL
USER_CHARGES


@<TRIPOS>ATOM
  1 O       -0.5830    -0.9600     0.5680 O.2   1 <1>  -0.5700 
  2 C        0.2800    -1.7940     0.5060 C.2   1 <1>   0.5690 
  3 N        0.0000    -3.1130     0.5650 N.am  1 <1>  -0.7300 
  4 C        1.7340    -1.3970     0.3680 C.3   1 <1>  -0.0990 
  5 C        1.0280    -4.1690     0.5120 C.3   1 <1>   0.1400 
  6 C        2.4460    -2.3000    -0.6620 C.3   1 <1>  -0.0800 
  7 C        2.0920    -3.8050    -0.5470 C.3   1 <1>  -0.0800 
  8 C        3.9760    -2.2040    -0.5940 C.3   1 <1>  -0.1600 
  9 C        3.4270    -4.5370    -0.3480 C.3   1 <1>  -0.1600 
 10 C        4.4610    -3.5990    -0.9710 C.3   1 <1>   0.4230 
 11 N        5.8750    -3.8740    -0.5710 N.4   1 <1>  -0.9590 
 12 C        6.1740    -3.7750     0.8920 C.3   1 <1>   0.4810 
 13 C        6.3370    -5.1820    -1.1330 C.3   1 <1>   0.2630 
 14 C        7.0290    -2.5320     1.1160 C.2   1 <1>  -0.0380 
 15 N        8.2920    -2.4410     0.5670 N.pl3 1 <1>  -0.5500 
 16 C        6.6080    -1.4680     1.8380 C.2   1 <1>  -0.1360 
 17 C        9.0540    -1.3180     0.7380 C.2   1 <1>   0.4390 
 18 C        7.4350    -0.3240     1.9800 C.2   1 <1>   0.7670 
 19 N        8.6690    -0.2930     1.3960 N.2   1 <1>  -0.6610 
 20 C       10.4220    -1.3240     0.1010 C.3   1 <1>  -0.1790 
 21 O        7.0450     0.6420     2.6100 O.2   1 <1>  -0.5700 
 22 H       -0.9800    -3.3770     0.6950 H     1 <1>   0.3700 
 23 H        1.7930    -0.3670     0.0650 H     1 <1>   0.0800 
 24 H        2.1840    -1.4890     1.3380 H     1 <1>   0.0800 
 25 H        1.4740    -4.2520     1.4880 H     1 <1>   0.0800 
 26 H        0.5670    -5.1120     0.2660 H     1 <1>   0.0800 
 27 H        2.1260    -1.9750    -1.6400 H     1 <1>   0.0800 
 28 H        1.6910    -4.1060    -1.5020 H     1 <1>   0.0800 
 29 H        4.2630    -1.9510     0.4080 H     1 <1>   0.0800 
 30 H        4.3450    -1.4550    -1.2730 H     1 <1>   0.0800 
 31 H        3.4100    -5.4960    -0.8350 H     1 <1>   0.0800 
 32 H        3.6070    -4.6680     0.7030 H     1 <1>   0.0800 
 33 H        4.3760    -3.6880    -2.0430 H     1 <1>   0.0800 
 34 H        6.4350    -3.1200    -0.9990 H     1 <1>   0.4500 
 35 H        5.2630    -3.6950     1.4610 H     1 <1>   0.0800 
 36 H        6.7110    -4.6450     1.2310 H     1 <1>   0.0800 
 37 H        5.7800    -5.9960    -0.6980 H     1 <1>   0.0800 
 38 H        7.3850    -5.3340    -0.9290 H     1 <1>   0.0800 
 39 H        6.1920    -5.2010    -2.2020 H     1 <1>   0.0800 
 40 H        8.7520    -3.2170     0.0820 H     1 <1>   0.4000 
 41 H        5.6570    -1.4110     2.3310 H     1 <1>   0.1500 
 42 H       11.0170    -2.1210     0.5090 H     1 <1>   0.0800 
 43 H       10.9230    -0.3930     0.3000 H     1 <1>   0.0800 
 44 H       10.3380    -1.4430    -0.9630 H     1 <1>   0.0800 
@<TRIPOS>BOND
  1   1   2  2   
  2   2   3  am  
  3   2   4  1   
  4   3   5  1   
  5   3  22  1   
  6   4   6  1   
  7   4  23  1   
  8   4  24  1   
  9   5   7  1   
 10   5  25  1   
 11   5  26  1   
 12   6   7  1   
 13   6   8  1   
 14   6  27  1   
 15   7   9  1   
 16   7  28  1   
 17   8  10  1   
 18   8  29  1   
 19   8  30  1   
 20   9  10  1   
 21   9  31  1   
 22   9  32  1   
 23  10  11  1   
 24  10  33  1   
 25  11  12  1   
 26  11  13  1   
 27  11  34  1   
 28  12  14  1   
 29  12  35  1   
 30  12  36  1   
 31  13  37  1   
 32  13  38  1   
 33  13  39  1   
 34  14  15  1   
 35  14  16  2   
 36  15  17  1   
 37  15  40  1   
 38  16  18  1   
 39  16  41  1   
 40  17  19  2   
 41  17  20  1   
 42  18  19  1   
 43  18  21  2   
 44  20  42  1   
 45  20  43  1   
 46  20  44  1   
@<TRIPOS>SUBSTRUCTURE
  1 ****   8 GROUP 4 **** **** 0

# MOE 2024.06 (io_trps.svl 2023.06)
