@<TRIPOS>MOLECULE
NONAME
48 52 1 0 0 
SMALL
USER_CHARGES


@<TRIPOS>ATOM
  1 O        0.5420     0.8960     1.1410 O.2   1 <1>  -0.5700 
  2 C       -0.0650     1.8620     0.7100 C.2   1 <1>   0.5440 
  3 N       -1.4420     1.8820     0.8320 N.am  1 <1>  -0.6600 
  4 C        0.6830     2.9280     0.0690 C.ar  1 <1>   0.0860 
  5 C       -2.3320     2.7320    -0.0350 C.3   1 <1>   0.1400 
  6 C       -2.1350     0.9180     1.7450 C.3   1 <1>   0.1400 
  7 C        1.6570     2.6290    -0.9000 C.ar  1 <1>  -0.1520 
  8 C        0.5050     4.2730     0.3650 C.ar  1 <1>  -0.1500 
  9 C       -3.6250     3.1360     0.7020 C.3   1 <1>   0.1440 
 10 C       -3.5590     0.6110     1.2660 C.3   1 <1>  -0.1600 
 11 N        2.0890     1.4080    -1.3440 N.pl3 1 <1>   0.0330 
 12 C        2.3680     3.6170    -1.5730 C.ar  1 <1>   0.0000 
 13 C        1.2150     5.2780    -0.2960 C.ar  1 <1>  -0.1500 
 14 C       -4.4090     4.0790    -0.1980 C.ar  1 <1>   0.1660 
 15 C       -4.4330     1.8690     1.0940 C.3   1 <1>  -0.1600 
 16 C       -3.3140     4.0440     1.9290 C.3   1 <1>  -0.1600 
 17 C        3.0440     1.6160    -2.3000 C.2   1 <1>  -0.3020 
 18 C        2.1380     4.9590    -1.2670 C.ar  1 <1>  -0.1500 
 19 C        3.2330     2.9470    -2.4650 C.2   1 <1>  -0.1500 
 20 N       -5.0750     3.7310    -1.2780 N.ar  1 <1>  -0.6200 
 21 C       -4.3300     5.3700     0.2310 C.ar  1 <1>  -0.1430 
 22 C       -3.4850     5.5030     1.4720 C.3   1 <1>  -0.0170 
 23 C       -5.6740     4.7340    -1.9030 C.ar  1 <1>   0.4770 
 24 C       -4.9890     6.3310    -0.4940 C.ar  1 <1>   0.1600 
 25 N       -5.6730     6.0190    -1.5750 N.ar  1 <1>  -0.6200 
 26 C       -6.4590     4.3730    -3.1410 C.3   1 <1>  -0.0970 
 27 H       -2.5970     2.1680    -0.9130 H     1 <1>   0.0800 
 28 H       -1.8230     3.6160    -0.3680 H     1 <1>   0.0800 
 29 H       -2.1690     1.3410     2.7340 H     1 <1>   0.0800 
 30 H       -1.5800    -0.0040     1.8000 H     1 <1>   0.0800 
 31 H       -0.1990     4.5520     1.1270 H     1 <1>   0.1500 
 32 H       -4.0320    -0.0650     1.9560 H     1 <1>   0.0800 
 33 H       -3.4850     0.0980     0.3220 H     1 <1>   0.0800 
 34 H        1.7720     0.5120    -0.9510 H     1 <1>   0.2700 
 35 H        1.0380     6.3080    -0.0400 H     1 <1>   0.1500 
 36 H       -5.1560     1.6520     0.3270 H     1 <1>   0.0800 
 37 H       -4.9930     2.0470     1.9940 H     1 <1>   0.0800 
 38 H       -2.3340     3.8750     2.3380 H     1 <1>   0.0800 
 39 H       -4.0310     3.8650     2.7100 H     1 <1>   0.0800 
 40 H        3.5330     0.7980    -2.8010 H     1 <1>   0.1500 
 41 H        2.6910     5.7200    -1.7890 H     1 <1>   0.1500 
 42 H        3.9110     3.4450    -3.1350 H     1 <1>   0.1500 
 43 H       -2.5340     5.9380     1.2170 H     1 <1>   0.0800 
 44 H       -3.9720     6.0990     2.2240 H     1 <1>   0.0800 
 45 H       -4.9560     7.3640    -0.1920 H     1 <1>   0.1500 
 46 H       -6.1470     3.4170    -3.5170 H     1 <1>   0.0800 
 47 H       -6.3010     5.1150    -3.9010 H     1 <1>   0.0800 
 48 H       -7.5040     4.3340    -2.8980 H     1 <1>   0.0800 
@<TRIPOS>BOND
  1   1   2  2   
  2   2   3  am  
  3   2   4  1   
  4   3   5  1   
  5   3   6  1   
  6   4   7  ar  
  7   4   8  ar  
  8   5   9  1   
  9   5  27  1   
 10   5  28  1   
 11   6  10  1   
 12   6  29  1   
 13   6  30  1   
 14   7  11  1   
 15   7  12  ar  
 16   8  13  ar  
 17   8  31  1   
 18   9  14  1   
 19   9  15  1   
 20   9  16  1   
 21  10  15  1   
 22  10  32  1   
 23  10  33  1   
 24  11  17  1   
 25  11  34  1   
 26  12  18  ar  
 27  12  19  1   
 28  13  18  ar  
 29  13  35  1   
 30  14  20  ar  
 31  14  21  ar  
 32  15  36  1   
 33  15  37  1   
 34  16  22  1   
 35  16  38  1   
 36  16  39  1   
 37  17  19  2   
 38  17  40  1   
 39  18  41  1   
 40  19  42  1   
 41  20  23  ar  
 42  21  22  1   
 43  21  24  ar  
 44  22  43  1   
 45  22  44  1   
 46  23  25  ar  
 47  23  26  1   
 48  24  25  ar  
 49  24  45  1   
 50  26  46  1   
 51  26  47  1   
 52  26  48  1   
@<TRIPOS>SUBSTRUCTURE
  1 ****   5 GROUP 4 **** **** 0

# MOE 2024.06 (io_trps.svl 2023.06)
