@<TRIPOS>MOLECULE
NONAME
44 46 1 0 0 
SMALL
USER_CHARGES


@<TRIPOS>ATOM
  1 CL       2.9510     0.7910     2.5850 Cl    1 <1>  -0.1770 
  2 C        2.8480     1.6750     1.0790 C.ar  1 <1>   0.1770 
  3 C        2.3550     1.0750    -0.0680 C.ar  1 <1>   0.1900 
  4 C        3.2690     2.9900     1.0380 C.ar  1 <1>  -0.1500 
  5 F        1.9560    -0.1710    -0.0360 F     1 <1>  -0.1900 
  6 C        2.2710     1.7660    -1.2630 C.ar  1 <1>  -0.1500 
  7 C        3.1940     3.7010    -0.1530 C.ar  1 <1>   0.0830 
  8 C        2.6930     3.0870    -1.3040 C.ar  1 <1>  -0.1500 
  9 O        3.6280     4.9850    -0.1140 O.3   1 <1>  -0.3630 
 10 C        3.6120     5.8100    -1.2690 C.3   1 <1>   0.1810 
 11 C        4.1150     7.2210    -0.9590 C.2   1 <1>   0.5690 
 12 O        3.5310     8.1440    -1.4770 O.2   1 <1>  -0.5700 
 13 N        5.2150     7.4670    -0.1680 N.am  1 <1>  -0.6600 
 14 C        5.3630     8.7920     0.5220 C.3   1 <1>   0.1400 
 15 C        6.2980     6.4790     0.1090 C.3   1 <1>   0.1400 
 16 C        6.6120     9.6230     0.1200 C.3   1 <1>   0.4230 
 17 C        7.6480     6.9510    -0.4770 C.3   1 <1>  -0.0800 
 18 N        7.1480     9.3710    -1.2780 N.4   1 <1>  -0.9590 
 19 C        7.7300     9.5270     1.1810 C.3   1 <1>   0.1200 
 20 C        8.6500     7.4170     0.5910 C.3   1 <1>   0.1200 
 21 C        7.4800     7.9460    -1.6390 C.3   1 <1>   0.3430 
 22 C        6.1870     9.9170    -2.2890 C.3   1 <1>   0.2630 
 23 O        8.0270     8.2140     1.5420 O.3   1 <1>  -0.5600 
 24 H        3.6490     3.4610     1.9260 H     1 <1>   0.1500 
 25 H        1.8810     1.2770    -2.1380 H     1 <1>   0.1500 
 26 H        2.6190     3.6140    -2.2370 H     1 <1>   0.1500 
 27 H        4.2330     5.3600    -2.0200 H     1 <1>   0.0800 
 28 H        2.5980     5.8710    -1.6210 H     1 <1>   0.0800 
 29 H        4.4920     9.3940     0.3310 H     1 <1>   0.0800 
 30 H        5.3760     8.6230     1.5850 H     1 <1>   0.0800 
 31 H        6.3740     6.3160     1.1720 H     1 <1>   0.0800 
 32 H        6.0490     5.5320    -0.3360 H     1 <1>   0.0800 
 33 H        6.2990    10.6530     0.1510 H     1 <1>   0.0800 
 34 H        8.0960     6.0760    -0.9130 H     1 <1>   0.0800 
 35 H        8.0200     9.9080    -1.3540 H     1 <1>   0.4500 
 36 H        7.3950    10.0150     2.0800 H     1 <1>   0.0800 
 37 H        8.6310    10.0170     0.8570 H     1 <1>   0.0800 
 38 H        9.4870     7.9470     0.1670 H     1 <1>   0.0800 
 39 H        9.0310     6.5590     1.1190 H     1 <1>   0.0800 
 40 H        6.6990     7.5600    -2.2750 H     1 <1>   0.0800 
 41 H        8.3860     7.9440    -2.2230 H     1 <1>   0.0800 
 42 H        5.2540     9.3800    -2.2470 H     1 <1>   0.0800 
 43 H        6.5910     9.8210    -3.2840 H     1 <1>   0.0800 
 44 H        5.9880    10.9590    -2.0980 H     1 <1>   0.0800 
@<TRIPOS>BOND
  1   1   2  1   
  2   2   3  ar  
  3   2   4  ar  
  4   3   5  1   
  5   3   6  ar  
  6   4   7  ar  
  7   4  24  1   
  8   6   8  ar  
  9   6  25  1   
 10   7   8  ar  
 11   7   9  1   
 12   8  26  1   
 13   9  10  1   
 14  10  11  1   
 15  10  27  1   
 16  10  28  1   
 17  11  12  2   
 18  11  13  am  
 19  13  14  1   
 20  13  15  1   
 21  14  16  1   
 22  14  29  1   
 23  14  30  1   
 24  15  17  1   
 25  15  31  1   
 26  15  32  1   
 27  16  18  1   
 28  16  19  1   
 29  16  33  1   
 30  17  20  1   
 31  17  21  1   
 32  17  34  1   
 33  18  21  1   
 34  18  22  1   
 35  18  35  1   
 36  19  23  1   
 37  19  36  1   
 38  19  37  1   
 39  20  23  1   
 40  20  38  1   
 41  20  39  1   
 42  21  40  1   
 43  21  41  1   
 44  22  42  1   
 45  22  43  1   
 46  22  44  1   
@<TRIPOS>SUBSTRUCTURE
  1 ****   9 GROUP 4 **** **** 0

# MOE 2024.06 (io_trps.svl 2023.06)
