@<TRIPOS>MOLECULE
NONAME
51 54 1 0 0 
SMALL
USER_CHARGES


@<TRIPOS>ATOM
  1 O       -0.1280     0.1570     1.1870 O.2   1 <1>  -0.5700 
  2 C       -1.1010     0.8280     0.9440 C.2   1 <1>   0.5690 
  3 N       -2.2720     0.2690     0.5160 N.am  1 <1>  -0.6600 
  4 C       -0.9740     2.3280     1.1010 C.3   1 <1>  -0.0990 
  5 C       -3.5240     0.9750     0.1410 C.3   1 <1>   0.1400 
  6 C       -2.4410    -1.1990     0.3810 C.3   1 <1>   0.1400 
  7 C       -0.4050     2.9530    -0.1770 C.3   1 <1>   0.0200 
  8 C       -4.4210    -0.1090    -0.4530 C.3   1 <1>   0.2000 
  9 C       -3.9410    -1.4140     0.1750 C.3   1 <1>  -0.0800 
 10 C       -0.3790     4.4640    -0.0830 C.2   1 <1>   0.2980 
 11 O       -5.7540     0.1120    -0.1490 O.3   1 <1>  -0.6800 
 12 C       -4.2770    -2.6560    -0.6650 C.3   1 <1>   0.0210 
 13 O       -1.5160     5.1100    -0.0910 O.3   1 <1>  -0.0190 
 14 N        0.6580     5.1860     0.0060 N.2   1 <1>  -0.5650 
 15 C       -3.6690    -3.9040    -0.0570 C.2   1 <1>   0.1080 
 16 N       -1.1700     6.3550     0.0050 N.2   1 <1>  -0.4100 
 17 C        0.1140     6.4060     0.0620 C.2   1 <1>   0.4620 
 18 N       -3.9300    -4.2950     1.1520 N.2   1 <1>  -0.7070 
 19 C       -2.7710    -4.7490    -0.7010 C.2   1 <1>  -0.1500 
 20 C        0.9120     7.6170     0.1740 C.ar  1 <1>   0.0540 
 21 N       -3.1970    -5.4130     1.3130 N.pl3 1 <1>   0.3000 
 22 C       -2.4850    -5.7080     0.2050 C.2   1 <1>  -0.3320 
 23 C        2.3070     7.5760     0.2420 C.ar  1 <1>  -0.1500 
 24 C        0.3120     8.8780     0.2190 C.ar  1 <1>  -0.1500 
 25 C       -1.5610    -6.9050     0.0790 C.3   1 <1>  -0.0600 
 26 C        3.0630     8.7290     0.3490 C.ar  1 <1>  -0.1500 
 27 C        1.0620    10.0350     0.3270 C.ar  1 <1>  -0.1500 
 28 C        2.4410     9.9630     0.3920 C.ar  1 <1>  -0.1500 
 29 H       -1.9270     2.7590     1.3430 H     1 <1>   0.0800 
 30 H       -0.3090     2.5320     1.9210 H     1 <1>   0.0800 
 31 H       -3.9710     1.3960     1.0240 H     1 <1>   0.0800 
 32 H       -3.3270     1.7450    -0.5850 H     1 <1>   0.0800 
 33 H       -1.8790    -1.5380    -0.4730 H     1 <1>   0.0800 
 34 H       -2.0890    -1.7120     1.2610 H     1 <1>   0.0800 
 35 H       -0.9990     2.6690    -1.0270 H     1 <1>   0.0800 
 36 H        0.5960     2.5900    -0.3350 H     1 <1>   0.0800 
 37 H       -4.3140    -0.1230    -1.5240 H     1 <1>   0.0800 
 38 H       -4.3760    -1.5260     1.1530 H     1 <1>   0.0800 
 39 H       -5.9200    -0.0660     0.7970 H     1 <1>   0.4000 
 40 H       -3.9100    -2.5350    -1.6680 H     1 <1>   0.0800 
 41 H       -5.3440    -2.7800    -0.7120 H     1 <1>   0.0800 
 42 H       -2.4000    -4.6380    -1.7040 H     1 <1>   0.1500 
 43 H       -3.2030    -5.9490     2.1900 H     1 <1>   0.2700 
 44 H        2.8080     6.6240     0.2110 H     1 <1>   0.1500 
 45 H       -0.7600     8.9530     0.1700 H     1 <1>   0.1500 
 46 H       -1.1100    -6.9220    -0.8980 H     1 <1>   0.0800 
 47 H       -2.1130    -7.8180     0.2170 H     1 <1>   0.0800 
 48 H       -0.7790    -6.8500     0.8150 H     1 <1>   0.0800 
 49 H        4.1360     8.6660     0.4000 H     1 <1>   0.1500 
 50 H        0.5720    10.9930     0.3590 H     1 <1>   0.1500 
 51 H        3.0270    10.8620     0.4760 H     1 <1>   0.1500 
@<TRIPOS>BOND
  1   1   2  2   
  2   2   3  am  
  3   2   4  1   
  4   3   5  1   
  5   3   6  1   
  6   4   7  1   
  7   4  29  1   
  8   4  30  1   
  9   5   8  1   
 10   5  31  1   
 11   5  32  1   
 12   6   9  1   
 13   6  33  1   
 14   6  34  1   
 15   7  10  1   
 16   7  35  1   
 17   7  36  1   
 18   8   9  1   
 19   8  11  1   
 20   8  37  1   
 21   9  12  1   
 22   9  38  1   
 23  10  13  1   
 24  10  14  2   
 25  11  39  1   
 26  12  15  1   
 27  12  40  1   
 28  12  41  1   
 29  13  16  1   
 30  14  17  1   
 31  15  18  2   
 32  15  19  1   
 33  16  17  2   
 34  17  20  1   
 35  18  21  1   
 36  19  22  2   
 37  19  42  1   
 38  20  23  ar  
 39  20  24  ar  
 40  21  22  1   
 41  21  43  1   
 42  22  25  1   
 43  23  26  ar  
 44  23  44  1   
 45  24  27  ar  
 46  24  45  1   
 47  25  46  1   
 48  25  47  1   
 49  25  48  1   
 50  26  28  ar  
 51  26  49  1   
 52  27  28  ar  
 53  27  50  1   
 54  28  51  1   
@<TRIPOS>SUBSTRUCTURE
  1 ****   4 GROUP 4 **** **** 0

# MOE 2024.06 (io_trps.svl 2023.06)
