@<TRIPOS>MOLECULE
NONAME
43 44 1 0 0 
SMALL
USER_CHARGES


@<TRIPOS>ATOM
  1 O        0.0120     0.7490     0.9430 O.3   1 <1>  -0.5600 
  2 C       -0.0690     2.1070     0.6780 C.3   1 <1>   0.2000 
  3 C       -1.2500     0.1620     0.8870 C.3   1 <1>   0.1200 
  4 C       -1.1920     2.2230    -0.3430 C.3   1 <1>  -0.1600 
  5 C        1.3010     2.5910     0.1940 C.3   1 <1>  -0.1600 
  6 C       -2.1300     1.0990     0.0620 C.3   1 <1>  -0.1600 
  7 C        1.3190     4.0990    -0.1080 C.3   1 <1>  -0.1600 
  8 C        2.7170     4.5620    -0.5240 C.3   1 <1>   0.2090 
  9 N        2.7150     6.0340    -0.7430 N.pl3 1 <1>  -0.8380 
 10 C        3.8120     6.8080    -0.3180 C.ar  1 <1>   0.4100 
 11 C        2.0320     6.4980    -1.9810 C.3   1 <1>   0.1290 
 12 N        4.9750     6.1720    -0.3300 N.ar  1 <1>  -0.6200 
 13 C        3.6860     8.1950     0.0690 C.ar  1 <1>   0.4100 
 14 C        5.9890     6.9400     0.0360 C.ar  1 <1>   0.1600 
 15 N        4.7270     8.9340     0.4240 N.ar  1 <1>  -0.6200 
 16 N        2.4480     8.8690     0.1130 N.pl3 1 <1>  -0.8380 
 17 C        5.8700     8.2660     0.3960 C.ar  1 <1>   0.1600 
 18 C        1.3940     8.2930     0.9880 C.3   1 <1>   0.1290 
 19 C        2.4070    10.3520    -0.0060 C.3   1 <1>   0.1290 
 20 H       -0.3440     2.5970     1.5970 H     1 <1>   0.0800 
 21 H       -1.6190     0.0580     1.8930 H     1 <1>   0.0800 
 22 H       -1.1500    -0.8060     0.4280 H     1 <1>   0.0800 
 23 H       -0.8050     2.0430    -1.3310 H     1 <1>   0.0800 
 24 H       -1.6640     3.1880    -0.3130 H     1 <1>   0.0800 
 25 H        1.5770     2.0420    -0.6890 H     1 <1>   0.0800 
 26 H        2.0220     2.3780     0.9640 H     1 <1>   0.0800 
 27 H       -2.9320     1.4690     0.6750 H     1 <1>   0.0800 
 28 H       -2.5460     0.5950    -0.7930 H     1 <1>   0.0800 
 29 H        1.0260     4.6430     0.7720 H     1 <1>   0.0800 
 30 H        0.6240     4.3150    -0.8980 H     1 <1>   0.0800 
 31 H        3.0320     4.0620    -1.4240 H     1 <1>   0.0800 
 32 H        3.4120     4.3110     0.2590 H     1 <1>   0.0800 
 33 H        0.9700     6.5410    -1.8140 H     1 <1>   0.0800 
 34 H        2.2400     5.8250    -2.7940 H     1 <1>   0.0800 
 35 H        2.3730     7.4820    -2.2540 H     1 <1>   0.0800 
 36 H        6.9620     6.4830     0.0470 H     1 <1>   0.1500 
 37 H        6.7540     8.8100     0.6770 H     1 <1>   0.1500 
 38 H        1.6810     7.3150     1.3340 H     1 <1>   0.0800 
 39 H        0.4750     8.2080     0.4360 H     1 <1>   0.0800 
 40 H        1.2390     8.9250     1.8450 H     1 <1>   0.0800 
 41 H        3.1110    10.6780    -0.7530 H     1 <1>   0.0800 
 42 H        2.6690    10.8010     0.9370 H     1 <1>   0.0800 
 43 H        1.4220    10.6710    -0.2960 H     1 <1>   0.0800 
@<TRIPOS>BOND
  1   1   2  1   
  2   1   3  1   
  3   2   4  1   
  4   2   5  1   
  5   2  20  1   
  6   3   6  1   
  7   3  21  1   
  8   3  22  1   
  9   4   6  1   
 10   4  23  1   
 11   4  24  1   
 12   5   7  1   
 13   5  25  1   
 14   5  26  1   
 15   6  27  1   
 16   6  28  1   
 17   7   8  1   
 18   7  29  1   
 19   7  30  1   
 20   8   9  1   
 21   8  31  1   
 22   8  32  1   
 23   9  10  1   
 24   9  11  1   
 25  10  12  ar  
 26  10  13  ar  
 27  11  33  1   
 28  11  34  1   
 29  11  35  1   
 30  12  14  ar  
 31  13  15  ar  
 32  13  16  1   
 33  14  17  ar  
 34  14  36  1   
 35  15  17  ar  
 36  16  18  1   
 37  16  19  1   
 38  17  37  1   
 39  18  38  1   
 40  18  39  1   
 41  18  40  1   
 42  19  41  1   
 43  19  42  1   
 44  19  43  1   
@<TRIPOS>SUBSTRUCTURE
  1 ****   9 GROUP 4 **** **** 0

# MOE 2024.06 (io_trps.svl 2023.06)
