@<TRIPOS>MOLECULE
NONAME
48 50 1 0 0 
SMALL
USER_CHARGES


@<TRIPOS>ATOM
  1 S        0.0430    -0.5970     1.7070 S.o2  1 <1>   1.5000 
  2 O       -0.7110     0.1240     2.7060 O.2   1 <1>  -0.6500 
  3 O        0.7810    -1.7790     2.1030 O.2   1 <1>  -0.6500 
  4 N       -1.0650    -1.1310     0.5380 N.am  1 <1>  -0.8490 
  5 C        1.1500     0.4950     0.7790 C.2   1 <1>  -0.0220 
  6 C       -1.8760    -2.2500     1.0510 C.3   1 <1>   0.1960 
  7 C       -1.9440    -0.0540     0.0570 C.3   1 <1>   0.1960 
  8 S        0.9620     2.2360     0.9710 S.3   1 <1>  -0.0800 
  9 C        2.1390     0.2530    -0.1060 C.2   1 <1>  -0.1500 
 10 C       -2.7310    -2.8610    -0.0880 C.3   1 <1>   0.4230 
 11 C       -2.8010    -0.5810    -1.1030 C.3   1 <1>  -0.1600 
 12 C        2.2550     2.5750    -0.1660 C.2   1 <1>  -0.1400 
 13 C        2.7660     1.4240    -0.6380 C.2   1 <1>  -0.1500 
 14 N       -3.5080    -4.0940     0.2850 N.4   1 <1>  -0.9590 
 15 C       -3.6750    -1.7890    -0.6670 C.3   1 <1>  -0.1060 
 16 C        2.5700     4.0400    -0.4140 C.3   1 <1>   0.0200 
 17 C       -4.1880    -4.7000    -0.8890 C.3   1 <1>   0.3430 
 18 C       -2.7800    -5.0950     1.1090 C.3   1 <1>   0.2630 
 19 C       -4.6790    -1.3630     0.4200 C.2   1 <1>   0.9060 
 20 C       -4.4110    -2.3650    -1.8990 C.3   1 <1>  -0.1600 
 21 C        3.7080     4.2250    -1.4220 C.3   1 <1>  -0.2400 
 22 C       -5.1210    -3.6850    -1.5560 C.3   1 <1>  -0.1600 
 23 O       -5.0100    -2.1860     1.2890 O.co2 1 <1>  -0.9000 
 24 O       -5.1300    -0.2200     0.4070 O.co2 1 <1>  -0.9000 
 25 H       -1.2140    -3.0070     1.4290 H     1 <1>   0.0800 
 26 H       -2.5030    -1.9080     1.8600 H     1 <1>   0.0800 
 27 H       -2.5750     0.3070     0.8570 H     1 <1>   0.0800 
 28 H       -1.3540     0.7740    -0.2980 H     1 <1>   0.0800 
 29 H        2.4600    -0.7280    -0.4110 H     1 <1>   0.1500 
 30 H       -2.0390    -3.1370    -0.8640 H     1 <1>   0.0800 
 31 H       -3.4360     0.2160    -1.4510 H     1 <1>   0.0800 
 32 H       -2.1510    -0.8530    -1.9160 H     1 <1>   0.0800 
 33 H        3.5700     1.3390    -1.3490 H     1 <1>   0.1500 
 34 H       -4.2750    -3.6660     0.8750 H     1 <1>   0.4500 
 35 H        1.6860     4.5310    -0.7820 H     1 <1>   0.0800 
 36 H        2.8420     4.5010     0.5190 H     1 <1>   0.0800 
 37 H       -3.4490    -5.0300    -1.6010 H     1 <1>   0.0800 
 38 H       -4.7650    -5.5540    -0.5750 H     1 <1>   0.0800 
 39 H       -1.9270    -5.4750     0.5700 H     1 <1>   0.0800 
 40 H       -3.4330    -5.9160     1.3560 H     1 <1>   0.0800 
 41 H       -2.4420    -4.6460     2.0290 H     1 <1>   0.0800 
 42 H       -5.1370    -1.6480    -2.2470 H     1 <1>   0.0800 
 43 H       -3.7100    -2.5390    -2.6970 H     1 <1>   0.0800 
 44 H        3.4430     3.7870    -2.3670 H     1 <1>   0.0800 
 45 H        4.6060     3.7570    -1.0580 H     1 <1>   0.0800 
 46 H        3.9010     5.2720    -1.5700 H     1 <1>   0.0800 
 47 H       -5.5280    -4.1150    -2.4530 H     1 <1>   0.0800 
 48 H       -5.9500    -3.4890    -0.8960 H     1 <1>   0.0800 
@<TRIPOS>BOND
  1   1   2  2   
  2   1   3  2   
  3   1   4  am  
  4   1   5  1   
  5   4   6  1   
  6   4   7  1   
  7   5   8  1   
  8   5   9  2   
  9   6  10  1   
 10   6  25  1   
 11   6  26  1   
 12   7  11  1   
 13   7  27  1   
 14   7  28  1   
 15   8  12  1   
 16   9  13  1   
 17   9  29  1   
 18  10  14  1   
 19  10  15  1   
 20  10  30  1   
 21  11  15  1   
 22  11  31  1   
 23  11  32  1   
 24  12  13  2   
 25  12  16  1   
 26  13  33  1   
 27  14  17  1   
 28  14  18  1   
 29  14  34  1   
 30  15  19  1   
 31  15  20  1   
 32  16  21  1   
 33  16  35  1   
 34  16  36  1   
 35  17  22  1   
 36  17  37  1   
 37  17  38  1   
 38  18  39  1   
 39  18  40  1   
 40  18  41  1   
 41  19  23  ar  
 42  19  24  ar  
 43  20  22  1   
 44  20  42  1   
 45  20  43  1   
 46  21  44  1   
 47  21  45  1   
 48  21  46  1   
 49  22  47  1   
 50  22  48  1   
@<TRIPOS>SUBSTRUCTURE
  1 ****   4 GROUP 4 **** **** 0

# MOE 2024.06 (io_trps.svl 2023.06)
