@<TRIPOS>MOLECULE
NONAME
49 50 1 0 0 
SMALL
USER_CHARGES


@<TRIPOS>ATOM
  1 S        0.4030     1.0080     0.2290 S.o2  1 <1>   1.3330 
  2 O       -0.7010     1.2080     1.1420 O.2   1 <1>  -0.6500 
  3 O        0.1920     1.1900    -1.1900 O.2   1 <1>  -0.6500 
  4 N        1.0050    -0.5590     0.4770 N.am  1 <1>  -0.8490 
  5 C        1.7690     2.0530     0.7280 C.3   1 <1>  -0.0550 
  6 C        0.9260    -1.0010     1.8730 C.3   1 <1>   0.1160 
  7 C        0.3560    -1.5450    -0.3930 C.3   1 <1>   0.1160 
  8 C        1.4720     3.5560     0.5560 C.3   1 <1>  -0.0800 
  9 C        2.5080     4.4830     1.1880 C.3   1 <1>   0.2000 
 10 C        1.3940     4.0090    -0.9140 C.3   1 <1>   0.1100 
 11 O        3.7730     3.9820     0.9370 O.3   1 <1>  -0.6800 
 12 C        2.3450     5.7490     0.3600 C.3   1 <1>   0.1100 
 13 N        2.1770     5.2530    -1.0190 N.3   1 <1>  -0.8100 
 14 C        1.5240     6.2530    -1.9190 C.3   1 <1>   0.1710 
 15 C        2.3270     7.5420    -2.1170 C.2   1 <1>   0.5690 
 16 O        1.7470     8.5880    -2.2930 O.2   1 <1>  -0.5700 
 17 N        3.6770     7.4650    -2.0400 N.am  1 <1>  -0.7300 
 18 C        4.5550     8.6060    -1.7480 C.3   1 <1>   0.2840 
 19 C        4.8310     8.5800    -0.2560 C.ar  1 <1>  -0.1440 
 20 C        5.9260     7.8960     0.2520 C.ar  1 <1>  -0.1500 
 21 C        3.9630     9.2190     0.6170 C.ar  1 <1>  -0.1500 
 22 C        6.1490     7.8530     1.6170 C.ar  1 <1>  -0.1500 
 23 C        4.1860     9.1780     1.9820 C.ar  1 <1>  -0.1500 
 24 C        5.2790     8.4930     2.4830 C.ar  1 <1>  -0.1500 
 25 H        1.9920     1.8670     1.7590 H     1 <1>   0.0800 
 26 H        2.6390     1.7920     0.1560 H     1 <1>   0.0800 
 27 H        1.3970    -1.9630     1.9830 H     1 <1>   0.0800 
 28 H       -0.1020    -1.0750     2.1880 H     1 <1>   0.0800 
 29 H        1.4340    -0.3010     2.5140 H     1 <1>   0.0800 
 30 H        0.7710    -2.5240    -0.2230 H     1 <1>   0.0800 
 31 H        0.5170    -1.2880    -1.4270 H     1 <1>   0.0800 
 32 H       -0.7040    -1.5710    -0.2040 H     1 <1>   0.0800 
 33 H        0.5220     3.7700     1.0140 H     1 <1>   0.0800 
 34 H        2.3850     4.6290     2.2470 H     1 <1>   0.0800 
 35 H        0.3640     4.1660    -1.1920 H     1 <1>   0.0800 
 36 H        1.8190     3.2730    -1.5760 H     1 <1>   0.0800 
 37 H        3.9250     4.0970    -0.0250 H     1 <1>   0.4000 
 38 H        3.1980     6.3980     0.4600 H     1 <1>   0.0800 
 39 H        1.4600     6.2750     0.6780 H     1 <1>   0.0800 
 40 H        1.3780     5.8100    -2.8870 H     1 <1>   0.0800 
 41 H        0.5570     6.5160    -1.5270 H     1 <1>   0.0800 
 42 H        4.0360     6.5560    -1.7370 H     1 <1>   0.3700 
 43 H        5.4690     8.5130    -2.3070 H     1 <1>   0.0800 
 44 H        4.0740     9.5290    -2.0250 H     1 <1>   0.0800 
 45 H        6.6070     7.3920    -0.4110 H     1 <1>   0.1500 
 46 H        3.1050     9.7450     0.2300 H     1 <1>   0.1500 
 47 H        6.9980     7.3190     2.0070 H     1 <1>   0.1500 
 48 H        3.5090     9.6770     2.6530 H     1 <1>   0.1500 
 49 H        5.4540     8.4590     3.5440 H     1 <1>   0.1500 
@<TRIPOS>BOND
  1   1   2  2   
  2   1   3  2   
  3   1   4  am  
  4   1   5  1   
  5   4   6  1   
  6   4   7  1   
  7   5   8  1   
  8   5  25  1   
  9   5  26  1   
 10   6  27  1   
 11   6  28  1   
 12   6  29  1   
 13   7  30  1   
 14   7  31  1   
 15   7  32  1   
 16   8   9  1   
 17   8  10  1   
 18   8  33  1   
 19   9  11  1   
 20   9  12  1   
 21   9  34  1   
 22  10  13  1   
 23  10  35  1   
 24  10  36  1   
 25  11  37  1   
 26  12  13  1   
 27  12  38  1   
 28  12  39  1   
 29  13  14  1   
 30  14  15  1   
 31  14  40  1   
 32  14  41  1   
 33  15  16  2   
 34  15  17  am  
 35  17  18  1   
 36  17  42  1   
 37  18  19  1   
 38  18  43  1   
 39  18  44  1   
 40  19  20  ar  
 41  19  21  ar  
 42  20  22  ar  
 43  20  45  1   
 44  21  23  ar  
 45  21  46  1   
 46  22  24  ar  
 47  22  47  1   
 48  23  24  ar  
 49  23  48  1   
 50  24  49  1   
@<TRIPOS>SUBSTRUCTURE
  1 ****  12 GROUP 4 **** **** 0

# MOE 2024.06 (io_trps.svl 2023.06)
