@<TRIPOS>MOLECULE
NONAME
46 48 1 0 0 
SMALL
USER_CHARGES


@<TRIPOS>ATOM
  1 S       -1.4430    -0.2410     1.6440 S.3   1 <1>  -0.0800 
  2 C       -1.6950    -0.7630    -0.0160 C.2   1 <1>  -0.1400 
  3 C       -1.6610     1.4410     1.1990 C.2   1 <1>  -0.1100 
  4 C       -1.9250     0.3020    -0.8090 C.2   1 <1>  -0.1500 
  5 C       -1.6210    -2.2590    -0.2760 C.3   1 <1>   0.3800 
  6 C       -1.9050     1.5550    -0.1180 C.2   1 <1>  -0.1500 
  7 O       -1.5700    -2.4560    -1.6430 O.3   1 <1>  -0.6800 
  8 C       -2.8410    -3.0200     0.2970 C.3   1 <1>  -0.0800 
  9 C       -2.7340    -4.5400     0.0560 C.3   1 <1>  -0.1600 
 10 C       -4.1830    -2.4870    -0.2520 C.3   1 <1>  -0.1600 
 11 C       -3.9690    -5.2900     0.5530 C.3   1 <1>   0.3430 
 12 C       -5.3740    -3.2960     0.2520 C.3   1 <1>   0.3430 
 13 N       -5.1870    -4.7300    -0.1040 N.4   1 <1>  -0.9590 
 14 C       -6.4250    -5.5050     0.2180 C.3   1 <1>   0.3430 
 15 C       -6.4240    -6.8930    -0.4240 C.3   1 <1>  -0.0170 
 16 C       -7.7600    -7.5520    -0.1400 C.ar  1 <1>  -0.1430 
 17 C       -8.8330    -7.3420    -0.9940 C.ar  1 <1>  -0.1500 
 18 C       -7.9220    -8.3560     0.9810 C.ar  1 <1>  -0.1500 
 19 C      -10.0600    -7.9230    -0.7250 C.ar  1 <1>  -0.1500 
 20 C       -9.1470    -8.9390     1.2510 C.ar  1 <1>  -0.1500 
 21 C      -10.2140    -8.7170     0.3960 C.ar  1 <1>   0.0830 
 22 O      -11.4090    -9.2710     0.6440 O.3   1 <1>  -0.5330 
 23 H       -1.5810     2.1760     1.9810 H     1 <1>   0.1500 
 24 H       -2.1150     0.2680    -1.8690 H     1 <1>   0.1500 
 25 H       -0.7080    -2.6480     0.1410 H     1 <1>   0.0800 
 26 H       -2.0750     2.4790    -0.6440 H     1 <1>   0.1500 
 27 H       -0.8750    -1.8770    -2.0130 H     1 <1>   0.4000 
 28 H       -2.8380    -2.8590     1.3620 H     1 <1>   0.0800 
 29 H       -1.8670    -4.9220     0.5660 H     1 <1>   0.0800 
 30 H       -2.6040    -4.7450    -0.9920 H     1 <1>   0.0800 
 31 H       -4.1790    -2.5020    -1.3280 H     1 <1>   0.0800 
 32 H       -4.3160    -1.4620     0.0500 H     1 <1>   0.0800 
 33 H       -4.0500    -5.1880     1.6230 H     1 <1>   0.0800 
 34 H       -3.8640    -6.3360     0.3170 H     1 <1>   0.0800 
 35 H       -6.2780    -2.9160    -0.1970 H     1 <1>   0.0800 
 36 H       -5.4560    -3.1900     1.3230 H     1 <1>   0.0800 
 37 H       -5.0300    -4.7620    -1.1210 H     1 <1>   0.4500 
 38 H       -7.2870    -4.9690    -0.1470 H     1 <1>   0.0800 
 39 H       -6.5310    -5.6050     1.2860 H     1 <1>   0.0800 
 40 H       -5.6370    -7.5040    -0.0210 H     1 <1>   0.0800 
 41 H       -6.2890    -6.8120    -1.4880 H     1 <1>   0.0800 
 42 H       -8.7310    -6.7310    -1.8740 H     1 <1>   0.1500 
 43 H       -7.1000    -8.5390     1.6510 H     1 <1>   0.1500 
 44 H      -10.9000    -7.7690    -1.3790 H     1 <1>   0.1500 
 45 H       -9.2670    -9.5610     2.1190 H     1 <1>   0.1500 
 46 H      -11.4200    -9.8300     1.4400 H     1 <1>   0.4500 
@<TRIPOS>BOND
  1   1   2  1   
  2   1   3  1   
  3   2   4  2   
  4   2   5  1   
  5   3   6  2   
  6   3  23  1   
  7   4   6  1   
  8   4  24  1   
  9   5   7  1   
 10   5   8  1   
 11   5  25  1   
 12   6  26  1   
 13   7  27  1   
 14   8   9  1   
 15   8  10  1   
 16   8  28  1   
 17   9  11  1   
 18   9  29  1   
 19   9  30  1   
 20  10  12  1   
 21  10  31  1   
 22  10  32  1   
 23  11  13  1   
 24  11  33  1   
 25  11  34  1   
 26  12  13  1   
 27  12  35  1   
 28  12  36  1   
 29  13  14  1   
 30  13  37  1   
 31  14  15  1   
 32  14  38  1   
 33  14  39  1   
 34  15  16  1   
 35  15  40  1   
 36  15  41  1   
 37  16  17  ar  
 38  16  18  ar  
 39  17  19  ar  
 40  17  42  1   
 41  18  20  ar  
 42  18  43  1   
 43  19  21  ar  
 44  19  44  1   
 45  20  21  ar  
 46  20  45  1   
 47  21  22  1   
 48  22  46  1   
@<TRIPOS>SUBSTRUCTURE
  1 ****  13 GROUP 4 **** **** 0

# MOE 2024.06 (io_trps.svl 2023.06)
