@<TRIPOS>MOLECULE
NONAME
54 56 1 0 0 
SMALL
USER_CHARGES


@<TRIPOS>ATOM
  1 O       -0.9320     2.7080    -2.2530 O.co2 1 <1>  -0.9000 
  2 C       -1.2680     2.2140    -1.1720 C.2   1 <1>   0.9060 
  3 O       -2.1610     1.3670    -1.0690 O.co2 1 <1>  -0.9000 
  4 C       -0.5810     2.6870     0.0930 C.3   1 <1>  -0.1060 
  5 C       -1.6840     3.0510     1.1060 C.3   1 <1>   0.2000 
  6 C        0.1140     3.9960    -0.2900 C.3   1 <1>   0.3430 
  7 C        0.3790     1.5570     0.5880 C.3   1 <1>  -0.0170 
  8 O       -2.2230     1.8930     1.6190 O.3   1 <1>  -0.6800 
  9 C       -1.2140     3.9430     2.2680 C.3   1 <1>  -0.1600 
 10 N        0.6470     4.7890     0.8730 N.4   1 <1>  -0.9590 
 11 C        1.8420     1.7120     0.1810 C.ar  1 <1>  -0.1440 
 12 C        0.2800     4.2560     2.2130 C.3   1 <1>   0.3430 
 13 C        2.1130     5.0020     0.7190 C.3   1 <1>   0.3430 
 14 C        2.2010     1.7720    -1.1580 C.ar  1 <1>  -0.1500 
 15 C        2.8320     1.7860     1.1500 C.ar  1 <1>  -0.1500 
 16 C        2.3680     6.0800    -0.3420 C.3   1 <1>   0.1200 
 17 C        3.5250     1.9420    -1.5210 C.ar  1 <1>  -0.1500 
 18 C        4.1580     1.9540     0.7880 C.ar  1 <1>  -0.1500 
 19 O        1.4160     7.1020    -0.1850 O.3   1 <1>  -0.5600 
 20 C        4.5040     2.0390    -0.5490 C.ar  1 <1>  -0.1500 
 21 C        1.5540     8.1670    -1.0850 C.3   1 <1>   0.2640 
 22 C        2.8510     8.9160    -0.8110 C.ar  1 <1>  -0.1440 
 23 C        3.0570     9.5220     0.4190 C.ar  1 <1>  -0.1500 
 24 C        3.8370     8.9980    -1.7830 C.ar  1 <1>  -0.1500 
 25 C        4.2370    10.1970     0.6780 C.ar  1 <1>  -0.1500 
 26 C        5.0180     9.6730    -1.5250 C.ar  1 <1>  -0.1500 
 27 C        5.2180    10.2720    -0.2940 C.ar  1 <1>  -0.1500 
 28 H       -2.4860     3.5560     0.5880 H     1 <1>   0.0800 
 29 H       -0.6050     4.6020    -0.8180 H     1 <1>   0.0800 
 30 H        0.8990     3.7840    -0.9960 H     1 <1>   0.0800 
 31 H        0.3290     1.4800     1.6590 H     1 <1>   0.0800 
 32 H        0.0280     0.6060     0.2210 H     1 <1>   0.0800 
 33 H       -2.4950     1.3450     0.8310 H     1 <1>   0.4000 
 34 H       -1.7580     4.8690     2.2340 H     1 <1>   0.0800 
 35 H       -1.4390     3.4750     3.2110 H     1 <1>   0.0800 
 36 H        0.2640     5.7450     0.7670 H     1 <1>   0.4500 
 37 H        0.8360     3.3540     2.4040 H     1 <1>   0.0800 
 38 H        0.5310     4.9730     2.9770 H     1 <1>   0.0800 
 39 H        2.5330     5.3400     1.6510 H     1 <1>   0.0800 
 40 H        2.6090     4.0890     0.4370 H     1 <1>   0.0800 
 41 H        1.4480     1.6830    -1.9270 H     1 <1>   0.1500 
 42 H        2.5800     1.7050     2.1930 H     1 <1>   0.1500 
 43 H        2.2700     5.6620    -1.3300 H     1 <1>   0.0800 
 44 H        3.3600     6.4810    -0.2220 H     1 <1>   0.0800 
 45 H        3.7890     1.9900    -2.5640 H     1 <1>   0.1500 
 46 H        4.9230     2.0070     1.5440 H     1 <1>   0.1500 
 47 H        5.5350     2.1640    -0.8340 H     1 <1>   0.1500 
 48 H        1.5220     7.7810    -2.0900 H     1 <1>   0.0800 
 49 H        0.7160     8.8270    -0.9430 H     1 <1>   0.0800 
 50 H        2.2980     9.4680     1.1810 H     1 <1>   0.1500 
 51 H        3.6960     8.5400    -2.7470 H     1 <1>   0.1500 
 52 H        4.3920    10.6670     1.6340 H     1 <1>   0.1500 
 53 H        5.7810     9.7350    -2.2820 H     1 <1>   0.1500 
 54 H        6.1360    10.7990    -0.0940 H     1 <1>   0.1500 
@<TRIPOS>BOND
  1   1   2  ar  
  2   2   3  ar  
  3   2   4  1   
  4   4   5  1   
  5   4   6  1   
  6   4   7  1   
  7   5   8  1   
  8   5   9  1   
  9   5  28  1   
 10   6  10  1   
 11   6  29  1   
 12   6  30  1   
 13   7  11  1   
 14   7  31  1   
 15   7  32  1   
 16   8  33  1   
 17   9  12  1   
 18   9  34  1   
 19   9  35  1   
 20  10  12  1   
 21  10  13  1   
 22  10  36  1   
 23  11  14  ar  
 24  11  15  ar  
 25  12  37  1   
 26  12  38  1   
 27  13  16  1   
 28  13  39  1   
 29  13  40  1   
 30  14  17  ar  
 31  14  41  1   
 32  15  18  ar  
 33  15  42  1   
 34  16  19  1   
 35  16  43  1   
 36  16  44  1   
 37  17  20  ar  
 38  17  45  1   
 39  18  20  ar  
 40  18  46  1   
 41  19  21  1   
 42  20  47  1   
 43  21  22  1   
 44  21  48  1   
 45  21  49  1   
 46  22  23  ar  
 47  22  24  ar  
 48  23  25  ar  
 49  23  50  1   
 50  24  26  ar  
 51  24  51  1   
 52  25  27  ar  
 53  25  52  1   
 54  26  27  ar  
 55  26  53  1   
 56  27  54  1   
@<TRIPOS>SUBSTRUCTURE
  1 ****  13 GROUP 4 **** **** 0

# MOE 2024.06 (io_trps.svl 2023.06)
