@<TRIPOS>MOLECULE
NONAME
47 49 1 0 0 
SMALL
USER_CHARGES


@<TRIPOS>ATOM
  1 O       -3.0670    -2.2840    -2.4280 O.co2 1 <1>  -0.9000 
  2 C       -2.3470    -1.8700    -1.5010 C.2   1 <1>   0.9790 
  3 O       -1.1170    -1.8220    -1.6610 O.co2 1 <1>  -0.9000 
  4 C       -2.9720    -1.5850    -0.2300 C.ar  1 <1>  -0.1790 
  5 C       -3.1220    -0.3370     0.4040 C.ar  1 <1>   0.0820 
  6 C       -3.5670    -2.6870     0.3750 C.ar  1 <1>  -0.1500 
  7 O       -2.6240     0.8540    -0.0150 O.3   1 <1>  -0.3630 
  8 C       -3.8740    -0.2490     1.5660 C.ar  1 <1>  -0.1500 
  9 C       -4.3650    -2.5850     1.4990 C.ar  1 <1>  -0.1430 
 10 C       -1.6590     0.9890    -1.0340 C.3   1 <1>   0.0400 
 11 C       -4.5040    -1.3510     2.1110 C.ar  1 <1>  -0.1500 
 12 C       -5.1230    -3.7990     2.0000 C.3   1 <1>   0.4870 
 13 N       -5.7680    -4.4850     0.8440 N.4   1 <1>  -0.9590 
 14 C       -6.4290    -3.5980    -0.1790 C.3   1 <1>   0.3430 
 15 C       -6.7180    -5.5700     1.1630 C.3   1 <1>   0.3430 
 16 C       -7.6890    -4.3570    -0.6320 C.3   1 <1>   0.2000 
 17 C       -7.4550    -5.7940    -0.1590 C.3   1 <1>  -0.0800 
 18 O       -8.8110    -3.8610     0.0260 O.3   1 <1>  -0.6800 
 19 C       -6.6240    -6.5770    -1.2140 C.3   1 <1>  -0.0170 
 20 C       -5.5450    -7.4760    -0.6270 C.ar  1 <1>   0.1670 
 21 N       -4.4340    -6.8650    -0.2360 N.ar  1 <1>  -0.6200 
 22 C       -5.7540    -8.8440    -0.5360 C.ar  1 <1>  -0.1500 
 23 C       -3.4790    -7.6570     0.2320 C.ar  1 <1>   0.1600 
 24 C       -4.7600    -9.6500    -0.0240 C.ar  1 <1>  -0.1500 
 25 C       -3.5920    -9.0300     0.3620 C.ar  1 <1>  -0.1500 
 26 H       -3.4110    -3.6400    -0.1070 H     1 <1>   0.1500 
 27 H       -3.9700     0.7140     2.0370 H     1 <1>   0.1500 
 28 H       -1.3970     2.0270    -1.1140 H     1 <1>   0.0800 
 29 H       -2.0740     0.6480    -1.9660 H     1 <1>   0.0800 
 30 H       -0.7880     0.4150    -0.7680 H     1 <1>   0.0800 
 31 H       -5.0980    -1.2300     3.0000 H     1 <1>   0.1500 
 32 H       -5.8730    -3.4810     2.7030 H     1 <1>   0.0800 
 33 H       -4.4430    -4.4710     2.4970 H     1 <1>   0.0800 
 34 H       -4.9980    -4.9670     0.3330 H     1 <1>   0.4500 
 35 H       -6.6900    -2.6360     0.2300 H     1 <1>   0.0800 
 36 H       -5.7590    -3.4500    -1.0130 H     1 <1>   0.0800 
 37 H       -6.2100    -6.4580     1.5040 H     1 <1>   0.0800 
 38 H       -7.4150    -5.2440     1.9160 H     1 <1>   0.0800 
 39 H       -7.8650    -4.2730    -1.6920 H     1 <1>   0.0800 
 40 H       -8.3820    -6.3150     0.0100 H     1 <1>   0.0800 
 41 H       -8.6440    -3.6600     0.9660 H     1 <1>   0.4000 
 42 H       -6.1270    -5.8970    -1.8860 H     1 <1>   0.0800 
 43 H       -7.2920    -7.1620    -1.8210 H     1 <1>   0.0800 
 44 H       -6.6790    -9.2830    -0.8650 H     1 <1>   0.1500 
 45 H       -2.5530    -7.1890     0.5250 H     1 <1>   0.1500 
 46 H       -4.8860   -10.7170     0.0610 H     1 <1>   0.1500 
 47 H       -2.7720    -9.6050     0.7550 H     1 <1>   0.1500 
@<TRIPOS>BOND
  1   1   2  ar  
  2   2   3  ar  
  3   2   4  1   
  4   4   5  ar  
  5   4   6  ar  
  6   5   7  1   
  7   5   8  ar  
  8   6   9  ar  
  9   6  26  1   
 10   7  10  1   
 11   8  11  ar  
 12   8  27  1   
 13   9  11  ar  
 14   9  12  1   
 15  10  28  1   
 16  10  29  1   
 17  10  30  1   
 18  11  31  1   
 19  12  13  1   
 20  12  32  1   
 21  12  33  1   
 22  13  14  1   
 23  13  15  1   
 24  13  34  1   
 25  14  16  1   
 26  14  35  1   
 27  14  36  1   
 28  15  17  1   
 29  15  37  1   
 30  15  38  1   
 31  16  17  1   
 32  16  18  1   
 33  16  39  1   
 34  17  19  1   
 35  17  40  1   
 36  18  41  1   
 37  19  20  1   
 38  19  42  1   
 39  19  43  1   
 40  20  21  ar  
 41  20  22  ar  
 42  21  23  ar  
 43  22  24  ar  
 44  22  44  1   
 45  23  25  ar  
 46  23  45  1   
 47  24  25  ar  
 48  24  46  1   
 49  25  47  1   
@<TRIPOS>SUBSTRUCTURE
  1 ****  13 GROUP 4 **** **** 0

# MOE 2024.06 (io_trps.svl 2023.06)
