@<TRIPOS>MOLECULE
NONAME
48 50 1 0 0 
SMALL
USER_CHARGES


@<TRIPOS>ATOM
  1 F       -1.4990     0.4970     1.5370 F     1 <1>  -0.1900 
  2 C       -2.2790     1.0360     0.6410 C.ar  1 <1>   0.1900 
  3 C       -1.7730     1.9790    -0.2390 C.ar  1 <1>  -0.1440 
  4 C       -3.5980     0.6240     0.6240 C.ar  1 <1>  -0.1500 
  5 C       -2.6580     2.5160    -1.1710 C.ar  1 <1>  -0.1500 
  6 C       -0.2990     2.3860    -0.1610 C.3   1 <1>   1.1640 
  7 C       -4.4680     1.1750    -0.3040 C.ar  1 <1>  -0.1440 
  8 C       -3.9860     2.1180    -1.2030 C.ar  1 <1>  -0.1500 
  9 F        0.0250     3.2940    -1.0730 F     1 <1>  -0.3400 
 10 F        0.0160     2.9190     1.0120 F     1 <1>  -0.3400 
 11 F        0.5230     1.3630    -0.3530 F     1 <1>  -0.3400 
 12 C       -5.9260     0.7500    -0.3420 C.3   1 <1>   0.4870 
 13 N       -6.6310     1.3300     0.8360 N.4   1 <1>  -0.9590 
 14 C       -7.9730     0.6890     1.0570 C.3   1 <1>   0.3430 
 15 C       -6.7030     2.8310     0.7690 C.3   1 <1>   0.3430 
 16 C       -9.0270     1.0130    -0.0350 C.3   1 <1>   0.0000 
 17 C       -8.0580     3.3470     0.2620 C.3   1 <1>  -0.1600 
 18 C      -10.4130     0.9210     0.6460 C.3   1 <1>   0.2000 
 19 C       -8.7330     2.3790    -0.7160 C.3   1 <1>  -0.1600 
 20 C       -9.1030    -0.1280    -1.0670 C.3   1 <1>  -0.1600 
 21 O      -11.3800     1.4790    -0.1890 O.3   1 <1>  -0.5600 
 22 C      -10.6870    -0.5840     0.7540 C.3   1 <1>  -0.1600 
 23 C       -9.9310    -1.2400    -0.4100 C.3   1 <1>  -0.1600 
 24 C      -12.5560     1.8910     0.4370 C.3   1 <1>   0.0400 
 25 H       -3.9140    -0.1220     1.3330 H     1 <1>   0.1500 
 26 H       -2.3180     3.2510    -1.8860 H     1 <1>   0.1500 
 27 H       -4.6360     2.5540    -1.9440 H     1 <1>   0.1500 
 28 H       -5.9800    -0.3260    -0.3110 H     1 <1>   0.0800 
 29 H       -6.3850     1.0850    -1.2570 H     1 <1>   0.0800 
 30 H       -6.0340     1.1040     1.6420 H     1 <1>   0.4500 
 31 H       -7.8650    -0.3800     1.1390 H     1 <1>   0.0800 
 32 H       -8.3560     1.0430     2.0000 H     1 <1>   0.0800 
 33 H       -6.5250     3.2470     1.7480 H     1 <1>   0.0800 
 34 H       -5.9240     3.1990     0.1210 H     1 <1>   0.0800 
 35 H       -8.7090     3.5180     1.1020 H     1 <1>   0.0800 
 36 H       -7.9100     4.3010    -0.2140 H     1 <1>   0.0800 
 37 H      -10.4400     1.4260     1.5980 H     1 <1>   0.0800 
 38 H       -8.0850     2.2360    -1.5620 H     1 <1>   0.0800 
 39 H       -9.6300     2.8280    -1.1050 H     1 <1>   0.0800 
 40 H       -9.6460     0.2230    -1.9310 H     1 <1>   0.0800 
 41 H       -8.1470    -0.4870    -1.3960 H     1 <1>   0.0800 
 42 H      -10.2980    -0.9560     1.6850 H     1 <1>   0.0800 
 43 H      -11.7380    -0.8100     0.7150 H     1 <1>   0.0800 
 44 H       -9.3000    -2.0320    -0.0470 H     1 <1>   0.0800 
 45 H      -10.6240    -1.6530    -1.1250 H     1 <1>   0.0800 
 46 H      -13.2190     2.2740    -0.3180 H     1 <1>   0.0800 
 47 H      -12.3290     2.6690     1.1450 H     1 <1>   0.0800 
 48 H      -13.0190     1.0540     0.9300 H     1 <1>   0.0800 
@<TRIPOS>BOND
  1   1   2  1   
  2   2   3  ar  
  3   2   4  ar  
  4   3   5  ar  
  5   3   6  1   
  6   4   7  ar  
  7   4  25  1   
  8   5   8  ar  
  9   5  26  1   
 10   6   9  1   
 11   6  10  1   
 12   6  11  1   
 13   7   8  ar  
 14   7  12  1   
 15   8  27  1   
 16  12  13  1   
 17  12  28  1   
 18  12  29  1   
 19  13  14  1   
 20  13  15  1   
 21  13  30  1   
 22  14  16  1   
 23  14  31  1   
 24  14  32  1   
 25  15  17  1   
 26  15  33  1   
 27  15  34  1   
 28  16  18  1   
 29  16  19  1   
 30  16  20  1   
 31  17  19  1   
 32  17  35  1   
 33  17  36  1   
 34  18  21  1   
 35  18  22  1   
 36  18  37  1   
 37  19  38  1   
 38  19  39  1   
 39  20  23  1   
 40  20  40  1   
 41  20  41  1   
 42  21  24  1   
 43  22  23  1   
 44  22  42  1   
 45  22  43  1   
 46  23  44  1   
 47  23  45  1   
 48  24  46  1   
 49  24  47  1   
 50  24  48  1   
@<TRIPOS>SUBSTRUCTURE
  1 ****  12 GROUP 4 **** **** 0

# MOE 2024.06 (io_trps.svl 2023.06)
