@<TRIPOS>MOLECULE
NONAME
47 49 1 0 0 
SMALL
USER_CHARGES


@<TRIPOS>ATOM
  1 O       -0.6280     0.3410    -1.7350 O.2   1 <1>  -0.5700 
  2 C       -1.4640     0.8730    -1.0310 C.2   1 <1>   0.5440 
  3 N       -2.5270     0.1260    -0.5800 N.am  1 <1>  -0.6600 
  4 C       -1.3440     2.2730    -0.6650 C.ar  1 <1>   0.0860 
  5 C       -3.5770     0.6180     0.3430 C.3   1 <1>   0.1400 
  6 C       -2.7010    -1.3160    -0.8670 C.3   1 <1>   0.1400 
  7 C       -0.6180     2.6590     0.4680 C.ar  1 <1>  -0.1440 
  8 C       -1.9710     3.2690    -1.4240 C.ar  1 <1>  -0.1440 
  9 C       -4.4570    -0.6010     0.6210 C.3   1 <1>   0.2000 
 10 C       -3.6160    -1.8220     0.2490 C.3   1 <1>  -0.0800 
 11 C       -0.5480     3.9920     0.8360 C.ar  1 <1>  -0.1500 
 12 C        0.1130     1.6180     1.3070 C.3   1 <1>  -0.0960 
 13 C       -1.8910     4.5970    -1.0420 C.ar  1 <1>  -0.1500 
 14 C       -2.7420     2.9060    -2.6880 C.3   1 <1>  -0.0970 
 15 O       -4.8240    -0.6730     1.9560 O.3   1 <1>  -0.6800 
 16 C       -4.4770    -3.0360    -0.1420 C.3   1 <1>  -0.0170 
 17 C       -1.1860     4.9660     0.0900 C.ar  1 <1>  -0.1440 
 18 C       -3.6230    -4.2460    -0.4830 C.ar  1 <1>   0.1670 
 19 C       -1.1030     6.4250     0.5000 C.3   1 <1>  -0.0970 
 20 N       -3.1640    -4.3140    -1.7230 N.ar  1 <1>  -0.6200 
 21 C       -3.3570    -5.2080     0.4900 C.ar  1 <1>   0.1600 
 22 C       -2.4260    -5.3940    -1.9210 C.ar  1 <1>   0.1600 
 23 N       -2.6190    -6.2880     0.2940 N.ar  1 <1>  -0.6200 
 24 C       -2.1620    -6.3480    -0.9460 C.ar  1 <1>   0.1600 
 25 H       -3.1180     0.9840     1.2440 H     1 <1>   0.0800 
 26 H       -4.1460     1.4020    -0.1260 H     1 <1>   0.0800 
 27 H       -3.1660    -1.4270    -1.8320 H     1 <1>   0.0800 
 28 H       -1.7530    -1.8290    -0.8700 H     1 <1>   0.0800 
 29 H       -5.3530    -0.5460     0.0260 H     1 <1>   0.0800 
 30 H       -2.9820    -2.0860     1.0780 H     1 <1>   0.0800 
 31 H        0.0110     4.2800     1.7080 H     1 <1>   0.1500 
 32 H        0.6570     2.0790     2.1110 H     1 <1>   0.0800 
 33 H        0.8130     1.0810     0.6910 H     1 <1>   0.0800 
 34 H       -0.5870     0.9180     1.7240 H     1 <1>   0.0800 
 35 H       -2.3770     5.3560    -1.6290 H     1 <1>   0.1500 
 36 H       -3.1030     3.7850    -3.1890 H     1 <1>   0.0800 
 37 H       -3.5820     2.2820    -2.4440 H     1 <1>   0.0800 
 38 H       -2.1000     2.3710    -3.3660 H     1 <1>   0.0800 
 39 H       -4.0310    -0.6960     2.5250 H     1 <1>   0.4000 
 40 H       -5.0930    -2.7920    -0.9890 H     1 <1>   0.0800 
 41 H       -5.1330    -3.2790     0.6750 H     1 <1>   0.0800 
 42 H       -0.9870     6.5120     1.5650 H     1 <1>   0.0800 
 43 H       -1.9990     6.9470     0.2130 H     1 <1>   0.0800 
 44 H       -0.2610     6.8900     0.0200 H     1 <1>   0.0800 
 45 H       -3.7700    -5.0770     1.4740 H     1 <1>   0.1500 
 46 H       -2.0090    -5.5300    -2.9030 H     1 <1>   0.1500 
 47 H       -1.5490    -7.1930    -1.2030 H     1 <1>   0.1500 
@<TRIPOS>BOND
  1   1   2  2   
  2   2   3  am  
  3   2   4  1   
  4   3   5  1   
  5   3   6  1   
  6   4   7  ar  
  7   4   8  ar  
  8   5   9  1   
  9   5  25  1   
 10   5  26  1   
 11   6  10  1   
 12   6  27  1   
 13   6  28  1   
 14   7  11  ar  
 15   7  12  1   
 16   8  13  ar  
 17   8  14  1   
 18   9  10  1   
 19   9  15  1   
 20   9  29  1   
 21  10  16  1   
 22  10  30  1   
 23  11  17  ar  
 24  11  31  1   
 25  12  32  1   
 26  12  33  1   
 27  12  34  1   
 28  13  17  ar  
 29  13  35  1   
 30  14  36  1   
 31  14  37  1   
 32  14  38  1   
 33  15  39  1   
 34  16  18  1   
 35  16  40  1   
 36  16  41  1   
 37  17  19  1   
 38  18  20  ar  
 39  18  21  ar  
 40  19  42  1   
 41  19  43  1   
 42  19  44  1   
 43  20  22  ar  
 44  21  23  ar  
 45  21  45  1   
 46  22  24  ar  
 47  22  46  1   
 48  23  24  ar  
 49  24  47  1   
@<TRIPOS>SUBSTRUCTURE
  1 ****   3 GROUP 4 **** **** 0

# MOE 2024.06 (io_trps.svl 2023.06)
