@<TRIPOS>MOLECULE
NONAME
68 70 1 0 0 
SMALL
USER_CHARGES


@<TRIPOS>ATOM
  1 O       -0.9700    -3.2930    -0.0140 O.3   1 <1>  -0.3630 
  2 C        0.0610    -2.4090     0.0960 C.ar  1 <1>   0.0830 
  3 C       -2.1820    -2.9190    -0.6440 C.3   1 <1>   0.0400 
  4 C        1.1130    -2.7200     0.9600 C.ar  1 <1>  -0.1440 
  5 C        0.0970    -1.2190    -0.6280 C.ar  1 <1>  -0.1500 
  6 C        2.1750    -1.8360     1.0880 C.ar  1 <1>  -0.1500 
  7 C        1.1470    -4.0070     1.7750 C.3   1 <1>   0.5660 
  8 C        1.1620    -0.3490    -0.4910 C.ar  1 <1>  -0.1500 
  9 C        2.2000    -0.6560     0.3670 C.ar  1 <1>  -0.1500 
 10 N        0.9320    -5.1610     0.8690 N.4   1 <1>  -0.9590 
 11 C        0.1020    -3.9560     2.8910 C.3   1 <1>  -0.2400 
 12 C        0.7400    -6.4720     1.5510 C.3   1 <1>   0.4860 
 13 C        1.9780    -5.2280    -0.2020 C.3   1 <1>   0.2630 
 14 C        0.4180    -7.5440     0.5230 C.ar  1 <1>  -0.1430 
 15 C       -0.8310    -7.6600    -0.0900 C.ar  1 <1>  -0.1430 
 16 C        1.4380    -8.4240     0.1920 C.ar  1 <1>  -0.1500 
 17 C       -1.0260    -8.6520    -1.0520 C.ar  1 <1>  -0.1430 
 18 C       -1.9910    -6.7280     0.2610 C.3   1 <1>  -0.0970 
 19 C        1.2460    -9.4050    -0.7590 C.ar  1 <1>  -0.1430 
 20 C        0.0170    -9.5050    -1.3810 C.ar  1 <1>  -0.1500 
 21 C       -2.3510    -8.8490    -1.7900 C.3   1 <1>   0.2530 
 22 C        2.3710   -10.3570    -1.1250 C.3   1 <1>  -0.0970 
 23 N       -3.3350    -9.5950    -0.9730 N.3   1 <1>  -0.8100 
 24 C       -4.6160    -9.7490    -1.7010 C.3   1 <1>   0.1100 
 25 C       -2.8120   -10.9240    -0.5520 C.3   1 <1>   0.1100 
 26 C       -5.6910   -10.4940    -0.8700 C.3   1 <1>   0.3430 
 27 C       -3.8710   -11.8040     0.1560 C.3   1 <1>   0.3430 
 28 N       -5.1300   -11.0330     0.4140 N.4   1 <1>  -0.9590 
 29 C       -6.1290   -11.7860     1.2260 C.3   1 <1>   0.2630 
 30 H       -2.9000    -3.7060    -0.4970 H     1 <1>   0.0800 
 31 H       -2.0040    -2.7810    -1.6960 H     1 <1>   0.0800 
 32 H       -2.5450    -2.0110    -0.1950 H     1 <1>   0.0800 
 33 H       -0.6900    -0.9470    -1.3070 H     1 <1>   0.1500 
 34 H        2.9970    -2.0480     1.7520 H     1 <1>   0.1500 
 35 H        2.1210    -4.0950     2.2280 H     1 <1>   0.0800 
 36 H        1.1830     0.5700    -1.0520 H     1 <1>   0.1500 
 37 H        3.0270     0.0280     0.4730 H     1 <1>   0.1500 
 38 H        0.0470    -4.9290     0.3890 H     1 <1>   0.4500 
 39 H       -0.8960    -3.9910     2.4960 H     1 <1>   0.0800 
 40 H        0.2100    -3.0310     3.4280 H     1 <1>   0.0800 
 41 H        0.2450    -4.7520     3.5980 H     1 <1>   0.0800 
 42 H       -0.0680    -6.4140     2.2610 H     1 <1>   0.0800 
 43 H        1.6350    -6.7430     2.0850 H     1 <1>   0.0800 
 44 H        2.9420    -5.4510     0.2250 H     1 <1>   0.0800 
 45 H        2.0400    -4.2890    -0.7280 H     1 <1>   0.0800 
 46 H        1.7300    -5.9960    -0.9180 H     1 <1>   0.0800 
 47 H        2.3990    -8.3520     0.6710 H     1 <1>   0.1500 
 48 H       -1.8120    -6.1360     1.1360 H     1 <1>   0.0800 
 49 H       -2.8800    -7.3030     0.4490 H     1 <1>   0.0800 
 50 H       -2.1840    -6.0660    -0.5640 H     1 <1>   0.0800 
 51 H       -0.1250   -10.2630    -2.1320 H     1 <1>   0.1500 
 52 H       -2.1730    -9.3770    -2.7120 H     1 <1>   0.0800 
 53 H       -2.7580    -7.8870    -2.0510 H     1 <1>   0.0800 
 54 H        3.0100   -10.5320    -0.2780 H     1 <1>   0.0800 
 55 H        2.9580    -9.9400    -1.9230 H     1 <1>   0.0800 
 56 H        1.9760   -11.3040    -1.4470 H     1 <1>   0.0800 
 57 H       -4.4490   -10.2900    -2.6180 H     1 <1>   0.0800 
 58 H       -4.9980    -8.7780    -1.9660 H     1 <1>   0.0800 
 59 H       -1.9890   -10.7800     0.1280 H     1 <1>   0.0800 
 60 H       -2.4310   -11.4580    -1.4060 H     1 <1>   0.0800 
 61 H       -6.0970   -11.2970    -1.4620 H     1 <1>   0.0800 
 62 H       -6.4960    -9.8110    -0.6530 H     1 <1>   0.0800 
 63 H       -3.4590   -12.1650     1.0840 H     1 <1>   0.0800 
 64 H       -4.0870   -12.6600    -0.4620 H     1 <1>   0.0800 
 65 H       -4.8060   -10.1930     0.9200 H     1 <1>   0.4500 
 66 H       -6.4610   -12.6630     0.6930 H     1 <1>   0.0800 
 67 H       -6.9840   -11.1640     1.4360 H     1 <1>   0.0800 
 68 H       -5.6930   -12.0950     2.1620 H     1 <1>   0.0800 
@<TRIPOS>BOND
  1   1   2  1   
  2   1   3  1   
  3   2   4  ar  
  4   2   5  ar  
  5   3  30  1   
  6   3  31  1   
  7   3  32  1   
  8   4   6  ar  
  9   4   7  1   
 10   5   8  ar  
 11   5  33  1   
 12   6   9  ar  
 13   6  34  1   
 14   7  10  1   
 15   7  11  1   
 16   7  35  1   
 17   8   9  ar  
 18   8  36  1   
 19   9  37  1   
 20  10  12  1   
 21  10  13  1   
 22  10  38  1   
 23  11  39  1   
 24  11  40  1   
 25  11  41  1   
 26  12  14  1   
 27  12  42  1   
 28  12  43  1   
 29  13  44  1   
 30  13  45  1   
 31  13  46  1   
 32  14  15  ar  
 33  14  16  ar  
 34  15  17  ar  
 35  15  18  1   
 36  16  19  ar  
 37  16  47  1   
 38  17  20  ar  
 39  17  21  1   
 40  18  48  1   
 41  18  49  1   
 42  18  50  1   
 43  19  20  ar  
 44  19  22  1   
 45  20  51  1   
 46  21  23  1   
 47  21  52  1   
 48  21  53  1   
 49  22  54  1   
 50  22  55  1   
 51  22  56  1   
 52  23  24  1   
 53  23  25  1   
 54  24  26  1   
 55  24  57  1   
 56  24  58  1   
 57  25  27  1   
 58  25  59  1   
 59  25  60  1   
 60  26  28  1   
 61  26  61  1   
 62  26  62  1   
 63  27  28  1   
 64  27  63  1   
 65  27  64  1   
 66  28  29  1   
 67  28  65  1   
 68  29  66  1   
 69  29  67  1   
 70  29  68  1   
@<TRIPOS>SUBSTRUCTURE
  1 ****  15 GROUP 4 **** **** 0

# MOE 2024.06 (io_trps.svl 2023.06)
