@<TRIPOS>MOLECULE
NONAME
40 42 1 0 0 
SMALL
USER_CHARGES


@<TRIPOS>ATOM
  1 CL      -1.4710     3.9410     2.5270 Cl    1 <1>  -0.1770 
  2 C       -0.8130     3.2120     1.0830 C.ar  1 <1>   0.1770 
  3 C       -1.5830     2.3170     0.3370 C.ar  1 <1>   0.0860 
  4 C        0.4740     3.5590     0.7180 C.ar  1 <1>  -0.1500 
  5 C       -2.9260     1.9580     0.7280 C.2   1 <1>   0.5440 
  6 C       -1.0070     1.7620    -0.8080 C.ar  1 <1>  -0.1500 
  7 C        0.9980     2.9890    -0.4250 C.ar  1 <1>   0.1900 
  8 O       -3.1100     0.8760     1.2520 O.2   1 <1>  -0.5700 
  9 N       -4.0010     2.7880     0.4860 N.am  1 <1>  -0.6600 
 10 C        0.2800     2.0940    -1.1970 C.ar  1 <1>  -0.1500 
 11 F        2.2080     3.3060    -0.7880 F     1 <1>  -0.1900 
 12 C       -5.3880     2.3820     0.8900 C.3   1 <1>   0.1400 
 13 C       -3.8670     4.0970    -0.2210 C.3   1 <1>   0.1400 
 14 C       -6.4440     2.8190    -0.1560 C.3   1 <1>   0.0000 
 15 C       -5.0680     5.0040     0.0620 C.3   1 <1>  -0.1600 
 16 C       -7.8590     2.3230     0.2090 C.3   1 <1>   0.2000 
 17 C       -6.4140     4.3610    -0.3270 C.3   1 <1>  -0.1600 
 18 C       -6.2100     2.0730    -1.4850 C.3   1 <1>  -0.1600 
 19 O       -8.1300     2.4040     1.5640 O.3   1 <1>  -0.6800 
 20 C       -7.9560     0.8710    -0.2620 C.3   1 <1>  -0.1600 
 21 C       -6.8360     0.6880    -1.2940 C.3   1 <1>  -0.1600 
 22 H        1.0510     4.2500     1.3040 H     1 <1>   0.1500 
 23 H       -1.5810     1.0590    -1.3890 H     1 <1>   0.1500 
 24 H        0.7260     1.6670    -2.0780 H     1 <1>   0.1500 
 25 H       -5.4350     1.3160     1.0280 H     1 <1>   0.0800 
 26 H       -5.6060     2.8430     1.8370 H     1 <1>   0.0800 
 27 H       -2.9710     4.5990     0.1000 H     1 <1>   0.0800 
 28 H       -3.7930     3.9180    -1.2800 H     1 <1>   0.0800 
 29 H       -5.0730     5.2300     1.1140 H     1 <1>   0.0800 
 30 H       -4.9500     5.9350    -0.4630 H     1 <1>   0.0800 
 31 H       -8.5950     2.9150    -0.3100 H     1 <1>   0.0800 
 32 H       -6.6540     4.6220    -1.3430 H     1 <1>   0.0800 
 33 H       -7.1730     4.8030     0.2950 H     1 <1>   0.0800 
 34 H       -6.7340     2.5710    -2.2830 H     1 <1>   0.0800 
 35 H       -5.1720     1.9980    -1.7570 H     1 <1>   0.0800 
 36 H       -7.5720     1.7730     2.0550 H     1 <1>   0.4000 
 37 H       -7.8160     0.1800     0.5500 H     1 <1>   0.0800 
 38 H       -8.9170     0.6990    -0.7140 H     1 <1>   0.0800 
 39 H       -6.0950     0.0090    -0.9060 H     1 <1>   0.0800 
 40 H       -7.2100     0.2960    -2.2240 H     1 <1>   0.0800 
@<TRIPOS>BOND
  1   1   2  1   
  2   2   3  ar  
  3   2   4  ar  
  4   3   5  1   
  5   3   6  ar  
  6   4   7  ar  
  7   4  22  1   
  8   5   8  2   
  9   5   9  am  
 10   6  10  ar  
 11   6  23  1   
 12   7  10  ar  
 13   7  11  1   
 14   9  12  1   
 15   9  13  1   
 16  10  24  1   
 17  12  14  1   
 18  12  25  1   
 19  12  26  1   
 20  13  15  1   
 21  13  27  1   
 22  13  28  1   
 23  14  16  1   
 24  14  17  1   
 25  14  18  1   
 26  15  17  1   
 27  15  29  1   
 28  15  30  1   
 29  16  19  1   
 30  16  20  1   
 31  16  31  1   
 32  17  32  1   
 33  17  33  1   
 34  18  21  1   
 35  18  34  1   
 36  18  35  1   
 37  19  36  1   
 38  20  21  1   
 39  20  37  1   
 40  20  38  1   
 41  21  39  1   
 42  21  40  1   
@<TRIPOS>SUBSTRUCTURE
  1 ****   9 GROUP 4 **** **** 0

# MOE 2024.06 (io_trps.svl 2023.06)
