@<TRIPOS>MOLECULE
NONAME
39 41 1 0 0 
SMALL
USER_CHARGES


@<TRIPOS>ATOM
  1 S       -0.3210    -0.0540     0.5410 S.3   1 <1>  -0.0800 
  2 C       -1.1640    -1.0170    -0.6280 C.2   1 <1>   0.4420 
  3 C       -0.2950     1.2250    -0.6290 C.2   1 <1>   0.1980 
  4 N       -1.3460    -0.3870    -1.7310 N.2   1 <1>  -0.3380 
  5 N       -1.5040    -2.2930    -0.2320 N.am  1 <1>  -0.4940 
  6 N       -0.8500     0.8870    -1.7250 N.2   1 <1>  -0.3380 
  7 C        0.3820     2.5410    -0.2390 C.3   1 <1>   0.3800 
  8 C       -2.1990    -3.2730    -0.8980 C.2   1 <1>   0.5440 
  9 O       -0.0150     2.8990     1.0560 O.3   1 <1>  -0.5600 
 10 C        0.0150     3.6890    -1.1870 C.3   1 <1>  -0.2400 
 11 O       -2.7170    -3.0350    -1.9680 O.2   1 <1>  -0.5700 
 12 C       -2.3320    -4.5830    -0.2920 C.ar  1 <1>   0.0860 
 13 C        0.8930     3.6720     1.7790 C.3   1 <1>   0.0400 
 14 C       -3.4850    -5.3460    -0.4900 C.ar  1 <1>  -0.1500 
 15 C       -1.3280    -5.1360     0.5090 C.ar  1 <1>  -0.1500 
 16 C       -3.6520    -6.5890     0.0930 C.ar  1 <1>  -0.1430 
 17 C       -1.4820    -6.3750     1.1010 C.ar  1 <1>  -0.1500 
 18 C       -2.6430    -7.1020     0.9030 C.ar  1 <1>   0.0820 
 19 C       -4.9210    -7.3870    -0.1530 C.3   1 <1>  -0.0170 
 20 O       -2.7470    -8.3080     1.5030 O.3   1 <1>  -0.3630 
 21 C       -4.6930    -8.8630     0.1800 C.3   1 <1>  -0.1600 
 22 C       -3.9870    -8.9870     1.5340 C.3   1 <1>   0.1200 
 23 H       -1.2360    -2.5260     0.7180 H     1 <1>   0.3700 
 24 H        1.4460     2.3800    -0.2430 H     1 <1>   0.0800 
 25 H       -1.0450     3.8640    -1.1530 H     1 <1>   0.0800 
 26 H        0.2820     3.4250    -2.1940 H     1 <1>   0.0800 
 27 H        0.5380     4.5890    -0.9260 H     1 <1>   0.0800 
 28 H        0.4710     3.8560     2.7520 H     1 <1>   0.0800 
 29 H        1.0530     4.6100     1.2770 H     1 <1>   0.0800 
 30 H        1.8180     3.1330     1.8840 H     1 <1>   0.0800 
 31 H       -4.2620    -4.9440    -1.1200 H     1 <1>   0.1500 
 32 H       -0.4080    -4.6010     0.6660 H     1 <1>   0.1500 
 33 H       -0.7060    -6.7930     1.7170 H     1 <1>   0.1500 
 34 H       -5.2290    -7.2900    -1.1800 H     1 <1>   0.0800 
 35 H       -5.7030    -6.9920     0.4730 H     1 <1>   0.0800 
 36 H       -4.0790    -9.3200    -0.5760 H     1 <1>   0.0800 
 37 H       -5.6340    -9.3820     0.2080 H     1 <1>   0.0800 
 38 H       -4.5810    -8.5490     2.3170 H     1 <1>   0.0800 
 39 H       -3.7900   -10.0170     1.7720 H     1 <1>   0.0800 
@<TRIPOS>BOND
  1   1   2  1   
  2   1   3  1   
  3   2   4  2   
  4   2   5  1   
  5   3   6  2   
  6   3   7  1   
  7   4   6  1   
  8   5   8  am  
  9   5  23  1   
 10   7   9  1   
 11   7  10  1   
 12   7  24  1   
 13   8  11  2   
 14   8  12  1   
 15   9  13  1   
 16  10  25  1   
 17  10  26  1   
 18  10  27  1   
 19  12  14  ar  
 20  12  15  ar  
 21  13  28  1   
 22  13  29  1   
 23  13  30  1   
 24  14  16  ar  
 25  14  31  1   
 26  15  17  ar  
 27  15  32  1   
 28  16  18  ar  
 29  16  19  1   
 30  17  18  ar  
 31  17  33  1   
 32  18  20  1   
 33  19  21  1   
 34  19  34  1   
 35  19  35  1   
 36  20  22  1   
 37  21  22  1   
 38  21  36  1   
 39  21  37  1   
 40  22  38  1   
 41  22  39  1   
@<TRIPOS>SUBSTRUCTURE
  1 ****   5 GROUP 4 **** **** 0

# MOE 2024.06 (io_trps.svl 2023.06)
