@<TRIPOS>MOLECULE
NONAME
53 55 1 0 0 
SMALL
USER_CHARGES


@<TRIPOS>ATOM
  1 O       -2.2950    -1.2690    -2.3430 O.2   1 <1>  -0.5700 
  2 C       -2.3850    -1.6130    -1.1920 C.2   1 <1>   0.5690 
  3 N       -2.7180    -0.7120    -0.2450 N.am  1 <1>  -0.8000 
  4 C       -2.1220    -3.0680    -0.8240 C.3   1 <1>   0.1810 
  5 O       -2.3570    -3.3050     0.5620 O.3   1 <1>  -0.3630 
  6 C       -2.5730    -4.5870     0.9410 C.ar  1 <1>   0.0820 
  7 C       -1.6660    -5.6240     0.6990 C.ar  1 <1>   0.0820 
  8 C       -3.7640    -4.8620     1.5910 C.ar  1 <1>  -0.1500 
  9 O       -0.4620    -5.4250     0.1150 O.3   1 <1>  -0.3630 
 10 C       -1.9890    -6.9200     1.0620 C.ar  1 <1>  -0.1500 
 11 C       -4.0780    -6.1580     1.9610 C.ar  1 <1>  -0.1500 
 12 C        0.4970    -4.7300     0.8840 C.3   1 <1>   0.0400 
 13 C       -3.1980    -7.1960     1.6840 C.ar  1 <1>  -0.1440 
 14 C       -3.5640    -8.6200     2.0530 C.3   1 <1>   0.4860 
 15 N       -3.8610    -9.3730     0.8020 N.4   1 <1>  -0.9590 
 16 C       -5.0900    -8.8250     0.1400 C.3   1 <1>   0.3430 
 17 C       -4.1400   -10.8110     1.1100 C.3   1 <1>   0.3430 
 18 C       -6.2360    -9.7370     0.5830 C.3   1 <1>   0.2000 
 19 C       -5.5750   -11.1110     0.6480 C.3   1 <1>  -0.0800 
 20 O       -6.6120    -9.3740     1.8730 O.3   1 <1>  -0.6800 
 21 C       -5.5980   -11.8240    -0.7190 C.3   1 <1>  -0.0170 
 22 C       -4.7470   -13.0830    -0.6900 C.ar  1 <1>  -0.1440 
 23 C       -5.0910   -14.1770     0.0810 C.ar  1 <1>  -0.1500 
 24 C       -3.5860   -13.1990    -1.4280 C.ar  1 <1>  -0.1500 
 25 C       -4.2690   -15.2920     0.0930 C.ar  1 <1>   0.1600 
 26 C       -2.8350   -14.3610    -1.3460 C.ar  1 <1>   0.1600 
 27 N       -3.1460   -15.4020    -0.5940 N.ar  1 <1>  -0.6200 
 28 H       -2.8960     0.2600    -0.4970 H     1 <1>   0.3700 
 29 H       -2.8070    -0.9730     0.7380 H     1 <1>   0.3700 
 30 H       -1.1010    -3.3090    -1.0500 H     1 <1>   0.0800 
 31 H       -2.7750    -3.7000    -1.3970 H     1 <1>   0.0800 
 32 H       -4.4470    -4.0560     1.7980 H     1 <1>   0.1500 
 33 H       -1.2740    -7.6960     0.8530 H     1 <1>   0.1500 
 34 H       -5.0140    -6.3460     2.4610 H     1 <1>   0.1500 
 35 H        1.4060    -4.6670     0.3130 H     1 <1>   0.0800 
 36 H        0.6710    -5.2720     1.7970 H     1 <1>   0.0800 
 37 H        0.1330    -3.7420     1.1030 H     1 <1>   0.0800 
 38 H       -4.4250    -8.6230     2.7020 H     1 <1>   0.0800 
 39 H       -2.7390    -9.0770     2.5760 H     1 <1>   0.0800 
 40 H       -3.0540    -9.2630     0.1760 H     1 <1>   0.4500 
 41 H       -5.2840    -7.7990     0.4050 H     1 <1>   0.0800 
 42 H       -4.9800    -8.8930    -0.9300 H     1 <1>   0.0800 
 43 H       -3.4310   -11.4590     0.6190 H     1 <1>   0.0800 
 44 H       -4.0740   -10.9780     2.1730 H     1 <1>   0.0800 
 45 H       -7.0960    -9.6790    -0.0640 H     1 <1>   0.0800 
 46 H       -6.0680   -11.7440     1.3650 H     1 <1>   0.0800 
 47 H       -7.4670    -9.7860     2.1230 H     1 <1>   0.4000 
 48 H       -5.2380   -11.1720    -1.4960 H     1 <1>   0.0800 
 49 H       -6.6100   -12.0950    -0.9700 H     1 <1>   0.0800 
 50 H       -5.9890   -14.1830     0.6710 H     1 <1>   0.1500 
 51 H       -3.2510   -12.4080    -2.0730 H     1 <1>   0.1500 
 52 H       -4.5500   -16.1370     0.6990 H     1 <1>   0.1500 
 53 H       -1.9330   -14.4390    -1.9300 H     1 <1>   0.1500 
@<TRIPOS>BOND
  1   1   2  2   
  2   2   3  am  
  3   2   4  1   
  4   3  28  1   
  5   3  29  1   
  6   4   5  1   
  7   4  30  1   
  8   4  31  1   
  9   5   6  1   
 10   6   7  ar  
 11   6   8  ar  
 12   7   9  1   
 13   7  10  ar  
 14   8  11  ar  
 15   8  32  1   
 16   9  12  1   
 17  10  13  ar  
 18  10  33  1   
 19  11  13  ar  
 20  11  34  1   
 21  12  35  1   
 22  12  36  1   
 23  12  37  1   
 24  13  14  1   
 25  14  15  1   
 26  14  38  1   
 27  14  39  1   
 28  15  16  1   
 29  15  17  1   
 30  15  40  1   
 31  16  18  1   
 32  16  41  1   
 33  16  42  1   
 34  17  19  1   
 35  17  43  1   
 36  17  44  1   
 37  18  19  1   
 38  18  20  1   
 39  18  45  1   
 40  19  21  1   
 41  19  46  1   
 42  20  47  1   
 43  21  22  1   
 44  21  48  1   
 45  21  49  1   
 46  22  23  ar  
 47  22  24  ar  
 48  23  25  ar  
 49  23  50  1   
 50  24  26  ar  
 51  24  51  1   
 52  25  27  ar  
 53  25  52  1   
 54  26  27  ar  
 55  26  53  1   
@<TRIPOS>SUBSTRUCTURE
  1 ****  15 GROUP 4 **** **** 0

# MOE 2024.06 (io_trps.svl 2023.06)
