@<TRIPOS>MOLECULE
NONAME
56 58 1 0 0 
SMALL
USER_CHARGES


@<TRIPOS>ATOM
  1 O       -1.2090    -0.6700    -1.6470 O.3   1 <1>  -0.5600 
  2 C       -0.2580    -1.4870    -1.0410 C.3   1 <1>   0.2800 
  3 C       -1.9620     0.1810    -0.8270 C.3   1 <1>   0.1200 
  4 C       -0.9570    -2.3700     0.0240 C.3   1 <1>  -0.1600 
  5 C        0.9010    -0.6100    -0.5300 C.3   1 <1>  -0.1600 
  6 C        0.2910    -2.3670    -2.1710 C.3   1 <1>  -0.1600 
  7 C       -2.7630    -0.6400     0.1870 C.3   1 <1>  -0.1600 
  8 C       -1.8720    -1.5990     0.9770 C.3   1 <1>   0.2800 
  9 C        2.0640    -1.4660    -0.0480 C.3   1 <1>   0.3430 
 10 C        1.4740    -3.2090    -1.7000 C.3   1 <1>   0.3430 
 11 O       -1.0790    -0.8730     1.8330 O.3   1 <1>  -0.6800 
 12 C       -2.6950    -2.5390     1.8550 C.3   1 <1>  -0.2400 
 13 N        2.5540    -2.3240    -1.1720 N.4   1 <1>  -0.9590 
 14 C        3.7430    -3.1480    -0.7730 C.3   1 <1>   0.3430 
 15 C        4.9850    -2.3020    -0.4800 C.3   1 <1>   0.1200 
 16 O        6.0200    -3.1920    -0.1480 O.3   1 <1>  -0.3630 
 17 C        7.2410    -2.7530     0.2620 C.ar  1 <1>   0.0820 
 18 C        8.1530    -3.6960     0.7410 C.ar  1 <1>  -0.1430 
 19 C        7.5930    -1.4050     0.2210 C.ar  1 <1>  -0.1500 
 20 C        9.4010    -3.2740     1.1950 C.ar  1 <1>  -0.1430 
 21 C        7.7900    -5.1820     0.7780 C.3   1 <1>  -0.0970 
 22 C        8.8350    -0.9980     0.6640 C.ar  1 <1>  -0.1500 
 23 C        9.7320    -1.9290     1.1500 C.ar  1 <1>  -0.1500 
 24 C       10.4320    -4.2490     1.7490 C.3   1 <1>  -0.0970 
 25 H       -2.6310     0.7360    -1.4630 H     1 <1>   0.0800 
 26 H       -1.3090     0.8790    -0.3350 H     1 <1>   0.0800 
 27 H       -0.2470    -2.9370     0.5960 H     1 <1>   0.0800 
 28 H       -1.5730    -3.0820    -0.4960 H     1 <1>   0.0800 
 29 H        0.5960     0.0150     0.2840 H     1 <1>   0.0800 
 30 H        1.2410     0.0370    -1.3190 H     1 <1>   0.0800 
 31 H        0.6030    -1.7490    -2.9950 H     1 <1>   0.0800 
 32 H       -0.4840    -3.0190    -2.5330 H     1 <1>   0.0800 
 33 H       -3.4970    -1.2060    -0.3590 H     1 <1>   0.0800 
 34 H       -3.2960     0.0150     0.8520 H     1 <1>   0.0800 
 35 H        1.7400    -2.0800     0.7770 H     1 <1>   0.0800 
 36 H        2.8530    -0.8200     0.3020 H     1 <1>   0.0800 
 37 H        1.8460    -3.7920    -2.5270 H     1 <1>   0.0800 
 38 H        1.1470    -3.8880    -0.9290 H     1 <1>   0.0800 
 39 H       -1.6420    -0.4530     2.5120 H     1 <1>   0.4000 
 40 H       -3.3270    -3.1570     1.2440 H     1 <1>   0.0800 
 41 H       -3.3250    -1.9820     2.5260 H     1 <1>   0.0800 
 42 H       -2.0500    -3.1830     2.4280 H     1 <1>   0.0800 
 43 H        2.8290    -1.6990    -1.9420 H     1 <1>   0.4500 
 44 H        3.9880    -3.8300    -1.5720 H     1 <1>   0.0800 
 45 H        3.5030    -3.7280     0.1030 H     1 <1>   0.0800 
 46 H        4.8280    -1.6520     0.3620 H     1 <1>   0.0800 
 47 H        5.2890    -1.7480    -1.3500 H     1 <1>   0.0800 
 48 H        6.9250    -0.6540    -0.1510 H     1 <1>   0.1500 
 49 H        6.9700    -5.4140     0.1260 H     1 <1>   0.0800 
 50 H        7.5210    -5.4620     1.7800 H     1 <1>   0.0800 
 51 H        8.6220    -5.7830     0.4600 H     1 <1>   0.0800 
 52 H        9.1090     0.0420     0.6330 H     1 <1>   0.1500 
 53 H       10.6950    -1.5960     1.4940 H     1 <1>   0.1500 
 54 H        9.9870    -4.8740     2.5030 H     1 <1>   0.0800 
 55 H       11.2570    -3.7260     2.1970 H     1 <1>   0.0800 
 56 H       10.8140    -4.8680     0.9580 H     1 <1>   0.0800 
@<TRIPOS>BOND
  1   1   2  1   
  2   1   3  1   
  3   2   4  1   
  4   2   5  1   
  5   2   6  1   
  6   3   7  1   
  7   3  25  1   
  8   3  26  1   
  9   4   8  1   
 10   4  27  1   
 11   4  28  1   
 12   5   9  1   
 13   5  29  1   
 14   5  30  1   
 15   6  10  1   
 16   6  31  1   
 17   6  32  1   
 18   7   8  1   
 19   7  33  1   
 20   7  34  1   
 21   8  11  1   
 22   8  12  1   
 23   9  13  1   
 24   9  35  1   
 25   9  36  1   
 26  10  13  1   
 27  10  37  1   
 28  10  38  1   
 29  11  39  1   
 30  12  40  1   
 31  12  41  1   
 32  12  42  1   
 33  13  14  1   
 34  13  43  1   
 35  14  15  1   
 36  14  44  1   
 37  14  45  1   
 38  15  16  1   
 39  15  46  1   
 40  15  47  1   
 41  16  17  1   
 42  17  18  ar  
 43  17  19  ar  
 44  18  20  ar  
 45  18  21  1   
 46  19  22  ar  
 47  19  48  1   
 48  20  23  ar  
 49  20  24  1   
 50  21  49  1   
 51  21  50  1   
 52  21  51  1   
 53  22  23  ar  
 54  22  52  1   
 55  23  53  1   
 56  24  54  1   
 57  24  55  1   
 58  24  56  1   
@<TRIPOS>SUBSTRUCTURE
  1 ****  14 GROUP 4 **** **** 0

# MOE 2024.06 (io_trps.svl 2023.06)
