@<TRIPOS>MOLECULE
NONAME
51 52 1 0 0 
SMALL
USER_CHARGES


@<TRIPOS>ATOM
  1 CL       1.5060    -6.0960     0.1500 Cl    1 <1>  -0.1770 
  2 C        0.0620    -5.2330     0.6360 C.ar  1 <1>   0.1770 
  3 C       -1.1540    -5.4400    -0.0050 C.ar  1 <1>  -0.1440 
  4 C        0.1940    -4.3390     1.6820 C.ar  1 <1>  -0.1500 
  5 C       -2.2650    -4.7070     0.4230 C.ar  1 <1>   0.1170 
  6 C       -1.2930    -6.4420    -1.1550 C.3   1 <1>  -0.0970 
  7 C       -0.9080    -3.6210     2.1050 C.ar  1 <1>  -0.1500 
  8 N       -3.4980    -4.8800    -0.2240 N.am  1 <1>  -0.5470 
  9 C       -2.1240    -3.8060     1.4760 C.ar  1 <1>  -0.1500 
 10 C       -4.7830    -4.7610     0.2250 C.2   1 <1>   0.5690 
 11 O       -5.0850    -4.4130     1.3390 O.2   1 <1>  -0.5700 
 12 C       -5.8850    -5.1300    -0.7270 C.3   1 <1>  -0.0380 
 13 C       -5.6230    -6.5450    -1.1650 C.2   1 <1>   0.5690 
 14 O       -4.8880    -6.6980    -2.1120 O.2   1 <1>  -0.5700 
 15 N       -6.1450    -7.6050    -0.4800 N.am  1 <1>  -0.6600 
 16 C       -6.8560    -7.5600     0.8270 C.3   1 <1>   0.1400 
 17 C       -5.8420    -9.0120    -0.8480 C.3   1 <1>   0.1400 
 18 C       -6.5310    -8.9030     1.4760 C.3   1 <1>   0.2000 
 19 C       -6.4230    -9.8640     0.2890 C.3   1 <1>  -0.0800 
 20 O       -5.2940    -8.8000     2.0960 O.3   1 <1>  -0.6800 
 21 C       -5.6230   -11.1490     0.5860 C.3   1 <1>  -0.0550 
 22 S       -5.6160   -12.3050    -0.7810 S.o2  1 <1>   1.3330 
 23 O       -4.8180   -11.7600    -1.8560 O.2   1 <1>  -0.6500 
 24 O       -6.9860   -12.6910    -1.0310 O.2   1 <1>  -0.6500 
 25 N       -4.7890   -13.6440    -0.1460 N.am  1 <1>  -0.8490 
 26 C       -3.3300   -13.4990    -0.1810 C.3   1 <1>   0.1160 
 27 C       -5.1810   -14.8960    -0.8000 C.3   1 <1>   0.1160 
 28 H        1.1500    -4.2080     2.1560 H     1 <1>   0.1500 
 29 H       -2.1510    -7.0730    -1.0030 H     1 <1>   0.0800 
 30 H       -0.4390    -7.0880    -1.2400 H     1 <1>   0.0800 
 31 H       -1.4090    -5.9180    -2.0870 H     1 <1>   0.0800 
 32 H       -0.8220    -2.9210     2.9190 H     1 <1>   0.1500 
 33 H       -3.4250    -5.3220    -1.1470 H     1 <1>   0.3700 
 34 H       -2.9740    -3.2370     1.8080 H     1 <1>   0.1500 
 35 H       -5.8610    -4.4750    -1.5760 H     1 <1>   0.0800 
 36 H       -6.8430    -5.0420    -0.2530 H     1 <1>   0.0800 
 37 H       -6.5370    -6.7380     1.4470 H     1 <1>   0.0800 
 38 H       -7.9150    -7.4880     0.6470 H     1 <1>   0.0800 
 39 H       -6.2880    -9.2600    -1.7970 H     1 <1>   0.0800 
 40 H       -4.7740    -9.1350    -0.9190 H     1 <1>   0.0800 
 41 H       -7.2580    -9.2080     2.2100 H     1 <1>   0.0800 
 42 H       -7.4220   -10.1450     0.0030 H     1 <1>   0.0800 
 43 H       -4.6960    -8.2650     1.5350 H     1 <1>   0.4000 
 44 H       -6.0560   -11.6310     1.4410 H     1 <1>   0.0800 
 45 H       -4.6120   -10.8940     0.8360 H     1 <1>   0.0800 
 46 H       -2.8640   -14.3370     0.3090 H     1 <1>   0.0800 
 47 H       -3.0330   -12.6000     0.3310 H     1 <1>   0.0800 
 48 H       -2.9800   -13.4490    -1.1990 H     1 <1>   0.0800 
 49 H       -4.6540   -15.7270    -0.3630 H     1 <1>   0.0800 
 50 H       -4.9630   -14.8510    -1.8550 H     1 <1>   0.0800 
 51 H       -6.2370   -15.0640    -0.6720 H     1 <1>   0.0800 
@<TRIPOS>BOND
  1   1   2  1   
  2   2   3  ar  
  3   2   4  ar  
  4   3   5  ar  
  5   3   6  1   
  6   4   7  ar  
  7   4  28  1   
  8   5   8  1   
  9   5   9  ar  
 10   6  29  1   
 11   6  30  1   
 12   6  31  1   
 13   7   9  ar  
 14   7  32  1   
 15   8  10  am  
 16   8  33  1   
 17   9  34  1   
 18  10  11  2   
 19  10  12  1   
 20  12  13  1   
 21  12  35  1   
 22  12  36  1   
 23  13  14  2   
 24  13  15  am  
 25  15  16  1   
 26  15  17  1   
 27  16  18  1   
 28  16  37  1   
 29  16  38  1   
 30  17  19  1   
 31  17  39  1   
 32  17  40  1   
 33  18  19  1   
 34  18  20  1   
 35  18  41  1   
 36  19  21  1   
 37  19  42  1   
 38  20  43  1   
 39  21  22  1   
 40  21  44  1   
 41  21  45  1   
 42  22  23  2   
 43  22  24  2   
 44  22  25  am  
 45  25  26  1   
 46  25  27  1   
 47  26  46  1   
 48  26  47  1   
 49  26  48  1   
 50  27  49  1   
 51  27  50  1   
 52  27  51  1   
@<TRIPOS>SUBSTRUCTURE
  1 ****  15 GROUP 4 **** **** 0

# MOE 2024.06 (io_trps.svl 2023.06)
