@<TRIPOS>MOLECULE
NONAME
51 54 1 0 0 
SMALL
USER_CHARGES


@<TRIPOS>ATOM
  1 O        0.6820     0.0910    -0.1290 O.2   1 <1>  -0.5700 
  2 C        1.6330    -0.6130     0.1640 C.2   1 <1>   0.7160 
  3 N        2.8470    -0.0100     0.4250 N.am  1 <1>  -0.6600 
  4 C        1.4650    -2.0460     0.2260 C.2   1 <1>  -0.0860 
  5 C        4.0190    -0.7090     1.0340 C.3   1 <1>   0.1400 
  6 C        3.0490     1.4510     0.2420 C.3   1 <1>   0.1400 
  7 C        0.4330    -2.7300     0.8810 C.2   1 <1>   0.1080 
  8 C        2.2070    -3.0590    -0.3070 C.2   1 <1>  -0.3020 
  9 C        5.1710    -0.8770     0.0330 C.3   1 <1>   0.1400 
 10 C        3.5470     1.7520    -1.1750 C.3   1 <1>  -0.1600 
 11 N        0.5350    -4.0160     0.7790 N.2   1 <1>  -0.7070 
 12 C       -0.7000    -2.0740     1.6400 C.3   1 <1>  -0.0590 
 13 N        1.6310    -4.2190     0.0380 N.pl3 1 <1>   0.3140 
 14 N        5.6170     0.4300    -0.5550 N.am  1 <1>  -0.6600 
 15 C        4.7410     0.9140    -1.6650 C.3   1 <1>   0.1400 
 16 C        2.0660    -5.5740    -0.3160 C.3   1 <1>   0.0160 
 17 C        6.8000     1.0050    -0.1450 C.2   1 <1>   0.5690 
 18 O        7.4650     0.4770     0.7170 O.2   1 <1>  -0.5700 
 19 C        7.3370     2.2810    -0.8100 C.3   1 <1>  -0.0190 
 20 C        8.7120     2.7770    -0.3010 C.3   1 <1>   0.0580 
 21 C        6.4550     3.5590    -0.6610 C.3   1 <1>  -0.1600 
 22 C        8.5700     3.1830     1.1570 C.2   1 <1>  -0.2880 
 23 C        8.7260     4.1750    -0.9150 C.3   1 <1>  -0.1600 
 24 C        7.4540     4.6450    -0.2160 C.3   1 <1>   0.0580 
 25 C        7.8310     4.2870     1.2050 C.2   1 <1>  -0.2880 
 26 H        4.3750    -0.1440     1.8780 H     1 <1>   0.0800 
 27 H        3.7290    -1.6750     1.4050 H     1 <1>   0.0800 
 28 H        2.1260     1.9770     0.4200 H     1 <1>   0.0800 
 29 H        3.7670     1.8090     0.9610 H     1 <1>   0.0800 
 30 H        3.0920    -3.0000    -0.9100 H     1 <1>   0.1500 
 31 H        4.8640    -1.5380    -0.7560 H     1 <1>   0.0800 
 32 H        5.9910    -1.3570     0.5370 H     1 <1>   0.0800 
 33 H        2.7300     1.6120    -1.8600 H     1 <1>   0.0800 
 34 H        3.8010     2.7930    -1.2240 H     1 <1>   0.0800 
 35 H       -0.3110    -1.3500     2.3320 H     1 <1>   0.0800 
 36 H       -1.2560    -2.8150     2.1840 H     1 <1>   0.0800 
 37 H       -1.3580    -1.5810     0.9480 H     1 <1>   0.0800 
 38 H        5.3120     1.4810    -2.3770 H     1 <1>   0.0800 
 39 H        4.3560     0.0560    -2.1910 H     1 <1>   0.0800 
 40 H        2.9480    -5.5250    -0.9240 H     1 <1>   0.0800 
 41 H        1.2750    -6.0600    -0.8570 H     1 <1>   0.0800 
 42 H        2.2700    -6.1190     0.5860 H     1 <1>   0.0800 
 43 H        7.4520     2.0600    -1.8550 H     1 <1>   0.0800 
 44 H        9.5650     2.1630    -0.5340 H     1 <1>   0.0800 
 45 H        6.0060     3.8230    -1.6020 H     1 <1>   0.0800 
 46 H        5.6920     3.4300     0.0870 H     1 <1>   0.0800 
 47 H        9.0120     2.5840     1.9350 H     1 <1>   0.1500 
 48 H        9.5890     4.7430    -0.6080 H     1 <1>   0.0800 
 49 H        8.6450     4.1740    -1.9880 H     1 <1>   0.0800 
 50 H        7.1780     5.6720    -0.3830 H     1 <1>   0.0800 
 51 H        7.4860     4.8740     2.0380 H     1 <1>   0.1500 
@<TRIPOS>BOND
  1   1   2  2   
  2   2   3  am  
  3   2   4  1   
  4   3   5  1   
  5   3   6  1   
  6   4   7  1   
  7   4   8  2   
  8   5   9  1   
  9   5  26  1   
 10   5  27  1   
 11   6  10  1   
 12   6  28  1   
 13   6  29  1   
 14   7  11  2   
 15   7  12  1   
 16   8  13  1   
 17   8  30  1   
 18   9  14  1   
 19   9  31  1   
 20   9  32  1   
 21  10  15  1   
 22  10  33  1   
 23  10  34  1   
 24  11  13  1   
 25  12  35  1   
 26  12  36  1   
 27  12  37  1   
 28  13  16  1   
 29  14  15  1   
 30  14  17  am  
 31  15  38  1   
 32  15  39  1   
 33  16  40  1   
 34  16  41  1   
 35  16  42  1   
 36  17  18  2   
 37  17  19  1   
 38  19  20  1   
 39  19  21  1   
 40  19  43  1   
 41  20  22  1   
 42  20  23  1   
 43  20  44  1   
 44  21  24  1   
 45  21  45  1   
 46  21  46  1   
 47  22  25  2   
 48  22  47  1   
 49  23  24  1   
 50  23  48  1   
 51  23  49  1   
 52  24  25  1   
 53  24  50  1   
 54  25  51  1   
@<TRIPOS>SUBSTRUCTURE
  1 ****   9 GROUP 4 **** **** 0

# MOE 2024.06 (io_trps.svl 2023.06)
