@<TRIPOS>MOLECULE
NONAME
46 48 1 0 0 
SMALL
USER_CHARGES


@<TRIPOS>ATOM
  1 O        1.5990    -0.1100     0.8490 O.2   1 <1>  -0.5700 
  2 C        2.4410    -0.9340     0.5810 C.2   1 <1>   0.5690 
  3 N        3.7710    -0.6300     0.7220 N.am  1 <1>  -0.6600 
  4 C        2.0020    -2.2920     0.0410 C.3   1 <1>  -0.0990 
  5 C        4.1940     0.4890     1.6300 C.3   1 <1>   0.1400 
  6 C        4.8770    -1.2850    -0.0360 C.3   1 <1>   0.1400 
  7 C        0.5430    -2.6530     0.3780 C.3   1 <1>  -0.1600 
  8 C        4.8390     1.7190     0.9330 C.3   1 <1>   0.4230 
  9 C        5.4920    -0.3140    -1.0700 C.3   1 <1>  -0.0800 
 10 C        0.1580    -4.0490    -0.1340 C.3   1 <1>   0.0210 
 11 N        4.4110     1.9720    -0.5010 N.4   1 <1>  -0.9590 
 12 C        6.3790     1.7070     1.0630 C.3   1 <1>   0.1200 
 13 C        6.8950     0.1800    -0.6840 C.3   1 <1>   0.1200 
 14 C        4.5300     0.8210    -1.4650 C.3   1 <1>   0.3430 
 15 C       -1.2830    -4.4040     0.1900 C.2   1 <1>  -0.1810 
 16 C        3.0000     2.4780    -0.5240 C.3   1 <1>   0.2630 
 17 O        6.9520     0.5010     0.6660 O.3   1 <1>  -0.5600 
 18 C       -1.9090    -5.6050    -0.1340 C.2   1 <1>   0.1390 
 19 C       -2.2370    -3.6890     0.8260 C.2   1 <1>  -0.3020 
 20 N       -3.1450    -5.6440     0.2620 N.2   1 <1>  -0.7070 
 21 N       -3.3460    -4.4530     0.8570 N.pl3 1 <1>   0.3000 
 22 H        2.1290    -2.2920    -1.0250 H     1 <1>   0.0800 
 23 H        2.6430    -3.0460     0.4620 H     1 <1>   0.0800 
 24 H        3.3420     0.8370     2.1880 H     1 <1>   0.0800 
 25 H        4.8800     0.0950     2.3610 H     1 <1>   0.0800 
 26 H        5.6270    -1.6370     0.6540 H     1 <1>   0.0800 
 27 H        4.5040    -2.1480    -0.5580 H     1 <1>   0.0800 
 28 H        0.4060    -2.6200     1.4460 H     1 <1>   0.0800 
 29 H       -0.1160    -1.9240    -0.0630 H     1 <1>   0.0800 
 30 H        4.5280     2.5750     1.5070 H     1 <1>   0.0800 
 31 H        5.6340    -0.8930    -1.9660 H     1 <1>   0.0800 
 32 H        0.8020    -4.7870     0.3130 H     1 <1>   0.0800 
 33 H        0.2900    -4.0910    -1.2010 H     1 <1>   0.0800 
 34 H        5.0160     2.7230    -0.8550 H     1 <1>   0.4500 
 35 H        6.6390     1.8360     2.0990 H     1 <1>   0.0800 
 36 H        6.8300     2.5110     0.5090 H     1 <1>   0.0800 
 37 H        7.2120     1.0260    -1.2710 H     1 <1>   0.0800 
 38 H        7.6060    -0.6160    -0.8350 H     1 <1>   0.0800 
 39 H        3.5550     0.3810    -1.6010 H     1 <1>   0.0800 
 40 H        4.8330     1.2080    -2.4250 H     1 <1>   0.0800 
 41 H        2.3240     1.7220    -0.1640 H     1 <1>   0.0800 
 42 H        2.7110     2.7420    -1.5280 H     1 <1>   0.0800 
 43 H        2.9000     3.3490     0.1020 H     1 <1>   0.0800 
 44 H       -1.4330    -6.4200    -0.6540 H     1 <1>   0.1500 
 45 H       -2.1950    -2.7020     1.2490 H     1 <1>   0.1500 
 46 H       -4.2480    -4.1940     1.2730 H     1 <1>   0.2700 
@<TRIPOS>BOND
  1   1   2  2   
  2   2   3  am  
  3   2   4  1   
  4   3   5  1   
  5   3   6  1   
  6   4   7  1   
  7   4  22  1   
  8   4  23  1   
  9   5   8  1   
 10   5  24  1   
 11   5  25  1   
 12   6   9  1   
 13   6  26  1   
 14   6  27  1   
 15   7  10  1   
 16   7  28  1   
 17   7  29  1   
 18   8  11  1   
 19   8  12  1   
 20   8  30  1   
 21   9  13  1   
 22   9  14  1   
 23   9  31  1   
 24  10  15  1   
 25  10  32  1   
 26  10  33  1   
 27  11  14  1   
 28  11  16  1   
 29  11  34  1   
 30  12  17  1   
 31  12  35  1   
 32  12  36  1   
 33  13  17  1   
 34  13  37  1   
 35  13  38  1   
 36  14  39  1   
 37  14  40  1   
 38  15  18  1   
 39  15  19  2   
 40  16  41  1   
 41  16  42  1   
 42  16  43  1   
 43  18  20  2   
 44  18  44  1   
 45  19  21  1   
 46  19  45  1   
 47  20  21  1   
 48  21  46  1   
@<TRIPOS>SUBSTRUCTURE
  1 ****   2 GROUP 4 **** **** 0

# MOE 2024.06 (io_trps.svl 2023.06)
