@<TRIPOS>MOLECULE
NONAME
32 33 1 0 0 
SMALL
USER_CHARGES


@<TRIPOS>ATOM
  1 O       -1.2520     0.8910     0.8360 O.co2 1 <1>  -0.9000 
  2 C       -1.9920     1.8740     1.0070 C.2   1 <1>   0.9060 
  3 O       -3.0370     1.7830     1.6670 O.co2 1 <1>  -0.9000 
  4 C       -1.5520     3.2630     0.5090 C.3   1 <1>   0.0940 
  5 O       -1.8710     3.5380    -0.8530 O.3   1 <1>  -0.5600 
  6 C       -0.0380     3.4300     0.7320 C.3   1 <1>   0.1100 
  7 C       -1.4850     4.8130    -1.2660 C.3   1 <1>   0.1200 
  8 N        0.4390     4.7690     0.3100 N.3   1 <1>  -0.8100 
  9 C        0.0330     4.9930    -1.0940 C.3   1 <1>   0.1100 
 10 C        1.9050     4.8590     0.4540 C.3   1 <1>   0.2900 
 11 C        2.3390     6.3110     0.4110 C.2   1 <1>   0.0070 
 12 N        3.4400     6.7790    -0.0680 N.2   1 <1>  -0.3380 
 13 N        1.5680     7.2810     0.8910 N.pl3 1 <1>   0.0330 
 14 N        3.4000     8.1060     0.0960 N.2   1 <1>  -0.3380 
 15 C        2.2770     8.3850     0.6650 C.2   1 <1>   0.0060 
 16 C        1.8080     9.7800     1.0340 C.3   1 <1>   0.0200 
 17 C        0.5190    10.1530     0.2940 C.3   1 <1>  -0.2400 
 18 H       -2.0750     3.9790     1.1130 H     1 <1>   0.0800 
 19 H        0.4730     2.6580     0.1800 H     1 <1>   0.0800 
 20 H        0.1710     3.2800     1.7770 H     1 <1>   0.0800 
 21 H       -2.0240     5.5400    -0.6850 H     1 <1>   0.0800 
 22 H       -1.7590     4.9160    -2.3000 H     1 <1>   0.0800 
 23 H        0.3070     5.9870    -1.4000 H     1 <1>   0.0800 
 24 H        0.5350     4.2930    -1.7410 H     1 <1>   0.0800 
 25 H        2.3990     4.2990    -0.3210 H     1 <1>   0.0800 
 26 H        2.1980     4.4500     1.4060 H     1 <1>   0.0800 
 27 H        0.6390     7.1470     1.2970 H     1 <1>   0.2700 
 28 H        2.5820    10.4840     0.7770 H     1 <1>   0.0800 
 29 H        1.6530     9.8340     2.0960 H     1 <1>   0.0800 
 30 H        0.6780    10.0960    -0.7690 H     1 <1>   0.0800 
 31 H        0.2300    11.1590     0.5440 H     1 <1>   0.0800 
 32 H       -0.2810     9.4870     0.5630 H     1 <1>   0.0800 
@<TRIPOS>BOND
  1   1   2  ar  
  2   2   3  ar  
  3   2   4  1   
  4   4   5  1   
  5   4   6  1   
  6   4  18  1   
  7   5   7  1   
  8   6   8  1   
  9   6  19  1   
 10   6  20  1   
 11   7   9  1   
 12   7  21  1   
 13   7  22  1   
 14   8   9  1   
 15   8  10  1   
 16   9  23  1   
 17   9  24  1   
 18  10  11  1   
 19  10  25  1   
 20  10  26  1   
 21  11  12  2   
 22  11  13  1   
 23  12  14  1   
 24  13  15  1   
 25  13  27  1   
 26  14  15  2   
 27  15  16  1   
 28  16  17  1   
 29  16  28  1   
 30  16  29  1   
 31  17  30  1   
 32  17  31  1   
 33  17  32  1   
@<TRIPOS>SUBSTRUCTURE
  1 ****   8 GROUP 4 **** **** 0

# MOE 2024.06 (io_trps.svl 2023.06)
