@<TRIPOS>MOLECULE
NONAME
49 52 1 0 0 
SMALL
USER_CHARGES


@<TRIPOS>ATOM
  1 O        1.2190    -0.7710     2.2740 O.2   1 <1>  -0.5700 
  2 C        1.2240    -1.0920     1.1080 C.2   1 <1>   0.6300 
  3 N        1.3510    -0.1730     0.1150 N.am  1 <1>  -0.7300 
  4 C        1.1030    -2.5660     0.7130 C.3   1 <1>   0.0320 
  5 C        1.5020     1.2800     0.3100 C.3   1 <1>   0.1400 
  6 C       -0.2290    -2.8680     0.0380 C.ar  1 <1>  -0.0320 
  7 C        2.3440    -3.3350     0.3280 C.3   1 <1>  -0.1900 
  8 C        1.6690    -3.6200     1.6320 C.3   1 <1>  -0.2000 
  9 C        2.8980     1.6930    -0.1480 C.3   1 <1>  -0.1600 
 10 C       -1.3410    -3.1610     0.8110 C.ar  1 <1>  -0.1500 
 11 C       -0.3550    -2.8380    -1.3440 C.ar  1 <1>  -0.1500 
 12 C        2.4130    -4.4950    -0.6610 C.3   1 <1>  -0.0650 
 13 C        3.7540    -2.7400     0.4000 C.3   1 <1>  -0.0650 
 14 C        3.1380     3.1840     0.1120 C.3   1 <1>   0.0960 
 15 C       -2.5610    -3.4280     0.2150 C.ar  1 <1>  -0.1500 
 16 C       -1.5730    -3.1060    -1.9440 C.ar  1 <1>  -0.1500 
 17 C        3.8220    -5.0420    -0.4590 C.3   1 <1>  -0.1600 
 18 C        4.6910    -3.8180    -0.1590 C.3   1 <1>  -0.1600 
 19 N        4.4610     3.5930    -0.3930 N.pl3 1 <1>   0.3140 
 20 C       -2.6770    -3.4020    -1.1640 C.ar  1 <1>  -0.1500 
 21 N        4.6350     4.0230    -1.6560 N.2   1 <1>  -0.7070 
 22 C        5.6240     3.5940     0.2880 C.2   1 <1>  -0.3020 
 23 C        5.9020     4.2890    -1.7460 C.2   1 <1>   0.1390 
 24 C        6.5770     4.0390    -0.5570 C.2   1 <1>  -0.1500 
 25 H        1.3140    -0.5020    -0.8500 H     1 <1>   0.3700 
 26 H        1.3680     1.5230     1.3520 H     1 <1>   0.0800 
 27 H        0.7470     1.7970    -0.2590 H     1 <1>   0.0800 
 28 H        1.1160    -4.5340     1.7540 H     1 <1>   0.1000 
 29 H        2.1170    -3.2930     2.5540 H     1 <1>   0.1000 
 30 H        2.9990     1.4990    -1.2020 H     1 <1>   0.0800 
 31 H        3.6310     1.1180     0.3910 H     1 <1>   0.0800 
 32 H       -1.2550    -3.1760     1.8840 H     1 <1>   0.1500 
 33 H        0.4970    -2.6070    -1.9560 H     1 <1>   0.1500 
 34 H        2.3180    -4.1210    -1.6650 H     1 <1>   0.0800 
 35 H        1.6580    -5.2430    -0.4880 H     1 <1>   0.0800 
 36 H        4.0220    -2.4740     1.4090 H     1 <1>   0.0800 
 37 H        3.8120    -1.8600    -0.2160 H     1 <1>   0.0800 
 38 H        3.0920     3.3950     1.1650 H     1 <1>   0.0800 
 39 H        2.3940     3.7740    -0.3930 H     1 <1>   0.0800 
 40 H       -3.4190    -3.6550     0.8240 H     1 <1>   0.1500 
 41 H       -1.6640    -3.0850    -3.0160 H     1 <1>   0.1500 
 42 H        4.1700    -5.5880    -1.3190 H     1 <1>   0.0800 
 43 H        3.8220    -5.6960     0.3970 H     1 <1>   0.0800 
 44 H        5.4710    -4.0610     0.5420 H     1 <1>   0.0800 
 45 H        5.1400    -3.4610    -1.0700 H     1 <1>   0.0800 
 46 H       -3.6260    -3.6100    -1.6280 H     1 <1>   0.1500 
 47 H        5.7070     3.2840     1.3140 H     1 <1>   0.1500 
 48 H        6.3670     4.6600    -2.6440 H     1 <1>   0.1500 
 49 H        7.6280     4.1800    -0.3830 H     1 <1>   0.1500 
@<TRIPOS>BOND
  1   1   2  2   
  2   2   3  am  
  3   2   4  1   
  4   3   5  1   
  5   3  25  1   
  6   4   6  1   
  7   4   7  1   
  8   4   8  1   
  9   5   9  1   
 10   5  26  1   
 11   5  27  1   
 12   6  10  ar  
 13   6  11  ar  
 14   7   8  1   
 15   7  12  1   
 16   7  13  1   
 17   8  28  1   
 18   8  29  1   
 19   9  14  1   
 20   9  30  1   
 21   9  31  1   
 22  10  15  ar  
 23  10  32  1   
 24  11  16  ar  
 25  11  33  1   
 26  12  17  1   
 27  12  34  1   
 28  12  35  1   
 29  13  18  1   
 30  13  36  1   
 31  13  37  1   
 32  14  19  1   
 33  14  38  1   
 34  14  39  1   
 35  15  20  ar  
 36  15  40  1   
 37  16  20  ar  
 38  16  41  1   
 39  17  18  1   
 40  17  42  1   
 41  17  43  1   
 42  18  44  1   
 43  18  45  1   
 44  19  21  1   
 45  19  22  1   
 46  20  46  1   
 47  21  23  2   
 48  22  24  2   
 49  22  47  1   
 50  23  24  1   
 51  23  48  1   
 52  24  49  1   
@<TRIPOS>SUBSTRUCTURE
  1 ****   3 GROUP 4 **** **** 0

# MOE 2024.06 (io_trps.svl 2023.06)
