@<TRIPOS>MOLECULE
NONAME
57 59 1 0 0 
SMALL
USER_CHARGES


@<TRIPOS>ATOM
  1 S        2.2890    -2.2950     0.9150 S.3   1 <1>  -0.0800 
  2 C        0.7230    -1.9080     0.2040 C.2   1 <1>   0.2930 
  3 C        2.7900    -0.6470     0.7360 C.2   1 <1>  -0.1100 
  4 N        0.6400    -0.6540    -0.1160 N.2   1 <1>  -0.5650 
  5 C       -0.2370    -3.0000     0.0660 C.2   1 <1>   0.7150 
  6 C        1.7910     0.0530     0.1770 C.2   1 <1>   0.0460 
  7 O        0.1410    -4.1560     0.1810 O.2   1 <1>  -0.5700 
  8 N       -1.5880    -2.8070    -0.1950 N.am  1 <1>  -0.6600 
  9 C        1.7950     1.5420    -0.1660 C.3   1 <1>   0.1010 
 10 C       -2.4160    -3.9400    -0.7110 C.3   1 <1>   0.1400 
 11 C       -2.2790    -1.5030     0.0360 C.3   1 <1>   0.1400 
 12 C        1.8350     1.7410    -1.6860 C.3   1 <1>  -0.2400 
 13 C        2.9640     2.2930     0.4860 C.3   1 <1>  -0.2400 
 14 C       -3.0290    -4.7500     0.4380 C.3   1 <1>   0.1400 
 15 C       -3.6930    -1.6390     0.6160 C.3   1 <1>  -0.1600 
 16 N       -4.1550    -4.0210     1.1040 N.am  1 <1>  -0.6600 
 17 C       -3.8180    -2.7040     1.7110 C.3   1 <1>   0.1400 
 18 C       -5.4620    -4.4690     1.0570 C.2   1 <1>   0.7160 
 19 O       -6.3600    -3.7010     1.3510 O.2   1 <1>  -0.5700 
 20 C       -5.7800    -5.8150     0.6440 C.2   1 <1>  -0.0860 
 21 C       -5.3790    -6.9930     1.2830 C.2   1 <1>   0.1080 
 22 C       -6.5010    -6.2660    -0.4220 C.2   1 <1>  -0.3320 
 23 N       -5.7800    -8.0580     0.6710 N.2   1 <1>  -0.7070 
 24 C       -4.5670    -7.0750     2.5580 C.3   1 <1>  -0.0590 
 25 N       -6.4860    -7.6120    -0.3810 N.pl3 1 <1>   0.3140 
 26 C       -7.2120    -5.4350    -1.4800 C.3   1 <1>  -0.0600 
 27 C       -7.1310    -8.5590    -1.3150 C.3   1 <1>   0.0960 
 28 C       -8.5640    -8.8820    -0.8750 C.3   1 <1>  -0.2400 
 29 H        3.7770    -0.3820     1.0660 H     1 <1>   0.1500 
 30 H        0.8790     1.9650     0.2090 H     1 <1>   0.0800 
 31 H       -1.7890    -4.5940    -1.2930 H     1 <1>   0.0800 
 32 H       -3.1900    -3.5750    -1.3640 H     1 <1>   0.0800 
 33 H       -2.3160    -0.9540    -0.8900 H     1 <1>   0.0800 
 34 H       -1.7050    -0.9230     0.7370 H     1 <1>   0.0800 
 35 H        2.7310     1.3100    -2.0960 H     1 <1>   0.0800 
 36 H        1.8060     2.7870    -1.9310 H     1 <1>   0.0800 
 37 H        0.9870     1.2600    -2.1420 H     1 <1>   0.0800 
 38 H        3.9050     1.9300     0.1130 H     1 <1>   0.0800 
 39 H        2.9380     2.1620     1.5540 H     1 <1>   0.0800 
 40 H        2.8940     3.3450     0.2730 H     1 <1>   0.0800 
 41 H       -2.2680    -4.9820     1.1620 H     1 <1>   0.0800 
 42 H       -3.3760    -5.6810     0.0280 H     1 <1>   0.0800 
 43 H       -4.4060    -1.8310    -0.1660 H     1 <1>   0.0800 
 44 H       -3.9560    -0.6880     1.0420 H     1 <1>   0.0800 
 45 H       -4.6000    -2.4170     2.3950 H     1 <1>   0.0800 
 46 H       -2.9050    -2.7820     2.2760 H     1 <1>   0.0800 
 47 H       -4.6920    -6.1840     3.1450 H     1 <1>   0.0800 
 48 H       -3.5280    -7.2020     2.3180 H     1 <1>   0.0800 
 49 H       -4.8950    -7.9190     3.1370 H     1 <1>   0.0800 
 50 H       -7.0890    -4.3850    -1.2790 H     1 <1>   0.0800 
 51 H       -8.2640    -5.6550    -1.4780 H     1 <1>   0.0800 
 52 H       -6.8100    -5.6450    -2.4550 H     1 <1>   0.0800 
 53 H       -6.5430    -9.4590    -1.3320 H     1 <1>   0.0800 
 54 H       -7.1280    -8.1310    -2.2990 H     1 <1>   0.0800 
 55 H       -8.5550    -9.3220     0.1070 H     1 <1>   0.0800 
 56 H       -9.0100    -9.5800    -1.5600 H     1 <1>   0.0800 
 57 H       -9.1620    -7.9880    -0.8550 H     1 <1>   0.0800 
@<TRIPOS>BOND
  1   1   2  1   
  2   1   3  1   
  3   2   4  2   
  4   2   5  1   
  5   3   6  2   
  6   3  29  1   
  7   4   6  1   
  8   5   7  2   
  9   5   8  am  
 10   6   9  1   
 11   8  10  1   
 12   8  11  1   
 13   9  12  1   
 14   9  13  1   
 15   9  30  1   
 16  10  14  1   
 17  10  31  1   
 18  10  32  1   
 19  11  15  1   
 20  11  33  1   
 21  11  34  1   
 22  12  35  1   
 23  12  36  1   
 24  12  37  1   
 25  13  38  1   
 26  13  39  1   
 27  13  40  1   
 28  14  16  1   
 29  14  41  1   
 30  14  42  1   
 31  15  17  1   
 32  15  43  1   
 33  15  44  1   
 34  16  17  1   
 35  16  18  am  
 36  17  45  1   
 37  17  46  1   
 38  18  19  2   
 39  18  20  1   
 40  20  21  1   
 41  20  22  2   
 42  21  23  2   
 43  21  24  1   
 44  22  25  1   
 45  22  26  1   
 46  23  25  1   
 47  24  47  1   
 48  24  48  1   
 49  24  49  1   
 50  25  27  1   
 51  26  50  1   
 52  26  51  1   
 53  26  52  1   
 54  27  28  1   
 55  27  53  1   
 56  27  54  1   
 57  28  55  1   
 58  28  56  1   
 59  28  57  1   
@<TRIPOS>SUBSTRUCTURE
  1 ****  10 GROUP 4 **** **** 0

# MOE 2024.06 (io_trps.svl 2023.06)
