@<TRIPOS>MOLECULE
NONAME
49 52 1 0 0 
SMALL
USER_CHARGES


@<TRIPOS>ATOM
  1 O       -0.1970     2.3330     2.7600 O.2   1 <1>  -0.5700 
  2 C       -0.0410     2.9140     1.6990 C.2   1 <1>   0.6160 
  3 N       -1.1530     3.4110     1.0430 N.am  1 <1>  -0.6600 
  4 C        1.2970     3.1270     1.2340 C.2   1 <1>   0.0290 
  5 C       -2.5390     3.0420     1.4580 C.3   1 <1>   0.1400 
  6 C       -1.1030     4.2570    -0.1800 C.3   1 <1>   0.1400 
  7 C        1.7490     2.4840     0.0410 C.2   1 <1>   0.4690 
  8 C        2.1640     3.9260     1.9270 C.2   1 <1>  -0.0500 
  9 C       -3.2310     2.2330     0.3450 C.3   1 <1>   0.0000 
 10 C       -1.7950     3.5390    -1.3460 C.3   1 <1>  -0.1600 
 11 O        1.0140     1.7430    -0.6010 O.2   1 <1>  -0.5700 
 12 C        3.0990     2.7260    -0.4110 C.ar  1 <1>   0.0860 
 13 N        3.4360     4.1490     1.4950 N.pl3 1 <1>  -0.6000 
 14 C       -4.6490     1.8180     0.7840 C.3   1 <1>   0.2000 
 15 C       -3.2100     3.0550    -0.9760 C.3   1 <1>  -0.1600 
 16 C       -2.5720     0.8550     0.1480 C.3   1 <1>  -0.1600 
 17 C        3.9380     3.5720     0.3330 C.ar  1 <1>   0.1000 
 18 C        3.6140     2.1470    -1.5770 C.ar  1 <1>  -0.1500 
 19 O       -5.5950     2.8040     0.5650 O.3   1 <1>  -0.6800 
 20 C       -5.0000     0.5630    -0.0140 C.3   1 <1>  -0.1600 
 21 C       -3.6590    -0.0470    -0.4450 C.3   1 <1>  -0.1600 
 22 C        5.2490     3.8240    -0.0900 C.ar  1 <1>  -0.1430 
 23 C        4.9030     2.3960    -1.9900 C.ar  1 <1>  -0.1500 
 24 C        5.7190     3.2360    -1.2460 C.ar  1 <1>  -0.1500 
 25 C        6.1690     4.7400     0.7070 C.3   1 <1>  -0.0970 
 26 H       -2.5260     2.4690     2.3690 H     1 <1>   0.0800 
 27 H       -3.0990     3.9410     1.6500 H     1 <1>   0.0800 
 28 H       -1.6130     5.1830     0.0230 H     1 <1>   0.0800 
 29 H       -0.0890     4.4910    -0.4500 H     1 <1>   0.0800 
 30 H        1.8510     4.3980     2.8450 H     1 <1>   0.1500 
 31 H       -1.8550     4.2100    -2.1840 H     1 <1>   0.0800 
 32 H       -1.1870     2.7080    -1.6550 H     1 <1>   0.0800 
 33 H        4.0750     4.7410     2.0380 H     1 <1>   0.4000 
 34 H       -4.6530     1.5840     1.8360 H     1 <1>   0.0800 
 35 H       -3.6130     2.4770    -1.7880 H     1 <1>   0.0800 
 36 H       -3.8230     3.9310    -0.8590 H     1 <1>   0.0800 
 37 H       -1.6920     0.8830    -0.4690 H     1 <1>   0.0800 
 38 H       -2.2810     0.4610     1.1070 H     1 <1>   0.0800 
 39 H        2.9840     1.4930    -2.1560 H     1 <1>   0.1500 
 40 H       -5.6460     2.9940    -0.3900 H     1 <1>   0.4000 
 41 H       -5.5500    -0.1240     0.6040 H     1 <1>   0.0800 
 42 H       -5.5820     0.8040    -0.8860 H     1 <1>   0.0800 
 43 H       -3.5510    -1.0590    -0.0930 H     1 <1>   0.0800 
 44 H       -3.5870    -0.0450    -1.5190 H     1 <1>   0.0800 
 45 H        5.2820     1.9420    -2.8900 H     1 <1>   0.1500 
 46 H        6.7240     3.4180    -1.5870 H     1 <1>   0.1500 
 47 H        7.1320     4.8230     0.2360 H     1 <1>   0.0800 
 48 H        6.3120     4.3460     1.6980 H     1 <1>   0.0800 
 49 H        5.7420     5.7240     0.7750 H     1 <1>   0.0800 
@<TRIPOS>BOND
  1   1   2  2   
  2   2   3  am  
  3   2   4  1   
  4   3   5  1   
  5   3   6  1   
  6   4   7  1   
  7   4   8  2   
  8   5   9  1   
  9   5  26  1   
 10   5  27  1   
 11   6  10  1   
 12   6  28  1   
 13   6  29  1   
 14   7  11  2   
 15   7  12  1   
 16   8  13  1   
 17   8  30  1   
 18   9  14  1   
 19   9  15  1   
 20   9  16  1   
 21  10  15  1   
 22  10  31  1   
 23  10  32  1   
 24  12  17  ar  
 25  12  18  ar  
 26  13  17  1   
 27  13  33  1   
 28  14  19  1   
 29  14  20  1   
 30  14  34  1   
 31  15  35  1   
 32  15  36  1   
 33  16  21  1   
 34  16  37  1   
 35  16  38  1   
 36  17  22  ar  
 37  18  23  ar  
 38  18  39  1   
 39  19  40  1   
 40  20  21  1   
 41  20  41  1   
 42  20  42  1   
 43  21  43  1   
 44  21  44  1   
 45  22  24  ar  
 46  22  25  1   
 47  23  24  ar  
 48  23  45  1   
 49  24  46  1   
 50  25  47  1   
 51  25  48  1   
 52  25  49  1   
@<TRIPOS>SUBSTRUCTURE
  1 ****   4 GROUP 4 **** **** 0

# MOE 2024.06 (io_trps.svl 2023.06)
