@<TRIPOS>MOLECULE
NONAME
49 50 1 0 0 
SMALL
USER_CHARGES


@<TRIPOS>ATOM
  1 O       -1.0140    -0.5540     0.7670 O.3   1 <1>  -0.5600 
  2 C       -1.0890    -1.5240    -0.2180 C.3   1 <1>   0.1200 
  3 C       -1.4940     0.6990     0.3860 C.3   1 <1>   0.0400 
  4 C       -0.4590    -2.7940     0.3660 C.3   1 <1>   0.3430 
  5 N       -0.6850    -4.0120    -0.4880 N.4   1 <1>  -0.9590 
  6 C       -2.1150    -4.4460    -0.5370 C.3   1 <1>   0.3430 
  7 C        0.1270    -5.1570    -0.0030 C.3   1 <1>   0.3430 
  8 C       -2.1330    -5.9610    -0.2790 C.3   1 <1>  -0.0800 
  9 C       -0.6660    -6.3820    -0.4290 C.3   1 <1>  -0.1600 
 10 C       -3.1460    -6.6800    -1.2020 C.3   1 <1>   0.3430 
 11 N       -3.3350    -8.1480    -0.9400 N.4   1 <1>  -0.9590 
 12 C       -3.7320    -8.4910     0.4650 C.3   1 <1>   0.4860 
 13 C       -2.2130    -9.0170    -1.4330 C.3   1 <1>   0.2630 
 14 C       -4.2390    -9.9170     0.4980 C.ar  1 <1>  -0.1440 
 15 C       -5.5100   -10.2680     0.0430 C.ar  1 <1>   0.1670 
 16 C       -3.4070   -10.9070     0.9910 C.ar  1 <1>  -0.1500 
 17 N       -5.9590   -11.5080     0.0180 N.ar  1 <1>  -0.6200 
 18 C       -6.5240    -9.2620    -0.4790 C.3   1 <1>  -0.0970 
 19 C       -3.8850   -12.1990     0.9800 C.ar  1 <1>  -0.1500 
 20 C       -5.1510   -12.4430     0.4850 C.ar  1 <1>   0.1600 
 21 H       -0.5390    -1.1830    -1.0790 H     1 <1>   0.0800 
 22 H       -2.1270    -1.6690    -0.4600 H     1 <1>   0.0800 
 23 H       -1.3910     1.3670     1.2240 H     1 <1>   0.0800 
 24 H       -2.5330     0.6200     0.1150 H     1 <1>   0.0800 
 25 H       -0.9120     1.0710    -0.4410 H     1 <1>   0.0800 
 26 H       -0.8760    -2.9600     1.3460 H     1 <1>   0.0800 
 27 H        0.5990    -2.6190     0.4790 H     1 <1>   0.0800 
 28 H       -0.3630    -3.7870    -1.4420 H     1 <1>   0.4500 
 29 H       -2.5300    -4.2150    -1.5050 H     1 <1>   0.0800 
 30 H       -2.6940    -3.9360     0.2180 H     1 <1>   0.0800 
 31 H        0.1960    -5.1280     1.0740 H     1 <1>   0.0800 
 32 H        1.1220    -5.1500    -0.4220 H     1 <1>   0.0800 
 33 H       -2.4340    -6.0860     0.7460 H     1 <1>   0.0800 
 34 H       -0.4120    -7.2280     0.1870 H     1 <1>   0.0800 
 35 H       -0.4260    -6.6070    -1.4550 H     1 <1>   0.0800 
 36 H       -2.8410    -6.5470    -2.2290 H     1 <1>   0.0800 
 37 H       -4.1020    -6.1930    -1.0930 H     1 <1>   0.0800 
 38 H       -4.1500    -8.4490    -1.5010 H     1 <1>   0.4500 
 39 H       -4.5100    -7.8300     0.8090 H     1 <1>   0.0800 
 40 H       -2.8880    -8.3920     1.1260 H     1 <1>   0.0800 
 41 H       -1.3340    -8.8890    -0.8250 H     1 <1>   0.0800 
 42 H       -1.9710    -8.7750    -2.4550 H     1 <1>   0.0800 
 43 H       -2.5030   -10.0560    -1.3950 H     1 <1>   0.0800 
 44 H       -2.4220   -10.7040     1.3760 H     1 <1>   0.1500 
 45 H       -6.2590    -8.2430    -0.2810 H     1 <1>   0.0800 
 46 H       -7.4730    -9.4490    -0.0070 H     1 <1>   0.0800 
 47 H       -6.6530    -9.3990    -1.5380 H     1 <1>   0.0800 
 48 H       -3.2890   -13.0140     1.3510 H     1 <1>   0.1500 
 49 H       -5.5200   -13.4560     0.4750 H     1 <1>   0.1500 
@<TRIPOS>BOND
  1   1   2  1   
  2   1   3  1   
  3   2   4  1   
  4   2  21  1   
  5   2  22  1   
  6   3  23  1   
  7   3  24  1   
  8   3  25  1   
  9   4   5  1   
 10   4  26  1   
 11   4  27  1   
 12   5   6  1   
 13   5   7  1   
 14   5  28  1   
 15   6   8  1   
 16   6  29  1   
 17   6  30  1   
 18   7   9  1   
 19   7  31  1   
 20   7  32  1   
 21   8   9  1   
 22   8  10  1   
 23   8  33  1   
 24   9  34  1   
 25   9  35  1   
 26  10  11  1   
 27  10  36  1   
 28  10  37  1   
 29  11  12  1   
 30  11  13  1   
 31  11  38  1   
 32  12  14  1   
 33  12  39  1   
 34  12  40  1   
 35  13  41  1   
 36  13  42  1   
 37  13  43  1   
 38  14  15  ar  
 39  14  16  ar  
 40  15  17  ar  
 41  15  18  1   
 42  16  19  ar  
 43  16  44  1   
 44  17  20  ar  
 45  18  45  1   
 46  18  46  1   
 47  18  47  1   
 48  19  20  ar  
 49  19  48  1   
 50  20  49  1   
@<TRIPOS>SUBSTRUCTURE
  1 ****  10 GROUP 4 **** **** 0

# MOE 2024.06 (io_trps.svl 2023.06)
