@<TRIPOS>MOLECULE
NONAME
57 60 1 0 0 
SMALL
USER_CHARGES


@<TRIPOS>ATOM
  1 O       -2.2100     0.3450    -1.5660 O.2   1 <1>  -0.5700 
  2 C       -2.2460     0.8170    -0.4460 C.2   1 <1>   0.7150 
  3 N       -2.4160    -0.0280     0.6030 N.am  1 <1>  -0.7300 
  4 C       -2.1380     2.2240    -0.1920 C.2   1 <1>  -0.2370 
  5 C       -2.6170    -1.4890     0.5030 C.3   1 <1>   0.2200 
  6 N       -1.7230     3.1670    -1.0830 N.pl3 1 <1>   0.3140 
  7 C       -2.4140     2.9140     0.9510 C.2   1 <1>  -0.1500 
  8 C       -4.1070    -1.7820     0.4810 C.3   1 <1>  -0.0800 
  9 C       -2.1870    -2.1590     1.8020 C.3   1 <1>   0.1200 
 10 N       -1.7300     4.4000    -0.5490 N.2   1 <1>  -0.7070 
 11 C       -1.2680     2.9870    -2.4830 C.3   1 <1>   0.0960 
 12 C       -2.1460     4.2410     0.6700 C.2   1 <1>   0.1080 
 13 C       -4.4590    -1.8120     1.9730 C.3   1 <1>   0.1200 
 14 C       -4.4070    -3.1220    -0.2210 C.3   1 <1>  -0.0160 
 15 O       -3.2690    -2.0360     2.6750 O.3   1 <1>  -0.5600 
 16 C        0.1780     2.4760    -2.5400 C.3   1 <1>  -0.2400 
 17 C       -2.3050     5.4040     1.6410 C.3   1 <1>   0.1010 
 18 C       -5.9070    -3.3780    -0.3260 C.ar  1 <1>  -0.1440 
 19 C       -1.3820     5.2350     2.8540 C.3   1 <1>  -0.2400 
 20 C       -3.7650     5.5490     2.0870 C.3   1 <1>  -0.2400 
 21 C       -6.7270    -2.7000    -1.2600 C.ar  1 <1>   0.0000 
 22 C       -6.5070    -4.2860     0.4960 C.ar  1 <1>  -0.1500 
 23 C       -8.1120    -3.0000    -1.2580 C.ar  1 <1>   0.3100 
 24 C       -6.2580    -1.7470    -2.1960 C.ar  1 <1>  -0.1500 
 25 C       -7.8850    -4.5140     0.4110 C.ar  1 <1>   0.1600 
 26 N       -8.6730    -3.9070    -0.4190 N.ar  1 <1>  -0.6200 
 27 C       -8.9530    -2.3350    -2.1650 C.ar  1 <1>  -0.1500 
 28 C       -7.1050    -1.1180    -3.0670 C.ar  1 <1>  -0.1500 
 29 C       -8.4700    -1.4130    -3.0520 C.ar  1 <1>  -0.1500 
 30 H       -2.5180     0.3610     1.5400 H     1 <1>   0.3700 
 31 H       -2.0910    -1.8790    -0.3520 H     1 <1>   0.0800 
 32 H       -2.7710     2.5390     1.8920 H     1 <1>   0.1500 
 33 H       -4.6480    -0.9970    -0.0160 H     1 <1>   0.0800 
 34 H       -1.3150    -1.7040     2.2370 H     1 <1>   0.0800 
 35 H       -2.0100    -3.2090     1.6480 H     1 <1>   0.0800 
 36 H       -1.9320     2.3110    -2.9880 H     1 <1>   0.0800 
 37 H       -1.3300     3.9410    -2.9760 H     1 <1>   0.0800 
 38 H       -5.1630    -2.5840     2.2250 H     1 <1>   0.0800 
 39 H       -4.8470    -0.8600     2.2900 H     1 <1>   0.0800 
 40 H       -3.9420    -3.9270     0.3200 H     1 <1>   0.0800 
 41 H       -3.9810    -3.1230    -1.2090 H     1 <1>   0.0800 
 42 H        0.2540     1.5080    -2.0760 H     1 <1>   0.0800 
 43 H        0.8330     3.1660    -2.0390 H     1 <1>   0.0800 
 44 H        0.4910     2.3870    -3.5640 H     1 <1>   0.0800 
 45 H       -2.0190     6.3040     1.1220 H     1 <1>   0.0800 
 46 H       -1.6460     4.3560     3.4130 H     1 <1>   0.0800 
 47 H       -1.4530     6.0930     3.4980 H     1 <1>   0.0800 
 48 H       -0.3640     5.1390     2.5220 H     1 <1>   0.0800 
 49 H       -4.0860     4.6770     2.6280 H     1 <1>   0.0800 
 50 H       -4.3950     5.6690     1.2240 H     1 <1>   0.0800 
 51 H       -3.8780     6.4120     2.7170 H     1 <1>   0.0800 
 52 H       -5.9470    -4.8430     1.2260 H     1 <1>   0.1500 
 53 H       -5.2120    -1.5060    -2.2300 H     1 <1>   0.1500 
 54 H       -8.3170    -5.2390     1.0800 H     1 <1>   0.1500 
 55 H       -9.9980    -2.5800    -2.1370 H     1 <1>   0.1500 
 56 H       -6.7330    -0.3930    -3.7710 H     1 <1>   0.1500 
 57 H       -9.1270    -0.9110    -3.7420 H     1 <1>   0.1500 
@<TRIPOS>BOND
  1   1   2  2   
  2   2   3  am  
  3   2   4  1   
  4   3   5  1   
  5   3  30  1   
  6   4   6  1   
  7   4   7  2   
  8   5   8  1   
  9   5   9  1   
 10   5  31  1   
 11   6  10  1   
 12   6  11  1   
 13   7  12  1   
 14   7  32  1   
 15   8  13  1   
 16   8  14  1   
 17   8  33  1   
 18   9  15  1   
 19   9  34  1   
 20   9  35  1   
 21  10  12  2   
 22  11  16  1   
 23  11  36  1   
 24  11  37  1   
 25  12  17  1   
 26  13  15  1   
 27  13  38  1   
 28  13  39  1   
 29  14  18  1   
 30  14  40  1   
 31  14  41  1   
 32  16  42  1   
 33  16  43  1   
 34  16  44  1   
 35  17  19  1   
 36  17  20  1   
 37  17  45  1   
 38  18  21  ar  
 39  18  22  ar  
 40  19  46  1   
 41  19  47  1   
 42  19  48  1   
 43  20  49  1   
 44  20  50  1   
 45  20  51  1   
 46  21  23  ar  
 47  21  24  ar  
 48  22  25  ar  
 49  22  52  1   
 50  23  26  ar  
 51  23  27  ar  
 52  24  28  ar  
 53  24  53  1   
 54  25  26  ar  
 55  25  54  1   
 56  27  29  ar  
 57  27  55  1   
 58  28  29  ar  
 59  28  56  1   
 60  29  57  1   
@<TRIPOS>SUBSTRUCTURE
  1 ****   8 GROUP 4 **** **** 0

# MOE 2024.06 (io_trps.svl 2023.06)
