@<TRIPOS>MOLECULE
NONAME
47 48 1 0 0 
SMALL
USER_CHARGES


@<TRIPOS>ATOM
  1 O        0.1140     0.6870    -1.3660 O.2   1 <1>  -0.5700 
  2 C        0.0330     1.8160    -0.9410 C.2   1 <1>   0.5690 
  3 N       -1.1200     2.3090    -0.3890 N.am  1 <1>  -0.6600 
  4 C        1.2660     2.7160    -1.0610 C.3   1 <1>   0.1810 
  5 C       -1.1940     3.7140     0.1350 C.3   1 <1>   0.3640 
  6 C       -2.3170     1.4520    -0.1510 C.3   1 <1>   0.0600 
  7 O        1.2360     3.8240    -0.1960 O.3   1 <1>  -0.5600 
  8 C       -2.4760     4.3860    -0.3850 C.ar  1 <1>  -0.1430 
  9 C        0.0360     4.5700    -0.2570 C.3   1 <1>   0.2610 
 10 C       -3.4370     4.9370     0.4630 C.ar  1 <1>  -0.1430 
 11 C       -2.6800     4.4440    -1.7600 C.ar  1 <1>  -0.1500 
 12 C        0.1280     5.8210     0.6240 C.2   1 <1>   0.5690 
 13 C       -4.5590     5.5470    -0.0800 C.ar  1 <1>  -0.1500 
 14 C       -3.3170     4.8970     1.9820 C.3   1 <1>  -0.0960 
 15 C       -3.8020     5.0510    -2.2910 C.ar  1 <1>  -0.1500 
 16 O       -0.0200     5.7290     1.8220 O.2   1 <1>  -0.5700 
 17 N        0.3710     7.0280     0.0380 N.am  1 <1>  -0.7300 
 18 C       -4.7430     5.6080    -1.4480 C.ar  1 <1>  -0.1500 
 19 C        0.5090     8.3060     0.7640 C.3   1 <1>   0.1400 
 20 C        1.6850     9.0840     0.1800 C.3   1 <1>  -0.1600 
 21 C        1.8960    10.3930     0.9350 C.3   1 <1>   0.1200 
 22 O        2.9390    11.0690     0.3170 O.3   1 <1>  -0.5600 
 23 C        3.2680    12.2760     0.9220 C.3   1 <1>   0.0400 
 24 H        1.3500     3.0730    -2.0710 H     1 <1>   0.0800 
 25 H        2.1440     2.1430    -0.8240 H     1 <1>   0.0800 
 26 H       -1.2160     3.6460     1.2070 H     1 <1>   0.0800 
 27 H       -2.6230     1.5280     0.8770 H     1 <1>   0.0800 
 28 H       -2.0970     0.4210    -0.3690 H     1 <1>   0.0800 
 29 H       -3.1270     1.7700    -0.7840 H     1 <1>   0.0800 
 30 H       -0.0760     4.8960    -1.2730 H     1 <1>   0.0800 
 31 H       -1.9650     4.0040    -2.4330 H     1 <1>   0.1500 
 32 H       -5.3050     5.9810     0.5630 H     1 <1>   0.1500 
 33 H       -4.2220     5.2410     2.4490 H     1 <1>   0.0800 
 34 H       -2.5160     5.5330     2.3100 H     1 <1>   0.0800 
 35 H       -3.1360     3.8940     2.3200 H     1 <1>   0.0800 
 36 H       -3.9450     5.0880    -3.3570 H     1 <1>   0.1500 
 37 H        0.5240     7.0860    -0.9700 H     1 <1>   0.3700 
 38 H       -5.6180     6.0840    -1.8540 H     1 <1>   0.1500 
 39 H       -0.4020     8.8720     0.6610 H     1 <1>   0.0800 
 40 H        0.6770     8.1150     1.8120 H     1 <1>   0.0800 
 41 H        1.4920     9.3060    -0.8540 H     1 <1>   0.0800 
 42 H        2.5790     8.4910     0.2600 H     1 <1>   0.0800 
 43 H        2.1630    10.2020     1.9610 H     1 <1>   0.0800 
 44 H        1.0130    11.0090     0.8900 H     1 <1>   0.0800 
 45 H        4.0790    12.7160     0.3690 H     1 <1>   0.0800 
 46 H        3.5790    12.0930     1.9360 H     1 <1>   0.0800 
 47 H        2.4150    12.9320     0.8980 H     1 <1>   0.0800 
@<TRIPOS>BOND
  1   1   2  2   
  2   2   3  am  
  3   2   4  1   
  4   3   5  1   
  5   3   6  1   
  6   4   7  1   
  7   4  24  1   
  8   4  25  1   
  9   5   8  1   
 10   5   9  1   
 11   5  26  1   
 12   6  27  1   
 13   6  28  1   
 14   6  29  1   
 15   7   9  1   
 16   8  10  ar  
 17   8  11  ar  
 18   9  12  1   
 19   9  30  1   
 20  10  13  ar  
 21  10  14  1   
 22  11  15  ar  
 23  11  31  1   
 24  12  16  2   
 25  12  17  am  
 26  13  18  ar  
 27  13  32  1   
 28  14  33  1   
 29  14  34  1   
 30  14  35  1   
 31  15  18  ar  
 32  15  36  1   
 33  17  19  1   
 34  17  37  1   
 35  18  38  1   
 36  19  20  1   
 37  19  39  1   
 38  19  40  1   
 39  20  21  1   
 40  20  41  1   
 41  20  42  1   
 42  21  22  1   
 43  21  43  1   
 44  21  44  1   
 45  22  23  1   
 46  23  45  1   
 47  23  46  1   
 48  23  47  1   
@<TRIPOS>SUBSTRUCTURE
  1 ****  12 GROUP 4 **** **** 0

# MOE 2024.06 (io_trps.svl 2023.06)
