@<TRIPOS>MOLECULE
NONAME
49 51 1 0 0 
SMALL
USER_CHARGES


@<TRIPOS>ATOM
  1 S        0.4250     0.3210     1.1550 S.3   1 <1>  -0.0800 
  2 C       -1.0230     1.1260     0.5880 C.2   1 <1>  -0.0450 
  3 C       -0.2400    -1.2210     0.6730 C.2   1 <1>   0.1980 
  4 C       -1.8490     0.1620     0.1180 C.2   1 <1>   0.0460 
  5 C       -1.1430     2.5570     0.7130 C.2   1 <1>   0.7150 
  6 N       -1.4020    -1.1420     0.1590 N.2   1 <1>  -0.5650 
  7 C        0.5920    -2.4800     0.8970 C.3   1 <1>   0.1000 
  8 C       -3.2350     0.3660    -0.4600 C.3   1 <1>  -0.0590 
  9 O       -2.1980     3.0310     1.0980 O.2   1 <1>  -0.5700 
 10 N       -0.1160     3.4220     0.3850 N.am  1 <1>  -0.6600 
 11 C        0.8450    -2.7290     2.3900 C.3   1 <1>  -0.2400 
 12 C        1.9170    -2.4270     0.1240 C.3   1 <1>  -0.2400 
 13 C        0.9390     3.0110    -0.6040 C.3   1 <1>   0.1400 
 14 C       -0.1670     4.8310     0.8880 C.3   1 <1>   0.1400 
 15 C        1.3860     4.1210    -1.5620 C.3   1 <1>   0.1400 
 16 C        1.2020     5.4480     1.1970 C.3   1 <1>  -0.1600 
 17 N        2.4190     4.9750    -0.9080 N.am  1 <1>  -0.6600 
 18 C        1.8850     6.0470    -0.0350 C.3   1 <1>   0.1400 
 19 C        3.7810     4.6910    -1.0380 C.2   1 <1>   0.5440 
 20 O        4.0910     3.9480    -1.9640 O.2   1 <1>  -0.5700 
 21 C        4.8210     5.2220    -0.1810 C.ar  1 <1>   0.3960 
 22 N        4.6140     5.3990     1.1530 N.ar  1 <1>  -0.6200 
 23 C        6.0580     5.5470    -0.7590 C.ar  1 <1>   0.1600 
 24 C        5.6430     5.9100     1.7730 C.ar  1 <1>   0.1600 
 25 N        7.0930     6.0650    -0.1470 N.ar  1 <1>  -0.6200 
 26 C        6.8710     6.2610     1.1640 C.ar  1 <1>   0.1390 
 27 O        7.7810     6.7660     1.8400 O.3   1 <1>  -0.8290 
 28 H        0.0180    -3.3080     0.5160 H     1 <1>   0.0800 
 29 H       -3.4960     1.4080    -0.4870 H     1 <1>   0.0800 
 30 H       -3.9540    -0.1550     0.1440 H     1 <1>   0.0800 
 31 H       -3.2700    -0.0270    -1.4590 H     1 <1>   0.0800 
 32 H        1.4440    -1.9420     2.8110 H     1 <1>   0.0800 
 33 H        1.3540    -3.6650     2.5310 H     1 <1>   0.0800 
 34 H       -0.0920    -2.7660     2.9160 H     1 <1>   0.0800 
 35 H        2.5450    -1.6380     0.4950 H     1 <1>   0.0800 
 36 H        1.7230    -2.2520    -0.9190 H     1 <1>   0.0800 
 37 H        2.4420    -3.3600     0.2220 H     1 <1>   0.0800 
 38 H        0.5530     2.2070    -1.2050 H     1 <1>   0.0800 
 39 H        1.8000     2.6380    -0.0760 H     1 <1>   0.0800 
 40 H       -0.7380     4.8440     1.8020 H     1 <1>   0.0800 
 41 H       -0.6970     5.4400     0.1760 H     1 <1>   0.0800 
 42 H        0.5440     4.7120    -1.8750 H     1 <1>   0.0800 
 43 H        1.8020     3.6650    -2.4430 H     1 <1>   0.0800 
 44 H        1.8450     4.7380     1.6870 H     1 <1>   0.0800 
 45 H        1.0420     6.2550     1.8870 H     1 <1>   0.0800 
 46 H        2.6780     6.7040     0.2750 H     1 <1>   0.0800 
 47 H        1.1850     6.6440    -0.5930 H     1 <1>   0.0800 
 48 H        6.1740     5.3600    -1.8100 H     1 <1>   0.1500 
 49 H        5.5880     6.0950     2.8290 H     1 <1>   0.1500 
@<TRIPOS>BOND
  1   1   2  1   
  2   1   3  1   
  3   2   4  2   
  4   2   5  1   
  5   3   6  2   
  6   3   7  1   
  7   4   6  1   
  8   4   8  1   
  9   5   9  2   
 10   5  10  am  
 11   7  11  1   
 12   7  12  1   
 13   7  28  1   
 14   8  29  1   
 15   8  30  1   
 16   8  31  1   
 17  10  13  1   
 18  10  14  1   
 19  11  32  1   
 20  11  33  1   
 21  11  34  1   
 22  12  35  1   
 23  12  36  1   
 24  12  37  1   
 25  13  15  1   
 26  13  38  1   
 27  13  39  1   
 28  14  16  1   
 29  14  40  1   
 30  14  41  1   
 31  15  17  1   
 32  15  42  1   
 33  15  43  1   
 34  16  18  1   
 35  16  44  1   
 36  16  45  1   
 37  17  18  1   
 38  17  19  am  
 39  18  46  1   
 40  18  47  1   
 41  19  20  2   
 42  19  21  1   
 43  21  22  ar  
 44  21  23  ar  
 45  22  24  ar  
 46  23  25  ar  
 47  23  48  1   
 48  24  26  ar  
 49  24  49  1   
 50  25  26  ar  
 51  26  27  1   
@<TRIPOS>SUBSTRUCTURE
  1 ****  13 GROUP 4 **** **** 0

# MOE 2024.06 (io_trps.svl 2023.06)
