@<TRIPOS>MOLECULE
NONAME
51 53 1 0 0 
SMALL
USER_CHARGES


@<TRIPOS>ATOM
  1 O       -1.0210     0.6310    -1.9280 O.2   1 <1>  -0.5700 
  2 C       -1.7250     1.1310    -1.0680 C.2   1 <1>   0.7160 
  3 N       -2.8670     0.4650    -0.6770 N.am  1 <1>  -0.6600 
  4 C       -1.3430     2.4030    -0.5020 C.2   1 <1>  -0.0860 
  5 C       -3.3840    -0.6900    -1.4920 C.3   1 <1>   0.1400 
  6 C       -3.6320     0.7750     0.5750 C.3   1 <1>   0.1400 
  7 C       -0.1660     2.8440     0.0310 C.2   1 <1>  -0.3320 
  8 C       -2.1680     3.5260    -0.4190 C.2   1 <1>   0.1390 
  9 C       -4.4270    -1.5040    -0.7160 C.3   1 <1>   0.2000 
 10 C       -5.1250     0.7500     0.2480 C.3   1 <1>  -0.1600 
 11 N       -0.3380     4.1310     0.3910 N.pl3 1 <1>   0.3140 
 12 C        1.1280     2.0600     0.1960 C.3   1 <1>  -0.0600 
 13 N       -1.5850     4.5510     0.1150 N.2   1 <1>  -0.7070 
 14 O       -4.8850    -2.5650    -1.4810 O.3   1 <1>  -0.6800 
 15 C       -5.6220    -0.6620    -0.2020 C.3   1 <1>  -0.1060 
 16 C        0.6490     5.0440     1.0050 C.3   1 <1>   0.0960 
 17 C       -6.1510    -1.5130     0.9570 C.2   1 <1>   0.9060 
 18 C       -6.7270    -0.4790    -1.2870 C.3   1 <1>  -0.0170 
 19 C        1.4670     5.7770    -0.0660 C.3   1 <1>  -0.2400 
 20 O       -5.9660    -1.1620     2.1270 O.co2 1 <1>  -0.9000 
 21 O       -6.6730    -2.6050     0.6810 O.co2 1 <1>  -0.9000 
 22 C       -7.8380     0.5000    -0.9090 C.ar  1 <1>  -0.1440 
 23 C       -7.9300     1.7370    -1.5310 C.ar  1 <1>  -0.1500 
 24 C       -8.7760     0.1570     0.0520 C.ar  1 <1>  -0.1500 
 25 C       -8.9420     2.6200    -1.1930 C.ar  1 <1>  -0.1500 
 26 C       -9.7870     1.0380     0.3930 C.ar  1 <1>  -0.1500 
 27 C       -9.8720     2.2700    -0.2290 C.ar  1 <1>  -0.1500 
 28 H       -3.8280    -0.3060    -2.3920 H     1 <1>   0.0800 
 29 H       -2.5660    -1.3360    -1.7570 H     1 <1>   0.0800 
 30 H       -3.4160     0.0350     1.3290 H     1 <1>   0.0800 
 31 H       -3.3650     1.7350     0.9760 H     1 <1>   0.0800 
 32 H       -3.1880     3.5390    -0.7650 H     1 <1>   0.1500 
 33 H       -3.9180    -1.9450     0.1260 H     1 <1>   0.0800 
 34 H       -5.6900     1.0820     1.1020 H     1 <1>   0.0800 
 35 H       -5.2890     1.4740    -0.5290 H     1 <1>   0.0800 
 36 H        1.0040     1.0520    -0.1600 H     1 <1>   0.0800 
 37 H        1.4140     2.0210     1.2310 H     1 <1>   0.0800 
 38 H        1.9160     2.5200    -0.3720 H     1 <1>   0.0800 
 39 H       -5.5990    -2.9930    -0.9360 H     1 <1>   0.4000 
 40 H        0.1140     5.7570     1.6060 H     1 <1>   0.0800 
 41 H        1.2960     4.4750     1.6460 H     1 <1>   0.0800 
 42 H       -6.2650    -0.1460    -2.1980 H     1 <1>   0.0800 
 43 H       -7.1880    -1.4260    -1.5080 H     1 <1>   0.0800 
 44 H        0.8120     6.3550    -0.6940 H     1 <1>   0.0800 
 45 H        2.0100     5.0740    -0.6720 H     1 <1>   0.0800 
 46 H        2.1690     6.4440     0.4020 H     1 <1>   0.0800 
 47 H       -7.2120     2.0160    -2.2800 H     1 <1>   0.1500 
 48 H       -8.7170    -0.8020     0.5440 H     1 <1>   0.1500 
 49 H       -9.0030     3.5770    -1.6780 H     1 <1>   0.1500 
 50 H      -10.5020     0.7570     1.1460 H     1 <1>   0.1500 
 51 H      -10.6580     2.9540     0.0370 H     1 <1>   0.1500 
@<TRIPOS>BOND
  1   1   2  2   
  2   2   3  am  
  3   2   4  1   
  4   3   5  1   
  5   3   6  1   
  6   4   7  2   
  7   4   8  1   
  8   5   9  1   
  9   5  28  1   
 10   5  29  1   
 11   6  10  1   
 12   6  30  1   
 13   6  31  1   
 14   7  11  1   
 15   7  12  1   
 16   8  13  2   
 17   8  32  1   
 18   9  14  1   
 19   9  15  1   
 20   9  33  1   
 21  10  15  1   
 22  10  34  1   
 23  10  35  1   
 24  11  13  1   
 25  11  16  1   
 26  12  36  1   
 27  12  37  1   
 28  12  38  1   
 29  14  39  1   
 30  15  17  1   
 31  15  18  1   
 32  16  19  1   
 33  16  40  1   
 34  16  41  1   
 35  17  20  ar  
 36  17  21  ar  
 37  18  22  1   
 38  18  42  1   
 39  18  43  1   
 40  19  44  1   
 41  19  45  1   
 42  19  46  1   
 43  22  23  ar  
 44  22  24  ar  
 45  23  25  ar  
 46  23  47  1   
 47  24  26  ar  
 48  24  48  1   
 49  25  27  ar  
 50  25  49  1   
 51  26  27  ar  
 52  26  50  1   
 53  27  51  1   
@<TRIPOS>SUBSTRUCTURE
  1 ****   6 GROUP 4 **** **** 0

# MOE 2024.06 (io_trps.svl 2023.06)
