@<TRIPOS>MOLECULE
NONAME
49 51 1 0 0 
SMALL
USER_CHARGES


@<TRIPOS>ATOM
  1 O        0.9020     0.2330     3.3720 O.2   1 <1>  -0.5700 
  2 C        1.5130    -0.4330     2.5710 C.2   1 <1>   0.5690 
  3 N        2.6090     0.0530     1.9350 N.am  1 <1>  -0.7300 
  4 C        1.0500    -1.8620     2.2600 C.3   1 <1>   0.1710 
  5 C        2.9620     1.4770     1.8600 C.3   1 <1>   0.2840 
  6 N        0.4240    -2.0470     0.9180 N.3   1 <1>  -0.8100 
  7 C        3.2950     1.7720     0.4060 C.ar  1 <1>  -0.1430 
  8 C        1.3220    -1.8550    -0.2270 C.3   1 <1>   0.1100 
  9 C       -0.1540    -3.3880     0.7530 C.3   1 <1>   0.1100 
 10 C        2.3060     2.0500    -0.5350 C.ar  1 <1>  -0.1430 
 11 C        4.6250     1.7400     0.0110 C.ar  1 <1>  -0.1500 
 12 C        0.5650    -2.4910    -1.3850 C.3   1 <1>   0.2000 
 13 C       -0.0640    -3.7300    -0.7470 C.3   1 <1>  -0.0800 
 14 C        2.6670     2.2880    -1.8530 C.ar  1 <1>  -0.1500 
 15 C        0.8290     2.1020    -0.1610 C.3   1 <1>  -0.0970 
 16 C        4.9760     1.9800    -1.3050 C.ar  1 <1>  -0.1500 
 17 O       -0.4590    -1.6310    -1.7290 O.3   1 <1>  -0.6800 
 18 C        0.7940    -4.9810    -1.0130 C.3   1 <1>  -0.0170 
 19 C        3.9950     2.2530    -2.2390 C.ar  1 <1>  -0.1500 
 20 C        0.2230    -6.2200    -0.3420 C.ar  1 <1>   0.1670 
 21 N        0.8100    -6.6120     0.7780 N.ar  1 <1>  -0.6200 
 22 C       -0.8670    -6.8750    -0.9100 C.ar  1 <1>   0.1600 
 23 C        0.2410    -7.6940     1.2840 C.ar  1 <1>   0.1600 
 24 N       -1.4400    -7.9540    -0.4030 N.ar  1 <1>  -0.6200 
 25 C       -0.8470    -8.3420     0.7130 C.ar  1 <1>   0.1600 
 26 H        3.0400    -0.5010     1.1970 H     1 <1>   0.3700 
 27 H        0.3280    -2.1300     3.0110 H     1 <1>   0.0800 
 28 H        1.8890    -2.5250     2.3630 H     1 <1>   0.0800 
 29 H        2.1450     2.0900     2.2010 H     1 <1>   0.0800 
 30 H        3.8130     1.6690     2.4910 H     1 <1>   0.0800 
 31 H        1.5240    -0.8150    -0.4160 H     1 <1>   0.0800 
 32 H        2.2470    -2.3830    -0.0660 H     1 <1>   0.0800 
 33 H        0.3960    -4.1020     1.3430 H     1 <1>   0.0800 
 34 H       -1.1790    -3.3830     1.0860 H     1 <1>   0.0800 
 35 H        5.3980     1.5260     0.7280 H     1 <1>   0.1500 
 36 H        1.1670    -2.6840    -2.2550 H     1 <1>   0.0800 
 37 H       -1.0490    -3.9000    -1.1470 H     1 <1>   0.0800 
 38 H        1.9140     2.5030    -2.5900 H     1 <1>   0.1500 
 39 H        0.2120     2.1920    -1.0360 H     1 <1>   0.0800 
 40 H        0.6420     2.9490     0.4740 H     1 <1>   0.0800 
 41 H        0.5350     1.2080     0.3590 H     1 <1>   0.0800 
 42 H        6.0100     1.9550    -1.6020 H     1 <1>   0.1500 
 43 H       -0.8430    -1.3130    -0.8820 H     1 <1>   0.4000 
 44 H        1.7990    -4.8210    -0.6600 H     1 <1>   0.0800 
 45 H        0.8490    -5.1560    -2.0730 H     1 <1>   0.0800 
 46 H        4.2620     2.4410    -3.2640 H     1 <1>   0.1500 
 47 H       -1.2850    -6.4890    -1.8230 H     1 <1>   0.1500 
 48 H        0.6550    -8.0870     2.1950 H     1 <1>   0.1500 
 49 H       -1.2420    -9.2170     1.2000 H     1 <1>   0.1500 
@<TRIPOS>BOND
  1   1   2  2   
  2   2   3  am  
  3   2   4  1   
  4   3   5  1   
  5   3  26  1   
  6   4   6  1   
  7   4  27  1   
  8   4  28  1   
  9   5   7  1   
 10   5  29  1   
 11   5  30  1   
 12   6   8  1   
 13   6   9  1   
 14   7  10  ar  
 15   7  11  ar  
 16   8  12  1   
 17   8  31  1   
 18   8  32  1   
 19   9  13  1   
 20   9  33  1   
 21   9  34  1   
 22  10  14  ar  
 23  10  15  1   
 24  11  16  ar  
 25  11  35  1   
 26  12  13  1   
 27  12  17  1   
 28  12  36  1   
 29  13  18  1   
 30  13  37  1   
 31  14  19  ar  
 32  14  38  1   
 33  15  39  1   
 34  15  40  1   
 35  15  41  1   
 36  16  19  ar  
 37  16  42  1   
 38  17  43  1   
 39  18  20  1   
 40  18  44  1   
 41  18  45  1   
 42  19  46  1   
 43  20  21  ar  
 44  20  22  ar  
 45  21  23  ar  
 46  22  24  ar  
 47  22  47  1   
 48  23  25  ar  
 49  23  48  1   
 50  24  25  ar  
 51  25  49  1   
@<TRIPOS>SUBSTRUCTURE
  1 ****   8 GROUP 4 **** **** 0

# MOE 2024.06 (io_trps.svl 2023.06)
