@<TRIPOS>MOLECULE
NONAME
52 54 1 0 0 
SMALL
USER_CHARGES


@<TRIPOS>ATOM
  1 O       -0.8910    -0.3020     2.4650 O.2   1 <1>  -0.5700 
  2 C       -1.2990     0.4580     1.6150 C.2   1 <1>   0.5690 
  3 N       -1.8360    -0.0210     0.4410 N.am  1 <1>  -0.6600 
  4 C       -1.2290     1.9510     1.9330 C.3   1 <1>   0.0820 
  5 C       -1.8960    -1.4850     0.2000 C.3   1 <1>   0.3200 
  6 C       -2.3800     0.8520    -0.6520 C.3   1 <1>   0.1400 
  7 C       -0.2740     2.7400     1.0330 C.2   1 <1>  -0.1810 
  8 C       -3.2670    -1.9870     0.6080 C.2   1 <1>  -0.3320 
  9 C       -3.9150     0.9560    -0.6490 C.3   1 <1>   0.1200 
 10 C       -0.5820     3.9050     0.2680 C.ar  1 <1>   0.0000 
 11 C        1.0270     2.4250     0.8090 C.2   1 <1>  -0.3320 
 12 N       -4.1750    -2.5690    -0.2020 N.pl3 1 <1>   0.0480 
 13 C       -3.8210    -1.9450     1.8390 C.2   1 <1>   0.0770 
 14 O       -4.4040     1.0880     0.6410 O.3   1 <1>  -0.6800 
 15 C       -1.6990     4.7490     0.0860 C.ar  1 <1>  -0.1430 
 16 C        0.5860     4.2030    -0.4380 C.ar  1 <1>  -0.1520 
 17 N        1.5530     3.3030    -0.0870 N.pl3 1 <1>   0.0330 
 18 C        1.8840     1.3110     1.3870 C.3   1 <1>  -0.0600 
 19 C       -5.2320    -2.8240     0.6010 C.2   1 <1>   0.0360 
 20 C       -4.0570    -2.8930    -1.6350 C.3   1 <1>   0.0160 
 21 N       -5.0620    -2.4620     1.8300 N.2   1 <1>  -0.5650 
 22 C       -1.6120     5.7980    -0.8020 C.ar  1 <1>  -0.1500 
 23 C       -3.0000     4.5610     0.8500 C.3   1 <1>  -0.0970 
 24 C        0.6710     5.2680    -1.3390 C.ar  1 <1>  -0.1430 
 25 C       -0.4390     6.0570    -1.5150 C.ar  1 <1>  -0.1500 
 26 C        1.9600     5.5400    -2.0950 C.3   1 <1>  -0.0970 
 27 H       -0.9050     2.0710     2.9500 H     1 <1>   0.0800 
 28 H       -2.2260     2.3270     1.8800 H     1 <1>   0.0800 
 29 H       -1.1450    -1.9910     0.7820 H     1 <1>   0.0800 
 30 H       -1.6960    -1.6910    -0.8360 H     1 <1>   0.0800 
 31 H       -2.0530     0.4770    -1.6050 H     1 <1>   0.0800 
 32 H       -1.9840     1.8450    -0.5740 H     1 <1>   0.0800 
 33 H       -4.3590     0.0780    -1.0820 H     1 <1>   0.0800 
 34 H       -4.2300     1.8150    -1.2160 H     1 <1>   0.0800 
 35 H       -3.3780    -1.5580     2.7440 H     1 <1>   0.1500 
 36 H       -4.2230     0.2550     1.1340 H     1 <1>   0.4000 
 37 H        2.5130     3.3120    -0.4410 H     1 <1>   0.2700 
 38 H        1.4140     0.8680     2.2460 H     1 <1>   0.0800 
 39 H        2.8370     1.6990     1.6980 H     1 <1>   0.0800 
 40 H        2.0410     0.5450     0.6490 H     1 <1>   0.0800 
 41 H       -6.1290    -3.2910     0.2340 H     1 <1>   0.1500 
 42 H       -3.7990    -2.0060    -2.1840 H     1 <1>   0.0800 
 43 H       -4.9940    -3.2760    -1.9970 H     1 <1>   0.0800 
 44 H       -3.2930    -3.6370    -1.7680 H     1 <1>   0.0800 
 45 H       -2.4520     6.4500    -0.9620 H     1 <1>   0.1500 
 46 H       -2.8050     4.5280     1.9060 H     1 <1>   0.0800 
 47 H       -3.4850     3.6540     0.5430 H     1 <1>   0.0800 
 48 H       -3.6760     5.3760     0.6660 H     1 <1>   0.0800 
 49 H       -0.4220     6.8870    -2.1980 H     1 <1>   0.1500 
 50 H        2.2250     4.6820    -2.6870 H     1 <1>   0.0800 
 51 H        2.7530     5.7510    -1.4010 H     1 <1>   0.0800 
 52 H        1.8460     6.3840    -2.7500 H     1 <1>   0.0800 
@<TRIPOS>BOND
  1   1   2  2   
  2   2   3  am  
  3   2   4  1   
  4   3   5  1   
  5   3   6  1   
  6   4   7  1   
  7   4  27  1   
  8   4  28  1   
  9   5   8  1   
 10   5  29  1   
 11   5  30  1   
 12   6   9  1   
 13   6  31  1   
 14   6  32  1   
 15   7  10  1   
 16   7  11  2   
 17   8  12  1   
 18   8  13  2   
 19   9  14  1   
 20   9  33  1   
 21   9  34  1   
 22  10  15  ar  
 23  10  16  ar  
 24  11  17  1   
 25  11  18  1   
 26  12  19  1   
 27  12  20  1   
 28  13  21  1   
 29  13  35  1   
 30  14  36  1   
 31  15  22  ar  
 32  15  23  1   
 33  16  17  1   
 34  16  24  ar  
 35  17  37  1   
 36  18  38  1   
 37  18  39  1   
 38  18  40  1   
 39  19  21  2   
 40  19  41  1   
 41  20  42  1   
 42  20  43  1   
 43  20  44  1   
 44  22  25  ar  
 45  22  45  1   
 46  23  46  1   
 47  23  47  1   
 48  23  48  1   
 49  24  25  ar  
 50  24  26  1   
 51  25  49  1   
 52  26  50  1   
 53  26  51  1   
 54  26  52  1   
@<TRIPOS>SUBSTRUCTURE
  1 ****   6 GROUP 4 **** **** 0

# MOE 2024.06 (io_trps.svl 2023.06)
