@<TRIPOS>MOLECULE
NONAME
56 60 1 0 0 
SMALL
USER_CHARGES


@<TRIPOS>ATOM
  1 O        0.8390    -0.0970    -2.6410 O.2   1 <1>  -0.5700 
  2 C        1.3740     0.1890    -1.5850 C.2   1 <1>   0.5440 
  3 N        1.0430     1.3800    -0.9830 N.am  1 <1>  -0.6600 
  4 C        2.3330    -0.7130    -1.0060 C.ar  1 <1>   0.0860 
  5 C        1.5060     1.8190     0.3510 C.3   1 <1>   0.1400 
  6 C        0.0570     2.3240    -1.5480 C.3   1 <1>   0.1400 
  7 C        2.0440    -1.5340     0.1080 C.ar  1 <1>   0.4100 
  8 C        3.6070    -0.7670    -1.5520 C.ar  1 <1>  -0.1500 
  9 C        0.5500     2.9420     0.7360 C.3   1 <1>  -0.1600 
 10 C        0.0700     3.5150    -0.5960 C.3   1 <1>  -0.1600 
 11 N        2.9680    -2.3050     0.6860 N.ar  1 <1>  -0.6200 
 12 N        0.7880    -1.5950     0.7030 N.pl3 1 <1>  -0.8380 
 13 C        4.5390    -1.5880    -0.9630 C.ar  1 <1>  -0.1500 
 14 C        4.1700    -2.3230     0.1470 C.ar  1 <1>   0.1600 
 15 C       -0.4860    -1.5820    -0.1010 C.3   1 <1>   0.3530 
 16 C        0.5490    -2.3500     1.9770 C.3   1 <1>   0.3530 
 17 C       -1.4980    -2.2670     0.7870 C.ar  1 <1>   0.1670 
 18 C       -0.9190    -2.6840     1.9430 C.ar  1 <1>  -0.1430 
 19 N       -2.7730    -2.4460     0.5170 N.ar  1 <1>  -0.6200 
 20 C       -1.7100    -3.3220     2.8630 C.ar  1 <1>   0.1600 
 21 C       -3.4520    -3.0830     1.4660 C.ar  1 <1>   0.4770 
 22 N       -2.9920    -3.5240     2.6350 N.ar  1 <1>  -0.6200 
 23 C       -4.9270    -3.3230     1.1880 C.3   1 <1>   0.1270 
 24 C       -5.1630    -4.6270     0.4330 C.ar  1 <1>  -0.1430 
 25 C       -5.0020    -4.6720    -0.9440 C.ar  1 <1>  -0.1500 
 26 C       -5.5350    -5.7790     1.1110 C.ar  1 <1>  -0.1500 
 27 C       -5.2180    -5.8510    -1.6340 C.ar  1 <1>  -0.1500 
 28 C       -5.7510    -6.9600     0.4230 C.ar  1 <1>  -0.1500 
 29 C       -5.5930    -7.0010    -0.9600 C.ar  1 <1>   0.0820 
 30 O       -5.7820    -8.1160    -1.7100 O.3   1 <1>  -0.3630 
 31 C       -6.1200    -9.3480    -1.1140 C.3   1 <1>   0.0400 
 32 H        2.5130     2.1920     0.2700 H     1 <1>   0.0800 
 33 H        1.4710     1.0160     1.0670 H     1 <1>   0.0800 
 34 H       -0.9110     1.8550    -1.5600 H     1 <1>   0.0800 
 35 H        0.3320     2.6080    -2.5500 H     1 <1>   0.0800 
 36 H        3.8510    -0.1720    -2.4160 H     1 <1>   0.1500 
 37 H        1.0290     3.6810     1.3530 H     1 <1>   0.0800 
 38 H       -0.2820     2.5210     1.2730 H     1 <1>   0.0800 
 39 H       -0.8990     3.9760    -0.5200 H     1 <1>   0.0800 
 40 H        0.7760     4.2420    -0.9580 H     1 <1>   0.0800 
 41 H        5.5380    -1.6590    -1.3540 H     1 <1>   0.1500 
 42 H        4.9050    -2.9580     0.6120 H     1 <1>   0.1500 
 43 H       -0.3660    -2.1210    -1.0250 H     1 <1>   0.0800 
 44 H       -0.8050    -0.5740    -0.2950 H     1 <1>   0.0800 
 45 H        0.7870    -1.7290     2.8230 H     1 <1>   0.0800 
 46 H        1.1260    -3.2580     2.0120 H     1 <1>   0.0800 
 47 H       -1.2970    -3.6710     3.7940 H     1 <1>   0.1500 
 48 H       -5.3120    -2.5010     0.6120 H     1 <1>   0.0800 
 49 H       -5.4610    -3.3380     2.1200 H     1 <1>   0.0800 
 50 H       -4.7010    -3.7890    -1.4810 H     1 <1>   0.1500 
 51 H       -5.6520    -5.7590     2.1800 H     1 <1>   0.1500 
 52 H       -5.0930    -5.8880    -2.7000 H     1 <1>   0.1500 
 53 H       -6.0390    -7.8320     0.9770 H     1 <1>   0.1500 
 54 H       -6.2000   -10.0840    -1.8940 H     1 <1>   0.0800 
 55 H       -7.0650    -9.2450    -0.6110 H     1 <1>   0.0800 
 56 H       -5.3430    -9.6270    -0.4250 H     1 <1>   0.0800 
@<TRIPOS>BOND
  1   1   2  2   
  2   2   3  am  
  3   2   4  1   
  4   3   5  1   
  5   3   6  1   
  6   4   7  ar  
  7   4   8  ar  
  8   5   9  1   
  9   5  32  1   
 10   5  33  1   
 11   6  10  1   
 12   6  34  1   
 13   6  35  1   
 14   7  11  ar  
 15   7  12  1   
 16   8  13  ar  
 17   8  36  1   
 18   9  10  1   
 19   9  37  1   
 20   9  38  1   
 21  10  39  1   
 22  10  40  1   
 23  11  14  ar  
 24  12  15  1   
 25  12  16  1   
 26  13  14  ar  
 27  13  41  1   
 28  14  42  1   
 29  15  17  1   
 30  15  43  1   
 31  15  44  1   
 32  16  18  1   
 33  16  45  1   
 34  16  46  1   
 35  17  18  ar  
 36  17  19  ar  
 37  18  20  ar  
 38  19  21  ar  
 39  20  22  ar  
 40  20  47  1   
 41  21  22  ar  
 42  21  23  1   
 43  23  24  1   
 44  23  48  1   
 45  23  49  1   
 46  24  25  ar  
 47  24  26  ar  
 48  25  27  ar  
 49  25  50  1   
 50  26  28  ar  
 51  26  51  1   
 52  27  29  ar  
 53  27  52  1   
 54  28  29  ar  
 55  28  53  1   
 56  29  30  1   
 57  30  31  1   
 58  31  54  1   
 59  31  55  1   
 60  31  56  1   
@<TRIPOS>SUBSTRUCTURE
  1 ****  17 GROUP 4 **** **** 0

# MOE 2024.06 (io_trps.svl 2023.06)
