@<TRIPOS>MOLECULE
NONAME
44 47 1 0 0 
SMALL
USER_CHARGES


@<TRIPOS>ATOM
  1 S       -1.4490     1.7230    -0.9990 S.3   1 <1>  -0.0800 
  2 C       -0.4850     2.9030    -0.1360 C.2   1 <1>  -0.1400 
  3 C       -0.0460     1.2370    -1.9390 C.2   1 <1>  -0.1100 
  4 C        0.7920     2.8980    -0.5390 C.2   1 <1>  -0.1810 
  5 C       -1.0610     3.8020     0.9240 C.3   1 <1>   0.0200 
  6 C        1.0450     1.9430    -1.5810 C.2   1 <1>  -0.1500 
  7 C        1.8200     3.8390     0.0920 C.3   1 <1>   0.4610 
  8 C       -0.0730     4.9620     1.1220 C.3   1 <1>   0.1200 
  9 O        1.2530     4.4950     1.2130 O.3   1 <1>  -0.5600 
 10 C        2.2950     4.8950    -0.9170 C.3   1 <1>  -0.1600 
 11 C        3.0150     3.0440     0.6290 C.3   1 <1>  -0.1600 
 12 C        3.3760     5.7970    -0.3200 C.3   1 <1>   0.1400 
 13 C        4.0950     3.9640     1.2020 C.3   1 <1>   0.1400 
 14 N        4.5040     4.9520     0.1630 N.am  1 <1>  -0.6600 
 15 C        5.8180     5.0750    -0.2250 C.2   1 <1>   0.5690 
 16 O        6.6810     4.3580     0.2260 O.2   1 <1>  -0.5700 
 17 C        6.2580     6.1160    -1.2470 C.3   1 <1>   0.0440 
 18 C        6.1410     7.5520    -0.7400 C.ar  1 <1>  -0.1430 
 19 C        6.5910     7.8900     0.5310 C.ar  1 <1>  -0.1500 
 20 C        5.5870     8.5420    -1.5450 C.ar  1 <1>  -0.1500 
 21 C        6.4710     9.1970     0.9740 C.ar  1 <1>   0.1900 
 22 C        5.4860     9.8360    -1.0620 C.ar  1 <1>   0.1900 
 23 F        6.8950     9.4970     2.1710 F     1 <1>  -0.1900 
 24 C        5.9200    10.1970     0.1970 C.ar  1 <1>  -0.1500 
 25 F        4.9570    10.7500    -1.8290 F     1 <1>  -0.1900 
 26 H       -0.1880     0.4620    -2.6700 H     1 <1>   0.1500 
 27 H       -1.1840     3.2560     1.8420 H     1 <1>   0.0800 
 28 H       -2.0170     4.1840     0.6160 H     1 <1>   0.0800 
 29 H        2.0240     1.8290    -2.0110 H     1 <1>   0.1500 
 30 H       -0.2980     5.4900     2.0320 H     1 <1>   0.0800 
 31 H       -0.1370     5.6520     0.3000 H     1 <1>   0.0800 
 32 H        1.4640     5.4840    -1.2530 H     1 <1>   0.0800 
 33 H        2.7010     4.3990    -1.7790 H     1 <1>   0.0800 
 34 H        3.4520     2.4610    -0.1590 H     1 <1>   0.0800 
 35 H        2.6740     2.3640     1.3870 H     1 <1>   0.0800 
 36 H        2.9750     6.3520     0.5120 H     1 <1>   0.0800 
 37 H        3.7000     6.5010    -1.0620 H     1 <1>   0.0800 
 38 H        4.9360     3.3730     1.5250 H     1 <1>   0.0800 
 39 H        3.7130     4.4920     2.0590 H     1 <1>   0.0800 
 40 H        5.6810     5.9790    -2.1420 H     1 <1>   0.0800 
 41 H        7.2860     5.9290    -1.5020 H     1 <1>   0.0800 
 42 H        7.0310     7.1520     1.1810 H     1 <1>   0.1500 
 43 H        5.2350     8.3250    -2.5380 H     1 <1>   0.1500 
 44 H        5.8340    11.2050     0.5560 H     1 <1>   0.1500 
@<TRIPOS>BOND
  1   1   2  1   
  2   1   3  1   
  3   2   4  2   
  4   2   5  1   
  5   3   6  2   
  6   3  26  1   
  7   4   6  1   
  8   4   7  1   
  9   5   8  1   
 10   5  27  1   
 11   5  28  1   
 12   6  29  1   
 13   7   9  1   
 14   7  10  1   
 15   7  11  1   
 16   8   9  1   
 17   8  30  1   
 18   8  31  1   
 19  10  12  1   
 20  10  32  1   
 21  10  33  1   
 22  11  13  1   
 23  11  34  1   
 24  11  35  1   
 25  12  14  1   
 26  12  36  1   
 27  12  37  1   
 28  13  14  1   
 29  13  38  1   
 30  13  39  1   
 31  14  15  am  
 32  15  16  2   
 33  15  17  1   
 34  17  18  1   
 35  17  40  1   
 36  17  41  1   
 37  18  19  ar  
 38  18  20  ar  
 39  19  21  ar  
 40  19  42  1   
 41  20  22  ar  
 42  20  43  1   
 43  21  23  1   
 44  21  24  ar  
 45  22  24  ar  
 46  22  25  1   
 47  24  44  1   
@<TRIPOS>SUBSTRUCTURE
  1 ****  12 GROUP 4 **** **** 0

# MOE 2024.06 (io_trps.svl 2023.06)
