@<TRIPOS>MOLECULE
NONAME
53 56 1 0 0 
SMALL
USER_CHARGES


@<TRIPOS>ATOM
  1 O       -1.1910    -0.1520    -0.9510 O.2   1 <1>  -0.5700 
  2 C       -1.8940     0.3990    -0.1390 C.2   1 <1>   0.6300 
  3 N       -2.7330    -0.3110     0.6900 N.am  1 <1>  -0.6600 
  4 C       -1.8330     1.9230    -0.0620 C.3   1 <1>  -0.1000 
  5 C       -3.6310     0.2970     1.7040 C.3   1 <1>   0.1400 
  6 C       -2.7990    -1.7950     0.6170 C.3   1 <1>   0.1400 
  7 C       -2.9680     2.7770    -0.5570 C.3   1 <1>  -0.2000 
  8 C       -1.6720     2.7550    -1.3030 C.3   1 <1>  -0.2000 
  9 C       -5.0740    -0.0800     1.3620 C.3   1 <1>  -0.1600 
 10 C       -4.2270    -2.2040     0.2590 C.3   1 <1>  -0.1600 
 11 C       -5.2220    -1.6020     1.2620 C.3   1 <1>   0.4230 
 12 N       -6.6360    -1.9450     0.9370 N.4   1 <1>  -0.9590 
 13 C       -7.1450    -1.5460    -0.4110 C.3   1 <1>   0.3430 
 14 C       -6.9620    -3.3970     1.1050 C.3   1 <1>   0.3430 
 15 C       -8.3260    -2.4840    -0.6620 C.3   1 <1>   0.2000 
 16 C       -7.8310    -3.8110    -0.0950 C.3   1 <1>  -0.0800 
 17 O       -9.3940    -2.0510     0.1160 O.3   1 <1>  -0.6800 
 18 C       -7.0180    -4.5990    -1.1410 C.3   1 <1>   0.0210 
 19 C       -6.4400    -5.8710    -0.5550 C.2   1 <1>   0.1080 
 20 N       -5.3740    -5.8800     0.1850 N.2   1 <1>  -0.7070 
 21 C       -6.9660    -7.1440    -0.7420 C.2   1 <1>  -0.1500 
 22 N       -5.1820    -7.1840     0.4820 N.pl3 1 <1>   0.3000 
 23 C       -6.1380    -7.9640    -0.0630 C.2   1 <1>  -0.3320 
 24 C       -6.1980    -9.4730     0.0940 C.3   1 <1>  -0.0600 
 25 H       -1.2830     2.2490     0.8010 H     1 <1>   0.1000 
 26 H       -3.3660    -0.0810     2.6780 H     1 <1>   0.0800 
 27 H       -3.5300     1.3670     1.7300 H     1 <1>   0.0800 
 28 H       -2.1170    -2.1770    -0.1250 H     1 <1>   0.0800 
 29 H       -2.5130    -2.2100     1.5690 H     1 <1>   0.0800 
 30 H       -3.8190     2.3070    -1.0180 H     1 <1>   0.1000 
 31 H       -3.2290     3.6660    -0.0110 H     1 <1>   0.1000 
 32 H       -1.0280     3.6160    -1.2620 H     1 <1>   0.1000 
 33 H       -1.6190     2.2490    -2.2520 H     1 <1>   0.1000 
 34 H       -5.3300     0.3910     0.4300 H     1 <1>   0.0800 
 35 H       -5.7200     0.3020     2.1310 H     1 <1>   0.0800 
 36 H       -4.2790    -3.2770     0.2680 H     1 <1>   0.0800 
 37 H       -4.4180    -1.8600    -0.7410 H     1 <1>   0.0800 
 38 H       -4.9900    -2.0130     2.2320 H     1 <1>   0.0800 
 39 H       -7.2530    -1.4550     1.6000 H     1 <1>   0.4500 
 40 H       -7.4530    -0.5140    -0.4400 H     1 <1>   0.0800 
 41 H       -6.3930    -1.7180    -1.1610 H     1 <1>   0.0800 
 42 H       -6.0660    -3.9870     1.1630 H     1 <1>   0.0800 
 43 H       -7.5190    -3.5380     2.0170 H     1 <1>   0.0800 
 44 H       -8.6300    -2.5190    -1.6950 H     1 <1>   0.0800 
 45 H       -8.6470    -4.4320     0.2320 H     1 <1>   0.0800 
 46 H      -10.2180    -2.5350    -0.1050 H     1 <1>   0.4000 
 47 H       -6.2040    -4.0100    -1.5240 H     1 <1>   0.0800 
 48 H       -7.6510    -4.8610    -1.9710 H     1 <1>   0.0800 
 49 H       -7.8420    -7.4000    -1.3110 H     1 <1>   0.1500 
 50 H       -4.3910    -7.5140     1.0500 H     1 <1>   0.2700 
 51 H       -7.0480    -9.8670    -0.4340 H     1 <1>   0.0800 
 52 H       -6.2900    -9.7380     1.1330 H     1 <1>   0.0800 
 53 H       -5.3090    -9.9260    -0.3060 H     1 <1>   0.0800 
@<TRIPOS>BOND
  1   1   2  2   
  2   2   3  am  
  3   2   4  1   
  4   3   5  1   
  5   3   6  1   
  6   4   7  1   
  7   4   8  1   
  8   4  25  1   
  9   5   9  1   
 10   5  26  1   
 11   5  27  1   
 12   6  10  1   
 13   6  28  1   
 14   6  29  1   
 15   7   8  1   
 16   7  30  1   
 17   7  31  1   
 18   8  32  1   
 19   8  33  1   
 20   9  11  1   
 21   9  34  1   
 22   9  35  1   
 23  10  11  1   
 24  10  36  1   
 25  10  37  1   
 26  11  12  1   
 27  11  38  1   
 28  12  13  1   
 29  12  14  1   
 30  12  39  1   
 31  13  15  1   
 32  13  40  1   
 33  13  41  1   
 34  14  16  1   
 35  14  42  1   
 36  14  43  1   
 37  15  16  1   
 38  15  17  1   
 39  15  44  1   
 40  16  18  1   
 41  16  45  1   
 42  17  46  1   
 43  18  19  1   
 44  18  47  1   
 45  18  48  1   
 46  19  20  2   
 47  19  21  1   
 48  20  22  1   
 49  21  23  2   
 50  21  49  1   
 51  22  23  1   
 52  22  50  1   
 53  23  24  1   
 54  24  51  1   
 55  24  52  1   
 56  24  53  1   
@<TRIPOS>SUBSTRUCTURE
  1 ****  10 GROUP 4 **** **** 0

# MOE 2024.06 (io_trps.svl 2023.06)
