@<TRIPOS>MOLECULE
NONAME
40 43 1 0 0 
SMALL
USER_CHARGES


@<TRIPOS>ATOM
  1 F       -0.0740     0.3300    -0.3540 F     1 <1>  -0.3400 
  2 C        1.1230    -0.2070    -0.1370 C.3   1 <1>   1.1640 
  3 F        1.9240     0.3350    -1.0540 F     1 <1>  -0.3400 
  4 F        1.5310     0.2870     1.0300 F     1 <1>  -0.3400 
  5 C        1.1560    -1.7630    -0.1590 C.ar  1 <1>   0.1660 
  6 N        0.0030    -2.4090    -0.2220 N.ar  1 <1>  -0.6200 
  7 C        2.3550    -2.4680    -0.1140 C.ar  1 <1>  -0.1440 
  8 C        0.0290    -3.7350    -0.2530 C.ar  1 <1>   0.7200 
  9 C        2.2720    -3.8490    -0.1550 C.ar  1 <1>   0.1660 
 10 C        3.7250    -1.7780    -0.0380 C.3   1 <1>  -0.0170 
 11 N        1.1290    -4.4760    -0.2200 N.ar  1 <1>  -0.6200 
 12 N       -1.1710    -4.3890    -0.3260 N.pl3 1 <1>  -0.8380 
 13 C        3.4950    -4.7540    -0.1150 C.3   1 <1>  -0.0170 
 14 C        4.8550    -2.7140     0.4050 C.3   1 <1>  -0.1600 
 15 C       -2.4350    -3.7460     0.0460 C.3   1 <1>   0.3040 
 16 C       -1.3020    -5.8020     0.0400 C.3   1 <1>   0.3040 
 17 C        4.8090    -4.0160    -0.3930 C.3   1 <1>  -0.1600 
 18 C       -3.5530    -4.7820    -0.0720 C.3   1 <1>  -0.2420 
 19 C       -2.7740    -6.1940    -0.0760 C.3   1 <1>  -0.2420 
 20 C       -4.7490    -3.8320    -0.1290 C.2   1 <1>   0.9470 
 21 C       -4.2340    -6.0790    -0.0930 C.3   1 <1>  -0.2000 
 22 C       -2.6060    -7.7120    -0.1410 C.2   1 <1>   0.9470 
 23 O       -5.2490    -3.5210    -1.2180 O.co2 1 <1>  -0.9000 
 24 O       -5.1560    -3.3330     0.9290 O.co2 1 <1>  -0.9000 
 25 O       -2.6140    -8.2960    -1.2320 O.co2 1 <1>  -0.9000 
 26 O       -2.3880    -8.3250     0.9140 O.co2 1 <1>  -0.9000 
 27 H        3.9660    -1.3910    -1.0140 H     1 <1>   0.0800 
 28 H        3.7010    -0.9510     0.6480 H     1 <1>   0.0800 
 29 H        3.5370    -5.2060     0.8600 H     1 <1>   0.0800 
 30 H        3.3730    -5.5450    -0.8340 H     1 <1>   0.0800 
 31 H        5.8040    -2.2270     0.2580 H     1 <1>   0.0800 
 32 H        4.7510    -2.9310     1.4550 H     1 <1>   0.0800 
 33 H       -2.3660    -3.4270     1.0720 H     1 <1>   0.0800 
 34 H       -2.6190    -2.8830    -0.5750 H     1 <1>   0.0800 
 35 H       -0.6710    -6.4150    -0.5850 H     1 <1>   0.0800 
 36 H       -0.9930    -5.9180     1.0650 H     1 <1>   0.0800 
 37 H        5.6400    -4.6460    -0.1250 H     1 <1>   0.0800 
 38 H        4.8800    -3.7980    -1.4450 H     1 <1>   0.0800 
 39 H       -4.7550    -6.3650    -0.9910 H     1 <1>   0.1000 
 40 H       -4.7750    -6.3810     0.7880 H     1 <1>   0.1000 
@<TRIPOS>BOND
  1   1   2  1   
  2   2   3  1   
  3   2   4  1   
  4   2   5  1   
  5   5   6  ar  
  6   5   7  ar  
  7   6   8  ar  
  8   7   9  ar  
  9   7  10  1   
 10   8  11  ar  
 11   8  12  1   
 12   9  11  ar  
 13   9  13  1   
 14  10  14  1   
 15  10  27  1   
 16  10  28  1   
 17  12  15  1   
 18  12  16  1   
 19  13  17  1   
 20  13  29  1   
 21  13  30  1   
 22  14  17  1   
 23  14  31  1   
 24  14  32  1   
 25  15  18  1   
 26  15  33  1   
 27  15  34  1   
 28  16  19  1   
 29  16  35  1   
 30  16  36  1   
 31  17  37  1   
 32  17  38  1   
 33  18  19  1   
 34  18  20  1   
 35  18  21  1   
 36  19  21  1   
 37  19  22  1   
 38  20  23  ar  
 39  20  24  ar  
 40  21  39  1   
 41  21  40  1   
 42  22  25  ar  
 43  22  26  ar  
@<TRIPOS>SUBSTRUCTURE
  1 ****   8 GROUP 4 **** **** 0

# MOE 2024.06 (io_trps.svl 2023.06)
