@<TRIPOS>MOLECULE
NONAME
57 61 1 0 0 
SMALL
USER_CHARGES


@<TRIPOS>ATOM
  1 O        0.1440     0.3640     0.4780 O.2   1 <1>  -0.5700 
  2 C       -0.9310     0.8090     0.1600 C.2   1 <1>   0.5690 
  3 N       -2.0270     0.0280    -0.0400 N.am  1 <1>  -0.7300 
  4 C       -1.0670     2.3190    -0.0160 C.3   1 <1>  -0.0190 
  5 C       -2.1400    -1.4350     0.0800 C.3   1 <1>   0.3000 
  6 C       -2.1170     2.9230     0.9370 C.3   1 <1>  -0.1600 
  7 C       -1.3510     2.7090    -1.4870 C.3   1 <1>  -0.1600 
  8 C       -3.5840    -1.8170    -0.2800 C.3   1 <1>  -0.1600 
  9 C       -1.1790    -2.1410    -0.8950 C.3   1 <1>  -0.1600 
 10 C       -1.8480    -1.8860     1.5230 C.3   1 <1>  -0.1600 
 11 C       -2.1270     4.4660     0.8810 C.3   1 <1>   0.2000 
 12 C       -1.9950     4.1020    -1.6450 C.3   1 <1>  -0.1600 
 13 C       -3.7840    -3.3470    -0.1710 C.3   1 <1>   0.2560 
 14 C       -1.3430    -3.6680    -0.7820 C.3   1 <1>  -0.0800 
 15 C       -2.0140    -3.4130     1.6420 C.3   1 <1>  -0.0800 
 16 O       -3.4460     4.8990     1.1080 O.3   1 <1>  -0.5600 
 17 C       -1.6330     5.0260    -0.4790 C.3   1 <1>   0.2000 
 18 N       -5.2080    -3.6940    -0.4970 N.pl3 1 <1>   0.3140 
 19 C       -2.7920    -4.0460    -1.1350 C.3   1 <1>  -0.1600 
 20 C       -3.4610    -3.7920     1.2750 C.3   1 <1>  -0.1600 
 21 C       -1.0450    -4.1040     0.6650 C.3   1 <1>  -0.1600 
 22 C       -3.8310     4.9480     2.4470 C.3   1 <1>   0.0400 
 23 O       -2.2230     6.2520    -0.7070 O.3   1 <1>  -0.6800 
 24 N       -6.2520    -3.1410     0.1220 N.2   1 <1>  -0.7070 
 25 C       -5.6830    -4.5620    -1.4020 C.2   1 <1>   0.0360 
 26 C       -7.2590    -3.7110    -0.4500 C.2   1 <1>   0.3660 
 27 N       -6.9660    -4.6010    -1.4050 N.2   1 <1>  -0.5650 
 28 H       -2.9020     0.4880    -0.2830 H     1 <1>   0.3700 
 29 H       -0.1150     2.7430     0.2540 H     1 <1>   0.0800 
 30 H       -1.9050     2.6080     1.9440 H     1 <1>   0.0800 
 31 H       -3.0880     2.5520     0.6620 H     1 <1>   0.0800 
 32 H       -0.4190     2.6850    -2.0260 H     1 <1>   0.0800 
 33 H       -2.0000     1.9860    -1.9500 H     1 <1>   0.0800 
 34 H       -3.8040    -1.5010    -1.2840 H     1 <1>   0.0800 
 35 H       -4.2590    -1.3220     0.3950 H     1 <1>   0.0800 
 36 H       -1.3760    -1.8230    -1.9030 H     1 <1>   0.0800 
 37 H       -0.1610    -1.8850    -0.6600 H     1 <1>   0.0800 
 38 H       -0.8410    -1.6230     1.7940 H     1 <1>   0.0800 
 39 H       -2.5170    -1.3920     2.2050 H     1 <1>   0.0800 
 40 H       -1.4910     4.8690     1.6500 H     1 <1>   0.0800 
 41 H       -3.0660     3.9920    -1.6700 H     1 <1>   0.0800 
 42 H       -1.6790     4.5430    -2.5740 H     1 <1>   0.0800 
 43 H       -0.6600    -4.1560    -1.4570 H     1 <1>   0.0800 
 44 H       -1.7990    -3.7240     2.6510 H     1 <1>   0.0800 
 45 H       -0.5660     5.1720    -0.4590 H     1 <1>   0.0800 
 46 H       -2.8970    -5.1150    -1.0630 H     1 <1>   0.0800 
 47 H       -2.9950    -3.7520    -2.1510 H     1 <1>   0.0800 
 48 H       -4.1390    -3.3150     1.9630 H     1 <1>   0.0800 
 49 H       -3.5890    -4.8560     1.3680 H     1 <1>   0.0800 
 50 H       -0.0300    -3.8460     0.9190 H     1 <1>   0.0800 
 51 H       -1.1370    -5.1730     0.7530 H     1 <1>   0.0800 
 52 H       -4.8490     5.2910     2.4900 H     1 <1>   0.0800 
 53 H       -3.1950     5.6380     2.9750 H     1 <1>   0.0800 
 54 H       -3.7640     3.9650     2.8790 H     1 <1>   0.0800 
 55 H       -3.0980     6.2150    -0.2560 H     1 <1>   0.4000 
 56 H       -5.0570    -5.1510    -2.0450 H     1 <1>   0.1500 
 57 H       -8.2850    -3.5010    -0.1920 H     1 <1>   0.1500 
@<TRIPOS>BOND
  1   1   2  2   
  2   2   3  am  
  3   2   4  1   
  4   3   5  1   
  5   3  28  1   
  6   4   6  1   
  7   4   7  1   
  8   4  29  1   
  9   5   8  1   
 10   5   9  1   
 11   5  10  1   
 12   6  11  1   
 13   6  30  1   
 14   6  31  1   
 15   7  12  1   
 16   7  32  1   
 17   7  33  1   
 18   8  13  1   
 19   8  34  1   
 20   8  35  1   
 21   9  14  1   
 22   9  36  1   
 23   9  37  1   
 24  10  15  1   
 25  10  38  1   
 26  10  39  1   
 27  11  16  1   
 28  11  17  1   
 29  11  40  1   
 30  12  17  1   
 31  12  41  1   
 32  12  42  1   
 33  13  18  1   
 34  13  19  1   
 35  13  20  1   
 36  14  19  1   
 37  14  21  1   
 38  14  43  1   
 39  15  20  1   
 40  15  21  1   
 41  15  44  1   
 42  16  22  1   
 43  17  23  1   
 44  17  45  1   
 45  18  24  1   
 46  18  25  1   
 47  19  46  1   
 48  19  47  1   
 49  20  48  1   
 50  20  49  1   
 51  21  50  1   
 52  21  51  1   
 53  22  52  1   
 54  22  53  1   
 55  22  54  1   
 56  23  55  1   
 57  24  26  2   
 58  25  27  2   
 59  25  56  1   
 60  26  27  1   
 61  26  57  1   
@<TRIPOS>SUBSTRUCTURE
  1 ****   3 GROUP 4 **** **** 0

# MOE 2024.06 (io_trps.svl 2023.06)
