@<TRIPOS>MOLECULE
NONAME
57 59 1 0 0 
SMALL
USER_CHARGES


@<TRIPOS>ATOM
  1 O        1.7730    -0.8020     1.0100 O.2   1 <1>  -0.5700 
  2 C        1.8170    -0.7130    -0.1960 C.2   1 <1>   0.5690 
  3 N        1.8270     0.4920    -0.8210 N.am  1 <1>  -0.7300 
  4 C        1.8490    -1.9830    -1.0480 C.3   1 <1>  -0.0190 
  5 C        1.7490     1.7970    -0.1360 C.3   1 <1>   0.1400 
  6 C        0.5660    -2.8470    -0.8970 C.3   1 <1>  -0.0190 
  7 C        3.1450    -2.7860    -0.7670 C.3   1 <1>  -0.1600 
  8 C        3.1430     2.4190    -0.0990 C.3   1 <1>  -0.1600 
  9 C       -0.7100    -2.0200    -0.7380 C.2   1 <1>   0.5690 
 10 C        0.7390    -3.9160     0.2000 C.3   1 <1>  -0.1600 
 11 C        2.9710    -4.2850    -1.0400 C.3   1 <1>  -0.1600 
 12 C        3.1390     3.7420     0.6760 C.3   1 <1>   0.0200 
 13 O       -1.4210    -1.8700    -1.7020 O.2   1 <1>  -0.5700 
 14 N       -1.0070    -1.4670     0.4670 N.am  1 <1>  -0.7300 
 15 C        1.8840    -4.8930    -0.1340 C.3   1 <1>  -0.1600 
 16 C        4.5160     4.3760     0.6670 C.2   1 <1>   0.0060 
 17 C       -2.2100    -0.6590     0.7750 C.3   1 <1>   0.0600 
 18 N        4.8240     5.4010    -0.0450 N.2   1 <1>  -0.5650 
 19 N        5.5420     3.9030     1.4170 N.pl3 1 <1>   0.0330 
 20 C        6.1400     5.6390     0.2400 C.ar  1 <1>   0.2270 
 21 C        6.6000     4.7070     1.1520 C.ar  1 <1>  -0.1520 
 22 C        6.9990     6.6330    -0.2470 C.ar  1 <1>  -0.1440 
 23 C        7.9160     4.7260     1.6080 C.ar  1 <1>  -0.1500 
 24 C        8.3130     6.6520     0.1940 C.ar  1 <1>  -0.1440 
 25 C        6.4400     7.6410    -1.2460 C.3   1 <1>  -0.0970 
 26 C        8.7580     5.6990     1.1220 C.ar  1 <1>  -0.1500 
 27 C        9.3150     7.6860    -0.3010 C.3   1 <1>  -0.0970 
 28 H        1.8440     0.5310    -1.8420 H     1 <1>   0.3700 
 29 H        1.8780    -1.6750    -2.0770 H     1 <1>   0.0800 
 30 H        1.0630     2.4380    -0.6640 H     1 <1>   0.0800 
 31 H        1.3820     1.6580     0.8670 H     1 <1>   0.0800 
 32 H        0.4410    -3.3880    -1.8200 H     1 <1>   0.0800 
 33 H        3.9490    -2.3930    -1.3660 H     1 <1>   0.0800 
 34 H        3.4290    -2.6700     0.2650 H     1 <1>   0.0800 
 35 H        3.8230     1.7320     0.3740 H     1 <1>   0.0800 
 36 H        3.4830     2.6040    -1.1040 H     1 <1>   0.0800 
 37 H        0.9550    -3.4270     1.1350 H     1 <1>   0.0800 
 38 H       -0.1770    -4.4670     0.3260 H     1 <1>   0.0800 
 39 H        2.6990    -4.4250    -2.0720 H     1 <1>   0.0800 
 40 H        3.9030    -4.8000    -0.8780 H     1 <1>   0.0800 
 41 H        2.8260     3.5810     1.6920 H     1 <1>   0.0800 
 42 H        2.4450     4.4250     0.2180 H     1 <1>   0.0800 
 43 H       -0.2530    -1.4410     1.1690 H     1 <1>   0.3700 
 44 H        2.3300    -5.2220     0.7900 H     1 <1>   0.0800 
 45 H        1.4810    -5.7650    -0.6220 H     1 <1>   0.0800 
 46 H       -2.9150    -0.7140    -0.0380 H     1 <1>   0.0800 
 47 H       -1.9270     0.3680     0.9240 H     1 <1>   0.0800 
 48 H       -2.6790    -1.0330     1.6680 H     1 <1>   0.0800 
 49 H        5.5310     3.1010     2.0500 H     1 <1>   0.2700 
 50 H        8.2590     3.9960     2.3190 H     1 <1>   0.1500 
 51 H        6.9520     8.5830    -1.1870 H     1 <1>   0.0800 
 52 H        5.3990     7.8220    -1.0460 H     1 <1>   0.0800 
 53 H        6.5320     7.2490    -2.2420 H     1 <1>   0.0800 
 54 H        9.7790     5.7290     1.4620 H     1 <1>   0.1500 
 55 H       10.3190     7.4080    -0.0380 H     1 <1>   0.0800 
 56 H        9.0980     8.6420     0.1390 H     1 <1>   0.0800 
 57 H        9.2640     7.7710    -1.3710 H     1 <1>   0.0800 
@<TRIPOS>BOND
  1   1   2  2   
  2   2   3  am  
  3   2   4  1   
  4   3   5  1   
  5   3  28  1   
  6   4   6  1   
  7   4   7  1   
  8   4  29  1   
  9   5   8  1   
 10   5  30  1   
 11   5  31  1   
 12   6   9  1   
 13   6  10  1   
 14   6  32  1   
 15   7  11  1   
 16   7  33  1   
 17   7  34  1   
 18   8  12  1   
 19   8  35  1   
 20   8  36  1   
 21   9  13  2   
 22   9  14  am  
 23  10  15  1   
 24  10  37  1   
 25  10  38  1   
 26  11  15  1   
 27  11  39  1   
 28  11  40  1   
 29  12  16  1   
 30  12  41  1   
 31  12  42  1   
 32  14  17  1   
 33  14  43  1   
 34  15  44  1   
 35  15  45  1   
 36  16  18  2   
 37  16  19  1   
 38  17  46  1   
 39  17  47  1   
 40  17  48  1   
 41  18  20  1   
 42  19  21  1   
 43  19  49  1   
 44  20  21  ar  
 45  20  22  ar  
 46  21  23  ar  
 47  22  24  ar  
 48  22  25  1   
 49  23  26  ar  
 50  23  50  1   
 51  24  26  ar  
 52  24  27  1   
 53  25  51  1   
 54  25  52  1   
 55  25  53  1   
 56  26  54  1   
 57  27  55  1   
 58  27  56  1   
 59  27  57  1   
@<TRIPOS>SUBSTRUCTURE
  1 ****   8 GROUP 4 **** **** 0

# MOE 2024.06 (io_trps.svl 2023.06)
