@<TRIPOS>MOLECULE
NONAME
54 57 1 0 0 
SMALL
USER_CHARGES


@<TRIPOS>ATOM
  1 S       -0.6650    -0.0200    -1.7500 S.o2  1 <1>   1.3330 
  2 O       -0.6560     1.1200    -2.6390 O.2   1 <1>  -0.6500 
  3 O       -1.2290    -1.2730    -2.1960 O.2   1 <1>  -0.6500 
  4 N       -1.4840     0.4300    -0.3360 N.am  1 <1>  -0.8490 
  5 C        1.0210    -0.3010    -1.1910 C.3   1 <1>  -0.0550 
  6 C       -2.7000     1.2110    -0.6420 C.3   1 <1>   0.1960 
  7 C       -1.8210    -0.7190     0.5130 C.3   1 <1>   0.1960 
  8 C        1.6670     0.9110    -0.4970 C.3   1 <1>  -0.1600 
  9 C       -3.3490     1.7800     0.6350 C.3   1 <1>   0.1430 
 10 C       -2.4110    -0.2400     1.8450 C.3   1 <1>  -0.1600 
 11 C        3.1030     0.6020    -0.0570 C.3   1 <1>  -0.1600 
 12 C       -4.5940     2.5540     0.2430 C.ar  1 <1>   0.1670 
 13 C       -3.6550     0.6320     1.6200 C.3   1 <1>  -0.1600 
 14 C       -2.4600     2.8800     1.2780 C.3   1 <1>  -0.1600 
 15 C        3.7350     1.8110     0.6370 C.3   1 <1>  -0.2400 
 16 N       -5.7270     2.0240    -0.1510 N.ar  1 <1>  -0.6200 
 17 C       -4.3980     3.8970     0.3310 C.ar  1 <1>  -0.1440 
 18 C       -3.0010     4.2350     0.7880 C.3   1 <1>  -0.0170 
 19 C       -6.7030     2.8890    -0.4560 C.ar  1 <1>   0.6200 
 20 C       -5.4440     4.7180     0.0010 C.ar  1 <1>   0.1600 
 21 N       -6.5980     4.2250    -0.3890 N.ar  1 <1>  -0.6200 
 22 C       -7.9780     2.3350    -0.8930 C.ar  1 <1>   0.0000 
 23 C       -9.1840     3.0060    -0.6680 C.ar  1 <1>  -0.1500 
 24 C       -8.0550     1.1070    -1.5570 C.ar  1 <1>  -0.1500 
 25 C      -10.3960     2.4830    -1.0810 C.ar  1 <1>  -0.1500 
 26 C       -9.2630     0.5780    -1.9730 C.ar  1 <1>  -0.1500 
 27 C      -10.4390     1.2660    -1.7350 C.ar  1 <1>  -0.1500 
 28 H        1.6180    -0.5710    -2.0400 H     1 <1>   0.0800 
 29 H        1.0310    -1.1330    -0.5150 H     1 <1>   0.0800 
 30 H       -3.4100     0.5870    -1.1620 H     1 <1>   0.0800 
 31 H       -2.4540     2.0350    -1.2910 H     1 <1>   0.0800 
 32 H       -0.9360    -1.2990     0.7100 H     1 <1>   0.0800 
 33 H       -2.5310    -1.3540     0.0070 H     1 <1>   0.0800 
 34 H        1.0790     1.1860     0.3620 H     1 <1>   0.0800 
 35 H        1.6690     1.7470    -1.1780 H     1 <1>   0.0800 
 36 H       -1.6600     0.3130     2.3820 H     1 <1>   0.0800 
 37 H       -2.6760    -1.0950     2.4410 H     1 <1>   0.0800 
 38 H        3.6980     0.3370    -0.9160 H     1 <1>   0.0800 
 39 H        3.1040    -0.2350     0.6210 H     1 <1>   0.0800 
 40 H       -4.4360     0.0170     1.2040 H     1 <1>   0.0800 
 41 H       -4.0170     1.0240     2.5540 H     1 <1>   0.0800 
 42 H       -1.4190     2.7590     1.0360 H     1 <1>   0.0800 
 43 H       -2.5640     2.8460     2.3480 H     1 <1>   0.0800 
 44 H        3.7660     2.6540    -0.0310 H     1 <1>   0.0800 
 45 H        4.7410     1.5780     0.9390 H     1 <1>   0.0800 
 46 H        3.1700     2.0820     1.5120 H     1 <1>   0.0800 
 47 H       -2.4230     4.5940    -0.0470 H     1 <1>   0.0800 
 48 H       -3.0030     4.9680     1.5760 H     1 <1>   0.0800 
 49 H       -5.3360     5.7880     0.0540 H     1 <1>   0.1500 
 50 H       -9.1700     3.9540    -0.1600 H     1 <1>   0.1500 
 51 H       -7.1500     0.5580    -1.7520 H     1 <1>   0.1500 
 52 H      -11.3070     3.0240    -0.8930 H     1 <1>   0.1500 
 53 H       -9.2880    -0.3700    -2.4810 H     1 <1>   0.1500 
 54 H      -11.3800     0.8560    -2.0570 H     1 <1>   0.1500 
@<TRIPOS>BOND
  1   1   2  2   
  2   1   3  2   
  3   1   4  am  
  4   1   5  1   
  5   4   6  1   
  6   4   7  1   
  7   5   8  1   
  8   5  28  1   
  9   5  29  1   
 10   6   9  1   
 11   6  30  1   
 12   6  31  1   
 13   7  10  1   
 14   7  32  1   
 15   7  33  1   
 16   8  11  1   
 17   8  34  1   
 18   8  35  1   
 19   9  12  1   
 20   9  13  1   
 21   9  14  1   
 22  10  13  1   
 23  10  36  1   
 24  10  37  1   
 25  11  15  1   
 26  11  38  1   
 27  11  39  1   
 28  12  16  ar  
 29  12  17  ar  
 30  13  40  1   
 31  13  41  1   
 32  14  18  1   
 33  14  42  1   
 34  14  43  1   
 35  15  44  1   
 36  15  45  1   
 37  15  46  1   
 38  16  19  ar  
 39  17  18  1   
 40  17  20  ar  
 41  18  47  1   
 42  18  48  1   
 43  19  21  ar  
 44  19  22  1   
 45  20  21  ar  
 46  20  49  1   
 47  22  23  ar  
 48  22  24  ar  
 49  23  25  ar  
 50  23  50  1   
 51  24  26  ar  
 52  24  51  1   
 53  25  27  ar  
 54  25  52  1   
 55  26  27  ar  
 56  26  53  1   
 57  27  54  1   
@<TRIPOS>SUBSTRUCTURE
  1 ****   9 GROUP 4 **** **** 0

# MOE 2024.06 (io_trps.svl 2023.06)
