@<TRIPOS>MOLECULE
NONAME
44 47 1 0 0 
SMALL
USER_CHARGES


@<TRIPOS>ATOM
  1 S       -0.0070    -0.1090     1.6870 S.3   1 <1>  -0.0800 
  2 C        0.6500     1.4460     1.2650 C.2   1 <1>   0.1240 
  3 C        1.1760    -0.9500     0.6610 C.2   1 <1>  -0.0450 
  4 N        0.1930     2.6330     1.7230 N.pl3 1 <1>  -0.5340 
  5 C        1.6940     1.3450     0.4060 C.2   1 <1>  -0.0860 
  6 C        1.9880    -0.0220     0.0750 C.2   1 <1>  -0.1810 
  7 C        1.1340    -2.3910     0.6200 C.2   1 <1>   0.7150 
  8 C        0.8120     3.7720     1.2980 C.2   1 <1>   0.4400 
  9 C        2.2870     2.5890     0.0050 C.2   1 <1>   0.8670 
 10 C        3.1370    -0.3560    -0.8680 C.3   1 <1>  -0.0590 
 11 O        2.1690    -3.0320     0.6780 O.2   1 <1>  -0.5700 
 12 N       -0.0490    -3.0870     0.4890 N.am  1 <1>  -0.6600 
 13 N        1.8040     3.7870     0.4850 N.2   1 <1>  -0.6610 
 14 O        3.2280     2.6330    -0.7730 O.2   1 <1>  -0.5700 
 15 C       -1.2850    -2.5250    -0.1110 C.3   1 <1>   0.1400 
 16 C       -0.0840    -4.5710     0.4510 C.3   1 <1>   0.1400 
 17 C       -1.9750    -3.7160    -0.7730 C.3   1 <1>   0.2000 
 18 C       -1.5010    -4.9400     0.0060 C.3   1 <1>  -0.0800 
 19 O       -3.3540    -3.6080    -0.7080 O.3   1 <1>  -0.6800 
 20 C       -1.5710    -6.2370    -0.8150 C.3   1 <1>  -0.0170 
 21 C       -1.0780    -7.4240    -0.0040 C.ar  1 <1>  -0.1430 
 22 C       -1.9020    -8.0880     0.8830 C.ar  1 <1>  -0.1500 
 23 C        0.2150    -7.8990    -0.1060 C.ar  1 <1>  -0.1500 
 24 C       -1.4070    -9.1600     1.6060 C.ar  1 <1>   0.1600 
 25 C        0.6100    -8.9790     0.6660 C.ar  1 <1>   0.1600 
 26 N       -0.1700    -9.6200     1.5200 N.ar  1 <1>  -0.6200 
 27 H       -0.5910     2.6760     2.3780 H     1 <1>   0.4000 
 28 H        0.4270     4.7010     1.6820 H     1 <1>   0.0600 
 29 H        2.9910     0.1280    -1.8160 H     1 <1>   0.0800 
 30 H        3.2140    -1.4140    -1.0380 H     1 <1>   0.0800 
 31 H        4.0660    -0.0140    -0.4480 H     1 <1>   0.0800 
 32 H       -1.9020    -2.1170     0.6700 H     1 <1>   0.0800 
 33 H       -1.0510    -1.7660    -0.8380 H     1 <1>   0.0800 
 34 H        0.6450    -4.9200    -0.2610 H     1 <1>   0.0800 
 35 H        0.1440    -4.9810     1.4210 H     1 <1>   0.0800 
 36 H       -1.6860    -3.7720    -1.8090 H     1 <1>   0.0800 
 37 H       -2.0940    -5.0500     0.8970 H     1 <1>   0.0800 
 38 H       -3.6610    -3.6390     0.2180 H     1 <1>   0.4000 
 39 H       -0.9810    -6.1390    -1.7100 H     1 <1>   0.0800 
 40 H       -2.5890    -6.4120    -1.1190 H     1 <1>   0.0800 
 41 H       -2.9230    -7.7820     1.0170 H     1 <1>   0.1500 
 42 H        0.9200    -7.4410    -0.7750 H     1 <1>   0.1500 
 43 H       -2.0640    -9.6660     2.2930 H     1 <1>   0.1500 
 44 H        1.6230    -9.3340     0.5740 H     1 <1>   0.1500 
@<TRIPOS>BOND
  1   1   2  1   
  2   1   3  1   
  3   2   4  1   
  4   2   5  2   
  5   3   6  2   
  6   3   7  1   
  7   4   8  1   
  8   4  27  1   
  9   5   6  1   
 10   5   9  1   
 11   6  10  1   
 12   7  11  2   
 13   7  12  am  
 14   8  13  2   
 15   8  28  1   
 16   9  13  1   
 17   9  14  2   
 18  10  29  1   
 19  10  30  1   
 20  10  31  1   
 21  12  15  1   
 22  12  16  1   
 23  15  17  1   
 24  15  32  1   
 25  15  33  1   
 26  16  18  1   
 27  16  34  1   
 28  16  35  1   
 29  17  18  1   
 30  17  19  1   
 31  17  36  1   
 32  18  20  1   
 33  18  37  1   
 34  19  38  1   
 35  20  21  1   
 36  20  39  1   
 37  20  40  1   
 38  21  22  ar  
 39  21  23  ar  
 40  22  24  ar  
 41  22  41  1   
 42  23  25  ar  
 43  23  42  1   
 44  24  26  ar  
 45  24  43  1   
 46  25  26  ar  
 47  25  44  1   
@<TRIPOS>SUBSTRUCTURE
  1 ****  12 GROUP 4 **** **** 0

# MOE 2024.06 (io_trps.svl 2023.06)
