@<TRIPOS>MOLECULE
NONAME
60 63 1 0 0 
SMALL
USER_CHARGES


@<TRIPOS>ATOM
  1 O        0.1070     0.5590     0.1760 O.2   1 <1>  -0.5700 
  2 C       -0.5160     1.5860     0.3140 C.2   1 <1>   0.5690 
  3 N       -1.8850     1.6000     0.2280 N.am  1 <1>  -0.6600 
  4 C        0.2510     2.8770     0.5890 C.3   1 <1>  -0.0990 
  5 C       -2.7530     2.8100     0.3760 C.3   1 <1>   0.1400 
  6 C       -2.6230     0.3200    -0.0130 C.3   1 <1>   0.1400 
  7 C        1.7830     2.7230     0.6220 C.3   1 <1>  -0.1600 
  8 C       -3.6140     3.0390    -0.8870 C.3   1 <1>   0.1440 
  9 C       -4.0740     0.5550    -0.4670 C.3   1 <1>  -0.1600 
 10 C        2.4790     4.0640     0.8970 C.3   1 <1>  -0.1600 
 11 C       -4.7260     4.0000    -0.5020 C.ar  1 <1>   0.1660 
 12 C       -4.1520     1.7080    -1.4790 C.3   1 <1>  -0.1600 
 13 C       -2.8430     3.8540    -1.9590 C.3   1 <1>  -0.1600 
 14 C        4.0040     3.8990     0.9220 C.3   1 <1>  -0.1600 
 15 N       -5.7820     3.6930     0.2120 N.ar  1 <1>  -0.6200 
 16 C       -4.4930     5.2550    -0.9730 C.ar  1 <1>  -0.1440 
 17 C       -3.1990     5.3350    -1.7440 C.3   1 <1>  -0.0170 
 18 C        4.7040     5.2300     1.1960 C.3   1 <1>   0.1200 
 19 C       -6.6450     4.6920     0.4440 C.ar  1 <1>   0.6200 
 20 C       -5.4180     6.2250    -0.6900 C.ar  1 <1>   0.1600 
 21 O        6.0730     5.0010     1.1990 O.3   1 <1>  -0.5600 
 22 N       -6.4940     5.9540     0.0140 N.ar  1 <1>  -0.6200 
 23 C       -7.8360     4.3830     1.2250 C.ar  1 <1>   0.0000 
 24 C        6.8360     6.1380     1.4390 C.3   1 <1>   0.0400 
 25 C       -9.0200     5.1130     1.0780 C.ar  1 <1>  -0.1500 
 26 C       -7.8530     3.3400     2.1570 C.ar  1 <1>  -0.1500 
 27 C      -10.1530     4.8220     1.8160 C.ar  1 <1>  -0.1500 
 28 C       -8.9820     3.0430     2.8990 C.ar  1 <1>  -0.1500 
 29 C      -10.1370     3.7850     2.7300 C.ar  1 <1>  -0.1500 
 30 H       -0.0780     3.2620     1.5360 H     1 <1>   0.0800 
 31 H       -0.0030     3.5870    -0.1750 H     1 <1>   0.0800 
 32 H       -2.1790     3.6920     0.5900 H     1 <1>   0.0800 
 33 H       -3.4040     2.6470     1.2190 H     1 <1>   0.0800 
 34 H       -2.6100    -0.2710     0.8870 H     1 <1>   0.0800 
 35 H       -2.1030    -0.2340    -0.7770 H     1 <1>   0.0800 
 36 H        2.1200     2.3280    -0.3220 H     1 <1>   0.0800 
 37 H        2.0500     2.0140     1.3880 H     1 <1>   0.0800 
 38 H       -4.6890     0.7780     0.3870 H     1 <1>   0.0800 
 39 H       -4.4550    -0.3480    -0.9090 H     1 <1>   0.0800 
 40 H        2.1470     4.4510     1.8460 H     1 <1>   0.0800 
 41 H        2.2100     4.7710     0.1310 H     1 <1>   0.0800 
 42 H       -3.5610     1.4240    -2.3320 H     1 <1>   0.0800 
 43 H       -5.1670     1.8350    -1.8150 H     1 <1>   0.0800 
 44 H       -3.1930     3.5790    -2.9390 H     1 <1>   0.0800 
 45 H       -1.7820     3.6800    -1.9220 H     1 <1>   0.0800 
 46 H        4.3410     3.5180    -0.0270 H     1 <1>   0.0800 
 47 H        4.2790     3.1970     1.6900 H     1 <1>   0.0800 
 48 H       -3.3230     5.8530    -2.6790 H     1 <1>   0.0800 
 49 H       -2.4500     5.8270    -1.1470 H     1 <1>   0.0800 
 50 H        4.4160     5.6180     2.1580 H     1 <1>   0.0800 
 51 H        4.4740     5.9450     0.4240 H     1 <1>   0.0800 
 52 H       -5.2780     7.2330    -1.0420 H     1 <1>   0.1500 
 53 H        7.8730     5.8540     1.4200 H     1 <1>   0.0800 
 54 H        6.5860     6.5360     2.4080 H     1 <1>   0.0800 
 55 H        6.6450     6.8640     0.6680 H     1 <1>   0.0800 
 56 H       -9.0530     5.9240     0.3710 H     1 <1>   0.1500 
 57 H       -6.9650     2.7510     2.3040 H     1 <1>   0.1500 
 58 H      -11.0470     5.4040     1.6790 H     1 <1>   0.1500 
 59 H       -8.9630     2.2340     3.6080 H     1 <1>   0.1500 
 60 H      -11.0170     3.5560     3.3050 H     1 <1>   0.1500 
@<TRIPOS>BOND
  1   1   2  2   
  2   2   3  am  
  3   2   4  1   
  4   3   5  1   
  5   3   6  1   
  6   4   7  1   
  7   4  30  1   
  8   4  31  1   
  9   5   8  1   
 10   5  32  1   
 11   5  33  1   
 12   6   9  1   
 13   6  34  1   
 14   6  35  1   
 15   7  10  1   
 16   7  36  1   
 17   7  37  1   
 18   8  11  1   
 19   8  12  1   
 20   8  13  1   
 21   9  12  1   
 22   9  38  1   
 23   9  39  1   
 24  10  14  1   
 25  10  40  1   
 26  10  41  1   
 27  11  15  ar  
 28  11  16  ar  
 29  12  42  1   
 30  12  43  1   
 31  13  17  1   
 32  13  44  1   
 33  13  45  1   
 34  14  18  1   
 35  14  46  1   
 36  14  47  1   
 37  15  19  ar  
 38  16  17  1   
 39  16  20  ar  
 40  17  48  1   
 41  17  49  1   
 42  18  21  1   
 43  18  50  1   
 44  18  51  1   
 45  19  22  ar  
 46  19  23  1   
 47  20  22  ar  
 48  20  52  1   
 49  21  24  1   
 50  23  25  ar  
 51  23  26  ar  
 52  24  53  1   
 53  24  54  1   
 54  24  55  1   
 55  25  27  ar  
 56  25  56  1   
 57  26  28  ar  
 58  26  57  1   
 59  27  29  ar  
 60  27  58  1   
 61  28  29  ar  
 62  28  59  1   
 63  29  60  1   
@<TRIPOS>SUBSTRUCTURE
  1 ****   5 GROUP 4 **** **** 0

# MOE 2024.06 (io_trps.svl 2023.06)
