@<TRIPOS>MOLECULE
NONAME
30 31 1 0 0 
SMALL
USER_CHARGES


@<TRIPOS>ATOM
  1 CL      -0.5070    -0.0880     1.5990 Cl    1 <1>  -0.1770 
  2 C       -1.8960    -0.9480     0.9720 C.ar  1 <1>   0.1770 
  3 C       -1.8240    -2.2840     0.6650 C.ar  1 <1>   0.1600 
  4 C       -3.0950    -0.3090     0.7720 C.ar  1 <1>   0.1600 
  5 N       -2.8600    -2.9410     0.1940 N.ar  1 <1>  -0.6200 
  6 N       -4.1460    -0.9440     0.3010 N.ar  1 <1>  -0.6200 
  7 C       -3.9850    -2.2410     0.0280 C.ar  1 <1>   0.7200 
  8 N       -5.0800    -2.9250    -0.4550 N.pl3 1 <1>  -0.8380 
  9 C       -5.1100    -4.4240    -0.4890 C.3   1 <1>   0.2090 
 10 C       -6.2470    -2.2430    -1.0800 C.3   1 <1>   0.2090 
 11 C       -6.5540    -4.9720    -0.4730 C.3   1 <1>  -0.0800 
 12 C       -7.5450    -2.6330    -0.3570 C.3   1 <1>  -0.1600 
 13 C       -7.4980    -4.0250     0.2890 C.3   1 <1>   0.2000 
 14 C       -6.5990    -6.3850     0.1240 C.3   1 <1>   0.1200 
 15 O       -7.0190    -3.8690     1.5720 O.3   1 <1>  -0.6800 
 16 O       -5.8220    -7.2370    -0.6460 O.3   1 <1>  -0.6800 
 17 H       -0.9000    -2.8160     0.8100 H     1 <1>   0.1500 
 18 H       -3.1870     0.7370     1.0030 H     1 <1>   0.1500 
 19 H       -4.5900    -4.7780    -1.3620 H     1 <1>   0.0800 
 20 H       -4.5890    -4.8000     0.3760 H     1 <1>   0.0800 
 21 H       -6.1370    -1.1720    -1.0800 H     1 <1>   0.0800 
 22 H       -6.3030    -2.5570    -2.1080 H     1 <1>   0.0800 
 23 H       -6.9080    -5.0330    -1.4860 H     1 <1>   0.0800 
 24 H       -8.3370    -2.6130    -1.0820 H     1 <1>   0.0800 
 25 H       -7.7840    -1.8910     0.3850 H     1 <1>   0.0800 
 26 H       -8.4900    -4.4390     0.3640 H     1 <1>   0.0800 
 27 H       -7.6050    -6.7690     0.1470 H     1 <1>   0.0800 
 28 H       -6.2020    -6.3870     1.1260 H     1 <1>   0.0800 
 29 H       -6.1660    -3.3840     1.4980 H     1 <1>   0.4000 
 30 H       -6.2340    -7.3940    -1.5180 H     1 <1>   0.4000 
@<TRIPOS>BOND
  1   1   2  1   
  2   2   3  ar  
  3   2   4  ar  
  4   3   5  ar  
  5   3  17  1   
  6   4   6  ar  
  7   4  18  1   
  8   5   7  ar  
  9   6   7  ar  
 10   7   8  1   
 11   8   9  1   
 12   8  10  1   
 13   9  11  1   
 14   9  19  1   
 15   9  20  1   
 16  10  12  1   
 17  10  21  1   
 18  10  22  1   
 19  11  13  1   
 20  11  14  1   
 21  11  23  1   
 22  12  13  1   
 23  12  24  1   
 24  12  25  1   
 25  13  15  1   
 26  13  26  1   
 27  14  16  1   
 28  14  27  1   
 29  14  28  1   
 30  15  29  1   
 31  16  30  1   
@<TRIPOS>SUBSTRUCTURE
  1 ****   8 GROUP 4 **** **** 0

# MOE 2024.06 (io_trps.svl 2023.06)
