@<TRIPOS>MOLECULE
NONAME
39 41 1 0 0 
SMALL
USER_CHARGES


@<TRIPOS>ATOM
  1 S       -2.0620     2.7070     1.7380 S.3   1 <1>  -0.0900 
  2 C       -2.1630     1.0420     1.2220 C.2   1 <1>   0.1890 
  3 C       -0.5220     2.8220     0.9380 C.2   1 <1>  -0.1200 
  4 N       -1.1670     0.6310     0.5380 N.2   1 <1>  -0.5720 
  5 C       -3.3910     0.2440     1.6160 C.3   1 <1>   0.3390 
  6 C       -0.2270     1.6390     0.3720 C.2   1 <1>   0.0350 
  7 N       -3.2440    -1.0800     0.9800 N.pl3 1 <1>  -0.7190 
  8 C        1.0190     1.2840    -0.4270 C.3   1 <1>   0.0100 
  9 C       -4.1500    -1.8780     0.4430 C.cat 1 <1>   1.0680 
 10 C        2.0060     2.4490    -0.5700 C.3   1 <1>  -0.2490 
 11 N       -5.4640    -1.7800     0.6260 N.pl3 1 <1>  -0.7050 
 12 N       -3.8700    -2.9000    -0.3640 N.pl3 1 <1>  -0.7690 
 13 C       -6.0610    -2.7740    -0.0890 C.2   1 <1>   0.4190 
 14 C       -5.0980    -3.4890    -0.7160 C.2   1 <1>   0.2680 
 15 C       -2.5600    -3.3990    -0.8740 C.3   1 <1>   0.2650 
 16 N       -7.4160    -3.0520    -0.1920 N.am  1 <1>  -0.4440 
 17 C       -5.4950    -4.5970    -1.5340 C.2   1 <1>   0.6980 
 18 C       -7.7930    -4.1290    -0.9830 C.2   1 <1>   0.6850 
 19 C       -8.4320    -2.2270     0.5240 C.3   1 <1>   0.0490 
 20 O       -4.7120    -5.3000    -2.1410 O.2   1 <1>  -0.5760 
 21 N       -6.8330    -4.8580    -1.6230 N.am  1 <1>  -0.4970 
 22 O       -8.9490    -4.4490    -1.1280 O.2   1 <1>  -0.5760 
 23 H       -0.0020     3.7620     0.9780 H     1 <1>   0.1400 
 24 H       -4.2780     0.7430     1.2690 H     1 <1>   0.0700 
 25 H       -3.4240     0.1390     2.6870 H     1 <1>   0.0700 
 26 H       -2.2680    -1.1820     0.6750 H     1 <1>   0.4430 
 27 H        0.7180     0.9580    -1.4070 H     1 <1>   0.0700 
 28 H        1.5150     0.4620     0.0570 H     1 <1>   0.0700 
 29 H        1.5390     3.2750    -1.0770 H     1 <1>   0.0700 
 30 H        2.8610     2.1360    -1.1430 H     1 <1>   0.0700 
 31 H        2.3430     2.7740     0.3980 H     1 <1>   0.0700 
 32 H       -5.9330    -1.1000     1.2150 H     1 <1>   0.4430 
 33 H       -1.7460    -2.8000    -0.5040 H     1 <1>   0.0700 
 34 H       -2.5520    -3.3680    -1.9510 H     1 <1>   0.0700 
 35 H       -2.4110    -4.4190    -0.5600 H     1 <1>   0.0700 
 36 H       -8.3110    -1.1900     0.2660 H     1 <1>   0.0700 
 37 H       -8.3180    -2.3500     1.5870 H     1 <1>   0.0700 
 38 H       -9.4300    -2.5270     0.2530 H     1 <1>   0.0700 
 39 H       -7.1430    -5.6410    -2.1960 H     1 <1>   0.3620 
@<TRIPOS>BOND
  1   1   2  1   
  2   1   3  1   
  3   2   4  2   
  4   2   5  1   
  5   3   6  2   
  6   3  23  1   
  7   4   6  1   
  8   5   7  1   
  9   5  24  1   
 10   5  25  1   
 11   6   8  1   
 12   7   9  ar  
 13   7  26  1   
 14   8  10  1   
 15   8  27  1   
 16   8  28  1   
 17   9  11  ar  
 18   9  12  ar  
 19  10  29  1   
 20  10  30  1   
 21  10  31  1   
 22  11  13  1   
 23  11  32  1   
 24  12  14  1   
 25  12  15  1   
 26  13  14  2   
 27  13  16  1   
 28  14  17  1   
 29  15  33  1   
 30  15  34  1   
 31  15  35  1   
 32  16  18  am  
 33  16  19  1   
 34  17  20  2   
 35  17  21  am  
 36  18  21  am  
 37  18  22  2   
 38  19  36  1   
 39  19  37  1   
 40  19  38  1   
 41  21  39  1   
@<TRIPOS>SUBSTRUCTURE
  1 ****   9 GROUP 4 **** **** 0

# MOE 2024.06 (io_trps.svl 2023.06)
