@<TRIPOS>MOLECULE
NONAME
39 41 1 0 0 
SMALL
USER_CHARGES


@<TRIPOS>ATOM
  1 CL      -0.4650    -1.2140    -2.4850 Cl    1 <1>  -0.1770 
  2 C        0.9700    -1.5190    -1.5220 C.ar  1 <1>   0.1770 
  3 C        1.1250    -2.7060    -0.8170 C.ar  1 <1>   0.4100 
  4 C        1.9660    -0.5850    -1.4460 C.ar  1 <1>   0.1600 
  5 N        2.2100    -2.9160    -0.0910 N.ar  1 <1>  -0.6200 
  6 N        0.1770    -3.7010    -0.8420 N.pl3 1 <1>  -0.8690 
  7 N        3.0570    -0.7870    -0.7250 N.ar  1 <1>  -0.6200 
  8 C        3.1100    -1.9480    -0.0920 C.ar  1 <1>   0.4770 
  9 C        0.1290    -4.8080     0.1280 C.3   1 <1>   0.3530 
 10 C        4.3470    -2.1970     0.7380 C.3   1 <1>  -0.0960 
 11 C       -1.2610    -5.4200     0.0780 C.ar  1 <1>  -0.1440 
 12 C       -2.2320    -5.0420     0.9920 C.ar  1 <1>  -0.1500 
 13 C       -1.5790    -6.3580    -0.8920 C.ar  1 <1>  -0.1500 
 14 C       -3.4950    -5.6040     0.9430 C.ar  1 <1>  -0.1500 
 15 C       -2.8450    -6.9160    -0.9380 C.ar  1 <1>  -0.1500 
 16 C       -3.8240    -6.5550    -0.0170 C.ar  1 <1>   0.1170 
 17 N       -5.1060    -7.1390    -0.0490 N.am  1 <1>  -0.4770 
 18 C       -6.3050    -6.5350     0.2030 C.2   1 <1>   0.5690 
 19 C       -5.2750    -8.5970    -0.2210 C.3   1 <1>   0.1400 
 20 O       -6.4960    -5.3630     0.4160 O.2   1 <1>  -0.5700 
 21 C       -7.4340    -7.5300     0.2010 C.3   1 <1>  -0.0990 
 22 C       -6.7880    -8.8160    -0.3300 C.3   1 <1>  -0.1600 
 23 H        1.8740     0.3430    -1.9810 H     1 <1>   0.1500 
 24 H       -0.7360    -3.4910    -1.2590 H     1 <1>   0.4000 
 25 H        0.3410    -4.4370     1.1170 H     1 <1>   0.0800 
 26 H        0.8730    -5.5410    -0.1290 H     1 <1>   0.0800 
 27 H        4.6100    -3.2370     0.7010 H     1 <1>   0.0800 
 28 H        4.1530    -1.9170     1.7550 H     1 <1>   0.0800 
 29 H        5.1700    -1.6170     0.3620 H     1 <1>   0.0800 
 30 H       -2.0100    -4.3060     1.7450 H     1 <1>   0.1500 
 31 H       -0.8400    -6.6510    -1.6180 H     1 <1>   0.1500 
 32 H       -4.2380    -5.2980     1.6580 H     1 <1>   0.1500 
 33 H       -3.0720    -7.6310    -1.7050 H     1 <1>   0.1500 
 34 H       -4.8760    -9.0990     0.6440 H     1 <1>   0.0800 
 35 H       -4.7730    -8.9450    -1.1060 H     1 <1>   0.0800 
 36 H       -8.2350    -7.1920    -0.4300 H     1 <1>   0.0800 
 37 H       -7.7860    -7.6570     1.2080 H     1 <1>   0.0800 
 38 H       -7.1030    -9.6850     0.2210 H     1 <1>   0.0800 
 39 H       -7.0480    -8.9500    -1.3660 H     1 <1>   0.0800 
@<TRIPOS>BOND
  1   1   2  1   
  2   2   3  ar  
  3   2   4  ar  
  4   3   5  ar  
  5   3   6  1   
  6   4   7  ar  
  7   4  23  1   
  8   5   8  ar  
  9   6   9  1   
 10   6  24  1   
 11   7   8  ar  
 12   8  10  1   
 13   9  11  1   
 14   9  25  1   
 15   9  26  1   
 16  10  27  1   
 17  10  28  1   
 18  10  29  1   
 19  11  12  ar  
 20  11  13  ar  
 21  12  14  ar  
 22  12  30  1   
 23  13  15  ar  
 24  13  31  1   
 25  14  16  ar  
 26  14  32  1   
 27  15  16  ar  
 28  15  33  1   
 29  16  17  1   
 30  17  18  am  
 31  17  19  1   
 32  18  20  2   
 33  18  21  1   
 34  19  22  1   
 35  19  34  1   
 36  19  35  1   
 37  21  22  1   
 38  21  36  1   
 39  21  37  1   
 40  22  38  1   
 41  22  39  1   
@<TRIPOS>SUBSTRUCTURE
  1 ****  11 GROUP 4 **** **** 0

# MOE 2024.06 (io_trps.svl 2023.06)
