@<TRIPOS>MOLECULE
NONAME
45 45 1 0 0 
SMALL
USER_CHARGES


@<TRIPOS>ATOM
  1 O        0.2060     0.3650    -1.0920 O.2   1 <1>  -0.5700 
  2 C        0.1430     1.4020    -0.4610 C.2   1 <1>   0.7800 
  3 O       -1.0260     2.0020    -0.2310 O.3   1 <1>  -0.4300 
  4 N        1.2640     2.0080     0.0260 N.am  1 <1>  -0.6600 
  5 C       -2.3070     1.5640    -0.6270 C.3   1 <1>   0.2800 
  6 C        2.6200     1.4030    -0.2240 C.3   1 <1>   0.2810 
  7 C        1.2490     3.2620     0.8400 C.3   1 <1>   0.1400 
  8 C       -2.4040     1.5220    -2.1570 C.3   1 <1>  -0.2400 
  9 C       -3.2720     2.6220    -0.0900 C.3   1 <1>  -0.2400 
 10 C       -2.6280     0.2120     0.0190 C.3   1 <1>  -0.2400 
 11 C        2.9320     0.2080     0.6940 C.2   1 <1>   0.6590 
 12 C        3.7240     2.4850    -0.1480 C.3   1 <1>  -0.1600 
 13 C        2.0510     4.3860     0.1380 C.3   1 <1>   0.2800 
 14 O        2.8390     0.2670     1.8960 O.2   1 <1>  -0.5700 
 15 O        3.3420    -0.8990     0.0820 O.3   1 <1>  -0.4300 
 16 C        3.2270     3.8340    -0.6990 C.3   1 <1>  -0.1600 
 17 O        2.5880     5.1840     1.1250 O.3   1 <1>  -0.6800 
 18 C        1.1500     5.2880    -0.7060 C.3   1 <1>  -0.2400 
 19 C        3.6280    -2.0740     0.8020 C.3   1 <1>   0.1200 
 20 C        4.0550    -3.1470    -0.1940 C.3   1 <1>  -0.2400 
 21 H        2.6150     1.0260    -1.2320 H     1 <1>   0.0800 
 22 H        0.2430     3.5910     1.0270 H     1 <1>   0.0800 
 23 H        1.7030     3.0410     1.7910 H     1 <1>   0.0800 
 24 H       -3.4170     1.3250    -2.4550 H     1 <1>   0.0800 
 25 H       -1.7890     0.7400    -2.5630 H     1 <1>   0.0800 
 26 H       -2.1010     2.4640    -2.5770 H     1 <1>   0.0800 
 27 H       -4.2850     2.3690    -0.3470 H     1 <1>   0.0800 
 28 H       -3.0440     3.5840    -0.5140 H     1 <1>   0.0800 
 29 H       -3.1980     2.6840     0.9800 H     1 <1>   0.0800 
 30 H       -3.6540    -0.0500    -0.1690 H     1 <1>   0.0800 
 31 H       -2.4770     0.2610     1.0820 H     1 <1>   0.0800 
 32 H       -2.0140    -0.5690    -0.3890 H     1 <1>   0.0800 
 33 H        4.0340     2.6120     0.8760 H     1 <1>   0.0800 
 34 H        4.5810     2.1500    -0.7040 H     1 <1>   0.0800 
 35 H        2.8910     3.6670    -1.7080 H     1 <1>   0.0800 
 36 H        4.0330     4.5460    -0.7430 H     1 <1>   0.0800 
 37 H        3.0600     5.9320     0.7190 H     1 <1>   0.4000 
 38 H        0.6600     4.7010    -1.4630 H     1 <1>   0.0800 
 39 H        1.7220     6.0570    -1.1920 H     1 <1>   0.0800 
 40 H        0.3910     5.7400    -0.0920 H     1 <1>   0.0800 
 41 H        4.4160    -1.8600     1.5050 H     1 <1>   0.0800 
 42 H        2.7400    -2.3710     1.3340 H     1 <1>   0.0800 
 43 H        4.9360    -2.8320    -0.7240 H     1 <1>   0.0800 
 44 H        3.2610    -3.3360    -0.8940 H     1 <1>   0.0800 
 45 H        4.2760    -4.0600     0.3280 H     1 <1>   0.0800 
@<TRIPOS>BOND
  1   1   2  2   
  2   2   3  1   
  3   2   4  am  
  4   3   5  1   
  5   4   6  1   
  6   4   7  1   
  7   5   8  1   
  8   5   9  1   
  9   5  10  1   
 10   6  11  1   
 11   6  12  1   
 12   6  21  1   
 13   7  13  1   
 14   7  22  1   
 15   7  23  1   
 16   8  24  1   
 17   8  25  1   
 18   8  26  1   
 19   9  27  1   
 20   9  28  1   
 21   9  29  1   
 22  10  30  1   
 23  10  31  1   
 24  10  32  1   
 25  11  14  2   
 26  11  15  1   
 27  12  16  1   
 28  12  33  1   
 29  12  34  1   
 30  13  16  1   
 31  13  17  1   
 32  13  18  1   
 33  15  19  1   
 34  16  35  1   
 35  16  36  1   
 36  17  37  1   
 37  18  38  1   
 38  18  39  1   
 39  18  40  1   
 40  19  20  1   
 41  19  41  1   
 42  19  42  1   
 43  20  43  1   
 44  20  44  1   
 45  20  45  1   
@<TRIPOS>SUBSTRUCTURE
  1 ****   4 GROUP 4 **** **** 0

# MOE 2024.06 (io_trps.svl 2023.06)
