@<TRIPOS>MOLECULE
NONAME
61 64 1 0 0 
SMALL
USER_CHARGES


@<TRIPOS>ATOM
  1 O        3.0550     2.1540     1.5380 O.co2 1 <1>  -0.9000 
  2 C        2.6340     1.0410     1.2170 C.2   1 <1>   0.9060 
  3 O        2.6160     0.1130     2.0300 O.co2 1 <1>  -0.9000 
  4 C        2.5120     0.7000    -0.2830 C.3   1 <1>  -0.1060 
  5 C        3.5810    -0.3850    -0.5190 C.3   1 <1>   0.4230 
  6 C        2.8700     1.9200    -1.1950 C.3   1 <1>  -0.1600 
  7 C        1.0940     0.2010    -0.6680 C.3   1 <1>  -0.1600 
  8 N        3.1740    -1.6690     0.1640 N.4   1 <1>  -0.9590 
  9 C        4.9820     0.1670    -0.0720 C.3   1 <1>   0.3430 
 10 C        4.3650     2.2950    -1.2630 C.3   1 <1>   0.3430 
 11 C        0.7680    -1.1780    -0.0760 C.3   1 <1>  -0.1600 
 12 C        1.8760    -2.1980    -0.3360 C.3   1 <1>   0.3430 
 13 C        4.2040    -2.7440     0.2560 C.3   1 <1>   0.2630 
 14 N        5.0970     1.6720    -0.1280 N.4   1 <1>  -0.9590 
 15 C        6.4610     2.2090     0.1160 C.3   1 <1>   0.4860 
 16 C        6.4090     3.7240     0.1620 C.ar  1 <1>  -0.1440 
 17 C        5.6320     4.3760     1.1090 C.ar  1 <1>  -0.1500 
 18 C        7.1280     4.4760    -0.7560 C.ar  1 <1>  -0.1500 
 19 C        5.5690     5.7570     1.1290 C.ar  1 <1>  -0.1500 
 20 C        7.0580     5.8560    -0.7300 C.ar  1 <1>  -0.1500 
 21 C        6.2750     6.5240     0.2060 C.ar  1 <1>   0.1000 
 22 N        6.2120     7.9290     0.2020 N.pl3 1 <1>  -0.5690 
 23 C        7.2820     8.7330    -0.2080 C.ar  1 <1>   0.1000 
 24 C        4.9900     8.6170     0.6920 C.3   1 <1>   0.1290 
 25 C        8.5070     8.6590     0.4450 C.ar  1 <1>  -0.1500 
 26 C        7.1500     9.6110    -1.2780 C.ar  1 <1>  -0.1500 
 27 C        9.5720     9.4450     0.0450 C.ar  1 <1>  -0.1500 
 28 C        8.2120    10.4000    -1.6820 C.ar  1 <1>  -0.1500 
 29 C        9.4250    10.3180    -1.0200 C.ar  1 <1>  -0.1500 
 30 H        3.6290    -0.5750    -1.5780 H     1 <1>   0.0800 
 31 H        2.3240     2.7830    -0.8480 H     1 <1>   0.0800 
 32 H        2.5420     1.7490    -2.2050 H     1 <1>   0.0800 
 33 H        0.3590     0.9150    -0.3320 H     1 <1>   0.0800 
 34 H        1.0080     0.1300    -1.7390 H     1 <1>   0.0800 
 35 H        2.9480    -1.3290     1.1420 H     1 <1>   0.4500 
 36 H        5.7430    -0.2760    -0.6900 H     1 <1>   0.0800 
 37 H        5.1480    -0.1370     0.9500 H     1 <1>   0.0800 
 38 H        4.4540     3.3700    -1.2200 H     1 <1>   0.0800 
 39 H        4.7880     1.9610    -2.1960 H     1 <1>   0.0800 
 40 H       -0.1510    -1.5400    -0.5020 H     1 <1>   0.0800 
 41 H        0.6070    -1.0930     0.9860 H     1 <1>   0.0800 
 42 H        1.9430    -2.4030    -1.3920 H     1 <1>   0.0800 
 43 H        1.6320    -3.1150     0.1760 H     1 <1>   0.0800 
 44 H        4.4790    -3.0880    -0.7270 H     1 <1>   0.0800 
 45 H        3.8120    -3.5790     0.8160 H     1 <1>   0.0800 
 46 H        5.0820    -2.3840     0.7660 H     1 <1>   0.0800 
 47 H        4.5370     2.0290     0.6950 H     1 <1>   0.4500 
 48 H        6.8360     1.8430     1.0580 H     1 <1>   0.0800 
 49 H        7.1300     1.8940    -0.6680 H     1 <1>   0.0800 
 50 H        5.0610     3.8230     1.8390 H     1 <1>   0.1500 
 51 H        7.7470     4.0030    -1.4990 H     1 <1>   0.1500 
 52 H        4.9650     6.2350     1.8760 H     1 <1>   0.1500 
 53 H        7.6160     6.4310    -1.4480 H     1 <1>   0.1500 
 54 H        4.9730     9.6380     0.3530 H     1 <1>   0.0800 
 55 H        4.9810     8.6100     1.7670 H     1 <1>   0.0800 
 56 H        4.1150     8.1120     0.3220 H     1 <1>   0.0800 
 57 H        8.6130     7.9780     1.2700 H     1 <1>   0.1500 
 58 H        6.2110     9.6640    -1.7970 H     1 <1>   0.1500 
 59 H       10.5140     9.3790     0.5610 H     1 <1>   0.1500 
 60 H        8.0970    11.0750    -2.5120 H     1 <1>   0.1500 
 61 H       10.2530    10.9310    -1.3320 H     1 <1>   0.1500 
@<TRIPOS>BOND
  1   1   2  ar  
  2   2   3  ar  
  3   2   4  1   
  4   4   5  1   
  5   4   6  1   
  6   4   7  1   
  7   5   8  1   
  8   5   9  1   
  9   5  30  1   
 10   6  10  1   
 11   6  31  1   
 12   6  32  1   
 13   7  11  1   
 14   7  33  1   
 15   7  34  1   
 16   8  12  1   
 17   8  13  1   
 18   8  35  1   
 19   9  14  1   
 20   9  36  1   
 21   9  37  1   
 22  10  14  1   
 23  10  38  1   
 24  10  39  1   
 25  11  12  1   
 26  11  40  1   
 27  11  41  1   
 28  12  42  1   
 29  12  43  1   
 30  13  44  1   
 31  13  45  1   
 32  13  46  1   
 33  14  15  1   
 34  14  47  1   
 35  15  16  1   
 36  15  48  1   
 37  15  49  1   
 38  16  17  ar  
 39  16  18  ar  
 40  17  19  ar  
 41  17  50  1   
 42  18  20  ar  
 43  18  51  1   
 44  19  21  ar  
 45  19  52  1   
 46  20  21  ar  
 47  20  53  1   
 48  21  22  1   
 49  22  23  1   
 50  22  24  1   
 51  23  25  ar  
 52  23  26  ar  
 53  24  54  1   
 54  24  55  1   
 55  24  56  1   
 56  25  27  ar  
 57  25  57  1   
 58  26  28  ar  
 59  26  58  1   
 60  27  29  ar  
 61  27  59  1   
 62  28  29  ar  
 63  28  60  1   
 64  29  61  1   
@<TRIPOS>SUBSTRUCTURE
  1 ****  16 GROUP 4 **** **** 0

# MOE 2024.06 (io_trps.svl 2023.06)
