@<TRIPOS>MOLECULE
NONAME
51 54 1 0 0 
SMALL
USER_CHARGES


@<TRIPOS>ATOM
  1 O       -1.0480     1.2960     2.1340 O.2   1 <1>  -0.5700 
  2 C       -1.7220     1.2800     1.1150 C.2   1 <1>   0.5440 
  3 N       -2.4590     0.1340     0.8540 N.am  1 <1>  -0.6600 
  4 C       -1.6710     2.4490     0.2340 C.ar  1 <1>   0.3960 
  5 C       -2.6990    -0.8520     1.9550 C.3   1 <1>   0.1400 
  6 C       -3.0970    -0.1700    -0.4630 C.3   1 <1>   0.1400 
  7 N       -2.7760     2.9720    -0.2930 N.ar  1 <1>  -0.6200 
  8 C       -0.4430     3.0280    -0.0380 C.ar  1 <1>  -0.1500 
  9 C       -3.3190    -2.1470     1.4270 C.3   1 <1>  -0.1600 
 10 C       -4.5370    -0.6380    -0.2420 C.3   1 <1>  -0.1600 
 11 C       -2.6000     4.0150    -1.0720 C.ar  1 <1>   0.7200 
 12 C       -0.3940     4.1240    -0.8600 C.ar  1 <1>   0.1660 
 13 C       -4.6350    -1.8750     0.6800 C.3   1 <1>   0.4240 
 14 N       -1.4770     4.6290    -1.3890 N.ar  1 <1>  -0.6200 
 15 N       -3.7080     4.5370    -1.5980 N.pl3 1 <1>  -0.9000 
 16 C        0.9180     4.8030    -1.1940 C.3   1 <1>  -0.0970 
 17 O       -5.5560    -1.5680     1.6960 O.3   1 <1>  -0.5600 
 18 C       -5.0650    -3.1300    -0.1140 C.ar  1 <1>  -0.1430 
 19 C       -6.9080    -1.6970     1.3870 C.3   1 <1>   0.1200 
 20 C       -6.2880    -3.7490     0.1250 C.ar  1 <1>  -0.1440 
 21 C       -4.2370    -3.6590    -1.0990 C.ar  1 <1>  -0.1500 
 22 C       -7.2190    -3.1760     1.1750 C.3   1 <1>  -0.0170 
 23 C       -6.6640    -4.8760    -0.5900 C.ar  1 <1>  -0.1500 
 24 C       -4.6120    -4.7800    -1.8150 C.ar  1 <1>  -0.1500 
 25 C       -5.8230    -5.3990    -1.5660 C.ar  1 <1>   0.0830 
 26 O       -6.1150    -6.4960    -2.3090 O.3   1 <1>  -0.3620 
 27 C       -7.3110    -7.2170    -2.1160 C.3   1 <1>   0.0400 
 28 H       -3.3610    -0.4050     2.6780 H     1 <1>   0.0800 
 29 H       -1.7680    -1.0750     2.4480 H     1 <1>   0.0800 
 30 H       -2.5320    -0.9440    -0.9520 H     1 <1>   0.0800 
 31 H       -3.0960     0.6840    -1.1120 H     1 <1>   0.0800 
 32 H        0.4470     2.6160     0.4010 H     1 <1>   0.1500 
 33 H       -3.5090    -2.8220     2.2420 H     1 <1>   0.0800 
 34 H       -2.6010    -2.6230     0.7870 H     1 <1>   0.0800 
 35 H       -4.9780    -0.8600    -1.1960 H     1 <1>   0.0800 
 36 H       -5.0810     0.1870     0.1830 H     1 <1>   0.0800 
 37 H       -3.6070     5.4870    -1.9450 H     1 <1>   0.4000 
 38 H       -4.5680     4.3240    -1.1020 H     1 <1>   0.4000 
 39 H        1.7420     4.3130    -0.7090 H     1 <1>   0.0800 
 40 H        0.8840     5.8270    -0.8710 H     1 <1>   0.0800 
 41 H        1.0750     4.7800    -2.2570 H     1 <1>   0.0800 
 42 H       -7.1260    -1.1230     0.5030 H     1 <1>   0.0800 
 43 H       -7.4760    -1.3060     2.2130 H     1 <1>   0.0800 
 44 H       -3.2900    -3.2010    -1.3210 H     1 <1>   0.1500 
 45 H       -8.2420    -3.2810     0.8640 H     1 <1>   0.0800 
 46 H       -7.0890    -3.7050     2.1030 H     1 <1>   0.0800 
 47 H       -7.6100    -5.3330    -0.3780 H     1 <1>   0.1500 
 48 H       -3.9660    -5.1840    -2.5730 H     1 <1>   0.1500 
 49 H       -7.3170    -8.0440    -2.8030 H     1 <1>   0.0800 
 50 H       -8.1450    -6.5680    -2.3170 H     1 <1>   0.0800 
 51 H       -7.3390    -7.5810    -1.1040 H     1 <1>   0.0800 
@<TRIPOS>BOND
  1   1   2  2   
  2   2   3  am  
  3   2   4  1   
  4   3   5  1   
  5   3   6  1   
  6   4   7  ar  
  7   4   8  ar  
  8   5   9  1   
  9   5  28  1   
 10   5  29  1   
 11   6  10  1   
 12   6  30  1   
 13   6  31  1   
 14   7  11  ar  
 15   8  12  ar  
 16   8  32  1   
 17   9  13  1   
 18   9  33  1   
 19   9  34  1   
 20  10  13  1   
 21  10  35  1   
 22  10  36  1   
 23  11  14  ar  
 24  11  15  1   
 25  12  14  ar  
 26  12  16  1   
 27  13  17  1   
 28  13  18  1   
 29  15  37  1   
 30  15  38  1   
 31  16  39  1   
 32  16  40  1   
 33  16  41  1   
 34  17  19  1   
 35  18  20  ar  
 36  18  21  ar  
 37  19  22  1   
 38  19  42  1   
 39  19  43  1   
 40  20  22  1   
 41  20  23  ar  
 42  21  24  ar  
 43  21  44  1   
 44  22  45  1   
 45  22  46  1   
 46  23  25  ar  
 47  23  47  1   
 48  24  25  ar  
 49  24  48  1   
 50  25  26  1   
 51  26  27  1   
 52  27  49  1   
 53  27  50  1   
 54  27  51  1   
@<TRIPOS>SUBSTRUCTURE
  1 ****  10 GROUP 4 **** **** 0

# MOE 2024.06 (io_trps.svl 2023.06)
