@<TRIPOS>MOLECULE
NONAME
48 49 1 0 0 
SMALL
USER_CHARGES


@<TRIPOS>ATOM
  1 O        0.6400    -1.1940     0.6170 O.3   1 <1>  -0.3630 
  2 C        0.2330    -2.4170     0.1850 C.ar  1 <1>   0.0830 
  3 C        0.8180    -0.1020    -0.2580 C.3   1 <1>   0.0400 
  4 C        0.2750    -3.4870     1.0810 C.ar  1 <1>  -0.1440 
  5 C       -0.2140    -2.6220    -1.1140 C.ar  1 <1>  -0.1500 
  6 C       -0.1120    -4.7620     0.6650 C.ar  1 <1>  -0.1430 
  7 C        0.7610    -3.2420     2.5150 C.3   1 <1>  -0.0960 
  8 C       -0.6250    -3.8750    -1.5160 C.ar  1 <1>  -0.1500 
  9 C       -0.5940    -4.9430    -0.6330 C.ar  1 <1>  -0.1440 
 10 C       -0.0010    -5.9450     1.6330 C.3   1 <1>  -0.0970 
 11 C       -1.1240    -6.2770    -1.1270 C.3   1 <1>   0.4860 
 12 N       -2.4790    -6.5020    -0.5540 N.4   1 <1>  -0.9590 
 13 C       -3.0240    -7.8480    -0.7930 C.3   1 <1>   0.5230 
 14 C       -3.4650    -5.4070    -0.7930 C.3   1 <1>   0.3430 
 15 C       -2.1230    -8.8050    -0.0590 C.2   1 <1>  -0.3320 
 16 C       -3.6370    -4.5900     0.5030 C.3   1 <1>   0.1200 
 17 N       -1.3210    -9.7350    -0.6230 N.pl3 1 <1>   0.0480 
 18 C       -1.9510    -8.9060     1.2780 C.2   1 <1>   0.0770 
 19 O       -3.5880    -5.4470     1.6070 O.3   1 <1>  -0.6800 
 20 C       -0.6980   -10.3220     0.4240 C.2   1 <1>   0.0360 
 21 C       -1.1600   -10.0990    -2.0450 C.3   1 <1>   0.0160 
 22 N       -1.0430    -9.8460     1.5750 N.2   1 <1>  -0.5650 
 23 H        1.2200     0.7180     0.3090 H     1 <1>   0.0800 
 24 H       -0.1360     0.1750    -0.6710 H     1 <1>   0.0800 
 25 H        1.5100    -0.3830    -1.0320 H     1 <1>   0.0800 
 26 H       -0.2490    -1.8170    -1.8240 H     1 <1>   0.1500 
 27 H        0.6640    -2.2110     2.8010 H     1 <1>   0.0800 
 28 H        1.7960    -3.5170     2.5970 H     1 <1>   0.0800 
 29 H        0.1870    -3.8130     3.2210 H     1 <1>   0.0800 
 30 H       -0.9700    -4.0010    -2.5280 H     1 <1>   0.1500 
 31 H        0.8970    -5.8680     2.2200 H     1 <1>   0.0800 
 32 H        0.0590    -6.8910     1.1310 H     1 <1>   0.0800 
 33 H       -0.8420    -5.9590     2.3020 H     1 <1>   0.0800 
 34 H       -0.4540    -7.0640    -0.8240 H     1 <1>   0.0800 
 35 H       -1.1730    -6.2710    -2.2020 H     1 <1>   0.0800 
 36 H       -2.3570    -6.4510     0.4740 H     1 <1>   0.4500 
 37 H       -3.0560    -8.0700    -1.8470 H     1 <1>   0.0800 
 38 H       -4.0210    -7.9180    -0.3860 H     1 <1>   0.0800 
 39 H       -4.4220    -5.8230    -1.0610 H     1 <1>   0.0800 
 40 H       -3.1440    -4.7630    -1.5940 H     1 <1>   0.0800 
 41 H       -4.5820    -4.0720     0.5030 H     1 <1>   0.0800 
 42 H       -2.8440    -3.8660     0.6020 H     1 <1>   0.0800 
 43 H       -2.4320    -8.3430     2.0640 H     1 <1>   0.1500 
 44 H       -3.7230    -4.9420     2.4400 H     1 <1>   0.4000 
 45 H        0.0160   -11.1170     0.2950 H     1 <1>   0.1500 
 46 H       -0.8050    -9.2510    -2.6010 H     1 <1>   0.0800 
 47 H       -2.1040   -10.4280    -2.4400 H     1 <1>   0.0800 
 48 H       -0.4470   -10.9000    -2.1320 H     1 <1>   0.0800 
@<TRIPOS>BOND
  1   1   2  1   
  2   1   3  1   
  3   2   4  ar  
  4   2   5  ar  
  5   3  23  1   
  6   3  24  1   
  7   3  25  1   
  8   4   6  ar  
  9   4   7  1   
 10   5   8  ar  
 11   5  26  1   
 12   6   9  ar  
 13   6  10  1   
 14   7  27  1   
 15   7  28  1   
 16   7  29  1   
 17   8   9  ar  
 18   8  30  1   
 19   9  11  1   
 20  10  31  1   
 21  10  32  1   
 22  10  33  1   
 23  11  12  1   
 24  11  34  1   
 25  11  35  1   
 26  12  13  1   
 27  12  14  1   
 28  12  36  1   
 29  13  15  1   
 30  13  37  1   
 31  13  38  1   
 32  14  16  1   
 33  14  39  1   
 34  14  40  1   
 35  15  17  1   
 36  15  18  2   
 37  16  19  1   
 38  16  41  1   
 39  16  42  1   
 40  17  20  1   
 41  17  21  1   
 42  18  22  1   
 43  18  43  1   
 44  19  44  1   
 45  20  22  2   
 46  20  45  1   
 47  21  46  1   
 48  21  47  1   
 49  21  48  1   
@<TRIPOS>SUBSTRUCTURE
  1 ****   9 GROUP 4 **** **** 0

# MOE 2024.06 (io_trps.svl 2023.06)
