@<TRIPOS>MOLECULE
NONAME
46 48 1 0 0 
SMALL
USER_CHARGES


@<TRIPOS>ATOM
  1 O        0.2260     0.4920     0.5590 O.3   1 <1>  -0.0190 
  2 N        1.0870    -0.4720     0.4040 N.2   1 <1>  -0.4100 
  3 C        0.6900     1.6370     0.1310 C.2   1 <1>  -0.0400 
  4 C        2.1250     0.0600    -0.1320 C.2   1 <1>   0.1080 
  5 C        1.9310     1.4230    -0.3370 C.2   1 <1>  -0.1500 
  6 C       -0.1940     2.8690     0.2370 C.3   1 <1>   0.0200 
  7 C        3.3840    -0.6970    -0.4880 C.3   1 <1>  -0.0590 
  8 C        0.4970     4.1580    -0.2410 C.3   1 <1>  -0.0800 
  9 C       -0.4210     5.3820    -0.3320 C.3   1 <1>   0.2000 
 10 C        1.6360     4.6190     0.6700 C.3   1 <1>   0.2090 
 11 O       -1.2930     5.3750     0.7670 O.3   1 <1>  -0.5600 
 12 C        0.5470     6.5760    -0.2590 C.3   1 <1>   0.2090 
 13 N        1.7890     6.0610     0.3710 N.pl3 1 <1>  -0.8380 
 14 C       -2.3930     6.2230     0.6600 C.3   1 <1>   0.0400 
 15 C        2.9990     6.7080     0.2660 C.ar  1 <1>   0.7200 
 16 N        2.9640     7.9430    -0.2130 N.ar  1 <1>  -0.6200 
 17 N        4.0730     6.0340     0.6510 N.ar  1 <1>  -0.6200 
 18 C        4.1160     8.5580    -0.2970 C.ar  1 <1>   0.3930 
 19 C        5.2120     6.6700     0.5560 C.ar  1 <1>   0.3930 
 20 O        4.0500     9.8140    -0.7830 O.3   1 <1>  -0.3630 
 21 C        5.2950     7.9590     0.0810 C.ar  1 <1>  -0.1500 
 22 O        6.2890     5.9640     0.9560 O.3   1 <1>  -0.3630 
 23 C        5.1760    10.6540    -0.9010 C.3   1 <1>   0.0400 
 24 C        7.5900     6.5060     1.0080 C.3   1 <1>   0.0400 
 25 H        2.6390     2.1020    -0.7740 H     1 <1>   0.1500 
 26 H       -1.0770     2.7020    -0.3540 H     1 <1>   0.0800 
 27 H       -0.5050     2.9810     1.2610 H     1 <1>   0.0800 
 28 H        3.5960    -0.5810    -1.5350 H     1 <1>   0.0800 
 29 H        3.2570    -1.7420    -0.2710 H     1 <1>   0.0800 
 30 H        4.2090    -0.3190     0.0860 H     1 <1>   0.0800 
 31 H        0.9120     3.9900    -1.2190 H     1 <1>   0.0800 
 32 H       -0.9990     5.3800    -1.2390 H     1 <1>   0.0800 
 33 H        2.5410     4.0690     0.4820 H     1 <1>   0.0800 
 34 H        1.3610     4.5110     1.7060 H     1 <1>   0.0800 
 35 H        0.1450     7.3900     0.3170 H     1 <1>   0.0800 
 36 H        0.7740     6.9190    -1.2530 H     1 <1>   0.0800 
 37 H       -2.9820     6.1170     1.5530 H     1 <1>   0.0800 
 38 H       -2.9800     5.9400    -0.1960 H     1 <1>   0.0800 
 39 H       -2.0580     7.2420     0.5710 H     1 <1>   0.0800 
 40 H        6.2300     8.4690     0.0070 H     1 <1>   0.1500 
 41 H        4.8450    11.5990    -1.2930 H     1 <1>   0.0800 
 42 H        5.8800    10.2050    -1.5800 H     1 <1>   0.0800 
 43 H        5.6110    10.7960     0.0720 H     1 <1>   0.0800 
 44 H        8.2510     5.7490     1.3920 H     1 <1>   0.0800 
 45 H        7.5900     7.3560     1.6670 H     1 <1>   0.0800 
 46 H        7.8950     6.7840     0.0140 H     1 <1>   0.0800 
@<TRIPOS>BOND
  1   1   2  1   
  2   1   3  1   
  3   2   4  2   
  4   3   5  2   
  5   3   6  1   
  6   4   5  1   
  7   4   7  1   
  8   5  25  1   
  9   6   8  1   
 10   6  26  1   
 11   6  27  1   
 12   7  28  1   
 13   7  29  1   
 14   7  30  1   
 15   8   9  1   
 16   8  10  1   
 17   8  31  1   
 18   9  11  1   
 19   9  12  1   
 20   9  32  1   
 21  10  13  1   
 22  10  33  1   
 23  10  34  1   
 24  11  14  1   
 25  12  13  1   
 26  12  35  1   
 27  12  36  1   
 28  13  15  1   
 29  14  37  1   
 30  14  38  1   
 31  14  39  1   
 32  15  16  ar  
 33  15  17  ar  
 34  16  18  ar  
 35  17  19  ar  
 36  18  20  1   
 37  18  21  ar  
 38  19  21  ar  
 39  19  22  1   
 40  20  23  1   
 41  21  40  1   
 42  22  24  1   
 43  23  41  1   
 44  23  42  1   
 45  23  43  1   
 46  24  44  1   
 47  24  45  1   
 48  24  46  1   
@<TRIPOS>SUBSTRUCTURE
  1 ****  10 GROUP 4 **** **** 0

# MOE 2024.06 (io_trps.svl 2023.06)
