@<TRIPOS>MOLECULE
NONAME
43 44 1 0 0 
SMALL
USER_CHARGES


@<TRIPOS>ATOM
  1 O        0.6960     0.0210     1.4090 O.2   1 <1>  -0.5700 
  2 C        1.4670    -0.4960     0.6220 C.2   1 <1>   0.7150 
  3 N        2.1510     0.3120    -0.2600 N.am  1 <1>  -0.6600 
  4 C        1.6240    -1.9260     0.6090 C.2   1 <1>  -0.2370 
  5 C        2.1230     1.8020    -0.0900 C.3   1 <1>   0.3200 
  6 C        2.8230    -0.2060    -1.4830 C.3   1 <1>   0.1400 
  7 N        0.5840    -2.8170     0.4720 N.pl3 1 <1>   0.0480 
  8 C        2.7850    -2.6500     0.7160 C.2   1 <1>  -0.1500 
  9 C        3.3430     2.3290     0.6520 C.2   1 <1>   0.2980 
 10 C        4.3400    -0.0660    -1.3710 C.3   1 <1>  -0.2400 
 11 C        1.1180    -4.0690     0.4690 C.2   1 <1>  -0.3020 
 12 C       -0.8590    -2.4600     0.3070 C.3   1 <1>   0.1760 
 13 C        2.4650    -3.9980     0.6230 C.2   1 <1>  -0.1500 
 14 O        3.6200     1.8490     1.8390 O.3   1 <1>  -0.0190 
 15 N        4.1470     3.2200     0.2200 N.2   1 <1>  -0.5650 
 16 C       -1.7900    -3.5730     0.8070 C.3   1 <1>  -0.2400 
 17 C       -1.1450    -2.1350    -1.1630 C.3   1 <1>  -0.2400 
 18 N        4.6960     2.4850     2.1910 N.2   1 <1>  -0.4100 
 19 C        4.9890     3.2790     1.2420 C.2   1 <1>   0.3350 
 20 C        6.1800     4.2210     1.2340 C.3   1 <1>   0.0210 
 21 C        5.7560     5.6880     1.3830 C.3   1 <1>  -0.2400 
 22 H        1.2440     2.1050     0.4510 H     1 <1>   0.0800 
 23 H        2.0780     2.2690    -1.0570 H     1 <1>   0.0800 
 24 H        2.4700     0.3360    -2.3440 H     1 <1>   0.0800 
 25 H        2.5730    -1.2430    -1.6340 H     1 <1>   0.0800 
 26 H        3.7790    -2.2590     0.8530 H     1 <1>   0.1500 
 27 H        4.6330     0.9670    -1.4170 H     1 <1>   0.0800 
 28 H        4.8090    -0.5800    -2.1890 H     1 <1>   0.0800 
 29 H        4.6930    -0.4950    -0.4510 H     1 <1>   0.0800 
 30 H        0.5240    -4.9580     0.3600 H     1 <1>   0.1500 
 31 H       -1.0550    -1.5850     0.9010 H     1 <1>   0.0800 
 32 H        3.1670    -4.8130     0.6680 H     1 <1>   0.1500 
 33 H       -1.7090    -4.4510     0.1920 H     1 <1>   0.0800 
 34 H       -2.8100    -3.2340     0.7770 H     1 <1>   0.0800 
 35 H       -1.5500    -3.8240     1.8250 H     1 <1>   0.0800 
 36 H       -0.9450    -2.9920    -1.7820 H     1 <1>   0.0800 
 37 H       -0.5320    -1.3130    -1.4870 H     1 <1>   0.0800 
 38 H       -2.1750    -1.8540    -1.2840 H     1 <1>   0.0800 
 39 H        6.7160     4.0890     0.3110 H     1 <1>   0.0800 
 40 H        6.8380     3.9560     2.0420 H     1 <1>   0.0800 
 41 H        5.1130     5.9710     0.5670 H     1 <1>   0.0800 
 42 H        6.6200     6.3270     1.3820 H     1 <1>   0.0800 
 43 H        5.2220     5.8250     2.3060 H     1 <1>   0.0800 
@<TRIPOS>BOND
  1   1   2  2   
  2   2   3  am  
  3   2   4  1   
  4   3   5  1   
  5   3   6  1   
  6   4   7  1   
  7   4   8  2   
  8   5   9  1   
  9   5  22  1   
 10   5  23  1   
 11   6  10  1   
 12   6  24  1   
 13   6  25  1   
 14   7  11  1   
 15   7  12  1   
 16   8  13  1   
 17   8  26  1   
 18   9  14  1   
 19   9  15  2   
 20  10  27  1   
 21  10  28  1   
 22  10  29  1   
 23  11  13  2   
 24  11  30  1   
 25  12  16  1   
 26  12  17  1   
 27  12  31  1   
 28  13  32  1   
 29  14  18  1   
 30  15  19  1   
 31  16  33  1   
 32  16  34  1   
 33  16  35  1   
 34  17  36  1   
 35  17  37  1   
 36  17  38  1   
 37  18  19  2   
 38  19  20  1   
 39  20  21  1   
 40  20  39  1   
 41  20  40  1   
 42  21  41  1   
 43  21  42  1   
 44  21  43  1   
@<TRIPOS>SUBSTRUCTURE
  1 ****   3 GROUP 4 **** **** 0

# MOE 2024.06 (io_trps.svl 2023.06)
