@<TRIPOS>MOLECULE
Untitled Document
48 50 1 0 0 
SMALL
USER_CHARGES


@<TRIPOS>ATOM
  1 O       -0.3200    -1.2920     1.7600 O.2   1 <1>  -0.5700 
  2 C       -0.0970    -1.5820     0.6030 C.2   1 <1>   0.7800 
  3 O        1.1040    -2.0060     0.2370 O.3   1 <1>  -0.4300 
  4 N       -1.0090    -1.5000    -0.3960 N.am  1 <1>  -0.5470 
  5 C        2.1320    -2.1210     1.1950 C.3   1 <1>   0.2640 
  6 C       -2.3150    -0.9660    -0.3550 C.ar  1 <1>   0.1170 
  7 C        3.3860    -2.6160     0.4950 C.ar  1 <1>  -0.1430 
  8 C       -3.3320    -1.4730     0.4670 C.ar  1 <1>   0.1670 
  9 C       -2.6160     0.1100    -1.1840 C.ar  1 <1>  -0.1440 
 10 C        3.5680    -3.9710     0.2640 C.ar  1 <1>  -0.1500 
 11 C        4.3590    -1.7190     0.0800 C.ar  1 <1>  -0.1500 
 12 N       -4.5640    -0.9930     0.5240 N.ar  1 <1>  -0.6200 
 13 C       -3.0980    -2.6650     1.3800 C.3   1 <1>  -0.0970 
 14 C       -3.8980     0.6040    -1.1210 C.ar  1 <1>  -0.1500 
 15 C       -1.5940     0.7430    -2.1200 C.3   1 <1>  -0.0970 
 16 C        4.7110    -4.4260    -0.3700 C.ar  1 <1>  -0.1500 
 17 C        5.5030    -2.1730    -0.5540 C.ar  1 <1>  -0.1500 
 18 C       -4.8300     0.0370    -0.2640 C.ar  1 <1>   0.4100 
 19 C        5.6800    -3.5270    -0.7790 C.ar  1 <1>  -0.1500 
 20 N       -6.1060     0.5600    -0.2120 N.pl3 1 <1>  -0.8380 
 21 C       -6.4400     1.2420     1.0710 C.3   1 <1>   0.2090 
 22 C       -7.1920    -0.3880    -0.5900 C.3   1 <1>   0.2090 
 23 C       -7.8390     1.8830     1.0020 C.3   1 <1>   0.1200 
 24 C       -8.5590     0.3210    -0.5950 C.3   1 <1>   0.1200 
 25 O       -8.8130     0.9420     0.6370 O.3   1 <1>  -0.5600 
 26 H       -0.6150    -1.6630    -1.3180 H     1 <1>   0.3700 
 27 H        1.8180    -2.8170     1.9540 H     1 <1>   0.0800 
 28 H        2.2950    -1.1550     1.6420 H     1 <1>   0.0800 
 29 H        2.8180    -4.6770     0.5740 H     1 <1>   0.1500 
 30 H        4.2310    -0.6640     0.2470 H     1 <1>   0.1500 
 31 H       -2.3550    -3.3270     0.9790 H     1 <1>   0.0800 
 32 H       -4.0100    -3.2210     1.5010 H     1 <1>   0.0800 
 33 H       -2.7790    -2.3160     2.3450 H     1 <1>   0.0800 
 34 H       -4.2120     1.4340    -1.7220 H     1 <1>   0.1500 
 35 H       -0.7300     1.0580    -1.5620 H     1 <1>   0.0800 
 36 H       -2.0090     1.6050    -2.6120 H     1 <1>   0.0800 
 37 H       -1.2910     0.0370    -2.8710 H     1 <1>   0.0800 
 38 H        4.8470    -5.4790    -0.5460 H     1 <1>   0.1500 
 39 H        6.2560    -1.4730    -0.8730 H     1 <1>   0.1500 
 40 H        6.5690    -3.8790    -1.2720 H     1 <1>   0.1500 
 41 H       -5.7040     2.0000     1.2740 H     1 <1>   0.0800 
 42 H       -6.4150     0.5280     1.8770 H     1 <1>   0.0800 
 43 H       -7.2190    -1.2070     0.1080 H     1 <1>   0.0800 
 44 H       -6.9890    -0.7890    -1.5680 H     1 <1>   0.0800 
 45 H       -7.8460     2.6810     0.2810 H     1 <1>   0.0800 
 46 H       -8.1100     2.2800     1.9630 H     1 <1>   0.0800 
 47 H       -9.3440    -0.3920    -0.7700 H     1 <1>   0.0800 
 48 H       -8.5880     1.0680    -1.3680 H     1 <1>   0.0800 
@<TRIPOS>BOND
  1   1   2  2   
  2   2   3  1   
  3   2   4  am  
  4   3   5  1   
  5   4   6  1   
  6   4  26  1   
  7   5   7  1   
  8   5  27  1   
  9   5  28  1   
 10   6   8  ar  
 11   6   9  ar  
 12   7  10  ar  
 13   7  11  ar  
 14   8  12  ar  
 15   8  13  1   
 16   9  14  ar  
 17   9  15  1   
 18  10  16  ar  
 19  10  29  1   
 20  11  17  ar  
 21  11  30  1   
 22  12  18  ar  
 23  13  31  1   
 24  13  32  1   
 25  13  33  1   
 26  14  18  ar  
 27  14  34  1   
 28  15  35  1   
 29  15  36  1   
 30  15  37  1   
 31  16  19  ar  
 32  16  38  1   
 33  17  19  ar  
 34  17  39  1   
 35  18  20  1   
 36  19  40  1   
 37  20  21  1   
 38  20  22  1   
 39  21  23  1   
 40  21  41  1   
 41  21  42  1   
 42  22  24  1   
 43  22  43  1   
 44  22  44  1   
 45  23  25  1   
 46  23  45  1   
 47  23  46  1   
 48  24  25  1   
 49  24  47  1   
 50  24  48  1   
@<TRIPOS>SUBSTRUCTURE
  1 ****   6 GROUP 4 **** **** 0

# MOE 2024.06 (io_trps.svl 2023.06)
