@<TRIPOS>MOLECULE
NONAME
40 42 1 0 0 
SMALL
USER_CHARGES


@<TRIPOS>ATOM
  1 S        2.0790     0.8300    -1.5920 S.3   1 <1>  -0.0800 
  2 C        1.8140    -0.1270    -0.1390 C.2   1 <1>  -0.1400 
  3 C        1.5360    -0.4860    -2.6170 C.2   1 <1>  -0.1100 
  4 C        1.3530    -1.3490    -0.4660 C.2   1 <1>  -0.1500 
  5 C        2.1210     0.4910     1.2210 C.3   1 <1>   0.0810 
  6 C        1.1940    -1.5530    -1.8730 C.2   1 <1>  -0.1500 
  7 C        3.6040     0.8070     1.3670 C.2   1 <1>   0.5690 
  8 O        4.3440    -0.1220     1.5840 O.2   1 <1>  -0.5700 
  9 N        4.1260     2.0720     1.1990 N.am  1 <1>  -0.6600 
 10 C        5.6230     2.2350     1.3560 C.3   1 <1>   0.2200 
 11 C        3.3740     3.2190     0.6010 C.3   1 <1>   0.1400 
 12 C        6.0640     3.6390     1.8060 C.3   1 <1>   0.1200 
 13 C        6.3340     1.8270     0.0430 C.3   1 <1>   0.3430 
 14 C        4.1750     4.0150    -0.4530 C.3   1 <1>  -0.0800 
 15 O        6.2390     4.4810     0.7050 O.3   1 <1>  -0.5600 
 16 N        5.4000     1.8380    -1.1410 N.4   1 <1>  -0.9590 
 17 C        5.0870     5.0630     0.2010 C.3   1 <1>   0.1200 
 18 C        4.9200     3.2020    -1.5420 C.3   1 <1>   0.3430 
 19 C        5.9740     1.0870    -2.2920 C.3   1 <1>   0.2630 
 20 H        1.5240    -0.3240    -3.6800 H     1 <1>   0.1500 
 21 H        1.1120    -2.1350     0.2300 H     1 <1>   0.1500 
 22 H        1.5160     1.3610     1.3830 H     1 <1>   0.0800 
 23 H        1.8620    -0.2190     1.9850 H     1 <1>   0.0800 
 24 H        0.8270    -2.4910    -2.2550 H     1 <1>   0.1500 
 25 H        5.9560     1.5680     2.1330 H     1 <1>   0.0800 
 26 H        2.4730     2.8690     0.1340 H     1 <1>   0.0800 
 27 H        3.0700     3.8810     1.3950 H     1 <1>   0.0800 
 28 H        7.0250     3.5650     2.2850 H     1 <1>   0.0800 
 29 H        5.3740     4.0740     2.5090 H     1 <1>   0.0800 
 30 H        6.7130     0.8270     0.1810 H     1 <1>   0.0800 
 31 H        7.1760     2.4750    -0.1340 H     1 <1>   0.0800 
 32 H        3.4450     4.6020    -0.9800 H     1 <1>   0.0800 
 33 H        4.5690     1.3250    -0.7970 H     1 <1>   0.4500 
 34 H        4.5860     5.5940     0.9950 H     1 <1>   0.0800 
 35 H        5.4010     5.7860    -0.5330 H     1 <1>   0.0800 
 36 H        5.7580     3.7840    -1.8900 H     1 <1>   0.0800 
 37 H        4.2460     3.0830    -2.3750 H     1 <1>   0.0800 
 38 H        6.8590     1.5830    -2.6580 H     1 <1>   0.0800 
 39 H        5.2540     1.0230    -3.0910 H     1 <1>   0.0800 
 40 H        6.2370     0.0870    -1.9880 H     1 <1>   0.0800 
@<TRIPOS>BOND
  1   1   2  1   
  2   1   3  1   
  3   2   4  2   
  4   2   5  1   
  5   3   6  2   
  6   3  20  1   
  7   4   6  1   
  8   4  21  1   
  9   5   7  1   
 10   5  22  1   
 11   5  23  1   
 12   6  24  1   
 13   7   8  2   
 14   7   9  am  
 15   9  10  1   
 16   9  11  1   
 17  10  12  1   
 18  10  13  1   
 19  10  25  1   
 20  11  14  1   
 21  11  26  1   
 22  11  27  1   
 23  12  15  1   
 24  12  28  1   
 25  12  29  1   
 26  13  16  1   
 27  13  30  1   
 28  13  31  1   
 29  14  17  1   
 30  14  18  1   
 31  14  32  1   
 32  15  17  1   
 33  16  18  1   
 34  16  19  1   
 35  16  33  1   
 36  17  34  1   
 37  17  35  1   
 38  18  36  1   
 39  18  37  1   
 40  19  38  1   
 41  19  39  1   
 42  19  40  1   
@<TRIPOS>SUBSTRUCTURE
  1 ****   9 GROUP 4 **** **** 0

# MOE 2024.06 (io_trps.svl 2023.06)
