@<TRIPOS>MOLECULE
NONAME
40 42 1 0 0 
SMALL
USER_CHARGES


@<TRIPOS>ATOM
  1 O       -1.5800    -0.4470    -2.6520 O.2   1 <1>  -0.5700 
  2 C       -1.8190    -0.7990    -1.5250 C.2   1 <1>   0.5690 
  3 N       -1.8420     0.0770    -0.4760 N.am  1 <1>  -0.6600 
  4 C       -2.1460    -2.2540    -1.3100 C.3   1 <1>  -0.0190 
  5 C       -2.2070    -0.3290     0.9110 C.3   1 <1>   0.2200 
  6 C       -1.4480     1.5090    -0.6540 C.3   1 <1>   0.0600 
  7 C       -1.1650    -2.9380    -0.3350 C.3   1 <1>   0.1200 
  8 C       -3.6420    -2.3780    -0.9990 C.3   1 <1>   0.3430 
  9 C       -1.2030    -1.3690     1.4650 C.3   1 <1>   0.1200 
 10 C       -3.6930    -0.7770     0.9860 C.3   1 <1>   0.3430 
 11 O       -1.4540    -2.6740     1.0110 O.3   1 <1>  -0.5600 
 12 N       -3.9790    -2.1530     0.4460 N.4   1 <1>  -0.9590 
 13 C       -5.3360    -2.6430     0.8010 C.3   1 <1>   0.4860 
 14 C       -5.4090    -4.1270     0.4950 C.ar  1 <1>  -0.1440 
 15 C       -4.6420    -5.0320     1.2170 C.ar  1 <1>  -0.1500 
 16 C       -6.2330    -4.5880    -0.5210 C.ar  1 <1>  -0.1500 
 17 C       -4.6940    -6.3820     0.9170 C.ar  1 <1>  -0.1500 
 18 C       -6.2830    -5.9380    -0.8190 C.ar  1 <1>  -0.1500 
 19 C       -5.5120    -6.8350    -0.1010 C.ar  1 <1>  -0.1500 
 20 H       -1.9970    -2.7270    -2.2640 H     1 <1>   0.0800 
 21 H       -2.1150     0.5470     1.5300 H     1 <1>   0.0800 
 22 H       -0.6050     1.7390    -0.0250 H     1 <1>   0.0800 
 23 H       -2.2690     2.1540    -0.3960 H     1 <1>   0.0800 
 24 H       -1.1680     1.7100    -1.6750 H     1 <1>   0.0800 
 25 H       -0.1490    -2.6390    -0.5380 H     1 <1>   0.0800 
 26 H       -1.2260    -4.0060    -0.4600 H     1 <1>   0.0800 
 27 H       -3.9430    -3.3750    -1.2750 H     1 <1>   0.0800 
 28 H       -4.1930    -1.6890    -1.6190 H     1 <1>   0.0800 
 29 H       -1.2830    -1.3990     2.5380 H     1 <1>   0.0800 
 30 H       -0.1900    -1.0970     1.2180 H     1 <1>   0.0800 
 31 H       -4.2960    -0.0490     0.4680 H     1 <1>   0.0800 
 32 H       -3.9810    -0.7560     2.0230 H     1 <1>   0.0800 
 33 H       -3.3010    -2.7710     0.9370 H     1 <1>   0.4500 
 34 H       -5.5250    -2.4910     1.8510 H     1 <1>   0.0800 
 35 H       -6.0840    -2.1120     0.2350 H     1 <1>   0.0800 
 36 H       -4.0000    -4.7060     2.0180 H     1 <1>   0.1500 
 37 H       -6.8460    -3.9100    -1.0920 H     1 <1>   0.1500 
 38 H       -4.0990    -7.0840     1.4770 H     1 <1>   0.1500 
 39 H       -6.9240    -6.2970    -1.6070 H     1 <1>   0.1500 
 40 H       -5.5530    -7.8860    -0.3330 H     1 <1>   0.1500 
@<TRIPOS>BOND
  1   1   2  2   
  2   2   3  am  
  3   2   4  1   
  4   3   5  1   
  5   3   6  1   
  6   4   7  1   
  7   4   8  1   
  8   4  20  1   
  9   5   9  1   
 10   5  10  1   
 11   5  21  1   
 12   6  22  1   
 13   6  23  1   
 14   6  24  1   
 15   7  11  1   
 16   7  25  1   
 17   7  26  1   
 18   8  12  1   
 19   8  27  1   
 20   8  28  1   
 21   9  11  1   
 22   9  29  1   
 23   9  30  1   
 24  10  12  1   
 25  10  31  1   
 26  10  32  1   
 27  12  13  1   
 28  12  33  1   
 29  13  14  1   
 30  13  34  1   
 31  13  35  1   
 32  14  15  ar  
 33  14  16  ar  
 34  15  17  ar  
 35  15  36  1   
 36  16  18  ar  
 37  16  37  1   
 38  17  19  ar  
 39  17  38  1   
 40  18  19  ar  
 41  18  39  1   
 42  19  40  1   
@<TRIPOS>SUBSTRUCTURE
  1 ****  12 GROUP 4 **** **** 0

# MOE 2024.06 (io_trps.svl 2023.06)
