@<TRIPOS>MOLECULE
NONAME
51 54 1 0 0 
SMALL
USER_CHARGES


@<TRIPOS>ATOM
  1 O        0.0520    -0.0780     0.7480 O.3   1 <1>  -0.3630 
  2 C        1.1150     0.5720     0.1910 C.ar  1 <1>   0.0830 
  3 C        0.2320    -1.3430     1.3570 C.3   1 <1>   0.2580 
  4 C        1.0960     1.9640     0.0980 C.ar  1 <1>   0.0830 
  5 C        2.1980    -0.1620    -0.2970 C.ar  1 <1>   0.0280 
  6 C        1.2080    -2.1920     0.5450 C.2   1 <1>  -0.2760 
  7 O        0.0050     2.6210     0.5850 O.3   1 <1>  -0.3620 
  8 C        2.1780     2.6210    -0.4800 C.ar  1 <1>  -0.1500 
  9 C        2.1480    -1.5960    -0.2040 C.2   1 <1>  -0.1780 
 10 C        3.2670     0.5180    -0.8700 C.ar  1 <1>  -0.1500 
 11 C        1.0120    -3.6810     0.6840 C.3   1 <1>   0.4810 
 12 C       -0.1120     4.0230     0.5000 C.3   1 <1>   0.0400 
 13 C        3.2570     1.8970    -0.9600 C.ar  1 <1>  -0.1500 
 14 N        0.4850    -4.1910    -0.6090 N.4   1 <1>  -0.9590 
 15 C       -0.8480    -3.5880    -0.9450 C.3   1 <1>   0.3430 
 16 C        0.2750    -5.6700    -0.5430 C.3   1 <1>   0.3430 
 17 C       -1.8890    -4.5830    -0.4270 C.3   1 <1>   0.2000 
 18 C       -1.2250    -5.9220    -0.7470 C.3   1 <1>  -0.0800 
 19 O       -2.0030    -4.4280     0.9540 O.3   1 <1>  -0.6800 
 20 C       -1.7430    -7.1550     0.0200 C.3   1 <1>   0.0200 
 21 C       -0.8560    -8.3530    -0.2540 C.2   1 <1>  -0.0400 
 22 O       -0.5070    -8.6360    -1.4810 O.3   1 <1>  -0.0190 
 23 C       -0.2820    -9.2560     0.5560 C.2   1 <1>  -0.1500 
 24 N        0.2830    -9.6650    -1.5340 N.2   1 <1>  -0.4100 
 25 C        0.4290   -10.0690    -0.3230 C.2   1 <1>   0.1080 
 26 C        1.2620   -11.2660     0.0800 C.3   1 <1>  -0.0590 
 27 H        0.6070    -1.1770     2.3520 H     1 <1>   0.0800 
 28 H       -0.7400    -1.8000     1.4210 H     1 <1>   0.0800 
 29 H        2.2010     3.6900    -0.5670 H     1 <1>   0.1500 
 30 H        2.8900    -2.1320    -0.7700 H     1 <1>   0.1500 
 31 H        4.1110    -0.0320    -1.2480 H     1 <1>   0.1500 
 32 H        0.3240    -3.8990     1.4860 H     1 <1>   0.0800 
 33 H        1.9580    -4.1490     0.9040 H     1 <1>   0.0800 
 34 H       -1.0550     4.3050     0.9330 H     1 <1>   0.0800 
 35 H       -0.0840     4.3140    -0.5350 H     1 <1>   0.0800 
 36 H        0.6930     4.4750     1.0520 H     1 <1>   0.0800 
 37 H        4.0910     2.4130    -1.4050 H     1 <1>   0.1500 
 38 H        1.1640    -3.9340    -1.3350 H     1 <1>   0.4500 
 39 H       -0.9880    -2.6090    -0.5190 H     1 <1>   0.0800 
 40 H       -0.9430    -3.5130    -2.0160 H     1 <1>   0.0800 
 41 H        0.8470    -6.1820    -1.3020 H     1 <1>   0.0800 
 42 H        0.5740    -6.0440     0.4230 H     1 <1>   0.0800 
 43 H       -2.8560    -4.4470    -0.8830 H     1 <1>   0.0800 
 44 H       -1.3660    -6.1110    -1.7980 H     1 <1>   0.0800 
 45 H       -2.8670    -4.7660     1.2760 H     1 <1>   0.4000 
 46 H       -2.7470    -7.3830    -0.2950 H     1 <1>   0.0800 
 47 H       -1.7560    -6.9790     1.0810 H     1 <1>   0.0800 
 48 H       -0.3290    -9.3650     1.6240 H     1 <1>   0.1500 
 49 H        2.0130   -10.9710     0.7890 H     1 <1>   0.0800 
 50 H        1.7460   -11.6850    -0.7840 H     1 <1>   0.0800 
 51 H        0.6330   -12.0160     0.5210 H     1 <1>   0.0800 
@<TRIPOS>BOND
  1   1   2  1   
  2   1   3  1   
  3   2   4  ar  
  4   2   5  ar  
  5   3   6  1   
  6   3  27  1   
  7   3  28  1   
  8   4   7  1   
  9   4   8  ar  
 10   5   9  1   
 11   5  10  ar  
 12   6   9  2   
 13   6  11  1   
 14   7  12  1   
 15   8  13  ar  
 16   8  29  1   
 17   9  30  1   
 18  10  13  ar  
 19  10  31  1   
 20  11  14  1   
 21  11  32  1   
 22  11  33  1   
 23  12  34  1   
 24  12  35  1   
 25  12  36  1   
 26  13  37  1   
 27  14  15  1   
 28  14  16  1   
 29  14  38  1   
 30  15  17  1   
 31  15  39  1   
 32  15  40  1   
 33  16  18  1   
 34  16  41  1   
 35  16  42  1   
 36  17  18  1   
 37  17  19  1   
 38  17  43  1   
 39  18  20  1   
 40  18  44  1   
 41  19  45  1   
 42  20  21  1   
 43  20  46  1   
 44  20  47  1   
 45  21  22  1   
 46  21  23  2   
 47  22  24  1   
 48  23  25  1   
 49  23  48  1   
 50  24  25  2   
 51  25  26  1   
 52  26  49  1   
 53  26  50  1   
 54  26  51  1   
@<TRIPOS>SUBSTRUCTURE
  1 ****  14 GROUP 4 **** **** 0

# MOE 2024.06 (io_trps.svl 2023.06)
