@<TRIPOS>MOLECULE
NONAME
39 41 1 0 0 
SMALL
USER_CHARGES


@<TRIPOS>ATOM
  1 S        0.2390     0.3100     2.6870 S.3   1 <1>  -0.0800 
  2 C       -0.7730    -0.0370     1.3110 C.2   1 <1>   0.1980 
  3 C        0.3580     1.9570     2.1490 C.2   1 <1>  -0.1100 
  4 N       -0.9830     0.9660     0.5570 N.2   1 <1>  -0.5650 
  5 C       -1.3060    -1.4560     1.1410 C.3   1 <1>   0.5230 
  6 C       -0.3430     2.1370     1.0040 C.2   1 <1>   0.1410 
  7 N       -2.0110    -1.5720    -0.1820 N.4   1 <1>  -0.9590 
  8 C       -0.4750     3.3830     0.2500 C.2   1 <1>   0.7160 
  9 C       -3.0270    -2.6650    -0.2070 C.3   1 <1>   0.2630 
 10 C       -1.0400    -1.6770    -1.3150 C.3   1 <1>   0.2630 
 11 O       -1.1250     3.4220    -0.7780 O.2   1 <1>  -0.5700 
 12 N        0.1500     4.5250     0.6990 N.am  1 <1>  -0.4940 
 13 C        0.1680     5.8410     0.1730 C.2   1 <1>  -0.0880 
 14 N       -0.8530     6.5240    -0.4350 N.pl3 1 <1>   0.3140 
 15 C        1.2160     6.6980     0.1970 C.2   1 <1>  -0.1810 
 16 N       -0.4720     7.7780    -0.7830 N.2   1 <1>  -0.7070 
 17 C       -2.2450     6.1080    -0.6560 C.3   1 <1>   0.0160 
 18 C        0.7620     7.8550    -0.4010 C.2   1 <1>   0.1080 
 19 C        2.6500     6.6900     0.6750 C.3   1 <1>   0.2510 
 20 C        1.7310     9.0070    -0.5200 C.3   1 <1>   0.2510 
 21 S        3.2380     8.3610     0.2720 S.3   1 <1>  -0.4600 
 22 H        0.9460     2.6250     2.7520 H     1 <1>   0.1500 
 23 H       -1.9950    -1.6570     1.9440 H     1 <1>   0.0800 
 24 H       -0.4950    -2.1630     1.1970 H     1 <1>   0.0800 
 25 H       -2.4790    -0.6520    -0.2940 H     1 <1>   0.4500 
 26 H       -2.5520    -3.6240    -0.0790 H     1 <1>   0.0800 
 27 H       -3.5500    -2.6640    -1.1500 H     1 <1>   0.0800 
 28 H       -3.7490    -2.5270     0.5820 H     1 <1>   0.0800 
 29 H       -0.4620    -2.5830    -1.2370 H     1 <1>   0.0800 
 30 H       -0.3680    -0.8330    -1.3100 H     1 <1>   0.0800 
 31 H       -1.5660    -1.6830    -2.2570 H     1 <1>   0.0800 
 32 H        0.7820     4.3820     1.4830 H     1 <1>   0.3700 
 33 H       -2.5650     5.4780     0.1510 H     1 <1>   0.0800 
 34 H       -2.3060     5.5750    -1.5850 H     1 <1>   0.0800 
 35 H       -2.8700     6.9800    -0.7020 H     1 <1>   0.0800 
 36 H        3.2570     5.9850     0.1360 H     1 <1>   0.0800 
 37 H        2.7320     6.5560     1.7380 H     1 <1>   0.0800 
 38 H        1.4000     9.8720     0.0240 H     1 <1>   0.0800 
 39 H        1.9550     9.2410    -1.5450 H     1 <1>   0.0800 
@<TRIPOS>BOND
  1   1   2  1   
  2   1   3  1   
  3   2   4  2   
  4   2   5  1   
  5   3   6  2   
  6   3  22  1   
  7   4   6  1   
  8   5   7  1   
  9   5  23  1   
 10   5  24  1   
 11   6   8  1   
 12   7   9  1   
 13   7  10  1   
 14   7  25  1   
 15   8  11  2   
 16   8  12  am  
 17   9  26  1   
 18   9  27  1   
 19   9  28  1   
 20  10  29  1   
 21  10  30  1   
 22  10  31  1   
 23  12  13  1   
 24  12  32  1   
 25  13  14  1   
 26  13  15  2   
 27  14  16  1   
 28  14  17  1   
 29  15  18  1   
 30  15  19  1   
 31  16  18  2   
 32  17  33  1   
 33  17  34  1   
 34  17  35  1   
 35  18  20  1   
 36  19  21  1   
 37  19  36  1   
 38  19  37  1   
 39  20  21  1   
 40  20  38  1   
 41  20  39  1   
@<TRIPOS>SUBSTRUCTURE
  1 ****   8 GROUP 4 **** **** 0

# MOE 2024.06 (io_trps.svl 2023.06)
