@<TRIPOS>MOLECULE
NONAME
50 51 1 0 0 
SMALL
USER_CHARGES


@<TRIPOS>ATOM
  1 S        0.3740     0.3520    -0.5700 S.o2  1 <1>   1.3330 
  2 O        0.4120    -0.8540    -1.3660 O.2   1 <1>  -0.6500 
  3 O        0.0840     0.2660     0.8440 O.2   1 <1>  -0.6500 
  4 N       -0.7500     1.4170    -1.2660 N.am  1 <1>  -0.8490 
  5 C        1.9340     1.2030    -0.7890 C.3   1 <1>  -0.0550 
  6 C       -1.9520     0.7220    -1.7350 C.3   1 <1>   0.1160 
  7 C       -1.1260     2.5290    -0.3870 C.3   1 <1>   0.1160 
  8 C        3.1520     0.3520    -0.3780 C.3   1 <1>  -0.0800 
  9 C        4.5050     1.0130    -0.5970 C.3   1 <1>   0.2200 
 10 C        3.2000    -0.0390     1.1050 C.3   1 <1>   0.1200 
 11 N        4.4820     2.4300    -0.1540 N.am  1 <1>  -0.7300 
 12 C        5.3580     0.2130     0.3770 C.3   1 <1>   0.1200 
 13 O        4.5430     0.0300     1.4930 O.3   1 <1>  -0.5600 
 14 C        4.3440     3.5120    -0.9750 C.2   1 <1>   0.5440 
 15 O        4.1670     3.3050    -2.1590 O.2   1 <1>  -0.5700 
 16 C        4.3700     4.8510    -0.4420 C.ar  1 <1>   0.0860 
 17 C        5.0320     5.9240    -1.0250 C.ar  1 <1>   0.1670 
 18 C        3.6990     5.1490     0.7310 C.ar  1 <1>   0.1600 
 19 N        5.0190     7.1250    -0.5010 N.ar  1 <1>  -0.6200 
 20 C        5.8260     5.7790    -2.3130 C.3   1 <1>  -0.0970 
 21 N        3.6750     6.3370     1.2760 N.ar  1 <1>  -0.6200 
 22 C        4.3400     7.2950     0.6330 C.ar  1 <1>   0.7200 
 23 N        4.3250     8.5560     1.1810 N.pl3 1 <1>  -0.8380 
 24 C        3.8410     8.8250     2.5640 C.3   1 <1>   0.1290 
 25 C        4.7990     9.7540     0.4310 C.3   1 <1>   0.1290 
 26 H        2.0400     1.4710    -1.8230 H     1 <1>   0.0800 
 27 H        1.9160     2.1100    -0.2190 H     1 <1>   0.0800 
 28 H       -2.6330     1.4200    -2.1900 H     1 <1>   0.0800 
 29 H       -2.4440     0.2280    -0.9140 H     1 <1>   0.0800 
 30 H       -1.6860    -0.0160    -2.4740 H     1 <1>   0.0800 
 31 H       -1.7740     3.2110    -0.9110 H     1 <1>   0.0800 
 32 H       -0.2490     3.0700    -0.0760 H     1 <1>   0.0800 
 33 H       -1.6360     2.1630     0.4890 H     1 <1>   0.0800 
 34 H        3.1320    -0.5600    -0.9510 H     1 <1>   0.0800 
 35 H        4.8530     0.9320    -1.6140 H     1 <1>   0.0800 
 36 H        2.8390    -1.0410     1.2680 H     1 <1>   0.0800 
 37 H        2.6470     0.6490     1.7220 H     1 <1>   0.0800 
 38 H        4.6620     2.5410     0.8490 H     1 <1>   0.3700 
 39 H        6.2610     0.7230     0.6620 H     1 <1>   0.0800 
 40 H        5.5940    -0.7570    -0.0250 H     1 <1>   0.0800 
 41 H        3.1560     4.3680     1.2340 H     1 <1>   0.1500 
 42 H        6.4040     4.8730    -2.3040 H     1 <1>   0.0800 
 43 H        6.4990     6.6090    -2.4360 H     1 <1>   0.0800 
 44 H        5.1520     5.7550    -3.1500 H     1 <1>   0.0800 
 45 H        4.4200     9.6130     3.0110 H     1 <1>   0.0800 
 46 H        3.9360     7.9470     3.1790 H     1 <1>   0.0800 
 47 H        2.8060     9.1180     2.5320 H     1 <1>   0.0800 
 48 H        4.2310    10.6200     0.7200 H     1 <1>   0.0800 
 49 H        4.6780     9.6110    -0.6290 H     1 <1>   0.0800 
 50 H        5.8400     9.9220     0.6440 H     1 <1>   0.0800 
@<TRIPOS>BOND
  1   1   2  2   
  2   1   3  2   
  3   1   4  am  
  4   1   5  1   
  5   4   6  1   
  6   4   7  1   
  7   5   8  1   
  8   5  26  1   
  9   5  27  1   
 10   6  28  1   
 11   6  29  1   
 12   6  30  1   
 13   7  31  1   
 14   7  32  1   
 15   7  33  1   
 16   8   9  1   
 17   8  10  1   
 18   8  34  1   
 19   9  11  1   
 20   9  12  1   
 21   9  35  1   
 22  10  13  1   
 23  10  36  1   
 24  10  37  1   
 25  11  14  am  
 26  11  38  1   
 27  12  13  1   
 28  12  39  1   
 29  12  40  1   
 30  14  15  2   
 31  14  16  1   
 32  16  17  ar  
 33  16  18  ar  
 34  17  19  ar  
 35  17  20  1   
 36  18  21  ar  
 37  18  41  1   
 38  19  22  ar  
 39  20  42  1   
 40  20  43  1   
 41  20  44  1   
 42  21  22  ar  
 43  22  23  1   
 44  23  24  1   
 45  23  25  1   
 46  24  45  1   
 47  24  46  1   
 48  24  47  1   
 49  25  48  1   
 50  25  49  1   
 51  25  50  1   
@<TRIPOS>SUBSTRUCTURE
  1 ****  14 GROUP 4 **** **** 0

# MOE 2024.06 (io_trps.svl 2023.06)
