@<TRIPOS>MOLECULE
NONAME
38 39 1 0 0 
SMALL
USER_CHARGES


@<TRIPOS>ATOM
  1 O        3.1150     3.0560    -3.6730 O.co2 1 <1>  -0.9000 
  2 C        3.2340     4.0470    -2.9320 C.2   1 <1>   1.0330 
  3 O        4.2300     4.7890    -3.0630 O.co2 1 <1>  -0.9000 
  4 C        2.2380     4.2970    -1.8910 C.2   1 <1>  -0.0060 
  5 N        2.1460     5.4310    -1.1280 N.2   1 <1>  -0.5650 
  6 C        1.2700     3.4610    -1.4570 C.2   1 <1>  -0.0100 
  7 C        1.2080     5.1810    -0.2990 C.2   1 <1>   0.2980 
  8 O        0.6310     4.0170    -0.4590 O.3   1 <1>  -0.2800 
  9 C        0.8190     6.1410     0.8170 C.3   1 <1>   0.5230 
 10 N        1.9080     7.1730     0.9370 N.4   1 <1>  -0.9590 
 11 C        3.0830     6.6910     1.7000 C.3   1 <1>   0.5240 
 12 C        1.4980     8.5540     1.2660 C.3   1 <1>   0.3430 
 13 C        4.2930     7.2010     0.9600 C.2   1 <1>  -0.1810 
 14 C        0.7030     9.1370     0.1050 C.3   1 <1>  -0.2400 
 15 C        5.0510     8.3410     1.2030 C.2   1 <1>   0.1390 
 16 C        4.8580     6.6490    -0.1340 C.2   1 <1>  -0.3020 
 17 N        5.9880     8.4990     0.3220 N.2   1 <1>  -0.7070 
 18 N        5.8690     7.4450    -0.5140 N.pl3 1 <1>   0.3140 
 19 C        6.7130     7.2320    -1.7090 C.3   1 <1>   0.0960 
 20 C        7.9790     6.4420    -1.3560 C.3   1 <1>  -0.2400 
 21 H        1.0090     2.4760    -1.8050 H     1 <1>   0.1500 
 22 H        0.7000     5.6020     1.7410 H     1 <1>   0.0800 
 23 H       -0.1170     6.6020     0.5560 H     1 <1>   0.0800 
 24 H        2.2990     7.1820    -0.0300 H     1 <1>   0.4500 
 25 H        3.1140     5.6130     1.6960 H     1 <1>   0.0800 
 26 H        3.0670     7.0450     2.7170 H     1 <1>   0.0800 
 27 H        2.3760     9.1620     1.4190 H     1 <1>   0.0800 
 28 H        0.9110     8.5690     2.1710 H     1 <1>   0.0800 
 29 H        1.2760     9.0940    -0.8050 H     1 <1>   0.0800 
 30 H        0.4860    10.1700     0.3100 H     1 <1>   0.0800 
 31 H       -0.2330     8.6280    -0.0340 H     1 <1>   0.0800 
 32 H        4.8970     9.0330     2.0150 H     1 <1>   0.1500 
 33 H        4.6170     5.7570    -0.6910 H     1 <1>   0.1500 
 34 H        6.9730     8.1930    -2.1130 H     1 <1>   0.0800 
 35 H        6.1350     6.6940    -2.4420 H     1 <1>   0.0800 
 36 H        8.5550     6.9730    -0.6190 H     1 <1>   0.0800 
 37 H        8.5800     6.3110    -2.2380 H     1 <1>   0.0800 
 38 H        7.7140     5.4710    -0.9780 H     1 <1>   0.0800 
@<TRIPOS>BOND
  1   1   2  ar  
  2   2   3  ar  
  3   2   4  1   
  4   4   5  1   
  5   4   6  2   
  6   5   7  2   
  7   6   8  1   
  8   6  21  1   
  9   7   8  1   
 10   7   9  1   
 11   9  10  1   
 12   9  22  1   
 13   9  23  1   
 14  10  11  1   
 15  10  12  1   
 16  10  24  1   
 17  11  13  1   
 18  11  25  1   
 19  11  26  1   
 20  12  14  1   
 21  12  27  1   
 22  12  28  1   
 23  13  15  1   
 24  13  16  2   
 25  14  29  1   
 26  14  30  1   
 27  14  31  1   
 28  15  17  2   
 29  15  32  1   
 30  16  18  1   
 31  16  33  1   
 32  17  18  1   
 33  18  19  1   
 34  19  20  1   
 35  19  34  1   
 36  19  35  1   
 37  20  36  1   
 38  20  37  1   
 39  20  38  1   
@<TRIPOS>SUBSTRUCTURE
  1 ****   5 GROUP 4 **** **** 0

# MOE 2024.06 (io_trps.svl 2023.06)
