@<TRIPOS>MOLECULE
NONAME
50 52 1 0 0 
SMALL
USER_CHARGES


@<TRIPOS>ATOM
  1 O       -1.6770     0.6250    -1.0330 O.2   1 <1>  -0.5700 
  2 C       -1.1080     1.5680    -0.5340 C.2   1 <1>   0.5690 
  3 N       -1.7690     2.5980     0.0980 N.am  1 <1>  -0.6600 
  4 C        0.4220     1.5850    -0.6580 C.3   1 <1>   0.1810 
  5 C       -0.9800     3.7180     0.7120 C.3   1 <1>   0.3640 
  6 C       -3.2130     2.5530     0.4750 C.3   1 <1>   0.2200 
  7 O        1.0640     2.5000     0.1990 O.3   1 <1>  -0.5600 
  8 C       -1.6280     5.0820     0.4510 C.ar  1 <1>  -0.1440 
  9 C        0.4690     3.7770     0.1880 C.3   1 <1>   0.2610 
 10 C       -3.4890     1.3720     1.4060 C.3   1 <1>  -0.2400 
 11 C       -4.1050     2.5260    -0.7660 C.3   1 <1>  -0.2400 
 12 C       -1.9720     5.4820    -0.8330 C.ar  1 <1>  -0.1500 
 13 C       -1.8480     5.9510     1.5100 C.ar  1 <1>  -0.1500 
 14 C        1.2670     4.8130     0.9930 C.2   1 <1>   0.5690 
 15 C       -2.5190     6.7340    -1.0540 C.ar  1 <1>  -0.1500 
 16 C       -2.3990     7.2010     1.2910 C.ar  1 <1>  -0.1500 
 17 O        1.1180     4.8590     2.1960 O.2   1 <1>  -0.5700 
 18 N        2.0580     5.7280     0.3470 N.am  1 <1>  -0.6600 
 19 C       -2.7320     7.5940     0.0080 C.ar  1 <1>  -0.1500 
 20 C        2.4110     7.0120     1.0020 C.3   1 <1>   0.3200 
 21 C        2.5870     5.5570    -1.0370 C.3   1 <1>   0.0600 
 22 C        1.7800     8.1400     0.2110 C.2   1 <1>  -0.3320 
 23 N        0.4550     8.2240    -0.0380 N.pl3 1 <1>   0.3000 
 24 C        2.3540     9.2150    -0.3730 C.2   1 <1>  -0.1500 
 25 N        0.1600     9.3190    -0.7690 N.2   1 <1>  -0.7070 
 26 C        1.3010     9.9050    -0.9620 C.2   1 <1>   0.1390 
 27 H        0.6910     1.8250    -1.6700 H     1 <1>   0.0800 
 28 H        0.8030     0.6070    -0.4270 H     1 <1>   0.0800 
 29 H       -0.9480     3.5440     1.7740 H     1 <1>   0.0800 
 30 H       -3.4610     3.4470     1.0240 H     1 <1>   0.0800 
 31 H        0.4340     4.1030    -0.8340 H     1 <1>   0.0800 
 32 H       -3.3540     0.4360     0.8930 H     1 <1>   0.0800 
 33 H       -4.5040     1.4150     1.7560 H     1 <1>   0.0800 
 34 H       -2.8340     1.4080     2.2570 H     1 <1>   0.0800 
 35 H       -3.9800     1.6110    -1.3150 H     1 <1>   0.0800 
 36 H       -3.8790     3.3580    -1.4050 H     1 <1>   0.0800 
 37 H       -5.1360     2.5980    -0.4710 H     1 <1>   0.0800 
 38 H       -1.8190     4.8200    -1.6690 H     1 <1>   0.1500 
 39 H       -1.5830     5.6630     2.5150 H     1 <1>   0.1500 
 40 H       -2.7780     7.0430    -2.0520 H     1 <1>   0.1500 
 41 H       -2.5670     7.8710     2.1180 H     1 <1>   0.1500 
 42 H       -3.1520     8.5700    -0.1680 H     1 <1>   0.1500 
 43 H        2.0530     7.0420     2.0170 H     1 <1>   0.0800 
 44 H        3.4810     7.1220     1.0230 H     1 <1>   0.0800 
 45 H        3.5870     5.9510    -1.0980 H     1 <1>   0.0800 
 46 H        1.9620     6.0860    -1.7360 H     1 <1>   0.0800 
 47 H        2.6220     4.5140    -1.3040 H     1 <1>   0.0800 
 48 H       -0.2710     7.5520     0.2610 H     1 <1>   0.2700 
 49 H        3.3890     9.5050    -0.3990 H     1 <1>   0.1500 
 50 H        1.4080    10.8220    -1.5170 H     1 <1>   0.1500 
@<TRIPOS>BOND
  1   1   2  2   
  2   2   3  am  
  3   2   4  1   
  4   3   5  1   
  5   3   6  1   
  6   4   7  1   
  7   4  27  1   
  8   4  28  1   
  9   5   8  1   
 10   5   9  1   
 11   5  29  1   
 12   6  10  1   
 13   6  11  1   
 14   6  30  1   
 15   7   9  1   
 16   8  12  ar  
 17   8  13  ar  
 18   9  14  1   
 19   9  31  1   
 20  10  32  1   
 21  10  33  1   
 22  10  34  1   
 23  11  35  1   
 24  11  36  1   
 25  11  37  1   
 26  12  15  ar  
 27  12  38  1   
 28  13  16  ar  
 29  13  39  1   
 30  14  17  2   
 31  14  18  am  
 32  15  19  ar  
 33  15  40  1   
 34  16  19  ar  
 35  16  41  1   
 36  18  20  1   
 37  18  21  1   
 38  19  42  1   
 39  20  22  1   
 40  20  43  1   
 41  20  44  1   
 42  21  45  1   
 43  21  46  1   
 44  21  47  1   
 45  22  23  1   
 46  22  24  2   
 47  23  25  1   
 48  23  48  1   
 49  24  26  1   
 50  24  49  1   
 51  25  26  2   
 52  26  50  1   
@<TRIPOS>SUBSTRUCTURE
  1 ****   8 GROUP 4 **** **** 0

# MOE 2024.06 (io_trps.svl 2023.06)
