@<TRIPOS>MOLECULE
NONAME
42 42 1 0 0 
SMALL
USER_CHARGES


@<TRIPOS>ATOM
  1 O        0.0880     2.3350     0.4710 O.2   1 <1>  -0.5700 
  2 C       -0.8990     1.7290     0.1230 C.2   1 <1>   0.5690 
  3 N       -1.1230     0.4520     0.5630 N.am  1 <1>  -0.7300 
  4 C       -1.9040     2.4600    -0.8410 C.3   1 <1>   0.5640 
  5 C       -0.2110    -0.3120     1.4590 C.3   1 <1>   0.0600 
  6 N       -1.7410     3.9630    -0.8110 N.4   1 <1>  -0.9590 
  7 C       -1.6210     1.9830    -2.2720 C.3   1 <1>  -0.2400 
  8 C       -3.3620     2.1210    -0.4820 C.3   1 <1>  -0.2400 
  9 C       -1.8490     4.5660     0.5620 C.3   1 <1>   0.4860 
 10 C       -2.5020     4.7690    -1.8210 C.3   1 <1>   0.2630 
 11 C       -1.1870     5.9450     0.5940 C.ar  1 <1>   0.1670 
 12 N       -0.1400     6.1240    -0.2050 N.ar  1 <1>  -0.6200 
 13 C       -1.6980     6.9250     1.4320 C.ar  1 <1>  -0.1500 
 14 C        0.4230     7.3220    -0.1510 C.ar  1 <1>   0.1600 
 15 C       -1.1030     8.1670     1.4660 C.ar  1 <1>  -0.1500 
 16 C       -0.0100     8.3670     0.6490 C.ar  1 <1>  -0.1430 
 17 C        0.7100     9.7070     0.6370 C.3   1 <1>  -0.0170 
 18 C        1.8360     9.7190     1.6720 C.3   1 <1>  -0.2400 
 19 H       -1.9450    -0.0750     0.2540 H     1 <1>   0.3700 
 20 H        0.6420     0.2870     1.7370 H     1 <1>   0.0800 
 21 H        0.1410    -1.1960     0.9560 H     1 <1>   0.0800 
 22 H       -0.7340    -0.6010     2.3550 H     1 <1>   0.0800 
 23 H       -0.7330     4.1310    -0.9960 H     1 <1>   0.4500 
 24 H       -0.6430     2.3030    -2.5860 H     1 <1>   0.0800 
 25 H       -2.3580     2.3340    -2.9710 H     1 <1>   0.0800 
 26 H       -1.6360     0.9080    -2.3060 H     1 <1>   0.0800 
 27 H       -3.5740     2.3710     0.5420 H     1 <1>   0.0800 
 28 H       -3.5360     1.0670    -0.6000 H     1 <1>   0.0800 
 29 H       -4.0570     2.6300    -1.1240 H     1 <1>   0.0800 
 30 H       -1.3390     3.9450     1.2790 H     1 <1>   0.0800 
 31 H       -2.8810     4.6480     0.8550 H     1 <1>   0.0800 
 32 H       -3.5630     4.6830    -1.6560 H     1 <1>   0.0800 
 33 H       -2.2740     4.4360    -2.8200 H     1 <1>   0.0800 
 34 H       -2.2250     5.8090    -1.7480 H     1 <1>   0.0800 
 35 H       -2.5490     6.7320     2.0610 H     1 <1>   0.1500 
 36 H        1.2830     7.4820    -0.7810 H     1 <1>   0.1500 
 37 H       -1.4750     8.9480     2.1080 H     1 <1>   0.1500 
 38 H        0.0140    10.4980     0.8540 H     1 <1>   0.0800 
 39 H        1.1190     9.8940    -0.3420 H     1 <1>   0.0800 
 40 H        1.4380     9.5580     2.6590 H     1 <1>   0.0800 
 41 H        2.3430    10.6670     1.6570 H     1 <1>   0.0800 
 42 H        2.5510     8.9430     1.4590 H     1 <1>   0.0800 
@<TRIPOS>BOND
  1   1   2  2   
  2   2   3  am  
  3   2   4  1   
  4   3   5  1   
  5   3  19  1   
  6   4   6  1   
  7   4   7  1   
  8   4   8  1   
  9   5  20  1   
 10   5  21  1   
 11   5  22  1   
 12   6   9  1   
 13   6  10  1   
 14   6  23  1   
 15   7  24  1   
 16   7  25  1   
 17   7  26  1   
 18   8  27  1   
 19   8  28  1   
 20   8  29  1   
 21   9  11  1   
 22   9  30  1   
 23   9  31  1   
 24  10  32  1   
 25  10  33  1   
 26  10  34  1   
 27  11  12  ar  
 28  11  13  ar  
 29  12  14  ar  
 30  13  15  ar  
 31  13  35  1   
 32  14  16  ar  
 33  14  36  1   
 34  15  16  ar  
 35  15  37  1   
 36  16  17  1   
 37  17  18  1   
 38  17  38  1   
 39  17  39  1   
 40  18  40  1   
 41  18  41  1   
 42  18  42  1   
@<TRIPOS>SUBSTRUCTURE
  1 ****   9 GROUP 4 **** **** 0

# MOE 2024.06 (io_trps.svl 2023.06)
