@<TRIPOS>MOLECULE
NONAME
45 47 1 0 0 
SMALL
USER_CHARGES


@<TRIPOS>ATOM
  1 S       -0.0290     0.4840     0.2240 S.3   1 <1>  -0.0800 
  2 C        1.6230    -0.0230    -0.1030 C.2   1 <1>  -0.1400 
  3 C       -0.6650    -0.7320    -0.8690 C.2   1 <1>  -0.1100 
  4 C        1.6360    -1.0430    -0.9810 C.2   1 <1>  -0.1500 
  5 C        2.7400     0.7100     0.6140 C.3   1 <1>   0.0200 
  6 C        0.3340    -1.4470    -1.4180 C.2   1 <1>  -0.1500 
  7 C        2.9020     2.1400     0.0810 C.3   1 <1>  -0.1600 
  8 C        4.0580     2.8830     0.7790 C.3   1 <1>  -0.0990 
  9 C        4.2900     4.3080     0.2850 C.2   1 <1>   0.5690 
 10 O        3.5160     4.7770    -0.5170 O.2   1 <1>  -0.5700 
 11 N        5.3650     5.0270     0.7420 N.am  1 <1>  -0.6600 
 12 C        6.3930     4.5360     1.7170 C.3   1 <1>   0.1400 
 13 C        5.6080     6.4150     0.2560 C.3   1 <1>   0.1400 
 14 C        7.7100     4.1380     1.0270 C.3   1 <1>   0.1400 
 15 C        6.4170     6.4210    -1.0490 C.3   1 <1>  -0.1600 
 16 N        8.2510     5.2450     0.1760 N.am  1 <1>  -0.6600 
 17 C        7.5380     5.3770    -1.1270 C.3   1 <1>   0.1400 
 18 C        9.1190     6.1880     0.7120 C.2   1 <1>   0.7160 
 19 O        9.3720     6.0900     1.9040 O.2   1 <1>  -0.5700 
 20 C        9.7260     7.2960    -0.0170 C.2   1 <1>   0.1410 
 21 N        9.7160     7.4770    -1.3600 N.2   1 <1>  -0.2270 
 22 C       10.4190     8.3350     0.5120 C.2   1 <1>  -0.3020 
 23 N       10.3490     8.5560    -1.6490 N.2   1 <1>  -0.4180 
 24 N       10.7890     9.0920    -0.5120 N.pl3 1 <1>   0.3000 
 25 H       -1.7330    -0.7820    -0.9860 H     1 <1>   0.1500 
 26 H        2.5160    -1.5400    -1.3490 H     1 <1>   0.1500 
 27 H        3.6580     0.1680     0.4690 H     1 <1>   0.0800 
 28 H        2.5260     0.7300     1.6680 H     1 <1>   0.0800 
 29 H        0.2130    -2.2520    -2.1220 H     1 <1>   0.1500 
 30 H        1.9860     2.6860     0.2340 H     1 <1>   0.0800 
 31 H        3.0870     2.1050    -0.9790 H     1 <1>   0.0800 
 32 H        4.9640     2.3260     0.6290 H     1 <1>   0.0800 
 33 H        3.8540     2.9290     1.8330 H     1 <1>   0.0800 
 34 H        6.0200     3.6940     2.2700 H     1 <1>   0.0800 
 35 H        6.6010     5.3110     2.4350 H     1 <1>   0.0800 
 36 H        6.1420     6.9680     1.0100 H     1 <1>   0.0800 
 37 H        4.6670     6.9160     0.0980 H     1 <1>   0.0800 
 38 H        7.5470     3.2640     0.4220 H     1 <1>   0.0800 
 39 H        8.4320     3.8690     1.7790 H     1 <1>   0.0800 
 40 H        6.8330     7.4020    -1.1920 H     1 <1>   0.0800 
 41 H        5.7410     6.2510    -1.8690 H     1 <1>   0.0800 
 42 H        8.2250     5.6140    -1.9200 H     1 <1>   0.0800 
 43 H        7.0970     4.4290    -1.3820 H     1 <1>   0.0800 
 44 H       10.6480     8.5430     1.5410 H     1 <1>   0.1500 
 45 H       11.3340     9.9610    -0.4860 H     1 <1>   0.2700 
@<TRIPOS>BOND
  1   1   2  1   
  2   1   3  1   
  3   2   4  2   
  4   2   5  1   
  5   3   6  2   
  6   3  25  1   
  7   4   6  1   
  8   4  26  1   
  9   5   7  1   
 10   5  27  1   
 11   5  28  1   
 12   6  29  1   
 13   7   8  1   
 14   7  30  1   
 15   7  31  1   
 16   8   9  1   
 17   8  32  1   
 18   8  33  1   
 19   9  10  2   
 20   9  11  am  
 21  11  12  1   
 22  11  13  1   
 23  12  14  1   
 24  12  34  1   
 25  12  35  1   
 26  13  15  1   
 27  13  36  1   
 28  13  37  1   
 29  14  16  1   
 30  14  38  1   
 31  14  39  1   
 32  15  17  1   
 33  15  40  1   
 34  15  41  1   
 35  16  17  1   
 36  16  18  am  
 37  17  42  1   
 38  17  43  1   
 39  18  19  2   
 40  18  20  1   
 41  20  21  1   
 42  20  22  2   
 43  21  23  2   
 44  22  24  1   
 45  22  44  1   
 46  23  24  1   
 47  24  45  1   
@<TRIPOS>SUBSTRUCTURE
  1 ****  11 GROUP 4 **** **** 0

# MOE 2024.06 (io_trps.svl 2023.06)
