@<TRIPOS>MOLECULE
NONAME
45 47 1 0 0 
SMALL
USER_CHARGES


@<TRIPOS>ATOM
  1 O       -3.1760     0.1940     2.2230 O.2   1 <1>  -0.5700 
  2 C       -2.9240     0.5690     1.0880 C.2   1 <1>   0.5440 
  3 N       -3.1930    -0.3120     0.0660 N.am  1 <1>  -0.6600 
  4 C       -2.3630     1.9040     0.8510 C.ar  1 <1>   0.3960 
  5 C       -2.8010    -1.7500     0.2200 C.3   1 <1>   0.3640 
  6 C       -4.2610     0.0000    -0.9180 C.3   1 <1>   0.1400 
  7 N       -2.1260     2.3440    -0.3890 N.ar  1 <1>  -0.6200 
  8 C       -2.0610     2.7270     1.9220 C.ar  1 <1>  -0.1500 
  9 C       -1.3190    -1.7940     0.6180 C.ar  1 <1>  -0.1440 
 10 C       -3.0110    -2.6060    -1.0700 C.3   1 <1>   0.2000 
 11 C       -4.0990    -0.8410    -2.1840 C.3   1 <1>   0.1200 
 12 C       -1.6100     3.5490    -0.5040 C.ar  1 <1>   0.4760 
 13 C       -1.5290     3.9680     1.6810 C.ar  1 <1>   0.1660 
 14 C       -0.9230    -2.4570     1.7700 C.ar  1 <1>  -0.1500 
 15 C       -0.3540    -1.1660    -0.1600 C.ar  1 <1>  -0.1500 
 16 O       -4.1110    -2.1900    -1.8400 O.3   1 <1>  -0.5600 
 17 C       -3.2410    -4.1000    -0.7810 C.3   1 <1>   0.1200 
 18 N       -1.2990     4.3910     0.4630 N.ar  1 <1>  -0.6200 
 19 C       -1.3400     4.0360    -1.9070 C.3   1 <1>  -0.0970 
 20 C       -1.1790     4.9100     2.8130 C.3   1 <1>  -0.0970 
 21 C        0.4120    -2.5080     2.1310 C.ar  1 <1>  -0.1500 
 22 C        0.9810    -1.2150     0.1980 C.ar  1 <1>  -0.1500 
 23 O       -2.2880    -4.6310     0.0820 O.3   1 <1>  -0.6800 
 24 C        1.3660    -1.8880     1.3430 C.ar  1 <1>  -0.1500 
 25 H       -3.3970    -2.1730     1.0110 H     1 <1>   0.0800 
 26 H       -5.2200    -0.2090    -0.4760 H     1 <1>   0.0800 
 27 H       -4.2330     1.0440    -1.1770 H     1 <1>   0.0800 
 28 H       -2.2420     2.3900     2.9250 H     1 <1>   0.1500 
 29 H       -2.1440    -2.5140    -1.6990 H     1 <1>   0.0800 
 30 H       -3.1770    -0.6080    -2.6890 H     1 <1>   0.0800 
 31 H       -4.9210    -0.6640    -2.8540 H     1 <1>   0.0800 
 32 H       -1.6580    -2.9400     2.3930 H     1 <1>   0.1500 
 33 H       -0.6440    -0.6270    -1.0460 H     1 <1>   0.1500 
 34 H       -3.2030    -4.6590    -1.7000 H     1 <1>   0.0800 
 35 H       -4.2040    -4.2420    -0.3210 H     1 <1>   0.0800 
 36 H       -0.3430     4.4310    -1.9650 H     1 <1>   0.0800 
 37 H       -2.0400     4.8110    -2.1540 H     1 <1>   0.0800 
 38 H       -1.4390     3.2330    -2.6130 H     1 <1>   0.0800 
 39 H       -1.4030     4.4700     3.7670 H     1 <1>   0.0800 
 40 H       -1.7390     5.8210     2.7090 H     1 <1>   0.0800 
 41 H       -0.1300     5.1430     2.7750 H     1 <1>   0.0800 
 42 H        0.7060    -3.0270     3.0260 H     1 <1>   0.1500 
 43 H        1.7200    -0.7240    -0.4110 H     1 <1>   0.1500 
 44 H       -1.3830    -4.3530    -0.1680 H     1 <1>   0.4000 
 45 H        2.4040    -1.9260     1.6250 H     1 <1>   0.1500 
@<TRIPOS>BOND
  1   1   2  2   
  2   2   3  am  
  3   2   4  1   
  4   3   5  1   
  5   3   6  1   
  6   4   7  ar  
  7   4   8  ar  
  8   5   9  1   
  9   5  10  1   
 10   5  25  1   
 11   6  11  1   
 12   6  26  1   
 13   6  27  1   
 14   7  12  ar  
 15   8  13  ar  
 16   8  28  1   
 17   9  14  ar  
 18   9  15  ar  
 19  10  16  1   
 20  10  17  1   
 21  10  29  1   
 22  11  16  1   
 23  11  30  1   
 24  11  31  1   
 25  12  18  ar  
 26  12  19  1   
 27  13  18  ar  
 28  13  20  1   
 29  14  21  ar  
 30  14  32  1   
 31  15  22  ar  
 32  15  33  1   
 33  17  23  1   
 34  17  34  1   
 35  17  35  1   
 36  19  36  1   
 37  19  37  1   
 38  19  38  1   
 39  20  39  1   
 40  20  40  1   
 41  20  41  1   
 42  21  24  ar  
 43  21  42  1   
 44  22  24  ar  
 45  22  43  1   
 46  23  44  1   
 47  24  45  1   
@<TRIPOS>SUBSTRUCTURE
  1 ****   3 GROUP 4 **** **** 0

# MOE 2024.06 (io_trps.svl 2023.06)
