@<TRIPOS>MOLECULE
NONAME
42 44 1 0 0 
SMALL
USER_CHARGES


@<TRIPOS>ATOM
  1 S       -0.3830    -1.2730     1.9180 S.3   1 <1>  -0.0800 
  2 C       -0.3150    -2.9050     1.2780 C.2   1 <1>  -0.1100 
  3 C       -1.6270    -0.8290     0.7640 C.2   1 <1>  -0.1100 
  4 C       -1.1910    -3.0620     0.2670 C.2   1 <1>  -0.1810 
  5 C       -1.9370    -1.8730    -0.0260 C.2   1 <1>  -0.1500 
  6 C       -1.4100    -4.3400    -0.5220 C.3   1 <1>   0.0210 
  7 C       -2.7840    -4.9400    -0.2100 C.3   1 <1>  -0.0990 
  8 C       -2.9780    -6.2450    -0.9450 C.2   1 <1>   0.5690 
  9 O       -3.2760    -6.2230    -2.1130 O.2   1 <1>  -0.5700 
 10 N       -2.8110    -7.4070    -0.2710 N.am  1 <1>  -0.7300 
 11 C       -2.9270    -8.7580    -0.8670 C.3   1 <1>   0.2200 
 12 C       -4.2240    -9.4390    -0.4490 C.3   1 <1>  -0.0800 
 13 C       -1.9070    -9.6730    -0.2050 C.3   1 <1>   0.1200 
 14 C       -3.8700   -10.0540     0.9110 C.3   1 <1>   0.1200 
 15 C       -5.4790    -8.5480    -0.4360 C.3   1 <1>  -0.0170 
 16 O       -2.4760   -10.0110     1.0230 O.3   1 <1>  -0.5600 
 17 C       -6.7190    -9.3620    -0.0990 C.ar  1 <1>  -0.1430 
 18 C       -7.3740   -10.1120    -1.0540 C.ar  1 <1>  -0.1500 
 19 C       -7.2530    -9.3960     1.1740 C.ar  1 <1>  -0.1500 
 20 C       -8.4950   -10.8440    -0.7000 C.ar  1 <1>   0.1600 
 21 C       -8.3800   -10.1620     1.4230 C.ar  1 <1>   0.1600 
 22 N       -9.0120   -10.8890     0.5170 N.ar  1 <1>  -0.6200 
 23 H        0.3840    -3.5820     1.7350 H     1 <1>   0.1500 
 24 H       -1.9980     0.1800     0.8000 H     1 <1>   0.1500 
 25 H       -2.6680    -1.8560    -0.8160 H     1 <1>   0.1500 
 26 H       -1.3320    -4.1310    -1.5750 H     1 <1>   0.0800 
 27 H       -0.6430    -5.0520    -0.2690 H     1 <1>   0.0800 
 28 H       -3.5560    -4.2590    -0.5160 H     1 <1>   0.0800 
 29 H       -2.8790    -5.1000     0.8480 H     1 <1>   0.0800 
 30 H       -2.5810    -7.4160     0.7260 H     1 <1>   0.3700 
 31 H       -2.8060    -8.7150    -1.9370 H     1 <1>   0.0800 
 32 H       -4.4000   -10.2520    -1.1300 H     1 <1>   0.0800 
 33 H       -0.9550    -9.1970    -0.0490 H     1 <1>   0.0800 
 34 H       -1.7790   -10.5790    -0.7720 H     1 <1>   0.0800 
 35 H       -4.1960   -11.0770     0.9820 H     1 <1>   0.0800 
 36 H       -4.2790    -9.4840     1.7270 H     1 <1>   0.0800 
 37 H       -5.6040    -8.0920    -1.4030 H     1 <1>   0.0800 
 38 H       -5.3710    -7.7530     0.2810 H     1 <1>   0.0800 
 39 H       -7.0240   -10.1340    -2.0700 H     1 <1>   0.1500 
 40 H       -6.8060    -8.8350     1.9740 H     1 <1>   0.1500 
 41 H       -8.9930   -11.4240    -1.4590 H     1 <1>   0.1500 
 42 H       -8.7820   -10.1760     2.4210 H     1 <1>   0.1500 
@<TRIPOS>BOND
  1   1   2  1   
  2   1   3  1   
  3   2   4  2   
  4   2  23  1   
  5   3   5  2   
  6   3  24  1   
  7   4   5  1   
  8   4   6  1   
  9   5  25  1   
 10   6   7  1   
 11   6  26  1   
 12   6  27  1   
 13   7   8  1   
 14   7  28  1   
 15   7  29  1   
 16   8   9  2   
 17   8  10  am  
 18  10  11  1   
 19  10  30  1   
 20  11  12  1   
 21  11  13  1   
 22  11  31  1   
 23  12  14  1   
 24  12  15  1   
 25  12  32  1   
 26  13  16  1   
 27  13  33  1   
 28  13  34  1   
 29  14  16  1   
 30  14  35  1   
 31  14  36  1   
 32  15  17  1   
 33  15  37  1   
 34  15  38  1   
 35  17  18  ar  
 36  17  19  ar  
 37  18  20  ar  
 38  18  39  1   
 39  19  21  ar  
 40  19  40  1   
 41  20  22  ar  
 42  20  41  1   
 43  21  22  ar  
 44  21  42  1   
@<TRIPOS>SUBSTRUCTURE
  1 ****  10 GROUP 4 **** **** 0

# MOE 2024.06 (io_trps.svl 2023.06)
