@<TRIPOS>MOLECULE
NONAME
47 50 1 0 0 
SMALL
USER_CHARGES


@<TRIPOS>ATOM
  1 O       -1.1590    -0.9220     0.1950 O.3   1 <1>  -0.5600 
  2 C        0.0330    -1.3570     0.7770 C.3   1 <1>   0.1200 
  3 C       -2.1150    -1.9310     0.0320 C.3   1 <1>   0.1200 
  4 C        0.7000    -2.4350    -0.0990 C.3   1 <1>   0.2090 
  5 C       -1.5750    -3.0450    -0.8810 C.3   1 <1>   0.2090 
  6 N       -0.2490    -3.5700    -0.3780 N.pl3 1 <1>  -0.8380 
  7 C       -0.0340    -4.9010    -0.1890 C.ar  1 <1>   0.7710 
  8 N       -1.0460    -5.7460    -0.3150 N.ar  1 <1>  -0.6200 
  9 N        1.2030    -5.3320     0.1160 N.ar  1 <1>  -0.1790 
 10 C       -0.8220    -7.0230    -0.1220 C.ar  1 <1>   0.4100 
 11 C        1.4820    -6.6430     0.3200 C.ar  1 <1>   0.2180 
 12 N       -1.8950    -7.8110    -0.2600 N.pl3 1 <1>  -0.8690 
 13 C        0.4530    -7.5180     0.2030 C.ar  1 <1>  -0.1500 
 14 C        2.9090    -7.0550     0.6610 C.3   1 <1>  -0.0170 
 15 C       -2.0840    -9.2650    -0.0750 C.3   1 <1>   0.3890 
 16 C        3.8870    -6.7480    -0.4800 C.3   1 <1>  -0.2400 
 17 C       -3.5600    -9.6140    -0.1980 C.2   1 <1>   0.0060 
 18 N       -4.5120    -8.7730    -0.4580 N.2   1 <1>  -0.3380 
 19 N       -4.0220   -10.8600    -0.0460 N.pl3 1 <1>   0.3340 
 20 N       -5.6500    -9.4530    -0.4840 N.2   1 <1>  -0.3380 
 21 C       -5.3540   -10.7020    -0.2370 C.2   1 <1>   0.1410 
 22 C       -3.4740   -12.1110     0.2320 C.2   1 <1>  -0.1810 
 23 C       -6.2050   -11.8340    -0.1510 C.2   1 <1>  -0.1050 
 24 C       -4.2810   -13.2020     0.3160 C.2   1 <1>  -0.1500 
 25 C       -5.6810   -13.0620     0.1200 C.2   1 <1>  -0.1500 
 26 H       -0.1840    -1.7380     1.7600 H     1 <1>   0.0800 
 27 H        0.6770    -0.5010     0.8730 H     1 <1>   0.0800 
 28 H       -2.9910    -1.4850    -0.4070 H     1 <1>   0.0800 
 29 H       -2.3780    -2.3240     0.9990 H     1 <1>   0.0800 
 30 H        1.5870    -2.7730     0.4020 H     1 <1>   0.0800 
 31 H        0.9940    -1.9810    -1.0310 H     1 <1>   0.0800 
 32 H       -1.4440    -2.6440    -1.8710 H     1 <1>   0.0800 
 33 H       -2.3210    -3.8170    -0.9480 H     1 <1>   0.0800 
 34 H        1.9230    -4.6240     0.1500 H     1 <1>   0.4570 
 35 H       -2.7910    -7.3540    -0.4890 H     1 <1>   0.4000 
 36 H        0.5820    -8.5740     0.3450 H     1 <1>   0.1500 
 37 H        2.9370    -8.1120     0.8630 H     1 <1>   0.0800 
 38 H        3.2280    -6.5510     1.5580 H     1 <1>   0.0800 
 39 H       -1.7270    -9.5510     0.9000 H     1 <1>   0.0800 
 40 H       -1.5270    -9.7950    -0.8280 H     1 <1>   0.0800 
 41 H        3.5810    -7.2470    -1.3840 H     1 <1>   0.0800 
 42 H        4.8710    -7.1030    -0.2210 H     1 <1>   0.0800 
 43 H        3.9560    -5.6920    -0.6720 H     1 <1>   0.0800 
 44 H       -2.4100   -12.1620     0.3710 H     1 <1>   0.1500 
 45 H       -7.2580   -11.6770    -0.3070 H     1 <1>   0.1500 
 46 H       -3.8920   -14.1850     0.5290 H     1 <1>   0.1500 
 47 H       -6.3030   -13.9390     0.1900 H     1 <1>   0.1500 
@<TRIPOS>BOND
  1   1   2  1   
  2   1   3  1   
  3   2   4  1   
  4   2  26  1   
  5   2  27  1   
  6   3   5  1   
  7   3  28  1   
  8   3  29  1   
  9   4   6  1   
 10   4  30  1   
 11   4  31  1   
 12   5   6  1   
 13   5  32  1   
 14   5  33  1   
 15   6   7  1   
 16   7   8  ar  
 17   7   9  ar  
 18   8  10  ar  
 19   9  11  ar  
 20   9  34  1   
 21  10  12  1   
 22  10  13  ar  
 23  11  13  ar  
 24  11  14  1   
 25  12  15  1   
 26  12  35  1   
 27  13  36  1   
 28  14  16  1   
 29  14  37  1   
 30  14  38  1   
 31  15  17  1   
 32  15  39  1   
 33  15  40  1   
 34  16  41  1   
 35  16  42  1   
 36  16  43  1   
 37  17  18  2   
 38  17  19  1   
 39  18  20  1   
 40  19  21  1   
 41  19  22  1   
 42  20  21  2   
 43  21  23  1   
 44  22  24  2   
 45  22  44  1   
 46  23  25  2   
 47  23  45  1   
 48  24  25  1   
 49  24  46  1   
 50  25  47  1   
@<TRIPOS>SUBSTRUCTURE
  1 ****  12 GROUP 4 **** **** 0

# MOE 2024.06 (io_trps.svl 2023.06)
