@<TRIPOS>MOLECULE
NONAME
35 36 1 0 0 
SMALL
USER_CHARGES


@<TRIPOS>ATOM
  1 S       -0.6820    -0.8020    -1.7610 S.3   1 <1>  -0.0800 
  2 C        0.7900    -1.3680    -0.9990 C.2   1 <1>  -0.0450 
  3 C        0.1150     0.6870    -2.1870 C.2   1 <1>   0.2280 
  4 C        1.7160    -0.3920    -1.1590 C.2   1 <1>   0.0460 
  5 C        0.8250    -2.6770    -0.3970 C.2   1 <1>   0.7150 
  6 N        1.3290     0.7580    -1.8160 N.2   1 <1>  -0.5650 
  7 C        3.1560    -0.4270    -0.6850 C.3   1 <1>  -0.0590 
  8 O        1.8110    -3.3740    -0.5570 O.2   1 <1>  -0.5700 
  9 N       -0.2050    -3.1640     0.3810 N.am  1 <1>  -0.6600 
 10 C       -0.3090    -4.6220     0.6610 C.3   1 <1>   0.3200 
 11 C       -1.0530    -2.2700     1.2320 C.3   1 <1>   0.1400 
 12 C       -1.4060    -5.2370    -0.1860 C.2   1 <1>  -0.3320 
 13 C       -2.5410    -2.3460     0.8660 C.3   1 <1>   0.1200 
 14 N       -1.9550    -6.4410     0.0680 N.pl3 1 <1>   0.0330 
 15 C       -2.0240    -4.7750    -1.2970 C.2   1 <1>   0.0770 
 16 O       -3.2510    -1.4690     1.6750 O.3   1 <1>  -0.6800 
 17 C       -2.8830    -6.6230    -0.8960 C.2   1 <1>   0.0060 
 18 N       -2.9560    -5.6420    -1.7320 N.2   1 <1>  -0.5650 
 19 C       -3.7460    -7.8630    -0.9820 C.3   1 <1>  -0.0600 
 20 H       -0.4640     1.4220    -2.7190 H     1 <1>   0.1500 
 21 H        3.3700    -1.3350    -0.1530 H     1 <1>   0.0800 
 22 H        3.3430     0.4080    -0.0360 H     1 <1>   0.0800 
 23 H        3.8130    -0.3610    -1.5330 H     1 <1>   0.0800 
 24 H       -0.5290    -4.7660     1.7050 H     1 <1>   0.0800 
 25 H        0.6200    -5.1260     0.4530 H     1 <1>   0.0800 
 26 H       -0.7250    -1.2500     1.1290 H     1 <1>   0.0800 
 27 H       -0.9260    -2.5520     2.2620 H     1 <1>   0.0800 
 28 H       -2.9390    -3.3350     1.0150 H     1 <1>   0.0800 
 29 H       -2.6970    -2.0460    -0.1550 H     1 <1>   0.0800 
 30 H       -1.7270    -7.0970     0.8200 H     1 <1>   0.2700 
 31 H       -1.8440    -3.8470    -1.8150 H     1 <1>   0.1500 
 32 H       -3.3730    -1.8340     2.5720 H     1 <1>   0.4000 
 33 H       -4.3380    -7.9650    -0.0910 H     1 <1>   0.0800 
 34 H       -3.1300    -8.7340    -1.1070 H     1 <1>   0.0800 
 35 H       -4.4070    -7.7850    -1.8270 H     1 <1>   0.0800 
@<TRIPOS>BOND
  1   1   2  1   
  2   1   3  1   
  3   2   4  2   
  4   2   5  1   
  5   3   6  2   
  6   3  20  1   
  7   4   6  1   
  8   4   7  1   
  9   5   8  2   
 10   5   9  am  
 11   7  21  1   
 12   7  22  1   
 13   7  23  1   
 14   9  10  1   
 15   9  11  1   
 16  10  12  1   
 17  10  24  1   
 18  10  25  1   
 19  11  13  1   
 20  11  26  1   
 21  11  27  1   
 22  12  14  1   
 23  12  15  2   
 24  13  16  1   
 25  13  28  1   
 26  13  29  1   
 27  14  17  1   
 28  14  30  1   
 29  15  18  1   
 30  15  31  1   
 31  16  32  1   
 32  17  18  2   
 33  17  19  1   
 34  19  33  1   
 35  19  34  1   
 36  19  35  1   
@<TRIPOS>SUBSTRUCTURE
  1 ****   9 GROUP 4 **** **** 0

# MOE 2024.06 (io_trps.svl 2023.06)
