@<TRIPOS>MOLECULE
NONAME
49 51 1 0 0 
SMALL
USER_CHARGES


@<TRIPOS>ATOM
  1 O       -0.0940     0.3550    -1.7350 O.3   1 <1>  -0.0190 
  2 N       -0.1030     1.5880    -1.3280 N.2   1 <1>  -0.4100 
  3 C        0.8710    -0.1990    -1.0440 C.2   1 <1>   0.2980 
  4 C        0.8150     1.7010    -0.4540 C.2   1 <1>   0.3350 
  5 N        1.4770     0.5740    -0.2300 N.2   1 <1>  -0.5650 
  6 C        1.1790    -1.6760    -1.2680 C.3   1 <1>   0.2900 
  7 C        1.1550     2.9800     0.2900 C.3   1 <1>   0.0210 
  8 N        0.0750    -2.5850    -0.8740 N.3   1 <1>  -0.8100 
  9 C        2.5010     3.5650    -0.1580 C.3   1 <1>  -0.2400 
 10 C        0.3570    -3.9750    -1.3060 C.3   1 <1>   0.1100 
 11 C       -0.2680    -2.4780     0.5480 C.3   1 <1>   0.1100 
 12 C       -0.5860    -5.0520    -0.6910 C.3   1 <1>   0.0000 
 13 C       -1.5880    -3.2140     0.8180 C.3   1 <1>  -0.1600 
 14 C       -1.8670    -4.3230    -0.2070 C.3   1 <1>   0.2000 
 15 C       -1.0100    -6.0430    -1.8040 C.3   1 <1>   0.1200 
 16 C        0.0860    -5.8110     0.4990 C.3   1 <1>  -0.0160 
 17 O       -2.7840    -5.2090     0.3420 O.3   1 <1>  -0.6800 
 18 O        0.0900    -6.5250    -2.5060 O.3   1 <1>  -0.6800 
 19 C        1.3180    -6.6500     0.1680 C.ar  1 <1>  -0.1440 
 20 C        1.1800    -7.9900    -0.1650 C.ar  1 <1>  -0.1500 
 21 C        2.5890    -6.0950     0.2180 C.ar  1 <1>  -0.1500 
 22 C        2.2910    -8.7560    -0.4710 C.ar  1 <1>  -0.1500 
 23 C        3.7010    -6.8600    -0.0870 C.ar  1 <1>  -0.1500 
 24 C        3.5520    -8.1900    -0.4360 C.ar  1 <1>  -0.1500 
 25 H        2.0660    -1.9290    -0.7140 H     1 <1>   0.0800 
 26 H        1.3890    -1.8110    -2.3140 H     1 <1>   0.0800 
 27 H        0.3770     3.7010     0.1160 H     1 <1>   0.0800 
 28 H        1.1840     2.7680     1.3430 H     1 <1>   0.0800 
 29 H        2.4760     3.7820    -1.2120 H     1 <1>   0.0800 
 30 H        3.2920     2.8610     0.0300 H     1 <1>   0.0800 
 31 H        2.7090     4.4730     0.3790 H     1 <1>   0.0800 
 32 H        0.2530    -3.9910    -2.3790 H     1 <1>   0.0800 
 33 H        1.3800    -4.2220    -1.0970 H     1 <1>   0.0800 
 34 H        0.5290    -2.8930     1.1410 H     1 <1>   0.0800 
 35 H       -0.3880    -1.4460     0.8330 H     1 <1>   0.0800 
 36 H       -2.3910    -2.5000     0.7670 H     1 <1>   0.0800 
 37 H       -1.5570    -3.6050     1.8190 H     1 <1>   0.0800 
 38 H       -2.3410    -3.8740    -1.0650 H     1 <1>   0.0800 
 39 H       -1.6510    -5.5540    -2.5180 H     1 <1>   0.0800 
 40 H       -1.5420    -6.8820    -1.3890 H     1 <1>   0.0800 
 41 H        0.3650    -5.1150     1.2680 H     1 <1>   0.0800 
 42 H       -0.6350    -6.4720     0.9440 H     1 <1>   0.0800 
 43 H       -2.5340    -5.4300     1.2580 H     1 <1>   0.4000 
 44 H        0.7470    -6.9040    -1.8790 H     1 <1>   0.4000 
 45 H        0.2050    -8.4480    -0.1900 H     1 <1>   0.1500 
 46 H        2.7230    -5.0660     0.4990 H     1 <1>   0.1500 
 47 H        2.1740    -9.7920    -0.7360 H     1 <1>   0.1500 
 48 H        4.6830    -6.4220    -0.0520 H     1 <1>   0.1500 
 49 H        4.4170    -8.7850    -0.6750 H     1 <1>   0.1500 
@<TRIPOS>BOND
  1   1   2  1   
  2   1   3  1   
  3   2   4  2   
  4   3   5  2   
  5   3   6  1   
  6   4   5  1   
  7   4   7  1   
  8   6   8  1   
  9   6  25  1   
 10   6  26  1   
 11   7   9  1   
 12   7  27  1   
 13   7  28  1   
 14   8  10  1   
 15   8  11  1   
 16   9  29  1   
 17   9  30  1   
 18   9  31  1   
 19  10  12  1   
 20  10  32  1   
 21  10  33  1   
 22  11  13  1   
 23  11  34  1   
 24  11  35  1   
 25  12  14  1   
 26  12  15  1   
 27  12  16  1   
 28  13  14  1   
 29  13  36  1   
 30  13  37  1   
 31  14  17  1   
 32  14  38  1   
 33  15  18  1   
 34  15  39  1   
 35  15  40  1   
 36  16  19  1   
 37  16  41  1   
 38  16  42  1   
 39  17  43  1   
 40  18  44  1   
 41  19  20  ar  
 42  19  21  ar  
 43  20  22  ar  
 44  20  45  1   
 45  21  23  ar  
 46  21  46  1   
 47  22  24  ar  
 48  22  47  1   
 49  23  24  ar  
 50  23  48  1   
 51  24  49  1   
@<TRIPOS>SUBSTRUCTURE
  1 ****   8 GROUP 4 **** **** 0

# MOE 2024.06 (io_trps.svl 2023.06)
