@<TRIPOS>MOLECULE
NONAME
44 46 1 0 0 
SMALL
USER_CHARGES


@<TRIPOS>ATOM
  1 O        0.4230     2.7440    -0.7780 O.co2 1 <1>  -0.9000 
  2 C        1.0310     2.3560     0.2290 C.2   1 <1>   0.9470 
  3 O        0.5820     2.5650     1.3640 O.co2 1 <1>  -0.9000 
  4 C        2.4610     1.8290     0.0890 C.3   1 <1>  -0.2420 
  5 C        3.0480     0.4410    -0.0130 C.3   1 <1>  -0.2420 
  6 C        3.4010     2.6550     0.9430 C.3   1 <1>   0.2350 
  7 C        2.8970     1.2880    -1.2510 C.3   1 <1>  -0.2000 
  8 C        2.3740    -0.9320     0.0450 C.2   1 <1>   0.9470 
  9 C        4.3630     0.4340     0.7510 C.3   1 <1>   0.2350 
 10 N        4.6690     1.8710     1.0040 N.am  1 <1>  -0.6600 
 11 O        2.1270    -1.5350    -1.0080 O.co2 1 <1>  -0.9000 
 12 O        2.2300    -1.4810     1.1460 O.co2 1 <1>  -0.9000 
 13 C        5.9360     2.3700     1.0310 C.2   1 <1>   0.5690 
 14 O        6.9160     1.6620     1.0070 O.2   1 <1>  -0.5700 
 15 C        6.1640     3.8680     1.0780 C.3   1 <1>  -0.0990 
 16 C        6.1990     4.4540    -0.3380 C.3   1 <1>  -0.0160 
 17 C        6.3040     5.9690    -0.2850 C.ar  1 <1>  -0.1430 
 18 C        7.5420     6.5850    -0.1980 C.ar  1 <1>  -0.1500 
 19 C        5.1580     6.7450    -0.3170 C.ar  1 <1>  -0.1500 
 20 C        7.6400     7.9740    -0.1460 C.ar  1 <1>   0.0830 
 21 C        5.2480     8.1250    -0.2660 C.ar  1 <1>  -0.1500 
 22 O        8.8310     8.6260    -0.0600 O.3   1 <1>  -0.3630 
 23 C        6.4830     8.7470    -0.1800 C.ar  1 <1>  -0.1430 
 24 C       10.0570     7.9290    -0.0220 C.3   1 <1>   0.0400 
 25 C        6.5630    10.2660    -0.1260 C.3   1 <1>  -0.0970 
 26 H        2.9990     2.7560     1.9370 H     1 <1>   0.0800 
 27 H        3.5350     3.6270     0.5060 H     1 <1>   0.0800 
 28 H        3.7690     1.6900    -1.7300 H     1 <1>   0.1000 
 29 H        2.1300     1.0090    -1.9550 H     1 <1>   0.1000 
 30 H        5.1390    -0.0390     0.1760 H     1 <1>   0.0800 
 31 H        4.2460    -0.0760     1.6920 H     1 <1>   0.0800 
 32 H        5.3950     4.3380     1.6610 H     1 <1>   0.0800 
 33 H        7.1020     4.0580     1.5670 H     1 <1>   0.0800 
 34 H        5.3090     4.1720    -0.8740 H     1 <1>   0.0800 
 35 H        7.0370     4.0440    -0.8740 H     1 <1>   0.0800 
 36 H        8.4190     5.9680    -0.1720 H     1 <1>   0.1500 
 37 H        4.1890     6.2790    -0.3830 H     1 <1>   0.1500 
 38 H        4.3460     8.7090    -0.2930 H     1 <1>   0.1500 
 39 H       10.8490     8.6520     0.0430 H     1 <1>   0.0800 
 40 H       10.1590     7.3550    -0.9260 H     1 <1>   0.0800 
 41 H       10.0690     7.2930     0.8450 H     1 <1>   0.0800 
 42 H        5.5860    10.7110    -0.1630 H     1 <1>   0.0800 
 43 H        7.1390    10.6290    -0.9580 H     1 <1>   0.0800 
 44 H        7.0460    10.5710     0.7850 H     1 <1>   0.0800 
@<TRIPOS>BOND
  1   1   2  ar  
  2   2   3  ar  
  3   2   4  1   
  4   4   5  1   
  5   4   6  1   
  6   4   7  1   
  7   5   7  1   
  8   5   8  1   
  9   5   9  1   
 10   6  10  1   
 11   6  26  1   
 12   6  27  1   
 13   7  28  1   
 14   7  29  1   
 15   8  11  ar  
 16   8  12  ar  
 17   9  10  1   
 18   9  30  1   
 19   9  31  1   
 20  10  13  am  
 21  13  14  2   
 22  13  15  1   
 23  15  16  1   
 24  15  32  1   
 25  15  33  1   
 26  16  17  1   
 27  16  34  1   
 28  16  35  1   
 29  17  18  ar  
 30  17  19  ar  
 31  18  20  ar  
 32  18  36  1   
 33  19  21  ar  
 34  19  37  1   
 35  20  22  1   
 36  20  23  ar  
 37  21  23  ar  
 38  21  38  1   
 39  22  24  1   
 40  23  25  1   
 41  24  39  1   
 42  24  40  1   
 43  24  41  1   
 44  25  42  1   
 45  25  43  1   
 46  25  44  1   
@<TRIPOS>SUBSTRUCTURE
  1 ****  16 GROUP 4 **** **** 0

# MOE 2024.06 (io_trps.svl 2023.06)
