@<TRIPOS>MOLECULE
NONAME
51 53 1 0 0 
SMALL
USER_CHARGES


@<TRIPOS>ATOM
  1 O       -1.2910    -0.3560    -1.3220 O.2   1 <1>  -0.5700 
  2 C       -1.9260     0.2030    -0.4490 C.2   1 <1>   0.7800 
  3 O       -1.7870     1.5170    -0.2700 O.3   1 <1>  -0.4300 
  4 N       -2.8010    -0.4690     0.3710 N.am  1 <1>  -0.6600 
  5 C       -0.8950     2.2660    -1.0650 C.3   1 <1>   0.1200 
  6 C       -3.5930     0.2040     1.4320 C.3   1 <1>   0.1400 
  7 C       -2.9540    -1.9440     0.2900 C.3   1 <1>   0.1400 
  8 C       -0.9670     3.7210    -0.6140 C.3   1 <1>  -0.2400 
  9 C       -5.0740    -0.1170     1.2210 C.3   1 <1>  -0.1600 
 10 C       -4.4280    -2.2780     0.0650 C.3   1 <1>  -0.1600 
 11 C       -5.2930    -1.6310     1.1570 C.3   1 <1>   0.4230 
 12 N       -6.7450    -1.9200     0.9770 N.4   1 <1>  -0.9590 
 13 C       -7.3750    -1.4910    -0.3090 C.3   1 <1>   0.3430 
 14 C       -7.1190    -3.3560     1.1800 C.3   1 <1>   0.3430 
 15 C       -8.6160    -2.3740    -0.4340 C.3   1 <1>   0.2000 
 16 C       -8.1250    -3.7280     0.0750 C.3   1 <1>  -0.0800 
 17 O       -9.5740    -1.9010     0.4570 O.3   1 <1>  -0.6800 
 18 C       -7.4760    -4.5490    -1.0610 C.3   1 <1>  -0.0170 
 19 C       -6.9750    -5.9060    -0.5860 C.ar  1 <1>   0.1670 
 20 N       -5.8220    -5.9100     0.0660 N.ar  1 <1>  -0.6200 
 21 C       -7.7150    -7.0580    -0.8500 C.ar  1 <1>   0.1600 
 22 C       -5.4590    -7.1330     0.4230 C.ar  1 <1>   0.1600 
 23 N       -7.3580    -8.2750    -0.4810 N.ar  1 <1>  -0.6200 
 24 C       -6.2030    -8.2770     0.1590 C.ar  1 <1>   0.1600 
 25 H        0.0980     1.8680    -0.9310 H     1 <1>   0.0800 
 26 H       -1.1880     2.1650    -2.0960 H     1 <1>   0.0800 
 27 H       -3.2630    -0.1490     2.3940 H     1 <1>   0.0800 
 28 H       -3.4490     1.2720     1.4050 H     1 <1>   0.0800 
 29 H       -2.3640    -2.3450    -0.5180 H     1 <1>   0.0800 
 30 H       -2.6000    -2.3860     1.2060 H     1 <1>   0.0800 
 31 H       -0.6810     3.8040     0.4190 H     1 <1>   0.0800 
 32 H       -1.9640     4.1010    -0.7450 H     1 <1>   0.0800 
 33 H       -0.2940     4.3160    -1.2040 H     1 <1>   0.0800 
 34 H       -5.3890     0.3550     0.3070 H     1 <1>   0.0800 
 35 H       -5.6340     0.3040     2.0360 H     1 <1>   0.0800 
 36 H       -4.5330    -3.3470     0.0790 H     1 <1>   0.0800 
 37 H       -4.6960    -1.9180    -0.9110 H     1 <1>   0.0800 
 38 H       -4.9810    -2.0430     2.1050 H     1 <1>   0.0800 
 39 H       -7.2680    -1.4040     1.7000 H     1 <1>   0.4500 
 40 H       -7.6370    -0.4460    -0.3020 H     1 <1>   0.0800 
 41 H       -6.7140    -1.6900    -1.1340 H     1 <1>   0.0800 
 42 H       -6.2490    -3.9870     1.1490 H     1 <1>   0.0800 
 43 H       -7.5860    -3.4730     2.1450 H     1 <1>   0.0800 
 44 H       -9.0310    -2.3850    -1.4280 H     1 <1>   0.0800 
 45 H       -8.9340    -4.3060     0.4880 H     1 <1>   0.0800 
 46 H      -10.4490    -2.3200     0.3030 H     1 <1>   0.4000 
 47 H       -6.6470    -4.0160    -1.4920 H     1 <1>   0.0800 
 48 H       -8.1970    -4.7010    -1.8450 H     1 <1>   0.0800 
 49 H       -8.6430    -6.9750    -1.3880 H     1 <1>   0.1500 
 50 H       -4.5270    -7.2420     0.9500 H     1 <1>   0.1500 
 51 H       -5.8270    -9.2290     0.4910 H     1 <1>   0.1500 
@<TRIPOS>BOND
  1   1   2  2   
  2   2   3  1   
  3   2   4  am  
  4   3   5  1   
  5   4   6  1   
  6   4   7  1   
  7   5   8  1   
  8   5  25  1   
  9   5  26  1   
 10   6   9  1   
 11   6  27  1   
 12   6  28  1   
 13   7  10  1   
 14   7  29  1   
 15   7  30  1   
 16   8  31  1   
 17   8  32  1   
 18   8  33  1   
 19   9  11  1   
 20   9  34  1   
 21   9  35  1   
 22  10  11  1   
 23  10  36  1   
 24  10  37  1   
 25  11  12  1   
 26  11  38  1   
 27  12  13  1   
 28  12  14  1   
 29  12  39  1   
 30  13  15  1   
 31  13  40  1   
 32  13  41  1   
 33  14  16  1   
 34  14  42  1   
 35  14  43  1   
 36  15  16  1   
 37  15  17  1   
 38  15  44  1   
 39  16  18  1   
 40  16  45  1   
 41  17  46  1   
 42  18  19  1   
 43  18  47  1   
 44  18  48  1   
 45  19  20  ar  
 46  19  21  ar  
 47  20  22  ar  
 48  21  23  ar  
 49  21  49  1   
 50  22  24  ar  
 51  22  50  1   
 52  23  24  ar  
 53  24  51  1   
@<TRIPOS>SUBSTRUCTURE
  1 ****  10 GROUP 4 **** **** 0

# MOE 2024.06 (io_trps.svl 2023.06)
