@<TRIPOS>MOLECULE
NONAME
52 56 1 0 0 
SMALL
USER_CHARGES


@<TRIPOS>ATOM
  1 F        2.1450     1.1630    -0.0400 F     1 <1>  -0.1900 
  2 C        2.4810    -0.0960     0.0510 C.ar  1 <1>   0.1900 
  3 C        2.0260    -0.9760    -0.9100 C.ar  1 <1>  -0.1500 
  4 C        3.2770    -0.5000     1.1030 C.ar  1 <1>  -0.1500 
  5 C        2.3720    -2.3170    -0.8180 C.ar  1 <1>  -0.1440 
  6 C        3.6210    -1.8360     1.1910 C.ar  1 <1>  -0.1500 
  7 C        3.1750    -2.7600     0.2440 C.ar  1 <1>  -0.0230 
  8 C        1.8720    -3.2800    -1.8860 C.3   1 <1>   0.2540 
  9 N        3.5420    -4.1310     0.3990 N.pl3 1 <1>   0.5930 
 10 N        1.0280    -4.3080    -1.2560 N.3   1 <1>  -0.8100 
 11 N        4.2490    -4.8530    -0.5110 N.2   1 <1>  -0.7070 
 12 C        3.2900    -4.9000     1.4890 C.2   1 <1>  -0.3020 
 13 C       -0.3150    -3.8380    -0.8580 C.3   1 <1>   0.1100 
 14 C        0.9620    -5.5510    -2.0520 C.3   1 <1>   0.1100 
 15 C        4.4330    -6.0160     0.0280 C.2   1 <1>   0.1390 
 16 C        3.8490    -6.1100     1.2850 C.2   1 <1>  -0.1500 
 17 C       -1.0420    -4.8960     0.0150 C.3   1 <1>   0.4230 
 18 C        0.0880    -6.6300    -1.3710 C.3   1 <1>   0.3430 
 19 N       -0.3040    -6.2160     0.0210 N.4   1 <1>  -0.9590 
 20 C       -2.5130    -5.0880    -0.4200 C.3   1 <1>   0.1200 
 21 C       -1.0550    -7.2330     0.8140 C.3   1 <1>   0.5180 
 22 O       -3.1390    -6.0700     0.3610 O.3   1 <1>  -0.5600 
 23 C       -0.3280    -8.5810     0.7560 C.3   1 <1>  -0.1950 
 24 C       -2.5250    -7.3330     0.3470 C.3   1 <1>   0.1200 
 25 C       -0.2500    -9.4490     1.9740 C.3   1 <1>  -0.2000 
 26 C        0.9880    -8.7870     1.4420 C.3   1 <1>  -0.2000 
 27 H        1.4150    -0.6040    -1.7120 H     1 <1>   0.1500 
 28 H        3.6180     0.2180     1.8280 H     1 <1>   0.1500 
 29 H        4.2480    -2.1650     2.0030 H     1 <1>   0.1500 
 30 H        2.7280    -3.7400    -2.3540 H     1 <1>   0.0800 
 31 H        1.3190    -2.7600    -2.6500 H     1 <1>   0.0800 
 32 H        2.7470    -4.5240     2.3350 H     1 <1>   0.1500 
 33 H       -0.2290    -2.9270    -0.2890 H     1 <1>   0.0800 
 34 H       -0.8930    -3.6150    -1.7390 H     1 <1>   0.0800 
 35 H        0.5760    -5.3440    -3.0360 H     1 <1>   0.0800 
 36 H        1.9600    -5.9410    -2.1700 H     1 <1>   0.0800 
 37 H        4.9820    -6.8120    -0.4500 H     1 <1>   0.1500 
 38 H        3.8730    -6.9720     1.9300 H     1 <1>   0.1500 
 39 H       -1.0640    -4.5140     1.0220 H     1 <1>   0.0800 
 40 H        0.6440    -7.5520    -1.3440 H     1 <1>   0.0800 
 41 H       -0.7950    -6.7960    -1.9660 H     1 <1>   0.0800 
 42 H        0.5940    -6.0160     0.4820 H     1 <1>   0.4500 
 43 H       -2.5810    -5.3770    -1.4550 H     1 <1>   0.0800 
 44 H       -3.0610    -4.1710    -0.2860 H     1 <1>   0.0800 
 45 H       -1.0690    -6.9140     1.8430 H     1 <1>   0.0800 
 46 H       -0.5030    -9.1090    -0.1670 H     1 <1>   0.1000 
 47 H       -3.0770    -7.9710     1.0140 H     1 <1>   0.0800 
 48 H       -2.5920    -7.7390    -0.6470 H     1 <1>   0.0800 
 49 H       -0.6440    -9.1030     2.9150 H     1 <1>   0.1000 
 50 H       -0.3420   -10.5170     1.8650 H     1 <1>   0.1000 
 51 H        1.7350    -9.4090     0.9750 H     1 <1>   0.1000 
 52 H        1.4260    -8.0010     2.0340 H     1 <1>   0.1000 
@<TRIPOS>BOND
  1   1   2  1   
  2   2   3  ar  
  3   2   4  ar  
  4   3   5  ar  
  5   3  27  1   
  6   4   6  ar  
  7   4  28  1   
  8   5   7  ar  
  9   5   8  1   
 10   6   7  ar  
 11   6  29  1   
 12   7   9  1   
 13   8  10  1   
 14   8  30  1   
 15   8  31  1   
 16   9  11  1   
 17   9  12  1   
 18  10  13  1   
 19  10  14  1   
 20  11  15  2   
 21  12  16  2   
 22  12  32  1   
 23  13  17  1   
 24  13  33  1   
 25  13  34  1   
 26  14  18  1   
 27  14  35  1   
 28  14  36  1   
 29  15  16  1   
 30  15  37  1   
 31  16  38  1   
 32  17  19  1   
 33  17  20  1   
 34  17  39  1   
 35  18  19  1   
 36  18  40  1   
 37  18  41  1   
 38  19  21  1   
 39  19  42  1   
 40  20  22  1   
 41  20  43  1   
 42  20  44  1   
 43  21  23  1   
 44  21  24  1   
 45  21  45  1   
 46  22  24  1   
 47  23  25  1   
 48  23  26  1   
 49  23  46  1   
 50  24  47  1   
 51  24  48  1   
 52  25  26  1   
 53  25  49  1   
 54  25  50  1   
 55  26  51  1   
 56  26  52  1   
@<TRIPOS>SUBSTRUCTURE
  1 ****  10 GROUP 4 **** **** 0

# MOE 2024.06 (io_trps.svl 2023.06)
