@<TRIPOS>MOLECULE
NONAME
43 44 1 0 0 
SMALL
USER_CHARGES


@<TRIPOS>ATOM
  1 S        0.7270     0.4010    -1.2920 S.o2  1 <1>   1.3330 
  2 O       -0.2810    -0.5750    -1.6370 O.2   1 <1>  -0.6500 
  3 O        1.9830     0.4160    -2.0070 O.2   1 <1>  -0.6500 
  4 N        1.0630     0.2230     0.3640 N.am  1 <1>  -0.8490 
  5 C        0.0120     2.0430    -1.4010 C.3   1 <1>  -0.0550 
  6 C       -0.0870    -0.2380     1.1490 C.3   1 <1>   0.1160 
  7 C        2.2190    -0.6430     0.6130 C.3   1 <1>   0.1160 
  8 C        1.0100     3.1900    -1.1300 C.3   1 <1>  -0.0800 
  9 C        0.4440     4.5880    -1.3930 C.3   1 <1>   0.2000 
 10 C        1.5340     3.2610     0.3100 C.3   1 <1>   0.1400 
 11 O       -0.8170     4.6820    -0.8230 O.3   1 <1>  -0.6800 
 12 C        1.3840     5.5060    -0.6170 C.3   1 <1>   0.1400 
 13 N        1.7800     4.7020     0.5680 N.am  1 <1>  -0.6600 
 14 C        2.3970     5.1500     1.7050 C.2   1 <1>   0.5690 
 15 O        2.6910     4.3890     2.5950 O.2   1 <1>  -0.5700 
 16 C        2.7350     6.6230     1.8900 C.3   1 <1>   0.0440 
 17 C        3.6000     7.1930     0.7690 C.ar  1 <1>  -0.1440 
 18 C        4.6780     6.4750     0.2680 C.ar  1 <1>   0.1600 
 19 C        3.3180     8.4320     0.2260 C.ar  1 <1>  -0.1500 
 20 N        5.4630     6.8770    -0.7180 N.ar  1 <1>  -0.6200 
 21 C        4.1330     8.8690    -0.7960 C.ar  1 <1>  -0.1500 
 22 C        5.1750     8.0640    -1.2250 C.ar  1 <1>   0.1600 
 23 H       -0.3780     2.1720    -2.3920 H     1 <1>   0.0800 
 24 H       -0.8170     2.1140    -0.7240 H     1 <1>   0.0800 
 25 H        0.1560    -0.2350     2.1980 H     1 <1>   0.0800 
 26 H       -0.3660    -1.2380     0.8560 H     1 <1>   0.0800 
 27 H       -0.9290     0.4130     0.9930 H     1 <1>   0.0800 
 28 H        2.4130    -0.7140     1.6700 H     1 <1>   0.0800 
 29 H        3.0960    -0.2350     0.1390 H     1 <1>   0.0800 
 30 H        2.0400    -1.6300     0.2170 H     1 <1>   0.0800 
 31 H        1.8620     3.0600    -1.7760 H     1 <1>   0.0800 
 32 H        0.3720     4.8360    -2.4380 H     1 <1>   0.0800 
 33 H        2.4430     2.6930     0.4280 H     1 <1>   0.0800 
 34 H        0.8010     2.9010     1.0120 H     1 <1>   0.0800 
 35 H       -0.7230     4.6340     0.1500 H     1 <1>   0.4000 
 36 H        0.9050     6.4300    -0.3430 H     1 <1>   0.0800 
 37 H        2.2590     5.7130    -1.2100 H     1 <1>   0.0800 
 38 H        1.8140     7.1690     1.9650 H     1 <1>   0.0800 
 39 H        3.2580     6.7420     2.8220 H     1 <1>   0.0800 
 40 H        4.9070     5.5120     0.6960 H     1 <1>   0.1500 
 41 H        2.5010     9.0370     0.5790 H     1 <1>   0.1500 
 42 H        3.9660     9.8250    -1.2580 H     1 <1>   0.1500 
 43 H        5.8040     8.4160    -2.0250 H     1 <1>   0.1500 
@<TRIPOS>BOND
  1   1   2  2   
  2   1   3  2   
  3   1   4  am  
  4   1   5  1   
  5   4   6  1   
  6   4   7  1   
  7   5   8  1   
  8   5  23  1   
  9   5  24  1   
 10   6  25  1   
 11   6  26  1   
 12   6  27  1   
 13   7  28  1   
 14   7  29  1   
 15   7  30  1   
 16   8   9  1   
 17   8  10  1   
 18   8  31  1   
 19   9  11  1   
 20   9  12  1   
 21   9  32  1   
 22  10  13  1   
 23  10  33  1   
 24  10  34  1   
 25  11  35  1   
 26  12  13  1   
 27  12  36  1   
 28  12  37  1   
 29  13  14  am  
 30  14  15  2   
 31  14  16  1   
 32  16  17  1   
 33  16  38  1   
 34  16  39  1   
 35  17  18  ar  
 36  17  19  ar  
 37  18  20  ar  
 38  18  40  1   
 39  19  21  ar  
 40  19  41  1   
 41  20  22  ar  
 42  21  22  ar  
 43  21  42  1   
 44  22  43  1   
@<TRIPOS>SUBSTRUCTURE
  1 ****  13 GROUP 4 **** **** 0

# MOE 2024.06 (io_trps.svl 2023.06)
