@<TRIPOS>MOLECULE
NONAME
45 46 1 0 0 
SMALL
USER_CHARGES


@<TRIPOS>ATOM
  1 S        0.4140     0.3680    -0.3330 S.o2  1 <1>   1.3330 
  2 O        0.1260    -0.4270    -1.5050 O.2   1 <1>  -0.6500 
  3 O        0.6160    -0.2880     0.9400 O.2   1 <1>  -0.6500 
  4 N       -0.8310     1.5050    -0.1370 N.am  1 <1>  -0.8490 
  5 C        1.8400     1.3880    -0.6980 C.3   1 <1>  -0.0550 
  6 C       -0.8600     2.1140     1.1970 C.3   1 <1>   0.1160 
  7 C       -2.1470     0.9470    -0.4610 C.3   1 <1>   0.1160 
  8 C        3.1100     0.5690    -1.0040 C.3   1 <1>  -0.0800 
  9 C        4.3170     1.3940    -1.4280 C.3   1 <1>   0.2200 
 10 C        3.6480    -0.2450     0.1820 C.3   1 <1>   0.1200 
 11 N        4.4340     2.6160    -0.5990 N.am  1 <1>  -0.7300 
 12 C        5.4460     0.4450    -1.0560 C.3   1 <1>   0.1200 
 13 O        5.0430    -0.1290     0.1490 O.3   1 <1>  -0.5600 
 14 C        4.0760     3.8750    -0.9830 C.2   1 <1>   0.5440 
 15 O        3.5970     4.0260    -2.0880 O.2   1 <1>  -0.5700 
 16 C        4.2060     4.9880    -0.0610 C.ar  1 <1>   0.0860 
 17 C        5.4050     5.3350     0.5810 C.ar  1 <1>  -0.1440 
 18 C        3.0640     5.7410     0.2170 C.ar  1 <1>  -0.1500 
 19 C        5.4010     6.3730     1.5090 C.ar  1 <1>   0.0820 
 20 C        6.7110     4.6000     0.2610 C.3   1 <1>  -0.0970 
 21 C        3.0780     6.7820     1.1250 C.ar  1 <1>  -0.1500 
 22 O        6.5130     6.7130     2.1800 O.3   1 <1>  -0.5330 
 23 C        4.2520     7.0930     1.7800 C.ar  1 <1>  -0.1500 
 24 H        1.6160     2.0000    -1.5510 H     1 <1>   0.0800 
 25 H        2.0220     2.0410     0.1310 H     1 <1>   0.0800 
 26 H       -1.6100     2.8860     1.2340 H     1 <1>   0.0800 
 27 H        0.0940     2.5580     1.4250 H     1 <1>   0.0800 
 28 H       -1.0840     1.3720     1.9460 H     1 <1>   0.0800 
 29 H       -2.9100     1.6970    -0.3450 H     1 <1>   0.0800 
 30 H       -2.3680     0.1110     0.1810 H     1 <1>   0.0800 
 31 H       -2.1620     0.6100    -1.4850 H     1 <1>   0.0800 
 32 H        2.8840    -0.1220    -1.7980 H     1 <1>   0.0800 
 33 H        4.3120     1.6390    -2.4770 H     1 <1>   0.0800 
 34 H        3.3810    -1.2850     0.1060 H     1 <1>   0.0800 
 35 H        3.3110     0.1460     1.1270 H     1 <1>   0.0800 
 36 H        4.7630     2.4440     0.3540 H     1 <1>   0.3700 
 37 H        6.3890     0.9460    -0.9250 H     1 <1>   0.0800 
 38 H        5.5430    -0.3420    -1.7840 H     1 <1>   0.0800 
 39 H        2.1480     5.5000    -0.2950 H     1 <1>   0.1500 
 40 H        6.6870     4.1740    -0.7260 H     1 <1>   0.0800 
 41 H        6.8750     3.8120     0.9740 H     1 <1>   0.0800 
 42 H        7.5480     5.2740     0.2820 H     1 <1>   0.0800 
 43 H        2.1830     7.3460     1.3220 H     1 <1>   0.1500 
 44 H        7.2790     6.1600     1.9520 H     1 <1>   0.4500 
 45 H        4.2850     7.8930     2.4980 H     1 <1>   0.1500 
@<TRIPOS>BOND
  1   1   2  2   
  2   1   3  2   
  3   1   4  am  
  4   1   5  1   
  5   4   6  1   
  6   4   7  1   
  7   5   8  1   
  8   5  24  1   
  9   5  25  1   
 10   6  26  1   
 11   6  27  1   
 12   6  28  1   
 13   7  29  1   
 14   7  30  1   
 15   7  31  1   
 16   8   9  1   
 17   8  10  1   
 18   8  32  1   
 19   9  11  1   
 20   9  12  1   
 21   9  33  1   
 22  10  13  1   
 23  10  34  1   
 24  10  35  1   
 25  11  14  am  
 26  11  36  1   
 27  12  13  1   
 28  12  37  1   
 29  12  38  1   
 30  14  15  2   
 31  14  16  1   
 32  16  17  ar  
 33  16  18  ar  
 34  17  19  ar  
 35  17  20  1   
 36  18  21  ar  
 37  18  39  1   
 38  19  22  1   
 39  19  23  ar  
 40  20  40  1   
 41  20  41  1   
 42  20  42  1   
 43  21  23  ar  
 44  21  43  1   
 45  22  44  1   
 46  23  45  1   
@<TRIPOS>SUBSTRUCTURE
  1 ****  11 GROUP 4 **** **** 0

# MOE 2024.06 (io_trps.svl 2023.06)
