@<TRIPOS>MOLECULE
NONAME
61 65 1 0 0 
SMALL
USER_CHARGES


@<TRIPOS>ATOM
  1 O       -1.0380     0.2780     1.3740 O.2   1 <1>  -0.5700 
  2 C       -1.9850     0.8120     0.8270 C.2   1 <1>   0.5440 
  3 N       -1.7780     1.9890     0.1330 N.am  1 <1>  -0.6600 
  4 C       -3.2830     0.1870     0.9180 C.ar  1 <1>   0.0860 
  5 C       -0.5120     2.7640     0.2730 C.3   1 <1>   0.1400 
  6 C       -2.6760     2.4790    -0.9520 C.3   1 <1>   0.1400 
  7 C       -3.4270    -1.1770     0.6820 C.ar  1 <1>   0.1600 
  8 C       -4.4390     0.8850     1.2520 C.ar  1 <1>  -0.1500 
  9 C        0.2530     2.7550    -1.0540 C.3   1 <1>  -0.1600 
 10 C       -1.9260     2.4770    -2.2880 C.3   1 <1>  -0.1600 
 11 N       -4.5590    -1.8570     0.7140 N.ar  1 <1>  -0.6200 
 12 C       -5.6240     0.1920     1.2980 C.ar  1 <1>  -0.1500 
 13 C       -0.6150     3.2710    -2.2090 C.3   1 <1>  -0.1600 
 14 C       -5.6610    -1.1750     1.0160 C.ar  1 <1>   0.4100 
 15 N       -6.8490    -1.8840     1.0490 N.pl3 1 <1>  -0.8380 
 16 C       -8.1980    -1.2670     1.0550 C.3   1 <1>   0.2090 
 17 C       -6.9300    -3.3370     0.7710 C.3   1 <1>   0.2090 
 18 C       -9.1740    -2.3800     0.6490 C.3   1 <1>  -0.0800 
 19 C       -8.3170    -3.5720     0.1740 C.3   1 <1>  -0.0800 
 20 C      -10.3000    -1.9400    -0.3260 C.3   1 <1>   0.4240 
 21 C       -8.2780    -3.7010    -1.3590 C.3   1 <1>  -0.1600 
 22 O       -9.7760    -1.0810    -1.2770 O.3   1 <1>  -0.6800 
 23 C      -11.4410    -1.2320     0.4340 C.ar  1 <1>  -0.1430 
 24 C      -10.7970    -3.1570    -1.1260 C.3   1 <1>  -0.1600 
 25 C       -9.6900    -3.8410    -1.9630 C.3   1 <1>  -0.1600 
 26 C      -11.7020     0.1290     0.2880 C.ar  1 <1>  -0.1500 
 27 C      -12.2450    -1.9560     1.3100 C.ar  1 <1>  -0.1500 
 28 C      -12.7280     0.7400     0.9880 C.ar  1 <1>  -0.1500 
 29 C      -13.2730    -1.3490     2.0110 C.ar  1 <1>  -0.1500 
 30 C      -13.5160     0.0020     1.8500 C.ar  1 <1>  -0.1500 
 31 H       -0.7520     3.7760     0.5490 H     1 <1>   0.0800 
 32 H        0.1060     2.3490     1.0510 H     1 <1>   0.0800 
 33 H       -3.5480     1.8560    -1.0420 H     1 <1>   0.0800 
 34 H       -2.9980     3.4780    -0.7140 H     1 <1>   0.0800 
 35 H       -2.5340    -1.7330     0.4500 H     1 <1>   0.1500 
 36 H       -4.3920     1.9370     1.4730 H     1 <1>   0.1500 
 37 H        1.1340     3.3650    -0.9610 H     1 <1>   0.0800 
 38 H        0.5720     1.7470    -1.2580 H     1 <1>   0.0800 
 39 H       -1.7150     1.4580    -2.5640 H     1 <1>   0.0800 
 40 H       -2.5580     2.8970    -3.0510 H     1 <1>   0.0800 
 41 H       -6.5280     0.7030     1.5600 H     1 <1>   0.1500 
 42 H       -0.0770     3.1810    -3.1370 H     1 <1>   0.0800 
 43 H       -0.8360     4.3130    -2.0520 H     1 <1>   0.0800 
 44 H       -8.4330    -0.9070     2.0420 H     1 <1>   0.0800 
 45 H       -8.2080    -0.4360     0.3730 H     1 <1>   0.0800 
 46 H       -6.1550    -3.6590     0.0960 H     1 <1>   0.0800 
 47 H       -6.8260    -3.8690     1.7010 H     1 <1>   0.0800 
 48 H       -9.6440    -2.7050     1.5580 H     1 <1>   0.0800 
 49 H       -8.7140    -4.4910     0.5710 H     1 <1>   0.0800 
 50 H       -7.7870    -2.8340    -1.7670 H     1 <1>   0.0800 
 51 H       -7.6850    -4.5550    -1.6380 H     1 <1>   0.0800 
 52 H       -9.0850    -1.5680    -1.7600 H     1 <1>   0.4000 
 53 H      -11.1860    -3.8820    -0.4360 H     1 <1>   0.0800 
 54 H      -11.6130    -2.8600    -1.7610 H     1 <1>   0.0800 
 55 H       -9.9350    -4.8860    -2.0590 H     1 <1>   0.0800 
 56 H       -9.6830    -3.4270    -2.9570 H     1 <1>   0.0800 
 57 H      -11.1090     0.7320    -0.3760 H     1 <1>   0.1500 
 58 H      -12.0800    -3.0080     1.4600 H     1 <1>   0.1500 
 59 H      -12.9120     1.7920     0.8570 H     1 <1>   0.1500 
 60 H      -13.8840    -1.9270     2.6810 H     1 <1>   0.1500 
 61 H      -14.3140     0.4770     2.3930 H     1 <1>   0.1500 
@<TRIPOS>BOND
  1   1   2  2   
  2   2   3  am  
  3   2   4  1   
  4   3   5  1   
  5   3   6  1   
  6   4   7  ar  
  7   4   8  ar  
  8   5   9  1   
  9   5  31  1   
 10   5  32  1   
 11   6  10  1   
 12   6  33  1   
 13   6  34  1   
 14   7  11  ar  
 15   7  35  1   
 16   8  12  ar  
 17   8  36  1   
 18   9  13  1   
 19   9  37  1   
 20   9  38  1   
 21  10  13  1   
 22  10  39  1   
 23  10  40  1   
 24  11  14  ar  
 25  12  14  ar  
 26  12  41  1   
 27  13  42  1   
 28  13  43  1   
 29  14  15  1   
 30  15  16  1   
 31  15  17  1   
 32  16  18  1   
 33  16  44  1   
 34  16  45  1   
 35  17  19  1   
 36  17  46  1   
 37  17  47  1   
 38  18  19  1   
 39  18  20  1   
 40  18  48  1   
 41  19  21  1   
 42  19  49  1   
 43  20  22  1   
 44  20  23  1   
 45  20  24  1   
 46  21  25  1   
 47  21  50  1   
 48  21  51  1   
 49  22  52  1   
 50  23  26  ar  
 51  23  27  ar  
 52  24  25  1   
 53  24  53  1   
 54  24  54  1   
 55  25  55  1   
 56  25  56  1   
 57  26  28  ar  
 58  26  57  1   
 59  27  29  ar  
 60  27  58  1   
 61  28  30  ar  
 62  28  59  1   
 63  29  30  ar  
 64  29  60  1   
 65  30  61  1   
@<TRIPOS>SUBSTRUCTURE
  1 ****  14 GROUP 4 **** **** 0

# MOE 2024.06 (io_trps.svl 2023.06)
