@<TRIPOS>MOLECULE
NONAME
46 48 1 0 0 
SMALL
USER_CHARGES


@<TRIPOS>ATOM
  1 F        0.2870    -1.0280     1.0440 F     1 <1>  -0.1900 
  2 C       -0.4390    -2.0760     0.7440 C.ar  1 <1>   0.1900 
  3 C        0.1360    -3.2890     0.3460 C.ar  1 <1>   0.0820 
  4 C       -1.8080    -1.9230     0.8370 C.ar  1 <1>  -0.1500 
  5 O        1.4670    -3.5630     0.2170 O.3   1 <1>  -0.3630 
  6 C       -0.7200    -4.3370     0.0480 C.ar  1 <1>  -0.1500 
  7 C       -2.6310    -2.9890     0.5290 C.ar  1 <1>  -0.1500 
  8 C        2.4780    -2.6320     0.5340 C.3   1 <1>   0.0400 
  9 C       -2.1110    -4.2230     0.1290 C.ar  1 <1>   0.0530 
 10 C       -2.9650    -5.3450    -0.1960 C.2   1 <1>   0.0870 
 11 O       -2.4900    -6.3600    -0.8810 O.3   1 <1>  -0.0190 
 12 C       -4.2680    -5.6270     0.0580 C.2   1 <1>  -0.2330 
 13 N       -3.3820    -7.2900    -1.1000 N.2   1 <1>  -0.4100 
 14 C       -4.4670    -6.8680    -0.5450 C.2   1 <1>   0.3720 
 15 C       -5.2360    -4.8740     0.7840 C.2   1 <1>   1.0330 
 16 N       -5.6670    -7.5880    -0.5590 N.pl3 1 <1>  -0.8210 
 17 O       -6.0040    -4.0990     0.1840 O.co2 1 <1>  -0.9000 
 18 O       -5.2530    -4.8850     2.0260 O.co2 1 <1>  -0.9000 
 19 C       -5.5760    -9.0590    -0.7520 C.3   1 <1>   0.2090 
 20 C       -6.7720    -6.9710    -1.3380 C.3   1 <1>   0.2090 
 21 C       -6.8720    -9.7020    -0.2510 C.3   1 <1>  -0.0190 
 22 C       -8.1030    -7.5780    -0.8810 C.3   1 <1>  -0.1600 
 23 C       -6.7830   -11.2110    -0.3990 C.2   1 <1>   0.5690 
 24 C       -8.0970    -9.1140    -0.9830 C.3   1 <1>  -0.1600 
 25 O       -6.6660   -11.6970    -1.4990 O.2   1 <1>  -0.5700 
 26 N       -6.8380   -11.9790     0.7230 N.am  1 <1>  -0.7300 
 27 C       -6.7610   -13.4610     0.7520 C.3   1 <1>   0.0600 
 28 H       -2.2290    -0.9830     1.1460 H     1 <1>   0.1500 
 29 H       -0.2870    -5.2730    -0.2550 H     1 <1>   0.1500 
 30 H       -3.6970    -2.8540     0.6030 H     1 <1>   0.1500 
 31 H        3.4300    -3.1050     0.3740 H     1 <1>   0.0800 
 32 H        2.3800    -2.3480     1.5670 H     1 <1>   0.0800 
 33 H        2.3820    -1.7780    -0.1120 H     1 <1>   0.0800 
 34 H       -4.7380    -9.4430    -0.1950 H     1 <1>   0.0800 
 35 H       -5.4240    -9.2800    -1.7950 H     1 <1>   0.0800 
 36 H       -6.6160    -7.1610    -2.3860 H     1 <1>   0.0800 
 37 H       -6.7920    -5.9070    -1.1910 H     1 <1>   0.0800 
 38 H       -6.9570    -9.4670     0.7950 H     1 <1>   0.0800 
 39 H       -8.8990    -7.1730    -1.4790 H     1 <1>   0.0800 
 40 H       -8.2730    -7.2770     0.1380 H     1 <1>   0.0800 
 41 H       -9.0020    -9.5120    -0.5600 H     1 <1>   0.0800 
 42 H       -8.0590    -9.3990    -2.0210 H     1 <1>   0.0800 
 43 H       -6.9210   -11.5160     1.6310 H     1 <1>   0.3700 
 44 H       -6.6710   -13.8520    -0.2480 H     1 <1>   0.0800 
 45 H       -7.6520   -13.8630     1.2030 H     1 <1>   0.0800 
 46 H       -5.9020   -13.7700     1.3230 H     1 <1>   0.0800 
@<TRIPOS>BOND
  1   1   2  1   
  2   2   3  ar  
  3   2   4  ar  
  4   3   5  1   
  5   3   6  ar  
  6   4   7  ar  
  7   4  28  1   
  8   5   8  1   
  9   6   9  ar  
 10   6  29  1   
 11   7   9  ar  
 12   7  30  1   
 13   8  31  1   
 14   8  32  1   
 15   8  33  1   
 16   9  10  1   
 17  10  11  1   
 18  10  12  2   
 19  11  13  1   
 20  12  14  1   
 21  12  15  1   
 22  13  14  2   
 23  14  16  1   
 24  15  17  ar  
 25  15  18  ar  
 26  16  19  1   
 27  16  20  1   
 28  19  21  1   
 29  19  34  1   
 30  19  35  1   
 31  20  22  1   
 32  20  36  1   
 33  20  37  1   
 34  21  23  1   
 35  21  24  1   
 36  21  38  1   
 37  22  24  1   
 38  22  39  1   
 39  22  40  1   
 40  23  25  2   
 41  23  26  am  
 42  24  41  1   
 43  24  42  1   
 44  26  27  1   
 45  26  43  1   
 46  27  44  1   
 47  27  45  1   
 48  27  46  1   
@<TRIPOS>SUBSTRUCTURE
  1 ****  12 GROUP 4 **** **** 0

# MOE 2024.06 (io_trps.svl 2023.06)
