@<TRIPOS>MOLECULE
F1913-0931
22 23 1 0 0 
SMALL
USER_CHARGES


@<TRIPOS>ATOM
  1 N       -4.8850     3.0980    -0.1300 N.4   1 <1>  -0.8440 
  2 C       -6.2910     3.2210    -0.6570 C.3   1 <1>   0.4720 
  3 C       -5.3980     2.2780     1.0250 C.3   1 <1>   0.4720 
  4 C       -6.5940     1.9330     0.1270 C.3   1 <1>   0.0000 
  5 C       -7.9930     1.6120     0.6990 C.3   1 <1>   0.0000 
  6 C       -6.6190     0.5940    -0.6470 C.3   1 <1>   0.0000 
  7 C       -8.1710     0.6730    -0.5330 C.3   1 <1>   0.0000 
  8 C       -8.9960     2.7680     0.7770 C.3   1 <1>  -0.2400 
  9 H       -4.4710     3.9930     0.1520 H     1 <1>   0.4500 
 10 H       -4.2840     2.5520    -0.7550 H     1 <1>   0.4500 
 11 H       -6.3400     3.1190    -1.7260 H     1 <1>   0.0000 
 12 H       -6.7810     4.0900    -0.2570 H     1 <1>   0.0000 
 13 H       -5.6600     2.9020     1.8600 H     1 <1>   0.0000 
 14 H       -4.7560     1.4470     1.2580 H     1 <1>   0.0000 
 15 H       -7.9260     1.0520     1.6170 H     1 <1>   0.0000 
 16 H       -6.2040    -0.2210    -0.0800 H     1 <1>   0.0000 
 17 H       -6.2510     0.6560    -1.6560 H     1 <1>   0.0000 
 18 H       -8.6160     1.1650    -1.3810 H     1 <1>   0.0000 
 19 H       -8.6350    -0.2680    -0.2960 H     1 <1>   0.0000 
 20 H       -9.0960     3.2750    -0.1670 H     1 <1>   0.0800 
 21 H       -8.6960     3.4780     1.5280 H     1 <1>   0.0800 
 22 H       -9.9630     2.3830     1.0500 H     1 <1>   0.0800 
@<TRIPOS>BOND
  1   1   2  1   
  2   1   3  1   
  3   1   9  1   
  4   1  10  1   
  5   2   4  1   
  6   2  11  1   
  7   2  12  1   
  8   3   4  1   
  9   3  13  1   
 10   3  14  1   
 11   4   5  1   
 12   4   6  1   
 13   5   7  1   
 14   5   8  1   
 15   5  15  1   
 16   6   7  1   
 17   6  16  1   
 18   6  17  1   
 19   7  18  1   
 20   7  19  1   
 21   8  20  1   
 22   8  21  1   
 23   8  22  1   
@<TRIPOS>SUBSTRUCTURE
  1 ****   4 GROUP 4 **** **** 0

# MOE 2024.06 (io_trps.svl 2023.06)
