@<TRIPOS>MOLECULE
NONAME
51 54 1 0 0 
SMALL
USER_CHARGES


@<TRIPOS>ATOM
  1 O       -2.4010     1.2280    -0.9200 O.2   1 <1>  -0.5700 
  2 C       -1.9230     0.8300     0.1220 C.2   1 <1>   0.7150 
  3 N       -1.9590    -0.5030     0.3810 N.am  1 <1>  -0.7300 
  4 C       -1.3590     1.7040     1.1060 C.2   1 <1>  -0.2370 
  5 C       -2.4810    -1.5490    -0.5270 C.3   1 <1>   0.2200 
  6 N       -0.6360     2.8430     0.8830 N.pl3 1 <1>   0.3140 
  7 C       -1.4250     1.5730     2.4610 C.2   1 <1>  -0.1500 
  8 C       -3.8490    -2.0440    -0.0740 C.3   1 <1>  -0.0800 
  9 C       -1.6520    -2.8120    -0.3480 C.3   1 <1>   0.1200 
 10 N       -0.2560     3.4120     2.0450 N.2   1 <1>  -0.7070 
 11 C       -0.1610     3.4820    -0.3880 C.3   1 <1>   0.1760 
 12 C       -0.7350     2.6500     2.9770 C.2   1 <1>   0.1390 
 13 C       -3.5070    -3.1360     0.9490 C.3   1 <1>   0.1200 
 14 C       -4.8160    -0.9680     0.4580 C.3   1 <1>  -0.0160 
 15 O       -2.1390    -3.3960     0.8200 O.3   1 <1>  -0.5600 
 16 C       -1.2790     4.2540    -1.1020 C.3   1 <1>  -0.2400 
 17 C        0.5650     2.5000    -1.3210 C.3   1 <1>  -0.2400 
 18 C       -6.1950    -1.5620     0.7290 C.ar  1 <1>  -0.1440 
 19 C       -7.1210    -1.8270    -0.3080 C.ar  1 <1>   0.0000 
 20 C       -6.5730    -1.8670     2.0040 C.ar  1 <1>  -0.1500 
 21 C       -8.3610    -2.4100     0.0500 C.ar  1 <1>   0.3100 
 22 C       -6.8920    -1.5470    -1.6760 C.ar  1 <1>  -0.1500 
 23 C       -7.8290    -2.4340     2.2510 C.ar  1 <1>   0.1600 
 24 N       -8.6980    -2.7070     1.3310 N.ar  1 <1>  -0.6200 
 25 C       -9.2930    -2.6990    -0.9590 C.ar  1 <1>  -0.1500 
 26 C       -7.8230    -1.8380    -2.6350 C.ar  1 <1>  -0.1500 
 27 C       -9.0390    -2.4230    -2.2750 C.ar  1 <1>  -0.1500 
 28 H       -1.5650    -0.8540     1.2540 H     1 <1>   0.3700 
 29 H       -2.4820    -1.2030    -1.5480 H     1 <1>   0.0800 
 30 H       -1.9100     0.8070     3.0370 H     1 <1>   0.1500 
 31 H       -4.3100    -2.5330    -0.9130 H     1 <1>   0.0800 
 32 H       -0.5990    -2.6130    -0.2460 H     1 <1>   0.0800 
 33 H       -1.8200    -3.5010    -1.1580 H     1 <1>   0.0800 
 34 H        0.5710     4.2120    -0.0880 H     1 <1>   0.0800 
 35 H       -0.5980     2.8490     4.0270 H     1 <1>   0.1500 
 36 H       -4.0540    -4.0430     0.7570 H     1 <1>   0.0800 
 37 H       -3.6830    -2.8110     1.9590 H     1 <1>   0.0800 
 38 H       -4.8970    -0.1590    -0.2470 H     1 <1>   0.0800 
 39 H       -4.4270    -0.5450     1.3670 H     1 <1>   0.0800 
 40 H       -2.0300     3.5940    -1.4920 H     1 <1>   0.0800 
 41 H       -0.8680     4.8130    -1.9220 H     1 <1>   0.0800 
 42 H       -1.7390     4.9450    -0.4180 H     1 <1>   0.0800 
 43 H       -0.1160     1.8080    -1.7790 H     1 <1>   0.0800 
 44 H        1.3160     1.9570    -0.7750 H     1 <1>   0.0800 
 45 H        1.0520     3.0480    -2.1080 H     1 <1>   0.0800 
 46 H       -5.9260    -1.6860     2.8430 H     1 <1>   0.1500 
 47 H       -5.9670    -1.0910    -1.9750 H     1 <1>   0.1500 
 48 H       -8.0870    -2.6590     3.2720 H     1 <1>   0.1500 
 49 H      -10.2220    -3.1460    -0.6580 H     1 <1>   0.1500 
 50 H       -7.6350    -1.6190    -3.6720 H     1 <1>   0.1500 
 51 H       -9.7630    -2.6490    -3.0380 H     1 <1>   0.1500 
@<TRIPOS>BOND
  1   1   2  2   
  2   2   3  am  
  3   2   4  1   
  4   3   5  1   
  5   3  28  1   
  6   4   6  1   
  7   4   7  2   
  8   5   8  1   
  9   5   9  1   
 10   5  29  1   
 11   6  10  1   
 12   6  11  1   
 13   7  12  1   
 14   7  30  1   
 15   8  13  1   
 16   8  14  1   
 17   8  31  1   
 18   9  15  1   
 19   9  32  1   
 20   9  33  1   
 21  10  12  2   
 22  11  16  1   
 23  11  17  1   
 24  11  34  1   
 25  12  35  1   
 26  13  15  1   
 27  13  36  1   
 28  13  37  1   
 29  14  18  1   
 30  14  38  1   
 31  14  39  1   
 32  16  40  1   
 33  16  41  1   
 34  16  42  1   
 35  17  43  1   
 36  17  44  1   
 37  17  45  1   
 38  18  19  ar  
 39  18  20  ar  
 40  19  21  ar  
 41  19  22  ar  
 42  20  23  ar  
 43  20  46  1   
 44  21  24  ar  
 45  21  25  ar  
 46  22  26  ar  
 47  22  47  1   
 48  23  24  ar  
 49  23  48  1   
 50  25  27  ar  
 51  25  49  1   
 52  26  27  ar  
 53  26  50  1   
 54  27  51  1   
@<TRIPOS>SUBSTRUCTURE
  1 ****  14 GROUP 4 **** **** 0

# MOE 2024.06 (io_trps.svl 2023.06)
