@<TRIPOS>MOLECULE
NONAME
41 43 1 0 0 
SMALL
USER_CHARGES


@<TRIPOS>ATOM
  1 O        0.8580     0.1510     0.6890 O.3   1 <1>  -0.6800 
  2 C        1.3540    -0.5090    -0.4340 C.3   1 <1>   0.2000 
  3 C        2.1610    -1.7170     0.0410 C.3   1 <1>  -0.0800 
  4 C        2.4100     0.3770    -1.0980 C.3   1 <1>   0.3430 
  5 C        3.5420    -1.1320     0.3920 C.3   1 <1>   0.3430 
  6 C        2.2550    -2.7980    -1.0570 C.3   1 <1>  -0.0170 
  7 N        3.6340     0.2030    -0.2680 N.4   1 <1>  -0.9590 
  8 C        2.9340    -4.0620    -0.5500 C.ar  1 <1>   0.1670 
  9 C        3.7560     1.3180     0.7080 C.3   1 <1>   0.5230 
 10 N        4.2440    -3.9900    -0.3700 N.ar  1 <1>  -0.6200 
 11 C        2.1790    -5.2000    -0.3060 C.ar  1 <1>  -0.1500 
 12 C        4.2420     2.5510    -0.0430 C.2   1 <1>   0.0060 
 13 C        4.8270    -5.1000     0.0590 C.ar  1 <1>   0.1600 
 14 C        2.7980    -6.3450     0.1470 C.ar  1 <1>  -0.1500 
 15 N        4.8750     2.4850    -1.1760 N.2   1 <1>  -0.5650 
 16 N        4.0550     3.8180     0.4040 N.pl3 1 <1>   0.0480 
 17 C        4.1620    -6.2830     0.3300 C.ar  1 <1>  -0.1500 
 18 C        5.1170     3.7720    -1.4840 C.2   1 <1>   0.0770 
 19 C        4.6240     4.5940    -0.5340 C.2   1 <1>  -0.3020 
 20 C        3.3880     4.2980     1.6310 C.3   1 <1>   0.0160 
 21 H        0.0720    -0.3120     1.0490 H     1 <1>   0.4000 
 22 H        0.5340    -0.7450    -1.0910 H     1 <1>   0.0800 
 23 H        1.7140    -2.1650     0.9110 H     1 <1>   0.0800 
 24 H        2.0940     1.4060    -1.1530 H     1 <1>   0.0800 
 25 H        2.6030     0.0150    -2.0940 H     1 <1>   0.0800 
 26 H        4.3380    -1.7700     0.0490 H     1 <1>   0.0800 
 27 H        3.6260    -1.0250     1.4610 H     1 <1>   0.0800 
 28 H        2.8060    -2.4330    -1.9070 H     1 <1>   0.0800 
 29 H        1.2670    -3.0500    -1.3980 H     1 <1>   0.0800 
 30 H        4.4650     0.3120    -0.8750 H     1 <1>   0.4500 
 31 H        2.8050     1.5100     1.1760 H     1 <1>   0.0800 
 32 H        4.4780     1.0680     1.4660 H     1 <1>   0.0800 
 33 H        1.1170    -5.2030    -0.4690 H     1 <1>   0.1500 
 34 H        5.8940    -5.0680     0.2030 H     1 <1>   0.1500 
 35 H        2.2440    -7.2480     0.3460 H     1 <1>   0.1500 
 36 H        4.7070    -7.1430     0.6770 H     1 <1>   0.1500 
 37 H        5.6430     4.0470    -2.3850 H     1 <1>   0.1500 
 38 H        4.6520     5.6680    -0.4830 H     1 <1>   0.1500 
 39 H        3.3510     5.3730     1.6210 H     1 <1>   0.0800 
 40 H        3.9420     3.9740     2.4930 H     1 <1>   0.0800 
 41 H        2.3850     3.9140     1.6720 H     1 <1>   0.0800 
@<TRIPOS>BOND
  1   1   2  1   
  2   1  21  1   
  3   2   3  1   
  4   2   4  1   
  5   2  22  1   
  6   3   5  1   
  7   3   6  1   
  8   3  23  1   
  9   4   7  1   
 10   4  24  1   
 11   4  25  1   
 12   5   7  1   
 13   5  26  1   
 14   5  27  1   
 15   6   8  1   
 16   6  28  1   
 17   6  29  1   
 18   7   9  1   
 19   7  30  1   
 20   8  10  ar  
 21   8  11  ar  
 22   9  12  1   
 23   9  31  1   
 24   9  32  1   
 25  10  13  ar  
 26  11  14  ar  
 27  11  33  1   
 28  12  15  2   
 29  12  16  1   
 30  13  17  ar  
 31  13  34  1   
 32  14  17  ar  
 33  14  35  1   
 34  15  18  1   
 35  16  19  1   
 36  16  20  1   
 37  17  36  1   
 38  18  19  2   
 39  18  37  1   
 40  19  38  1   
 41  20  39  1   
 42  20  40  1   
 43  20  41  1   
@<TRIPOS>SUBSTRUCTURE
  1 ****   5 GROUP 4 **** **** 0

# MOE 2024.06 (io_trps.svl 2023.06)
