@<TRIPOS>MOLECULE
NONAME
50 53 1 0 0 
SMALL
USER_CHARGES


@<TRIPOS>ATOM
  1 O        1.9070     0.4410    -1.7060 O.2   1 <1>  -0.5700 
  2 C        2.4370    -0.3780    -0.9660 C.2   1 <1>   0.6160 
  3 N        2.3980    -1.7220    -1.3290 N.am  1 <1>  -0.4770 
  4 C        3.0810     0.0140     0.2650 C.2   1 <1>   0.0290 
  5 C        2.8740    -2.7280    -0.4690 C.ar  1 <1>   0.1170 
  6 C        1.8470    -2.1050    -2.6680 C.3   1 <1>   0.0600 
  7 C        3.2120     1.4110     0.6360 C.2   1 <1>   0.6160 
  8 C        3.5720    -0.9740     1.0710 C.2   1 <1>  -0.1780 
  9 C        3.4760    -2.3540     0.7460 C.ar  1 <1>   0.0280 
 10 C        2.7740    -4.0940    -0.7630 C.ar  1 <1>  -0.1500 
 11 O        3.7380     1.6940     1.7010 O.2   1 <1>  -0.5700 
 12 N        2.7730     2.4330    -0.1570 N.am  1 <1>  -0.4930 
 13 C        3.9620    -3.3400     1.6080 C.ar  1 <1>  -0.1500 
 14 C        3.2570    -5.0530     0.1000 C.ar  1 <1>  -0.1500 
 15 C        3.1580     3.7950    -0.0830 C.2   1 <1>   0.0630 
 16 C        3.8570    -4.6750     1.2930 C.ar  1 <1>  -0.1500 
 17 C        4.4040     4.3440    -0.4240 C.2   1 <1>   0.3720 
 18 C        2.4070     4.8440     0.3140 C.2   1 <1>  -0.3320 
 19 N        4.4340     5.6300    -0.2480 N.2   1 <1>  -0.7070 
 20 N        5.5140     3.5980    -0.8740 N.pl3 1 <1>  -0.8210 
 21 N        3.2000     5.9380     0.2090 N.pl3 1 <1>   0.3140 
 22 C        0.9680     4.8570     0.8040 C.3   1 <1>  -0.0600 
 23 C        6.3010     3.0860     0.2780 C.3   1 <1>   0.2090 
 24 C        6.4360     4.3300    -1.7840 C.3   1 <1>   0.2090 
 25 C        2.8470     7.3220     0.5430 C.3   1 <1>   0.0160 
 26 C        7.7650     3.3250    -0.0650 C.3   1 <1>  -0.1600 
 27 C        7.7310     4.5170    -1.0080 C.3   1 <1>  -0.1600 
 28 H        1.6730    -1.2450    -3.2900 H     1 <1>   0.0800 
 29 H        0.9160    -2.6260    -2.5370 H     1 <1>   0.0800 
 30 H        2.5470    -2.7410    -3.1790 H     1 <1>   0.0800 
 31 H        4.0590    -0.7310     2.0000 H     1 <1>   0.1500 
 32 H        2.3120    -4.4240    -1.6720 H     1 <1>   0.1500 
 33 H        2.3770     2.1430    -1.0580 H     1 <1>   0.3700 
 34 H        4.4250    -3.0460     2.5340 H     1 <1>   0.1500 
 35 H        3.1720    -6.0980    -0.1430 H     1 <1>   0.1500 
 36 H        4.2340    -5.4270     1.9640 H     1 <1>   0.1500 
 37 H        0.5670     3.8580     0.8040 H     1 <1>   0.0800 
 38 H        0.3610     5.4680     0.1610 H     1 <1>   0.0800 
 39 H        0.9210     5.2400     1.8070 H     1 <1>   0.0800 
 40 H        6.1040     2.0400     0.4310 H     1 <1>   0.0800 
 41 H        6.0390     3.6260     1.1740 H     1 <1>   0.0800 
 42 H        6.0310     5.2740    -2.1100 H     1 <1>   0.0800 
 43 H        6.6110     3.7160    -2.6510 H     1 <1>   0.0800 
 44 H        2.0100     7.6260    -0.0570 H     1 <1>   0.0800 
 45 H        3.6880     7.9590     0.3390 H     1 <1>   0.0800 
 46 H        2.5960     7.3790     1.5850 H     1 <1>   0.0800 
 47 H        8.1500     2.4600    -0.5760 H     1 <1>   0.0800 
 48 H        8.3540     3.5120     0.8140 H     1 <1>   0.0800 
 49 H        7.6620     5.4300    -0.4440 H     1 <1>   0.0800 
 50 H        8.5870     4.5610    -1.6570 H     1 <1>   0.0800 
@<TRIPOS>BOND
  1   1   2  2   
  2   2   3  am  
  3   2   4  1   
  4   3   5  1   
  5   3   6  1   
  6   4   7  1   
  7   4   8  2   
  8   5   9  ar  
  9   5  10  ar  
 10   6  28  1   
 11   6  29  1   
 12   6  30  1   
 13   7  11  2   
 14   7  12  am  
 15   8   9  1   
 16   8  31  1   
 17   9  13  ar  
 18  10  14  ar  
 19  10  32  1   
 20  12  15  1   
 21  12  33  1   
 22  13  16  ar  
 23  13  34  1   
 24  14  16  ar  
 25  14  35  1   
 26  15  17  1   
 27  15  18  2   
 28  16  36  1   
 29  17  19  2   
 30  17  20  1   
 31  18  21  1   
 32  18  22  1   
 33  19  21  1   
 34  20  23  1   
 35  20  24  1   
 36  21  25  1   
 37  22  37  1   
 38  22  38  1   
 39  22  39  1   
 40  23  26  1   
 41  23  40  1   
 42  23  41  1   
 43  24  27  1   
 44  24  42  1   
 45  24  43  1   
 46  25  44  1   
 47  25  45  1   
 48  25  46  1   
 49  26  27  1   
 50  26  47  1   
 51  26  48  1   
 52  27  49  1   
 53  27  50  1   
@<TRIPOS>SUBSTRUCTURE
  1 ****   7 GROUP 4 **** **** 0

# MOE 2024.06 (io_trps.svl 2023.06)
