@<TRIPOS>MOLECULE
NONAME
42 43 1 0 0 
SMALL
USER_CHARGES


@<TRIPOS>ATOM
  1 O       -0.7470     0.1970    -0.5190 O.3   1 <1>  -0.3630 
  2 C       -1.3700     1.2510     0.0780 C.ar  1 <1>   0.3920 
  3 C       -1.2920    -1.1070    -0.4300 C.3   1 <1>   0.0400 
  4 N       -2.5060     1.0320     0.7180 N.ar  1 <1>  -0.6200 
  5 C       -0.7530     2.5290    -0.0360 C.ar  1 <1>   0.4100 
  6 C       -3.0020     2.1430     1.2420 C.ar  1 <1>   0.1600 
  7 N       -1.2710     3.6340     0.4870 N.ar  1 <1>  -0.6200 
  8 N        0.4550     2.6780    -0.7110 N.pl3 1 <1>  -0.8690 
  9 C       -2.4090     3.3910     1.1290 C.ar  1 <1>   0.1600 
 10 C        0.8540     3.9530    -1.3480 C.3   1 <1>   0.2090 
 11 C        1.4610     4.8840    -0.2780 C.3   1 <1>   0.3430 
 12 N        1.1180     6.3410    -0.4590 N.4   1 <1>  -0.9590 
 13 C        1.9360     7.2430     0.4300 C.3   1 <1>   0.4230 
 14 C       -0.3440     6.5190    -0.1850 C.3   1 <1>   0.3430 
 15 C        1.5390     8.7060     0.1520 C.3   1 <1>  -0.1600 
 16 C        3.4630     7.0490     0.2430 C.3   1 <1>   0.1200 
 17 C       -0.7700     7.9520    -0.4940 C.3   1 <1>  -0.1600 
 18 C        0.0370     8.9570     0.3310 C.3   1 <1>  -0.1600 
 19 O        4.1550     7.8640     1.1270 O.3   1 <1>  -0.6800 
 20 H       -0.6450    -1.7820    -0.9600 H     1 <1>   0.0800 
 21 H       -2.2710    -1.1080    -0.8750 H     1 <1>   0.0800 
 22 H       -1.3510    -1.3900     0.6070 H     1 <1>   0.0800 
 23 H       -3.9270     2.0530     1.7860 H     1 <1>   0.1500 
 24 H        0.7070     1.8250    -1.2320 H     1 <1>   0.4000 
 25 H       -2.9000     4.2280     1.5940 H     1 <1>   0.1500 
 26 H       -0.0120     4.3920    -1.8100 H     1 <1>   0.0800 
 27 H        1.5850     3.7540    -2.1130 H     1 <1>   0.0800 
 28 H        2.5260     4.7410    -0.2920 H     1 <1>   0.0800 
 29 H        1.0990     4.5610     0.6850 H     1 <1>   0.0800 
 30 H        1.2920     6.6280    -1.4280 H     1 <1>   0.4500 
 31 H        1.7020     7.0130     1.4570 H     1 <1>   0.0800 
 32 H       -0.5490     6.2940     0.8490 H     1 <1>   0.0800 
 33 H       -0.9260     5.8410    -0.7880 H     1 <1>   0.0800 
 34 H        1.8380     8.9800    -0.8440 H     1 <1>   0.0800 
 35 H        2.0690     9.3540     0.8300 H     1 <1>   0.0800 
 36 H        3.7620     7.3160    -0.7560 H     1 <1>   0.0800 
 37 H        3.7600     6.0390     0.4590 H     1 <1>   0.0800 
 38 H       -1.8160     8.0640    -0.2660 H     1 <1>   0.0800 
 39 H       -0.6460     8.1480    -1.5450 H     1 <1>   0.0800 
 40 H       -0.2060     9.9620     0.0290 H     1 <1>   0.0800 
 41 H       -0.2200     8.8570     1.3730 H     1 <1>   0.0800 
 42 H        5.1270     7.7810     1.0210 H     1 <1>   0.4000 
@<TRIPOS>BOND
  1   1   2  1   
  2   1   3  1   
  3   2   4  ar  
  4   2   5  ar  
  5   3  20  1   
  6   3  21  1   
  7   3  22  1   
  8   4   6  ar  
  9   5   7  ar  
 10   5   8  1   
 11   6   9  ar  
 12   6  23  1   
 13   7   9  ar  
 14   8  10  1   
 15   8  24  1   
 16   9  25  1   
 17  10  11  1   
 18  10  26  1   
 19  10  27  1   
 20  11  12  1   
 21  11  28  1   
 22  11  29  1   
 23  12  13  1   
 24  12  14  1   
 25  12  30  1   
 26  13  15  1   
 27  13  16  1   
 28  13  31  1   
 29  14  17  1   
 30  14  32  1   
 31  14  33  1   
 32  15  18  1   
 33  15  34  1   
 34  15  35  1   
 35  16  19  1   
 36  16  36  1   
 37  16  37  1   
 38  17  18  1   
 39  17  38  1   
 40  17  39  1   
 41  18  40  1   
 42  18  41  1   
 43  19  42  1   
@<TRIPOS>SUBSTRUCTURE
  1 ****  11 GROUP 4 **** **** 0

# MOE 2024.06 (io_trps.svl 2023.06)
