@<TRIPOS>MOLECULE
NONAME
36 37 1 0 0 
SMALL
USER_CHARGES


@<TRIPOS>ATOM
  1 N       -0.1860    -0.0060    -0.7700 N.ar  1 <1>  -0.6200 
  2 C        0.7160     0.6770    -1.4350 C.ar  1 <1>   0.7710 
  3 C       -1.1460     0.6700    -0.1680 C.ar  1 <1>   0.4100 
  4 N        0.7030     2.0160    -1.5310 N.ar  1 <1>  -0.1790 
  5 N        1.6740    -0.0290    -2.0290 N.pl3 1 <1>  -0.9000 
  6 N       -2.0640    -0.0410     0.5230 N.pl3 1 <1>  -0.8690 
  7 C       -1.2280     2.0840    -0.2250 C.ar  1 <1>  -0.1430 
  8 C       -0.2680     2.7430    -0.9290 C.ar  1 <1>   0.2110 
  9 C       -2.1370    -1.5120     0.6790 C.3   1 <1>   0.2090 
 10 C       -2.3780     2.8000     0.4980 C.3   1 <1>  -0.0170 
 11 C       -3.5680    -1.9580     0.3940 C.3   1 <1>  -0.1600 
 12 C       -2.3810     4.3280     0.3650 C.3   1 <1>  -0.2400 
 13 C       -3.7020    -3.4820     0.5060 C.3   1 <1>   0.0960 
 14 N       -5.1040    -3.8940     0.3090 N.pl3 1 <1>   0.3140 
 15 N       -5.9860    -3.9450     1.3120 N.2   1 <1>  -0.4180 
 16 C       -5.7020    -4.2530    -0.8280 C.2   1 <1>  -0.3020 
 17 N       -7.1210    -4.3280     0.8380 N.2   1 <1>  -0.2270 
 18 C       -6.9680    -4.5230    -0.4760 C.2   1 <1>   0.0770 
 19 H        1.4470     2.4480    -2.0690 H     1 <1>   0.4570 
 20 H        2.4650     0.2980    -2.5860 H     1 <1>   0.4000 
 21 H        1.6400    -1.0480    -1.9210 H     1 <1>   0.4000 
 22 H       -2.8010     0.4530     1.0340 H     1 <1>   0.4000 
 23 H       -0.2380     3.8150    -1.0340 H     1 <1>   0.1500 
 24 H       -1.8570    -1.7750     1.6860 H     1 <1>   0.0800 
 25 H       -1.4590    -2.0010    -0.0010 H     1 <1>   0.0800 
 26 H       -2.3360     2.5540     1.5460 H     1 <1>   0.0800 
 27 H       -3.3140     2.4280     0.1140 H     1 <1>   0.0800 
 28 H       -3.8430    -1.6500    -0.6000 H     1 <1>   0.0800 
 29 H       -4.2300    -1.4950     1.1060 H     1 <1>   0.0800 
 30 H       -1.4880     4.7540     0.7870 H     1 <1>   0.0800 
 31 H       -3.2230     4.7320     0.9010 H     1 <1>   0.0800 
 32 H       -2.4740     4.6260    -0.6650 H     1 <1>   0.0800 
 33 H       -3.3950    -3.8130     1.4820 H     1 <1>   0.0800 
 34 H       -3.0940    -3.9720    -0.2320 H     1 <1>   0.0800 
 35 H       -5.2130    -4.2940    -1.7820 H     1 <1>   0.1500 
 36 H       -7.7850    -4.8480    -1.0960 H     1 <1>   0.1500 
@<TRIPOS>BOND
  1   1   2  ar  
  2   1   3  ar  
  3   2   4  ar  
  4   2   5  1   
  5   3   6  1   
  6   3   7  ar  
  7   4   8  ar  
  8   4  19  1   
  9   5  20  1   
 10   5  21  1   
 11   6   9  1   
 12   6  22  1   
 13   7   8  ar  
 14   7  10  1   
 15   8  23  1   
 16   9  11  1   
 17   9  24  1   
 18   9  25  1   
 19  10  12  1   
 20  10  26  1   
 21  10  27  1   
 22  11  13  1   
 23  11  28  1   
 24  11  29  1   
 25  12  30  1   
 26  12  31  1   
 27  12  32  1   
 28  13  14  1   
 29  13  33  1   
 30  13  34  1   
 31  14  15  1   
 32  14  16  1   
 33  15  17  2   
 34  16  18  2   
 35  16  35  1   
 36  17  18  1   
 37  18  36  1   
@<TRIPOS>SUBSTRUCTURE
  1 ****   6 GROUP 4 **** **** 0

# MOE 2024.06 (io_trps.svl 2023.06)
