@<TRIPOS>MOLECULE
NONAME
38 39 1 0 0 
SMALL
USER_CHARGES


@<TRIPOS>ATOM
  1 S        0.1410     0.2200    -1.5370 S.3   1 <1>  -0.0800 
  2 C        1.0690    -0.9580    -0.6330 C.2   1 <1>   0.1980 
  3 C        1.5120     1.2880    -1.4950 C.2   1 <1>  -0.1100 
  4 N        2.2510    -0.5850    -0.3450 N.2   1 <1>  -0.5650 
  5 C        0.3960    -2.2740    -0.2950 C.3   1 <1>   0.0200 
  6 C        2.5140     0.6930    -0.8280 C.2   1 <1>   0.0460 
  7 C       -0.6540    -2.1070     0.8120 C.3   1 <1>  -0.1600 
  8 C        3.8990     1.2710    -0.5550 C.3   1 <1>   0.3900 
  9 C       -1.3120    -3.4430     1.1750 C.3   1 <1>  -0.2400 
 10 N        3.9410     2.7270    -0.8290 N.pl3 1 <1>  -0.8690 
 11 C        5.0760     3.4360    -0.6640 C.ar  1 <1>   0.7200 
 12 N        4.8700     4.6980    -0.3280 N.ar  1 <1>  -0.6200 
 13 N        6.2330     2.8060    -0.8390 N.ar  1 <1>  -0.6200 
 14 C        5.9460     5.4450    -0.1550 C.ar  1 <1>   0.4100 
 15 C        7.3040     3.5570    -0.6740 C.ar  1 <1>   0.1600 
 16 N        5.7320     6.7750     0.2030 N.pl3 1 <1>  -0.8380 
 17 C        7.2080     4.8770    -0.3340 C.ar  1 <1>   0.1900 
 18 C        4.4580     7.4640    -0.1470 C.3   1 <1>   0.1290 
 19 C        6.5360     7.4300     1.2700 C.3   1 <1>   0.1290 
 20 F        8.3140     5.5800    -0.1950 F     1 <1>  -0.1900 
 21 H        1.4270     2.2450    -1.9770 H     1 <1>   0.1500 
 22 H        1.1510    -2.9680     0.0290 H     1 <1>   0.0800 
 23 H       -0.0620    -2.6710    -1.1840 H     1 <1>   0.0800 
 24 H       -1.4120    -1.4140     0.4890 H     1 <1>   0.0800 
 25 H       -0.1800    -1.6930     1.6870 H     1 <1>   0.0800 
 26 H        4.6180     0.7600    -1.1710 H     1 <1>   0.0800 
 27 H        4.1530     1.1000     0.4770 H     1 <1>   0.0800 
 28 H       -1.8100    -3.8630     0.3180 H     1 <1>   0.0800 
 29 H       -2.0400    -3.2940     1.9530 H     1 <1>   0.0800 
 30 H       -0.5750    -4.1430     1.5270 H     1 <1>   0.0800 
 31 H        3.1450     3.2370    -0.4550 H     1 <1>   0.4000 
 32 H        8.2720     3.1080    -0.8140 H     1 <1>   0.1500 
 33 H        4.0580     7.0620    -1.0620 H     1 <1>   0.0800 
 34 H        4.6340     8.5160    -0.2840 H     1 <1>   0.0800 
 35 H        3.7390     7.3200     0.6410 H     1 <1>   0.0800 
 36 H        7.1360     6.7040     1.7900 H     1 <1>   0.0800 
 37 H        5.8860     7.9050     1.9840 H     1 <1>   0.0800 
 38 H        7.1820     8.1710     0.8320 H     1 <1>   0.0800 
@<TRIPOS>BOND
  1   1   2  1   
  2   1   3  1   
  3   2   4  2   
  4   2   5  1   
  5   3   6  2   
  6   3  21  1   
  7   4   6  1   
  8   5   7  1   
  9   5  22  1   
 10   5  23  1   
 11   6   8  1   
 12   7   9  1   
 13   7  24  1   
 14   7  25  1   
 15   8  10  1   
 16   8  26  1   
 17   8  27  1   
 18   9  28  1   
 19   9  29  1   
 20   9  30  1   
 21  10  11  1   
 22  10  31  1   
 23  11  12  ar  
 24  11  13  ar  
 25  12  14  ar  
 26  13  15  ar  
 27  14  16  1   
 28  14  17  ar  
 29  15  17  ar  
 30  15  32  1   
 31  16  18  1   
 32  16  19  1   
 33  17  20  1   
 34  18  33  1   
 35  18  34  1   
 36  18  35  1   
 37  19  36  1   
 38  19  37  1   
 39  19  38  1   
@<TRIPOS>SUBSTRUCTURE
  1 ****  10 GROUP 4 **** **** 0

# MOE 2024.06 (io_trps.svl 2023.06)
