@<TRIPOS>MOLECULE
NONAME
50 53 1 0 0 
SMALL
USER_CHARGES


@<TRIPOS>ATOM
  1 O       -0.9980     1.1630     2.3830 O.3   1 <1>  -0.5600 
  2 C       -0.0220     1.3740     1.4020 C.3   1 <1>   0.1200 
  3 C       -2.2550     1.5880     1.9410 C.3   1 <1>   0.1200 
  4 C       -0.6680     2.2210     0.3060 C.3   1 <1>   0.2890 
  5 C       -2.1320     1.8450     0.4380 C.3   1 <1>  -0.0800 
  6 N       -0.5140     3.6620     0.6290 N.pl3 1 <1>  -0.8690 
  7 C       -2.4740     0.5970    -0.3980 C.3   1 <1>  -0.0170 
  8 C        0.2580     4.5380    -0.0940 C.ar  1 <1>   0.4100 
  9 C       -3.9460     0.2320    -0.2770 C.ar  1 <1>  -0.1430 
 10 N        0.6870     4.1610    -1.2830 N.ar  1 <1>  -0.6200 
 11 C        0.5710     5.7720     0.4170 C.ar  1 <1>  -0.1500 
 12 C       -4.9290     0.9600    -0.9140 C.ar  1 <1>  -0.1500 
 13 C       -4.3750    -0.8440     0.4750 C.ar  1 <1>  -0.1500 
 14 C        1.4290     5.0470    -1.9190 C.ar  1 <1>   0.4700 
 15 C        1.3490     6.6160    -0.3370 C.ar  1 <1>   0.4100 
 16 C       -6.2570     0.5920    -0.7710 C.ar  1 <1>   0.1600 
 17 C       -5.7280    -1.1280     0.5530 C.ar  1 <1>   0.1600 
 18 N        1.7930     6.2510    -1.5260 N.ar  1 <1>  -0.6200 
 19 N        1.6830     7.8720     0.1230 N.pl3 1 <1>  -0.8380 
 20 N       -6.6800    -0.4350    -0.0510 N.ar  1 <1>  -0.6200 
 21 C        0.5950     8.8530     0.3630 C.3   1 <1>   0.2090 
 22 C        2.9690     8.4880    -0.3030 C.3   1 <1>   0.2090 
 23 C        1.0340     9.8470     1.4420 C.3   1 <1>  -0.1600 
 24 C        3.4350     9.4850     0.7630 C.3   1 <1>  -0.1600 
 25 C        2.3570    10.5340     1.0730 C.3   1 <1>  -0.1600 
 26 H        0.8340     1.8560     1.8390 H     1 <1>   0.0800 
 27 H        0.2620     0.4120     1.0150 H     1 <1>   0.0800 
 28 H       -2.9880     0.8410     2.1890 H     1 <1>   0.0800 
 29 H       -2.4880     2.5010     2.4610 H     1 <1>   0.0800 
 30 H       -0.2660     1.9900    -0.6650 H     1 <1>   0.0800 
 31 H       -2.7680     2.6570     0.1300 H     1 <1>   0.0800 
 32 H       -0.6220     3.8560     1.6260 H     1 <1>   0.4000 
 33 H       -1.8690    -0.2370    -0.0880 H     1 <1>   0.0800 
 34 H       -2.2540     0.7910    -1.4340 H     1 <1>   0.0800 
 35 H        0.2280     6.0760     1.3830 H     1 <1>   0.1500 
 36 H       -4.6760     1.8110    -1.5210 H     1 <1>   0.1500 
 37 H       -3.6720    -1.4630     1.0010 H     1 <1>   0.1500 
 38 H        1.7850     4.7470    -2.8900 H     1 <1>   0.1500 
 39 H       -7.0100     1.1720    -1.2750 H     1 <1>   0.1500 
 40 H       -6.0440    -1.9700     1.1440 H     1 <1>   0.1500 
 41 H        0.3860     9.3760    -0.5550 H     1 <1>   0.0800 
 42 H       -0.3020     8.3470     0.6740 H     1 <1>   0.0800 
 43 H        3.7130     7.7200    -0.4330 H     1 <1>   0.0800 
 44 H        2.8270     8.9870    -1.2460 H     1 <1>   0.0800 
 45 H        0.2660    10.5880     1.5760 H     1 <1>   0.0800 
 46 H        1.1470     9.3170     2.3720 H     1 <1>   0.0800 
 47 H        3.6770     8.9380     1.6580 H     1 <1>   0.0800 
 48 H        4.3310     9.9730     0.4230 H     1 <1>   0.0800 
 49 H        2.6820    11.1620     1.8850 H     1 <1>   0.0800 
 50 H        2.2060    11.1560     0.2070 H     1 <1>   0.0800 
@<TRIPOS>BOND
  1   1   2  1   
  2   1   3  1   
  3   2   4  1   
  4   2  26  1   
  5   2  27  1   
  6   3   5  1   
  7   3  28  1   
  8   3  29  1   
  9   4   5  1   
 10   4   6  1   
 11   4  30  1   
 12   5   7  1   
 13   5  31  1   
 14   6   8  1   
 15   6  32  1   
 16   7   9  1   
 17   7  33  1   
 18   7  34  1   
 19   8  10  ar  
 20   8  11  ar  
 21   9  12  ar  
 22   9  13  ar  
 23  10  14  ar  
 24  11  15  ar  
 25  11  35  1   
 26  12  16  ar  
 27  12  36  1   
 28  13  17  ar  
 29  13  37  1   
 30  14  18  ar  
 31  14  38  1   
 32  15  18  ar  
 33  15  19  1   
 34  16  20  ar  
 35  16  39  1   
 36  17  20  ar  
 37  17  40  1   
 38  19  21  1   
 39  19  22  1   
 40  21  23  1   
 41  21  41  1   
 42  21  42  1   
 43  22  24  1   
 44  22  43  1   
 45  22  44  1   
 46  23  25  1   
 47  23  45  1   
 48  23  46  1   
 49  24  25  1   
 50  24  47  1   
 51  24  48  1   
 52  25  49  1   
 53  25  50  1   
@<TRIPOS>SUBSTRUCTURE
  1 ****   6 GROUP 4 **** **** 0

# MOE 2024.06 (io_trps.svl 2023.06)
