@<TRIPOS>MOLECULE
NONAME
36 37 1 0 0 
SMALL
USER_CHARGES


@<TRIPOS>ATOM
  1 S        0.1110    -0.7060     1.3610 S.3   1 <1>  -0.0800 
  2 C       -1.4360    -1.1810     0.7060 C.2   1 <1>  -0.1400 
  3 C       -0.4320     0.9490     1.4080 C.2   1 <1>   0.2280 
  4 C       -2.2000    -0.0730     0.5910 C.2   1 <1>   0.0460 
  5 C       -1.5380    -2.6790     0.4340 C.3   1 <1>   0.0200 
  6 N       -1.6190     1.1210     0.9890 N.2   1 <1>  -0.5650 
  7 C       -3.6220     0.0910     0.0900 C.3   1 <1>  -0.0590 
  8 C       -2.8360    -3.1320    -0.2290 C.3   1 <1>   0.2090 
  9 N       -2.7900    -4.5960    -0.4990 N.pl3 1 <1>  -0.8380 
 10 C       -3.9030    -5.3270    -0.1050 C.ar  1 <1>   0.4100 
 11 C       -2.2520    -4.9490    -1.8390 C.3   1 <1>   0.1290 
 12 N       -5.0540    -4.9260    -0.6310 N.ar  1 <1>  -0.6200 
 13 C       -3.8090    -6.4270     0.7780 C.ar  1 <1>   0.1670 
 14 C       -6.0790    -5.6640    -0.2470 C.ar  1 <1>   0.1670 
 15 N       -4.8370    -7.1640     1.1560 N.ar  1 <1>  -0.6200 
 16 C       -2.4660    -6.8410     1.3560 C.3   1 <1>  -0.0970 
 17 C       -5.9720    -6.7480     0.6170 C.ar  1 <1>   0.1600 
 18 C       -7.4250    -5.2620    -0.8130 C.3   1 <1>  -0.0970 
 19 H        0.2600     1.6840     1.7790 H     1 <1>   0.1500 
 20 H       -1.4330    -3.2030     1.3670 H     1 <1>   0.0800 
 21 H       -0.7160    -2.9590    -0.1990 H     1 <1>   0.0800 
 22 H       -4.0800    -0.8350    -0.1830 H     1 <1>   0.0800 
 23 H       -3.6230     0.7390    -0.7680 H     1 <1>   0.0800 
 24 H       -4.2180     0.5470     0.8600 H     1 <1>   0.0800 
 25 H       -2.9880    -2.5990    -1.1510 H     1 <1>   0.0800 
 26 H       -3.6580    -2.9180     0.4320 H     1 <1>   0.0800 
 27 H       -1.2340    -4.6150    -1.9300 H     1 <1>   0.0800 
 28 H       -2.8510    -4.4890    -2.6070 H     1 <1>   0.0800 
 29 H       -2.2810    -6.0170    -1.9750 H     1 <1>   0.0800 
 30 H       -1.8320    -5.9860     1.5000 H     1 <1>   0.0800 
 31 H       -1.9860    -7.5270     0.6840 H     1 <1>   0.0800 
 32 H       -2.6060    -7.3230     2.3060 H     1 <1>   0.0800 
 33 H       -6.8570    -7.2980     0.8780 H     1 <1>   0.1500 
 34 H       -7.6490    -4.2510    -0.5230 H     1 <1>   0.0800 
 35 H       -8.2070    -5.9080    -0.4580 H     1 <1>   0.0800 
 36 H       -7.3920    -5.3130    -1.8870 H     1 <1>   0.0800 
@<TRIPOS>BOND
  1   1   2  1   
  2   1   3  1   
  3   2   4  2   
  4   2   5  1   
  5   3   6  2   
  6   3  19  1   
  7   4   6  1   
  8   4   7  1   
  9   5   8  1   
 10   5  20  1   
 11   5  21  1   
 12   7  22  1   
 13   7  23  1   
 14   7  24  1   
 15   8   9  1   
 16   8  25  1   
 17   8  26  1   
 18   9  10  1   
 19   9  11  1   
 20  10  12  ar  
 21  10  13  ar  
 22  11  27  1   
 23  11  28  1   
 24  11  29  1   
 25  12  14  ar  
 26  13  15  ar  
 27  13  16  1   
 28  14  17  ar  
 29  14  18  1   
 30  15  17  ar  
 31  16  30  1   
 32  16  31  1   
 33  16  32  1   
 34  17  33  1   
 35  18  34  1   
 36  18  35  1   
 37  18  36  1   
@<TRIPOS>SUBSTRUCTURE
  1 ****   8 GROUP 4 **** **** 0

# MOE 2024.06 (io_trps.svl 2023.06)
