@<TRIPOS>MOLECULE
NONAME
56 60 1 0 0 
SMALL
USER_CHARGES


@<TRIPOS>ATOM
  1 O       -1.2560     0.9460    -2.4660 O.co2 1 <1>  -0.9000 
  2 C       -1.2050     0.9770    -1.2300 C.2   1 <1>   0.9060 
  3 O       -1.3360    -0.0610    -0.5730 O.co2 1 <1>  -0.9000 
  4 C       -1.0100     2.3240    -0.5190 C.3   1 <1>  -0.1060 
  5 C       -2.3390     3.0980    -0.7670 C.3   1 <1>   0.2000 
  6 C        0.1770     3.0280    -1.2170 C.3   1 <1>   0.2090 
  7 C       -0.6780     2.0540     0.9900 C.3   1 <1>  -0.0650 
  8 O       -2.5690     4.0170     0.2370 O.3   1 <1>  -0.6800 
  9 C       -2.2880     3.9220    -2.0620 C.3   1 <1>  -0.1600 
 10 N        0.0010     4.5200    -1.2010 N.pl3 1 <1>  -0.8220 
 11 C       -0.1460     3.2150     1.8590 C.3   1 <1>  -0.1950 
 12 C       -1.1570     4.9650    -2.0420 C.3   1 <1>   0.2090 
 13 C        1.1600     5.3180    -1.1990 C.2   1 <1>   0.2700 
 14 C        1.2980     3.6120     1.8900 C.3   1 <1>  -0.2000 
 15 C        0.6880     2.9000     3.0610 C.3   1 <1>  -0.2000 
 16 N        2.3270     4.9080    -1.5580 N.2   1 <1>  -0.3380 
 17 N        1.2430     6.6130    -0.8330 N.pl3 1 <1>   0.5930 
 18 N        3.1400     5.9520    -1.4340 N.2   1 <1>   0.0000 
 19 N        2.5120     6.9810    -1.0070 N.2   1 <1>  -0.4180 
 20 C        0.2370     7.4840    -0.3240 C.ar  1 <1>  -0.0230 
 21 C        0.0760     8.7650    -0.8470 C.ar  1 <1>  -0.1500 
 22 C       -0.6100     7.0690     0.7010 C.ar  1 <1>  -0.1500 
 23 C       -0.9130     9.6040    -0.3660 C.ar  1 <1>  -0.1500 
 24 C       -1.6010     7.9030     1.1820 C.ar  1 <1>  -0.1500 
 25 C       -1.7530     9.1760     0.6550 C.ar  1 <1>   0.0820 
 26 O       -2.7390     9.9640     1.1520 O.3   1 <1>  -0.1650 
 27 C       -2.5640    11.2990     1.3150 C.ar  1 <1>   0.0820 
 28 C       -3.6300    12.1390     1.0340 C.ar  1 <1>  -0.1500 
 29 C       -1.3610    11.8320     1.7650 C.ar  1 <1>  -0.1500 
 30 C       -3.4930    13.5080     1.1860 C.ar  1 <1>  -0.1500 
 31 C       -1.2270    13.2020     1.9150 C.ar  1 <1>  -0.1500 
 32 C       -2.2910    14.0380     1.6240 C.ar  1 <1>  -0.1500 
 33 H       -3.1760     2.4190    -0.7800 H     1 <1>   0.0800 
 34 H        0.2560     2.7240    -2.2470 H     1 <1>   0.0800 
 35 H        1.0990     2.7440    -0.7450 H     1 <1>   0.0800 
 36 H       -1.5590     1.6530     1.4610 H     1 <1>   0.0800 
 37 H        0.0620     1.2730     1.0240 H     1 <1>   0.0800 
 38 H       -1.7080     4.4660     0.3620 H     1 <1>   0.4000 
 39 H       -2.1360     3.2600    -2.8950 H     1 <1>   0.0800 
 40 H       -3.2330     4.4060    -2.2230 H     1 <1>   0.0800 
 41 H       -0.8860     3.9710     2.0380 H     1 <1>   0.1000 
 42 H       -1.5490     5.8820    -1.6380 H     1 <1>   0.0800 
 43 H       -0.8230     5.1540    -3.0480 H     1 <1>   0.0800 
 44 H        2.0090     3.0760     1.2860 H     1 <1>   0.1000 
 45 H        1.5420     4.6550     1.9760 H     1 <1>   0.1000 
 46 H        0.5110     3.4500     3.9690 H     1 <1>   0.1000 
 47 H        0.9690     1.8780     3.2460 H     1 <1>   0.1000 
 48 H        0.7260     9.1070    -1.6350 H     1 <1>   0.1500 
 49 H       -0.4950     6.0850     1.1210 H     1 <1>   0.1500 
 50 H       -1.0340    10.5870    -0.7850 H     1 <1>   0.1500 
 51 H       -2.2590     7.5720     1.9660 H     1 <1>   0.1500 
 52 H       -4.5600    11.7180     0.6960 H     1 <1>   0.1500 
 53 H       -0.5370    11.1830     2.0010 H     1 <1>   0.1500 
 54 H       -4.3200    14.1590     0.9640 H     1 <1>   0.1500 
 55 H       -0.2960    13.6170     2.2610 H     1 <1>   0.1500 
 56 H       -2.1850    15.1030     1.7410 H     1 <1>   0.1500 
@<TRIPOS>BOND
  1   1   2  ar  
  2   2   3  ar  
  3   2   4  1   
  4   4   5  1   
  5   4   6  1   
  6   4   7  1   
  7   5   8  1   
  8   5   9  1   
  9   5  33  1   
 10   6  10  1   
 11   6  34  1   
 12   6  35  1   
 13   7  11  1   
 14   7  36  1   
 15   7  37  1   
 16   8  38  1   
 17   9  12  1   
 18   9  39  1   
 19   9  40  1   
 20  10  12  1   
 21  10  13  1   
 22  11  14  1   
 23  11  15  1   
 24  11  41  1   
 25  12  42  1   
 26  12  43  1   
 27  13  16  2   
 28  13  17  1   
 29  14  15  1   
 30  14  44  1   
 31  14  45  1   
 32  15  46  1   
 33  15  47  1   
 34  16  18  1   
 35  17  19  1   
 36  17  20  1   
 37  18  19  2   
 38  20  21  ar  
 39  20  22  ar  
 40  21  23  ar  
 41  21  48  1   
 42  22  24  ar  
 43  22  49  1   
 44  23  25  ar  
 45  23  50  1   
 46  24  25  ar  
 47  24  51  1   
 48  25  26  1   
 49  26  27  1   
 50  27  28  ar  
 51  27  29  ar  
 52  28  30  ar  
 53  28  52  1   
 54  29  31  ar  
 55  29  53  1   
 56  30  32  ar  
 57  30  54  1   
 58  31  32  ar  
 59  31  55  1   
 60  32  56  1   
@<TRIPOS>SUBSTRUCTURE
  1 ****  22 GROUP 4 **** **** 0

# MOE 2024.06 (io_trps.svl 2023.06)
