@<TRIPOS>MOLECULE
NONAME
45 47 1 0 0 
SMALL
USER_CHARGES


@<TRIPOS>ATOM
  1 F        1.2420     1.5260     2.3210 F     1 <1>  -0.1900 
  2 C        1.0640     2.7380     1.8630 C.ar  1 <1>   0.1900 
  3 C        0.2620     2.9980     0.7450 C.ar  1 <1>   0.0820 
  4 C        1.7110     3.7530     2.5430 C.ar  1 <1>  -0.1500 
  5 O       -0.4240     2.0900    -0.0050 O.3   1 <1>  -0.3630 
  6 C        0.1360     4.3160     0.3370 C.ar  1 <1>  -0.1500 
  7 C        1.5670     5.0570     2.1060 C.ar  1 <1>  -0.1500 
  8 C       -0.4560     0.7120     0.2950 C.3   1 <1>   0.0400 
  9 C        0.7840     5.3630     0.9930 C.ar  1 <1>   0.0860 
 10 C        0.6540     6.7330     0.5370 C.2   1 <1>   0.5440 
 11 O        0.1910     7.5620     1.2990 O.2   1 <1>  -0.5700 
 12 N        1.0430     7.1250    -0.7310 N.am  1 <1>  -0.6600 
 13 C        1.8520     6.2350    -1.6310 C.3   1 <1>   0.1400 
 14 C        0.8270     8.5260    -1.1840 C.3   1 <1>   0.1400 
 15 C        3.0730     6.9180    -2.2740 C.3   1 <1>   0.1400 
 16 C        1.9590     9.4360    -0.6860 C.3   1 <1>  -0.1600 
 17 N        3.7750     7.8460    -1.3400 N.am  1 <1>  -0.6600 
 18 C        3.3000     9.2540    -1.4050 C.3   1 <1>   0.1400 
 19 C        4.5430     7.3480    -0.3080 C.2   1 <1>   0.7150 
 20 O        4.4930     6.1550    -0.0600 O.2   1 <1>  -0.5700 
 21 C        5.3920     8.1750     0.5060 C.2   1 <1>  -0.2370 
 22 N        5.5810     7.8870     1.8290 N.pl3 1 <1>   0.0330 
 23 C        6.1540     9.2810     0.2220 C.2   1 <1>  -0.1500 
 24 C        6.4230     8.8040     2.3620 C.2   1 <1>  -0.3020 
 25 C        6.7950     9.6800     1.3930 C.2   1 <1>  -0.1500 
 26 H        2.3180     3.5220     3.4000 H     1 <1>   0.1500 
 27 H       -0.4820     4.5380    -0.5140 H     1 <1>   0.1500 
 28 H        2.0630     5.8600     2.6240 H     1 <1>   0.1500 
 29 H       -1.0840     0.2270    -0.4290 H     1 <1>   0.0800 
 30 H       -0.8640     0.5770     1.2810 H     1 <1>   0.0800 
 31 H        0.5430     0.3170     0.2330 H     1 <1>   0.0800 
 32 H        1.2160     5.8500    -2.4070 H     1 <1>   0.0800 
 33 H        2.2210     5.3920    -1.0750 H     1 <1>   0.0800 
 34 H       -0.1070     8.8790    -0.7800 H     1 <1>   0.0800 
 35 H        0.7520     8.5620    -2.2560 H     1 <1>   0.0800 
 36 H        2.7600     7.4550    -3.1510 H     1 <1>   0.0800 
 37 H        3.7630     6.1570    -2.5970 H     1 <1>   0.0800 
 38 H        2.0950     9.2940     0.3720 H     1 <1>   0.0800 
 39 H        1.6490    10.4550    -0.8250 H     1 <1>   0.0800 
 40 H        4.0170     9.9160    -0.9570 H     1 <1>   0.0800 
 41 H        3.2010     9.5450    -2.4360 H     1 <1>   0.0800 
 42 H        5.1530     7.0820     2.3020 H     1 <1>   0.2700 
 43 H        6.2640     9.7670    -0.7320 H     1 <1>   0.1500 
 44 H        6.7200     8.7870     3.3960 H     1 <1>   0.1500 
 45 H        7.4590    10.5230     1.4870 H     1 <1>   0.1500 
@<TRIPOS>BOND
  1   1   2  1   
  2   2   3  ar  
  3   2   4  ar  
  4   3   5  1   
  5   3   6  ar  
  6   4   7  ar  
  7   4  26  1   
  8   5   8  1   
  9   6   9  ar  
 10   6  27  1   
 11   7   9  ar  
 12   7  28  1   
 13   8  29  1   
 14   8  30  1   
 15   8  31  1   
 16   9  10  1   
 17  10  11  2   
 18  10  12  am  
 19  12  13  1   
 20  12  14  1   
 21  13  15  1   
 22  13  32  1   
 23  13  33  1   
 24  14  16  1   
 25  14  34  1   
 26  14  35  1   
 27  15  17  1   
 28  15  36  1   
 29  15  37  1   
 30  16  18  1   
 31  16  38  1   
 32  16  39  1   
 33  17  18  1   
 34  17  19  am  
 35  18  40  1   
 36  18  41  1   
 37  19  20  2   
 38  19  21  1   
 39  21  22  1   
 40  21  23  2   
 41  22  24  1   
 42  22  42  1   
 43  23  25  1   
 44  23  43  1   
 45  24  25  2   
 46  24  44  1   
 47  25  45  1   
@<TRIPOS>SUBSTRUCTURE
  1 ****  10 GROUP 4 **** **** 0

# MOE 2024.06 (io_trps.svl 2023.06)
