@<TRIPOS>MOLECULE
NONAME
53 56 1 0 0 
SMALL
USER_CHARGES


@<TRIPOS>ATOM
  1 O        0.0690    -0.1180     1.0920 O.2   1 <1>  -0.5700 
  2 C       -0.0010    -1.0290     0.2930 C.2   1 <1>   0.5440 
  3 N       -0.9570    -0.9090    -0.6530 N.am  1 <1>  -0.8000 
  4 C        0.9040    -2.1580     0.3470 C.ar  1 <1>   0.0860 
  5 C        0.5750    -3.4430    -0.1450 C.ar  1 <1>   0.4100 
  6 C        2.1720    -1.9860     0.8900 C.ar  1 <1>  -0.1500 
  7 N        1.4320    -4.4640    -0.1580 N.ar  1 <1>  -0.6200 
  8 N       -0.6890    -3.7550    -0.6260 N.pl3 1 <1>  -0.8380 
  9 C        3.0410    -3.0510     0.8930 C.ar  1 <1>  -0.1500 
 10 C        2.6260    -4.2530     0.3550 C.ar  1 <1>   0.1600 
 11 C       -0.8530    -4.5860    -1.8550 C.3   1 <1>   0.2090 
 12 C       -1.8130    -3.8580     0.3440 C.3   1 <1>   0.2090 
 13 C       -1.1120    -6.0480    -1.4890 C.3   1 <1>  -0.1600 
 14 C       -2.0300    -5.3190     0.7290 C.3   1 <1>  -0.1600 
 15 C       -2.2760    -6.1990    -0.5050 C.3   1 <1>   0.4240 
 16 O       -3.4080    -5.7030    -1.1840 O.3   1 <1>  -0.5600 
 17 C       -2.4560    -7.6800    -0.1040 C.ar  1 <1>  -0.1440 
 18 C       -4.6610    -6.1130    -0.7330 C.3   1 <1>   0.1200 
 19 C       -3.6510    -8.3500    -0.3290 C.ar  1 <1>  -0.1440 
 20 C       -1.4170    -8.3760     0.5020 C.ar  1 <1>  -0.1500 
 21 C       -4.8050    -7.6120    -0.9780 C.3   1 <1>  -0.0170 
 22 C       -3.7970    -9.6790     0.0370 C.ar  1 <1>  -0.1500 
 23 C       -1.5430    -9.7040     0.8690 C.ar  1 <1>   0.0830 
 24 C       -2.7550   -10.3740     0.6460 C.ar  1 <1>   0.0830 
 25 O       -0.4330   -10.2520     1.4400 O.3   1 <1>  -0.3630 
 26 O       -2.9000   -11.6740     1.0420 O.3   1 <1>  -0.3620 
 27 C       -0.0800   -11.5920     1.1800 C.3   1 <1>   0.0400 
 28 C       -4.1440   -12.3370     1.0010 C.3   1 <1>   0.0400 
 29 H       -1.6140    -0.1310    -0.6200 H     1 <1>   0.3700 
 30 H       -1.2110    -1.7380    -1.2020 H     1 <1>   0.3700 
 31 H        2.4630    -1.0310     1.2950 H     1 <1>   0.1500 
 32 H        4.0310    -2.9530     1.3020 H     1 <1>   0.1500 
 33 H        3.3120    -5.0830     0.3500 H     1 <1>   0.1500 
 34 H        0.0350    -4.5170    -2.4610 H     1 <1>   0.0800 
 35 H       -1.6800    -4.2040    -2.4290 H     1 <1>   0.0800 
 36 H       -2.7070    -3.4570    -0.1040 H     1 <1>   0.0800 
 37 H       -1.5920    -3.2830     1.2270 H     1 <1>   0.0800 
 38 H       -0.2120    -6.4470    -1.0610 H     1 <1>   0.0800 
 39 H       -1.3220    -6.6150    -2.3770 H     1 <1>   0.0800 
 40 H       -2.8500    -5.4040     1.4150 H     1 <1>   0.0800 
 41 H       -1.1510    -5.6610     1.2440 H     1 <1>   0.0800 
 42 H       -5.4050    -5.5680    -1.2840 H     1 <1>   0.0800 
 43 H       -4.7550    -5.8810     0.3130 H     1 <1>   0.0800 
 44 H       -0.4790    -7.8910     0.7000 H     1 <1>   0.1500 
 45 H       -4.8100    -7.8030    -2.0360 H     1 <1>   0.0800 
 46 H       -5.7410    -7.9480    -0.5680 H     1 <1>   0.0800 
 47 H       -4.7350   -10.1570    -0.1610 H     1 <1>   0.1500 
 48 H        0.9720   -11.7040     1.3710 H     1 <1>   0.0800 
 49 H       -0.2960   -11.8210     0.1510 H     1 <1>   0.0800 
 50 H       -0.6380   -12.2320     1.8390 H     1 <1>   0.0800 
 51 H       -4.0150   -13.3140     1.4290 H     1 <1>   0.0800 
 52 H       -4.4590   -12.4260    -0.0230 H     1 <1>   0.0800 
 53 H       -4.8580   -11.7770     1.5800 H     1 <1>   0.0800 
@<TRIPOS>BOND
  1   1   2  2   
  2   2   3  am  
  3   2   4  1   
  4   3  29  1   
  5   3  30  1   
  6   4   5  ar  
  7   4   6  ar  
  8   5   7  ar  
  9   5   8  1   
 10   6   9  ar  
 11   6  31  1   
 12   7  10  ar  
 13   8  11  1   
 14   8  12  1   
 15   9  10  ar  
 16   9  32  1   
 17  10  33  1   
 18  11  13  1   
 19  11  34  1   
 20  11  35  1   
 21  12  14  1   
 22  12  36  1   
 23  12  37  1   
 24  13  15  1   
 25  13  38  1   
 26  13  39  1   
 27  14  15  1   
 28  14  40  1   
 29  14  41  1   
 30  15  16  1   
 31  15  17  1   
 32  16  18  1   
 33  17  19  ar  
 34  17  20  ar  
 35  18  21  1   
 36  18  42  1   
 37  18  43  1   
 38  19  21  1   
 39  19  22  ar  
 40  20  23  ar  
 41  20  44  1   
 42  21  45  1   
 43  21  46  1   
 44  22  24  ar  
 45  22  47  1   
 46  23  24  ar  
 47  23  25  1   
 48  24  26  1   
 49  25  27  1   
 50  26  28  1   
 51  27  48  1   
 52  27  49  1   
 53  27  50  1   
 54  28  51  1   
 55  28  52  1   
 56  28  53  1   
@<TRIPOS>SUBSTRUCTURE
  1 ****  15 GROUP 4 **** **** 0

# MOE 2024.06 (io_trps.svl 2023.06)
