@<TRIPOS>MOLECULE
NONAME
49 51 1 0 0 
SMALL
USER_CHARGES


@<TRIPOS>ATOM
  1 O       -3.0120    -1.3960     0.8800 O.co2 1 <1>  -0.9000 
  2 C       -3.4120    -0.3050     1.3090 C.2   1 <1>   0.9790 
  3 O       -4.2940    -0.3180     2.1810 O.co2 1 <1>  -0.9000 
  4 C       -3.2620     0.9010     0.5250 C.ar  1 <1>  -0.1790 
  5 C       -3.9700     1.0200    -0.6770 C.ar  1 <1>  -0.1440 
  6 C       -2.4780     1.9740     0.9420 C.ar  1 <1>  -0.1500 
  7 C       -3.8910     2.1820    -1.4280 C.ar  1 <1>  -0.1500 
  8 C       -4.8050    -0.1650    -1.1460 C.3   1 <1>   0.4870 
  9 C       -2.4000     3.1310     0.1900 C.ar  1 <1>  -0.1500 
 10 C       -3.1070     3.2370    -0.9950 C.ar  1 <1>  -0.1500 
 11 N       -5.8470    -0.4740    -0.1310 N.4   1 <1>  -0.9590 
 12 C       -6.0280    -1.9510     0.0170 C.3   1 <1>   0.3430 
 13 C       -7.0820     0.3300    -0.2430 C.3   1 <1>   0.3430 
 14 C       -6.6760    -2.3530     1.3560 C.3   1 <1>   0.1400 
 15 C       -7.5160     0.8480     1.1290 C.3   1 <1>  -0.1600 
 16 N       -7.9160    -1.5610     1.6440 N.am  1 <1>  -0.6600 
 17 C       -7.6480    -0.2180     2.2250 C.3   1 <1>   0.1400 
 18 C       -9.1870    -1.9680     1.3060 C.2   1 <1>   0.5440 
 19 O      -10.0670    -1.1330     1.2370 O.2   1 <1>  -0.5700 
 20 C       -9.4690    -3.3520     0.9920 C.ar  1 <1>   0.0860 
 21 C       -9.8350    -3.7680    -0.2930 C.ar  1 <1>   0.1670 
 22 C       -9.3600    -4.3280     1.9740 C.ar  1 <1>  -0.1500 
 23 N      -10.0500    -5.0250    -0.6460 N.ar  1 <1>  -0.6200 
 24 C      -10.0140    -2.7540    -1.4110 C.3   1 <1>  -0.0970 
 25 C       -9.5980    -5.6370     1.6210 C.ar  1 <1>  -0.1500 
 26 C       -9.9330    -5.9300     0.3120 C.ar  1 <1>   0.1600 
 27 H       -1.9340     1.8940     1.8690 H     1 <1>   0.1500 
 28 H       -4.4280     2.2780    -2.3550 H     1 <1>   0.1500 
 29 H       -4.1420    -1.0100    -1.2480 H     1 <1>   0.0800 
 30 H       -5.2550     0.0370    -2.1020 H     1 <1>   0.0800 
 31 H       -1.7890     3.9490     0.5280 H     1 <1>   0.1500 
 32 H       -3.0420     4.1390    -1.5770 H     1 <1>   0.1500 
 33 H       -5.4050    -0.2170     0.7860 H     1 <1>   0.4500 
 34 H       -5.0590    -2.4260    -0.0250 H     1 <1>   0.0800 
 35 H       -6.6220    -2.3310    -0.7960 H     1 <1>   0.0800 
 36 H       -7.8710    -0.2710    -0.6630 H     1 <1>   0.0800 
 37 H       -6.9120     1.1740    -0.8900 H     1 <1>   0.0800 
 38 H       -5.9600    -2.2050     2.1470 H     1 <1>   0.0800 
 39 H       -6.8940    -3.4040     1.3310 H     1 <1>   0.0800 
 40 H       -8.4740     1.3220     1.0120 H     1 <1>   0.0800 
 41 H       -6.8300     1.6060     1.4620 H     1 <1>   0.0800 
 42 H       -8.4480     0.0510     2.8960 H     1 <1>   0.0800 
 43 H       -6.7420    -0.2530     2.8070 H     1 <1>   0.0800 
 44 H       -9.0950    -4.0600     2.9830 H     1 <1>   0.1500 
 45 H       -9.1690    -2.0940    -1.4640 H     1 <1>   0.0800 
 46 H      -10.9020    -2.1750    -1.2300 H     1 <1>   0.0800 
 47 H      -10.1200    -3.2510    -2.3590 H     1 <1>   0.0800 
 48 H       -9.5270    -6.4260     2.3490 H     1 <1>   0.1500 
 49 H      -10.1160    -6.9560     0.0380 H     1 <1>   0.1500 
@<TRIPOS>BOND
  1   1   2  ar  
  2   2   3  ar  
  3   2   4  1   
  4   4   5  ar  
  5   4   6  ar  
  6   5   7  ar  
  7   5   8  1   
  8   6   9  ar  
  9   6  27  1   
 10   7  10  ar  
 11   7  28  1   
 12   8  11  1   
 13   8  29  1   
 14   8  30  1   
 15   9  10  ar  
 16   9  31  1   
 17  10  32  1   
 18  11  12  1   
 19  11  13  1   
 20  11  33  1   
 21  12  14  1   
 22  12  34  1   
 23  12  35  1   
 24  13  15  1   
 25  13  36  1   
 26  13  37  1   
 27  14  16  1   
 28  14  38  1   
 29  14  39  1   
 30  15  17  1   
 31  15  40  1   
 32  15  41  1   
 33  16  17  1   
 34  16  18  am  
 35  17  42  1   
 36  17  43  1   
 37  18  19  2   
 38  18  20  1   
 39  20  21  ar  
 40  20  22  ar  
 41  21  23  ar  
 42  21  24  1   
 43  22  25  ar  
 44  22  44  1   
 45  23  26  ar  
 46  24  45  1   
 47  24  46  1   
 48  24  47  1   
 49  25  26  ar  
 50  25  48  1   
 51  26  49  1   
@<TRIPOS>SUBSTRUCTURE
  1 ****  12 GROUP 4 **** **** 0

# MOE 2024.06 (io_trps.svl 2023.06)
