@<TRIPOS>MOLECULE
NONAME
52 55 1 0 0 
SMALL
USER_CHARGES


@<TRIPOS>ATOM
  1 O        4.2110     0.3880     1.1230 O.2   1 <1>  -0.5700 
  2 C        3.3350    -0.2110     0.5250 C.2   1 <1>   0.5440 
  3 N        2.7300     0.4680    -0.5030 N.am  1 <1>  -0.6600 
  4 C        3.0150    -1.5970     0.8170 C.ar  1 <1>   0.0860 
  5 C        3.1430     0.1730    -1.9080 C.3   1 <1>   0.1400 
  6 C        2.0990     1.7980    -0.2760 C.3   1 <1>   0.1400 
  7 C        1.7940    -2.1540     0.4440 C.ar  1 <1>  -0.1500 
  8 C        3.9420    -2.4220     1.4850 C.ar  1 <1>  -0.1500 
  9 C        4.5850     0.6500    -2.1910 C.3   1 <1>   0.3430 
 10 C        3.1250     2.9430    -0.2180 C.3   1 <1>  -0.1600 
 11 C        1.5100    -3.4890     0.7200 C.ar  1 <1>   0.0000 
 12 C        3.6730    -3.7460     1.7650 C.ar  1 <1>  -0.1500 
 13 N        5.0070     1.7670    -1.2810 N.4   1 <1>  -0.9590 
 14 C        4.1470     2.9740    -1.3560 C.3   1 <1>   0.3430 
 15 C        2.4480    -4.2660     1.3740 C.ar  1 <1>   0.1400 
 16 C        0.4220    -4.3570     0.4980 C.2   1 <1>  -0.1500 
 17 C        6.4570     2.0640    -1.3640 C.3   1 <1>   0.4860 
 18 O        1.9920    -5.5040     1.5430 O.3   1 <1>  -0.2800 
 19 C        0.7740    -5.5490     1.0140 C.2   1 <1>  -0.0400 
 20 C        6.9970     2.1840     0.0520 C.ar  1 <1>  -0.1430 
 21 C        0.0240    -6.8620     1.0770 C.3   1 <1>  -0.0600 
 22 C        7.2940     1.0340     0.7900 C.ar  1 <1>   0.0730 
 23 C        7.1940     3.4390     0.6090 C.ar  1 <1>  -0.1500 
 24 C        7.0930    -0.2710     0.2250 C.1   1 <1>   0.4840 
 25 C        7.7790     1.1760     2.0840 C.ar  1 <1>  -0.1500 
 26 C        7.6790     3.5610     1.8980 C.ar  1 <1>  -0.1500 
 27 N        6.8640    -1.2250    -0.3570 N.1   1 <1>  -0.5570 
 28 C        7.9710     2.4290     2.6360 C.ar  1 <1>  -0.1500 
 29 H        2.4640     0.6530    -2.5910 H     1 <1>   0.0800 
 30 H        3.0810    -0.8870    -2.0880 H     1 <1>   0.0800 
 31 H        1.5570     1.7690     0.6560 H     1 <1>   0.0800 
 32 H        1.3820     1.9860    -1.0570 H     1 <1>   0.0800 
 33 H        1.0500    -1.5630    -0.0580 H     1 <1>   0.1500 
 34 H        4.8880    -2.0040     1.7820 H     1 <1>   0.1500 
 35 H        4.6720     0.9470    -3.2230 H     1 <1>   0.0800 
 36 H        5.2430    -0.1910    -2.0390 H     1 <1>   0.0800 
 37 H        3.6420     2.9130     0.7250 H     1 <1>   0.0800 
 38 H        2.5800     3.8700    -0.2320 H     1 <1>   0.0800 
 39 H        4.3790    -4.3780     2.2730 H     1 <1>   0.1500 
 40 H        4.8340     1.3860    -0.3220 H     1 <1>   0.4500 
 41 H        4.7530     3.8600    -1.2450 H     1 <1>   0.0800 
 42 H        3.6470     3.0240    -2.3090 H     1 <1>   0.0800 
 43 H       -0.4920    -4.0770     0.0070 H     1 <1>   0.1500 
 44 H        6.6260     2.9760    -1.9110 H     1 <1>   0.0800 
 45 H        6.9720     1.2650    -1.8730 H     1 <1>   0.0800 
 46 H       -0.9410    -6.7620     0.6170 H     1 <1>   0.0800 
 47 H       -0.1040    -7.1570     2.1020 H     1 <1>   0.0800 
 48 H        0.5830    -7.6220     0.5620 H     1 <1>   0.0800 
 49 H        6.9760     4.3350     0.0530 H     1 <1>   0.1500 
 50 H        8.0080     0.3020     2.6710 H     1 <1>   0.1500 
 51 H        7.8320     4.5360     2.3310 H     1 <1>   0.1500 
 52 H        8.3470     2.5250     3.6420 H     1 <1>   0.1500 
@<TRIPOS>BOND
  1   1   2  2   
  2   2   3  am  
  3   2   4  1   
  4   3   5  1   
  5   3   6  1   
  6   4   7  ar  
  7   4   8  ar  
  8   5   9  1   
  9   5  29  1   
 10   5  30  1   
 11   6  10  1   
 12   6  31  1   
 13   6  32  1   
 14   7  11  ar  
 15   7  33  1   
 16   8  12  ar  
 17   8  34  1   
 18   9  13  1   
 19   9  35  1   
 20   9  36  1   
 21  10  14  1   
 22  10  37  1   
 23  10  38  1   
 24  11  15  ar  
 25  11  16  1   
 26  12  15  ar  
 27  12  39  1   
 28  13  14  1   
 29  13  17  1   
 30  13  40  1   
 31  14  41  1   
 32  14  42  1   
 33  15  18  1   
 34  16  19  2   
 35  16  43  1   
 36  17  20  1   
 37  17  44  1   
 38  17  45  1   
 39  18  19  1   
 40  19  21  1   
 41  20  22  ar  
 42  20  23  ar  
 43  21  46  1   
 44  21  47  1   
 45  21  48  1   
 46  22  24  1   
 47  22  25  ar  
 48  23  26  ar  
 49  23  49  1   
 50  24  27  3   
 51  25  28  ar  
 52  25  50  1   
 53  26  28  ar  
 54  26  51  1   
 55  28  52  1   
@<TRIPOS>SUBSTRUCTURE
  1 ****   2 GROUP 4 **** **** 0

# MOE 2024.06 (io_trps.svl 2023.06)
