@<TRIPOS>MOLECULE
NONAME
43 44 1 0 0 
SMALL
USER_CHARGES


@<TRIPOS>ATOM
  1 O       -0.2810    -0.2400     1.8620 O.2   1 <1>  -0.5700 
  2 C       -1.0410     0.5400     1.3390 C.2   1 <1>   0.5690 
  3 N       -2.1280     0.1200     0.6260 N.am  1 <1>  -0.6600 
  4 C       -0.7360     2.0140     1.4700 C.3   1 <1>  -0.0990 
  5 C       -3.0960     0.9770    -0.1130 C.3   1 <1>   0.1400 
  6 C       -2.4570    -1.3130     0.4530 C.3   1 <1>   0.1400 
  7 C        0.1190     2.4580     0.2870 C.3   1 <1>   0.1400 
  8 C       -3.9560    -0.0020    -0.9130 C.3   1 <1>   0.2000 
  9 C       -3.8520    -1.3340    -0.1730 C.3   1 <1>  -0.0800 
 10 N        0.1490     3.9350     0.2220 N.am  1 <1>  -0.7300 
 11 O       -5.2790     0.4040    -0.9760 O.3   1 <1>  -0.6800 
 12 C       -4.1010    -2.5490    -1.0780 C.3   1 <1>   0.0210 
 13 C       -0.7990     4.6820    -0.3930 C.2   1 <1>   0.5690 
 14 C       -3.8500    -3.8430    -0.3310 C.2   1 <1>   0.1080 
 15 O       -1.7760     4.1900    -0.9020 O.2   1 <1>  -0.5700 
 16 C       -0.6220     6.1770    -0.4240 C.3   1 <1>  -0.1790 
 17 N       -4.5470    -4.2080     0.7000 N.2   1 <1>  -0.7070 
 18 C       -2.8540    -4.7620    -0.6440 C.2   1 <1>  -0.1500 
 19 N       -4.0100    -5.3840     1.0750 N.pl3 1 <1>   0.3000 
 20 C       -2.9810    -5.7400     0.2770 C.2   1 <1>  -0.3320 
 21 C       -2.1700    -7.0110     0.4480 C.3   1 <1>  -0.0600 
 22 H       -1.6540     2.5700     1.5030 H     1 <1>   0.0800 
 23 H       -0.2030     2.1810     2.3880 H     1 <1>   0.0800 
 24 H       -3.6970     1.5250     0.5920 H     1 <1>   0.0800 
 25 H       -2.5850     1.6580    -0.7710 H     1 <1>   0.0800 
 26 H       -1.7310    -1.7610    -0.2030 H     1 <1>   0.0800 
 27 H       -2.4450    -1.8290     1.4000 H     1 <1>   0.0800 
 28 H       -0.3010     2.0770    -0.6290 H     1 <1>   0.0800 
 29 H        1.1190     2.0690     0.3830 H     1 <1>   0.0800 
 30 H       -3.5750    -0.0770    -1.9170 H     1 <1>   0.0800 
 31 H       -4.5580    -1.3530     0.6390 H     1 <1>   0.0800 
 32 H        0.9450     4.3920     0.6700 H     1 <1>   0.3700 
 33 H       -5.6780     0.3900    -0.0850 H     1 <1>   0.4000 
 34 H       -3.4610    -2.5060    -1.9400 H     1 <1>   0.0800 
 35 H       -5.1210    -2.5390    -1.4190 H     1 <1>   0.0800 
 36 H        0.3030     6.4230    -0.9090 H     1 <1>   0.0800 
 37 H       -0.6200     6.5620     0.5780 H     1 <1>   0.0800 
 38 H       -1.4320     6.6260    -0.9690 H     1 <1>   0.0800 
 39 H       -2.1470    -4.6840    -1.4510 H     1 <1>   0.1500 
 40 H       -4.3650    -5.9150     1.8790 H     1 <1>   0.2700 
 41 H       -1.4080    -7.0680    -0.3100 H     1 <1>   0.0800 
 42 H       -2.8060    -7.8740     0.3600 H     1 <1>   0.0800 
 43 H       -1.6930    -7.0210     1.4120 H     1 <1>   0.0800 
@<TRIPOS>BOND
  1   1   2  2   
  2   2   3  am  
  3   2   4  1   
  4   3   5  1   
  5   3   6  1   
  6   4   7  1   
  7   4  22  1   
  8   4  23  1   
  9   5   8  1   
 10   5  24  1   
 11   5  25  1   
 12   6   9  1   
 13   6  26  1   
 14   6  27  1   
 15   7  10  1   
 16   7  28  1   
 17   7  29  1   
 18   8   9  1   
 19   8  11  1   
 20   8  30  1   
 21   9  12  1   
 22   9  31  1   
 23  10  13  am  
 24  10  32  1   
 25  11  33  1   
 26  12  14  1   
 27  12  34  1   
 28  12  35  1   
 29  13  15  2   
 30  13  16  1   
 31  14  17  2   
 32  14  18  1   
 33  16  36  1   
 34  16  37  1   
 35  16  38  1   
 36  17  19  1   
 37  18  20  2   
 38  18  39  1   
 39  19  20  1   
 40  19  40  1   
 41  20  21  1   
 42  21  41  1   
 43  21  42  1   
 44  21  43  1   
@<TRIPOS>SUBSTRUCTURE
  1 ****   3 GROUP 4 **** **** 0

# MOE 2024.06 (io_trps.svl 2023.06)
