@<TRIPOS>MOLECULE
NONAME
55 58 1 0 0 
SMALL
USER_CHARGES


@<TRIPOS>ATOM
  1 S       -0.7430     0.8480     1.2260 S.o2  1 <1>   1.4470 
  2 O       -0.5000     0.5810     2.6270 O.2   1 <1>  -0.6500 
  3 O       -1.8430     1.7070     0.8490 O.2   1 <1>  -0.6500 
  4 N       -1.0560    -0.6590     0.5100 N.am  1 <1>  -0.8490 
  5 C        0.8200     1.3940     0.4540 C.ar  1 <1>  -0.0090 
  6 C       -1.9320    -1.5010     1.3520 C.3   1 <1>   0.1960 
  7 C       -1.4330    -0.5910    -0.9230 C.3   1 <1>   0.1960 
  8 C        1.1930     2.7380     0.3630 C.ar  1 <1>  -0.1440 
  9 C        1.7050     0.4470    -0.0500 C.ar  1 <1>  -0.1500 
 10 C       -2.3520    -2.7410     0.5420 C.3   1 <1>   0.4230 
 11 C       -2.9040    -0.9610    -1.1790 C.3   1 <1>  -0.1600 
 12 C        2.3860     3.0930    -0.2480 C.ar  1 <1>  -0.1500 
 13 C        0.3150     3.8510     0.9240 C.3   1 <1>  -0.0960 
 14 C        2.9050     0.7850    -0.6670 C.ar  1 <1>  -0.0230 
 15 N       -2.8520    -3.9460     1.2820 N.4   1 <1>  -0.9590 
 16 C       -3.3630    -2.3060    -0.5340 C.3   1 <1>  -0.1060 
 17 C        3.2320     2.1310    -0.7630 C.ar  1 <1>  -0.1500 
 18 N        3.7620    -0.2310    -1.1860 N.pl3 1 <1>   0.5930 
 19 C       -2.9830    -5.1130     0.3650 C.3   1 <1>   0.3430 
 20 C       -2.1270    -4.2710     2.5380 C.3   1 <1>   0.2630 
 21 C       -4.7570    -2.0960     0.0850 C.2   1 <1>   0.9060 
 22 C       -3.4150    -3.4560    -1.5660 C.3   1 <1>  -0.1600 
 23 N        3.3000    -1.4210    -1.6570 N.2   1 <1>  -0.7070 
 24 C        5.1140    -0.1950    -1.2930 C.2   1 <1>  -0.3020 
 25 C       -3.8260    -4.7730    -0.8740 C.3   1 <1>  -0.1600 
 26 O       -5.6800    -1.7470    -0.6480 O.co2 1 <1>  -0.9000 
 27 O       -4.9370    -2.3520     1.2860 O.co2 1 <1>  -0.9000 
 28 C        4.3500    -2.0760    -2.0430 C.2   1 <1>   0.1390 
 29 C        5.5210    -1.3580    -1.8400 C.2   1 <1>  -0.1500 
 30 H       -1.3830    -1.7840     2.2310 H     1 <1>   0.0800 
 31 H       -2.8030    -0.9410     1.6570 H     1 <1>   0.0800 
 32 H       -1.2390     0.3920    -1.3210 H     1 <1>   0.0800 
 33 H       -0.8080    -1.2790    -1.4680 H     1 <1>   0.0800 
 34 H        1.4600    -0.5980     0.0340 H     1 <1>   0.1500 
 35 H       -1.4560    -3.0510     0.0320 H     1 <1>   0.0800 
 36 H       -3.5000    -0.1540    -0.7820 H     1 <1>   0.0800 
 37 H       -3.0970    -0.9730    -2.2370 H     1 <1>   0.0800 
 38 H        2.6660     4.1300    -0.3270 H     1 <1>   0.1500 
 39 H        0.8440     4.7860     0.9500 H     1 <1>   0.0800 
 40 H        0.0060     3.6200     1.9280 H     1 <1>   0.0800 
 41 H       -0.5600     3.9760     0.3110 H     1 <1>   0.0800 
 42 H       -3.8280    -3.6280     1.5370 H     1 <1>   0.4500 
 43 H        4.1460     2.4370    -1.2410 H     1 <1>   0.1500 
 44 H       -2.0010    -5.4220     0.0460 H     1 <1>   0.0800 
 45 H       -3.4420    -5.9370     0.8880 H     1 <1>   0.0800 
 46 H       -1.0900    -4.4780     2.3290 H     1 <1>   0.0800 
 47 H       -2.5710    -5.1330     3.0080 H     1 <1>   0.0800 
 48 H       -2.1890    -3.4430     3.2250 H     1 <1>   0.0800 
 49 H       -4.1380    -3.2200    -2.3310 H     1 <1>   0.0800 
 50 H       -2.4560    -3.5730    -2.0390 H     1 <1>   0.0800 
 51 H        5.6970     0.6470    -0.9730 H     1 <1>   0.1500 
 52 H       -3.7540    -5.5820    -1.5800 H     1 <1>   0.0800 
 53 H       -4.8600    -4.7120    -0.5780 H     1 <1>   0.0800 
 54 H        4.3110    -3.0650    -2.4710 H     1 <1>   0.1500 
 55 H        6.5170    -1.6900    -2.0760 H     1 <1>   0.1500 
@<TRIPOS>BOND
  1   1   2  2   
  2   1   3  2   
  3   1   4  am  
  4   1   5  1   
  5   4   6  1   
  6   4   7  1   
  7   5   8  ar  
  8   5   9  ar  
  9   6  10  1   
 10   6  30  1   
 11   6  31  1   
 12   7  11  1   
 13   7  32  1   
 14   7  33  1   
 15   8  12  ar  
 16   8  13  1   
 17   9  14  ar  
 18   9  34  1   
 19  10  15  1   
 20  10  16  1   
 21  10  35  1   
 22  11  16  1   
 23  11  36  1   
 24  11  37  1   
 25  12  17  ar  
 26  12  38  1   
 27  13  39  1   
 28  13  40  1   
 29  13  41  1   
 30  14  17  ar  
 31  14  18  1   
 32  15  19  1   
 33  15  20  1   
 34  15  42  1   
 35  16  21  1   
 36  16  22  1   
 37  17  43  1   
 38  18  23  1   
 39  18  24  1   
 40  19  25  1   
 41  19  44  1   
 42  19  45  1   
 43  20  46  1   
 44  20  47  1   
 45  20  48  1   
 46  21  26  ar  
 47  21  27  ar  
 48  22  25  1   
 49  22  49  1   
 50  22  50  1   
 51  23  28  2   
 52  24  29  2   
 53  24  51  1   
 54  25  52  1   
 55  25  53  1   
 56  28  29  1   
 57  28  54  1   
 58  29  55  1   
@<TRIPOS>SUBSTRUCTURE
  1 ****   4 GROUP 4 **** **** 0

# MOE 2024.06 (io_trps.svl 2023.06)
