@<TRIPOS>MOLECULE
NONAME
52 53 1 0 0 
SMALL
USER_CHARGES


@<TRIPOS>ATOM
  1 S       -0.0580     0.6460     0.0380 S.3   1 <1>  -0.0800 
  2 C        1.1210    -0.1780     1.0300 C.2   1 <1>   0.1980 
  3 C        1.2390     1.4720    -0.7750 C.2   1 <1>  -0.1400 
  4 N        2.3270     0.1320     0.7810 N.2   1 <1>  -0.5650 
  5 C        0.6000    -1.1540     2.0590 C.3   1 <1>  -0.0600 
  6 C        2.4100     1.0710    -0.2440 C.2   1 <1>   0.0460 
  7 C        0.8510     2.4410    -1.8760 C.3   1 <1>  -0.0600 
  8 C        3.8200     1.5270    -0.6470 C.3   1 <1>   0.3710 
  9 N        3.9300     3.0090    -0.7860 N.3   1 <1>  -0.8100 
 10 C        4.1950     0.8100    -1.9480 C.3   1 <1>  -0.2400 
 11 C        5.2920     3.4560    -1.2220 C.3   1 <1>   0.1710 
 12 C        3.4930     3.6880     0.4510 C.3   1 <1>   0.0300 
 13 C        5.5150     4.9670    -1.3860 C.2   1 <1>   0.5690 
 14 O        5.4480     5.4460    -2.4940 O.2   1 <1>  -0.5700 
 15 N        5.8400     5.6960    -0.2700 N.am  1 <1>  -0.5470 
 16 C        6.1040     7.0650    -0.0990 C.ar  1 <1>   0.1170 
 17 C        5.6770     8.0400    -0.9950 C.ar  1 <1>  -0.1500 
 18 C        6.8100     7.4700     1.0280 C.ar  1 <1>  -0.1500 
 19 C        5.9510     9.3790    -0.7780 C.ar  1 <1>  -0.1500 
 20 C        7.0860     8.8070     1.2500 C.ar  1 <1>  -0.1500 
 21 C        6.6630     9.7720     0.3520 C.ar  1 <1>   0.0820 
 22 O        6.9810    11.0610     0.6540 O.3   1 <1>  -0.3620 
 23 C        6.7090    12.1410    -0.2110 C.3   1 <1>   0.2000 
 24 C        7.7660    12.1700    -1.3180 C.3   1 <1>  -0.2400 
 25 C        6.7640    13.4120     0.6330 C.3   1 <1>  -0.2400 
 26 H       -0.0440    -0.6440     2.7510 H     1 <1>   0.0800 
 27 H        1.4230    -1.5870     2.5970 H     1 <1>   0.0800 
 28 H        0.0500    -1.9360     1.5710 H     1 <1>   0.0800 
 29 H        0.2400     3.2270    -1.4710 H     1 <1>   0.0800 
 30 H        0.2980     1.9250    -2.6400 H     1 <1>   0.0800 
 31 H        1.7250     2.8800    -2.3210 H     1 <1>   0.0800 
 32 H        4.4960     1.2070     0.1280 H     1 <1>   0.0800 
 33 H        3.6470     1.2260    -2.7730 H     1 <1>   0.0800 
 34 H        3.9410    -0.2310    -1.8620 H     1 <1>   0.0800 
 35 H        5.2490     0.8680    -2.1380 H     1 <1>   0.0800 
 36 H        5.5040     3.0310    -2.1860 H     1 <1>   0.0800 
 37 H        6.0270     3.0770    -0.5350 H     1 <1>   0.0800 
 38 H        2.4990     3.3810     0.7260 H     1 <1>   0.0800 
 39 H        3.4560     4.7530     0.3000 H     1 <1>   0.0800 
 40 H        4.1590     3.4590     1.2650 H     1 <1>   0.0800 
 41 H        5.8990     5.1510     0.5860 H     1 <1>   0.3700 
 42 H        5.1210     7.7580    -1.8700 H     1 <1>   0.1500 
 43 H        7.1520     6.7400     1.7370 H     1 <1>   0.1500 
 44 H        5.6040    10.0930    -1.4990 H     1 <1>   0.1500 
 45 H        7.6340     9.1140     2.1220 H     1 <1>   0.1500 
 46 H        5.7160    12.0280    -0.6110 H     1 <1>   0.0800 
 47 H        8.7480    12.2670    -0.8910 H     1 <1>   0.0800 
 48 H        7.5910    13.0080    -1.9690 H     1 <1>   0.0800 
 49 H        7.7250    11.2730    -1.9070 H     1 <1>   0.0800 
 50 H        7.7380    13.5280     1.0720 H     1 <1>   0.0800 
 51 H        6.0250    13.3640     1.4130 H     1 <1>   0.0800 
 52 H        6.5570    14.2700     0.0200 H     1 <1>   0.0800 
@<TRIPOS>BOND
  1   1   2  1   
  2   1   3  1   
  3   2   4  2   
  4   2   5  1   
  5   3   6  2   
  6   3   7  1   
  7   4   6  1   
  8   5  26  1   
  9   5  27  1   
 10   5  28  1   
 11   6   8  1   
 12   7  29  1   
 13   7  30  1   
 14   7  31  1   
 15   8   9  1   
 16   8  10  1   
 17   8  32  1   
 18   9  11  1   
 19   9  12  1   
 20  10  33  1   
 21  10  34  1   
 22  10  35  1   
 23  11  13  1   
 24  11  36  1   
 25  11  37  1   
 26  12  38  1   
 27  12  39  1   
 28  12  40  1   
 29  13  14  2   
 30  13  15  am  
 31  15  16  1   
 32  15  41  1   
 33  16  17  ar  
 34  16  18  ar  
 35  17  19  ar  
 36  17  42  1   
 37  18  20  ar  
 38  18  43  1   
 39  19  21  ar  
 40  19  44  1   
 41  20  21  ar  
 42  20  45  1   
 43  21  22  1   
 44  22  23  1   
 45  23  24  1   
 46  23  25  1   
 47  23  46  1   
 48  24  47  1   
 49  24  48  1   
 50  24  49  1   
 51  25  50  1   
 52  25  51  1   
 53  25  52  1   
@<TRIPOS>SUBSTRUCTURE
  1 ****  15 GROUP 4 **** **** 0

# MOE 2024.06 (io_trps.svl 2023.06)
