@<TRIPOS>MOLECULE
NONAME
52 53 1 0 0 
SMALL
USER_CHARGES


@<TRIPOS>ATOM
  1 F       -0.3380     0.4230    -0.1100 F     1 <1>  -0.1900 
  2 C       -1.6150     0.6890    -0.2110 C.ar  1 <1>   0.1900 
  3 C       -2.1940     1.7970     0.4170 C.ar  1 <1>   0.0830 
  4 C       -2.3660    -0.1820    -0.9770 C.ar  1 <1>  -0.1500 
  5 O       -1.5630     2.7250     1.1940 O.3   1 <1>  -0.3630 
  6 C       -3.5550     1.9940     0.2460 C.ar  1 <1>  -0.1500 
  7 C       -3.7210     0.0450    -1.1280 C.ar  1 <1>  -0.1500 
  8 C       -0.1900     2.6580     1.5080 C.3   1 <1>   0.0400 
  9 C       -4.3470     1.1330    -0.5170 C.ar  1 <1>   0.0530 
 10 C       -5.7580     1.3860    -0.6740 C.2   1 <1>   0.0870 
 11 O       -6.1700     2.6180    -0.8380 O.3   1 <1>  -0.0190 
 12 C       -6.8630     0.5890    -0.7090 C.2   1 <1>  -0.0860 
 13 N       -7.4630     2.7090    -0.9900 N.2   1 <1>  -0.4100 
 14 C       -7.9050     1.5040    -0.9170 C.2   1 <1>   0.3720 
 15 C       -7.0020    -0.8290    -0.5610 C.2   1 <1>   0.7160 
 16 N       -9.2710     1.1870    -1.0130 N.pl3 1 <1>  -0.8210 
 17 O       -6.0970    -1.5050    -0.1090 O.2   1 <1>  -0.5700 
 18 N       -8.1680    -1.4320    -0.9290 N.am  1 <1>  -0.7300 
 19 C      -10.0000     1.9560    -2.0620 C.3   1 <1>   0.1290 
 20 C       -9.9640     1.2720     0.3020 C.3   1 <1>   0.1290 
 21 C       -8.5850    -2.8420    -0.8190 C.3   1 <1>   0.2200 
 22 C       -8.6640    -3.2390     0.6670 C.3   1 <1>  -0.1600 
 23 C       -7.6610    -3.7090    -1.6730 C.3   1 <1>  -0.2400 
 24 C       -9.2910    -4.6270     0.9300 C.3   1 <1>  -0.0800 
 25 C      -10.1020    -4.6040     2.2320 C.3   1 <1>  -0.2400 
 26 C       -8.2230    -5.7250     1.0400 C.3   1 <1>  -0.2400 
 27 H       -1.8950    -1.0270    -1.4470 H     1 <1>   0.1500 
 28 H       -4.0120     2.8420     0.7230 H     1 <1>   0.1500 
 29 H       -4.3040    -0.6330    -1.7260 H     1 <1>   0.1500 
 30 H        0.0460     3.4890     2.1480 H     1 <1>   0.0800 
 31 H        0.3820     2.7240     0.6000 H     1 <1>   0.0800 
 32 H        0.0070     1.7350     2.0230 H     1 <1>   0.0800 
 33 H       -8.9100    -0.7660    -1.1850 H     1 <1>   0.3700 
 34 H       -9.4390     1.9430    -2.9800 H     1 <1>   0.0800 
 35 H      -10.1300     2.9790    -1.7510 H     1 <1>   0.0800 
 36 H      -10.9650     1.5140    -2.2400 H     1 <1>   0.0800 
 37 H       -9.4410     0.6760     1.0310 H     1 <1>   0.0800 
 38 H      -10.9710     0.9040     0.2140 H     1 <1>   0.0800 
 39 H       -9.9860     2.2940     0.6420 H     1 <1>   0.0800 
 40 H       -9.5760    -2.9120    -1.2350 H     1 <1>   0.0800 
 41 H       -9.2660    -2.4920     1.1530 H     1 <1>   0.0800 
 42 H       -7.6850    -3.1960     1.1110 H     1 <1>   0.0800 
 43 H       -6.6930    -3.7980    -1.2150 H     1 <1>   0.0800 
 44 H       -7.5510    -3.2790    -2.6520 H     1 <1>   0.0800 
 45 H       -8.0800    -4.6910    -1.7890 H     1 <1>   0.0800 
 46 H       -9.9660    -4.8740     0.1270 H     1 <1>   0.0800 
 47 H       -9.4720    -4.3430     3.0650 H     1 <1>   0.0800 
 48 H      -10.5360    -5.5700     2.4210 H     1 <1>   0.0800 
 49 H      -10.9000    -3.8860     2.1660 H     1 <1>   0.0800 
 50 H       -7.5590    -5.5230     1.8630 H     1 <1>   0.0800 
 51 H       -7.6350    -5.7940     0.1450 H     1 <1>   0.0800 
 52 H       -8.6880    -6.6810     1.2060 H     1 <1>   0.0800 
@<TRIPOS>BOND
  1   1   2  1   
  2   2   3  ar  
  3   2   4  ar  
  4   3   5  1   
  5   3   6  ar  
  6   4   7  ar  
  7   4  27  1   
  8   5   8  1   
  9   6   9  ar  
 10   6  28  1   
 11   7   9  ar  
 12   7  29  1   
 13   8  30  1   
 14   8  31  1   
 15   8  32  1   
 16   9  10  1   
 17  10  11  1   
 18  10  12  2   
 19  11  13  1   
 20  12  14  1   
 21  12  15  1   
 22  13  14  2   
 23  14  16  1   
 24  15  17  2   
 25  15  18  am  
 26  16  19  1   
 27  16  20  1   
 28  18  21  1   
 29  18  33  1   
 30  19  34  1   
 31  19  35  1   
 32  19  36  1   
 33  20  37  1   
 34  20  38  1   
 35  20  39  1   
 36  21  22  1   
 37  21  23  1   
 38  21  40  1   
 39  22  24  1   
 40  22  41  1   
 41  22  42  1   
 42  23  43  1   
 43  23  44  1   
 44  23  45  1   
 45  24  25  1   
 46  24  26  1   
 47  24  46  1   
 48  25  47  1   
 49  25  48  1   
 50  25  49  1   
 51  26  50  1   
 52  26  51  1   
 53  26  52  1   
@<TRIPOS>SUBSTRUCTURE
  1 ****  12 GROUP 4 **** **** 0

# MOE 2024.06 (io_trps.svl 2023.06)
