@<TRIPOS>MOLECULE
NONAME
55 58 1 0 0 
SMALL
USER_CHARGES


@<TRIPOS>ATOM
  1 N        0.2120     0.5690     0.1450 N.ar  1 <1>  -0.6200 
  2 C       -0.5510     1.6050     0.5260 C.ar  1 <1>   0.4100 
  3 C        1.4980     0.6340     0.2980 C.ar  1 <1>   0.5280 
  4 N       -1.8930     1.4930     0.3450 N.pl3 1 <1>  -0.8380 
  5 C        0.0670     2.7360     1.0840 C.ar  1 <1>  -0.1500 
  6 N        2.1260     1.7020     0.8280 N.ar  1 <1>  -0.1790 
  7 C        2.3340    -0.5500    -0.1420 C.3   1 <1>  -0.0970 
  8 C       -2.9210     2.5660     0.6100 C.3   1 <1>   0.2090 
  9 C       -2.5550     0.2320    -0.1350 C.3   1 <1>   0.2090 
 10 C        1.4210     2.7760     1.2320 C.ar  1 <1>   0.2180 
 11 C       -3.7220     2.9050    -0.6640 C.3   1 <1>   0.1430 
 12 C       -3.3430     0.5080    -1.4210 C.3   1 <1>  -0.1600 
 13 C        2.1570     3.9690     1.8320 C.3   1 <1>  -0.0170 
 14 C       -4.7430     3.9690    -0.3100 C.ar  1 <1>   0.1670 
 15 C       -4.3810     1.6260    -1.2210 C.3   1 <1>  -0.1600 
 16 C       -2.8450     3.6160    -1.7330 C.3   1 <1>  -0.1600 
 17 C        3.0730     4.6560     0.8100 C.3   1 <1>  -0.2400 
 18 N       -5.7990     3.7800     0.4420 N.ar  1 <1>  -0.6200 
 19 C       -4.4240     5.1770    -0.8500 C.ar  1 <1>  -0.1430 
 20 C       -3.1450     5.1230    -1.6460 C.3   1 <1>  -0.0170 
 21 C       -6.5630     4.8580     0.6350 C.ar  1 <1>   0.7200 
 22 C       -5.2660     6.2300    -0.5970 C.ar  1 <1>   0.1600 
 23 N       -6.3380     6.0820     0.1440 N.ar  1 <1>  -0.6200 
 24 N       -7.6880     4.6930     1.4190 N.pl3 1 <1>  -0.8380 
 25 C       -8.4650     5.8520     1.9400 C.3   1 <1>   0.1290 
 26 C       -8.2290     3.3480     1.7550 C.3   1 <1>   0.1290 
 27 H       -0.5240     3.5700     1.4000 H     1 <1>   0.1500 
 28 H        3.1410     1.6880     0.9170 H     1 <1>   0.4570 
 29 H        1.6990    -1.3190    -0.5460 H     1 <1>   0.0800 
 30 H        2.8700    -0.9620     0.6940 H     1 <1>   0.0800 
 31 H        3.0300    -0.2550    -0.9060 H     1 <1>   0.0800 
 32 H       -2.4840     3.4680     0.9860 H     1 <1>   0.0800 
 33 H       -3.6050     2.2090     1.3620 H     1 <1>   0.0800 
 34 H       -3.2270    -0.1190     0.6290 H     1 <1>   0.0800 
 35 H       -1.8450    -0.5540    -0.3220 H     1 <1>   0.0800 
 36 H       -3.8460    -0.3940    -1.7240 H     1 <1>   0.0800 
 37 H       -2.6520     0.7730    -2.2010 H     1 <1>   0.0800 
 38 H        2.7350     3.6500     2.6820 H     1 <1>   0.0800 
 39 H        1.4400     4.6900     2.1890 H     1 <1>   0.0800 
 40 H       -4.8860     1.8390    -2.1470 H     1 <1>   0.0800 
 41 H       -5.1250     1.2850    -0.5220 H     1 <1>   0.0800 
 42 H       -3.1300     3.2780    -2.7140 H     1 <1>   0.0800 
 43 H       -1.7980     3.4120    -1.6030 H     1 <1>   0.0800 
 44 H        3.8560     4.0000     0.4750 H     1 <1>   0.0800 
 45 H        3.5330     5.5210     1.2570 H     1 <1>   0.0800 
 46 H        2.5050     4.9850    -0.0440 H     1 <1>   0.0800 
 47 H       -3.2710     5.5570    -2.6230 H     1 <1>   0.0800 
 48 H       -2.3650     5.6400    -1.1150 H     1 <1>   0.0800 
 49 H       -5.0580     7.2040    -1.0050 H     1 <1>   0.1500 
 50 H       -7.8210     6.7010     2.0920 H     1 <1>   0.0800 
 51 H       -8.9190     5.6000     2.8820 H     1 <1>   0.0800 
 52 H       -9.2320     6.1170     1.2330 H     1 <1>   0.0800 
 53 H       -7.9740     2.6350     0.9890 H     1 <1>   0.0800 
 54 H       -9.3010     3.3880     1.8340 H     1 <1>   0.0800 
 55 H       -7.8140     3.0180     2.6910 H     1 <1>   0.0800 
@<TRIPOS>BOND
  1   1   2  ar  
  2   1   3  ar  
  3   2   4  1   
  4   2   5  ar  
  5   3   6  ar  
  6   3   7  1   
  7   4   8  1   
  8   4   9  1   
  9   5  10  ar  
 10   5  27  1   
 11   6  10  ar  
 12   6  28  1   
 13   7  29  1   
 14   7  30  1   
 15   7  31  1   
 16   8  11  1   
 17   8  32  1   
 18   8  33  1   
 19   9  12  1   
 20   9  34  1   
 21   9  35  1   
 22  10  13  1   
 23  11  14  1   
 24  11  15  1   
 25  11  16  1   
 26  12  15  1   
 27  12  36  1   
 28  12  37  1   
 29  13  17  1   
 30  13  38  1   
 31  13  39  1   
 32  14  18  ar  
 33  14  19  ar  
 34  15  40  1   
 35  15  41  1   
 36  16  20  1   
 37  16  42  1   
 38  16  43  1   
 39  17  44  1   
 40  17  45  1   
 41  17  46  1   
 42  18  21  ar  
 43  19  20  1   
 44  19  22  ar  
 45  20  47  1   
 46  20  48  1   
 47  21  23  ar  
 48  21  24  1   
 49  22  23  ar  
 50  22  49  1   
 51  24  25  1   
 52  24  26  1   
 53  25  50  1   
 54  25  51  1   
 55  25  52  1   
 56  26  53  1   
 57  26  54  1   
 58  26  55  1   
@<TRIPOS>SUBSTRUCTURE
  1 ****   8 GROUP 4 **** **** 0

# MOE 2024.06 (io_trps.svl 2023.06)
