@<TRIPOS>MOLECULE
NONAME
51 54 1 0 0 
SMALL
USER_CHARGES


@<TRIPOS>ATOM
  1 S        0.3780     0.2360     2.1610 S.o2  1 <1>   1.4470 
  2 O        0.0390     1.4830     2.8110 O.2   1 <1>  -0.6500 
  3 O        1.1020    -0.7860     2.8810 O.2   1 <1>  -0.6500 
  4 N        1.3890     0.6810     0.8700 N.am  1 <1>  -0.8490 
  5 C       -1.0920    -0.4500     1.3480 C.ar  1 <1>  -0.0090 
  6 C        2.5660     1.4170     1.3930 C.3   1 <1>   0.1960 
  7 C        1.8160    -0.4770     0.0680 C.3   1 <1>   0.1960 
  8 C       -1.3120    -1.8030     1.2650 C.ar  1 <1>  -0.1500 
  9 C       -2.0320     0.4070     0.7490 C.ar  1 <1>  -0.1500 
 10 C        3.4440     2.1440     0.3320 C.3   1 <1>   0.4230 
 11 C        2.4500    -0.0540    -1.2750 C.3   1 <1>  -0.0800 
 12 C       -2.4230    -2.3490     0.5940 C.ar  1 <1>   0.0000 
 13 C       -3.1230    -0.0880     0.0900 C.ar  1 <1>  -0.1500 
 14 N        2.7270     2.5020    -0.9580 N.4   1 <1>  -0.9590 
 15 C        4.7690     1.3980     0.0670 C.3   1 <1>   0.1200 
 16 C        3.9600    -0.3210    -1.3550 C.3   1 <1>   0.1200 
 17 C        2.0540     1.3710    -1.6930 C.3   1 <1>   0.3430 
 18 C       -3.3470    -1.4740    -0.0110 C.ar  1 <1>   0.0000 
 19 C       -2.6460    -3.7380     0.5020 C.ar  1 <1>  -0.1500 
 20 C        1.7060     3.5610    -0.6830 C.3   1 <1>   0.2630 
 21 O        4.5890     0.0380    -0.1710 O.3   1 <1>  -0.5600 
 22 C       -4.4530    -2.0190    -0.6890 C.ar  1 <1>  -0.1500 
 23 C       -3.7300    -4.2430    -0.1630 C.ar  1 <1>  -0.1500 
 24 C       -4.6520    -3.3710    -0.7720 C.ar  1 <1>   0.0830 
 25 O       -5.7450    -3.8030    -1.4460 O.3   1 <1>  -0.3620 
 26 C       -6.0500    -5.1740    -1.5720 C.3   1 <1>   0.0400 
 27 H        2.2250     2.1810     2.0710 H     1 <1>   0.0800 
 28 H        3.1790     0.7510     1.9800 H     1 <1>   0.0800 
 29 H        2.4880    -1.1030     0.6350 H     1 <1>   0.0800 
 30 H        0.9530    -1.0790    -0.1630 H     1 <1>   0.0800 
 31 H       -0.6190    -2.4870     1.7250 H     1 <1>   0.1500 
 32 H       -1.8790     1.4710     0.8230 H     1 <1>   0.1500 
 33 H        3.7450     3.0710     0.7890 H     1 <1>   0.0800 
 34 H        2.0140    -0.6980    -2.0180 H     1 <1>   0.0800 
 35 H       -3.8390     0.5770    -0.3610 H     1 <1>   0.1500 
 36 H        3.4340     2.8970    -1.5910 H     1 <1>   0.4500 
 37 H        5.3860     1.4670     0.9460 H     1 <1>   0.0800 
 38 H        5.3140     1.8320    -0.7530 H     1 <1>   0.0800 
 39 H        4.4260     0.1890    -2.1810 H     1 <1>   0.0800 
 40 H        4.1280    -1.3790    -1.4770 H     1 <1>   0.0800 
 41 H        0.9880     1.4530    -1.5550 H     1 <1>   0.0800 
 42 H        2.2440     1.4840    -2.7480 H     1 <1>   0.0800 
 43 H       -1.9420    -4.4030     0.9700 H     1 <1>   0.1500 
 44 H        0.9460     3.1780    -0.0200 H     1 <1>   0.0800 
 45 H        1.2340     3.8770    -1.6000 H     1 <1>   0.0800 
 46 H        2.1660     4.4190    -0.2200 H     1 <1>   0.0800 
 47 H       -5.1590    -1.3550    -1.1510 H     1 <1>   0.1500 
 48 H       -3.8690    -5.3060    -0.2150 H     1 <1>   0.1500 
 49 H       -6.9600    -5.2630    -2.1380 H     1 <1>   0.0800 
 50 H       -6.1870    -5.5930    -0.5910 H     1 <1>   0.0800 
 51 H       -5.2470    -5.6640    -2.0940 H     1 <1>   0.0800 
@<TRIPOS>BOND
  1   1   2  2   
  2   1   3  2   
  3   1   4  am  
  4   1   5  1   
  5   4   6  1   
  6   4   7  1   
  7   5   8  ar  
  8   5   9  ar  
  9   6  10  1   
 10   6  27  1   
 11   6  28  1   
 12   7  11  1   
 13   7  29  1   
 14   7  30  1   
 15   8  12  ar  
 16   8  31  1   
 17   9  13  ar  
 18   9  32  1   
 19  10  14  1   
 20  10  15  1   
 21  10  33  1   
 22  11  16  1   
 23  11  17  1   
 24  11  34  1   
 25  12  18  ar  
 26  12  19  ar  
 27  13  18  ar  
 28  13  35  1   
 29  14  17  1   
 30  14  20  1   
 31  14  36  1   
 32  15  21  1   
 33  15  37  1   
 34  15  38  1   
 35  16  21  1   
 36  16  39  1   
 37  16  40  1   
 38  17  41  1   
 39  17  42  1   
 40  18  22  ar  
 41  19  23  ar  
 42  19  43  1   
 43  20  44  1   
 44  20  45  1   
 45  20  46  1   
 46  22  24  ar  
 47  22  47  1   
 48  23  24  ar  
 49  23  48  1   
 50  24  25  1   
 51  25  26  1   
 52  26  49  1   
 53  26  50  1   
 54  26  51  1   
@<TRIPOS>SUBSTRUCTURE
  1 ****   5 GROUP 4 **** **** 0

# MOE 2024.06 (io_trps.svl 2023.06)
