@<TRIPOS>MOLECULE
NONAME
54 56 1 0 0 
SMALL
USER_CHARGES


@<TRIPOS>ATOM
  1 O        3.8730    -1.0600    -0.3520 O.2   1 <1>  -0.5700 
  2 C        2.6860    -1.3280    -0.3970 C.2   1 <1>   0.5440 
  3 N        1.8210    -0.2810    -0.5660 N.am  1 <1>  -0.7300 
  4 C        2.2110    -2.6960    -0.2850 C.ar  1 <1>   0.0860 
  5 C        2.2690     1.1180    -0.8180 C.3   1 <1>   0.2200 
  6 C        0.8990    -2.9970     0.0780 C.ar  1 <1>  -0.1500 
  7 C        3.0570    -3.7730    -0.5380 C.ar  1 <1>  -0.1500 
  8 C        3.1090     1.6560     0.3600 C.3   1 <1>   0.4230 
  9 C        1.0890     2.0970    -0.9100 C.3   1 <1>   0.1200 
 10 C        0.4290    -4.2940     0.1730 C.ar  1 <1>   0.0830 
 11 C        2.6150    -5.0800    -0.4490 C.ar  1 <1>  -0.1500 
 12 N        4.3020     2.4500    -0.1100 N.4   1 <1>  -0.9590 
 13 C        2.0800     2.5350     1.0720 C.3   1 <1>   0.1200 
 14 O        1.3270     3.0850     0.0460 O.3   1 <1>  -0.5600 
 15 O       -0.8840    -4.3750     0.5380 O.3   1 <1>  -0.3630 
 16 C        1.2980    -5.3670    -0.0990 C.ar  1 <1>   0.0830 
 17 C        5.2860     1.6130    -0.8480 C.3   1 <1>   0.3430 
 18 C        5.0790     3.0860     0.9810 C.3   1 <1>   0.3430 
 19 C       -1.5310    -5.5830     0.8610 C.3   1 <1>   0.1200 
 20 O        0.8570    -6.6510    -0.0250 O.3   1 <1>  -0.3630 
 21 C        6.5730     2.4240    -0.8230 C.3   1 <1>  -0.1600 
 22 C        6.4330     3.3910     0.3550 C.3   1 <1>  -0.1600 
 23 C       -2.9350    -5.2490     1.3560 C.3   1 <1>  -0.2400 
 24 C        1.6750    -7.7650    -0.2990 C.3   1 <1>   0.1200 
 25 C        0.8310    -9.0230    -0.1180 C.3   1 <1>  -0.2400 
 26 H        0.8410    -0.4950    -0.7780 H     1 <1>   0.3700 
 27 H        2.8230     1.1300    -1.7400 H     1 <1>   0.0800 
 28 H        0.2080    -2.2070     0.3050 H     1 <1>   0.1500 
 29 H        4.0810    -3.5820    -0.8120 H     1 <1>   0.1500 
 30 H        3.4360     0.8530     0.9990 H     1 <1>   0.0800 
 31 H        0.1510     1.6230    -0.6750 H     1 <1>   0.0800 
 32 H        1.0320     2.5700    -1.8750 H     1 <1>   0.0800 
 33 H        3.3210    -5.8610    -0.6600 H     1 <1>   0.1500 
 34 H        3.9630     3.1990    -0.7290 H     1 <1>   0.4500 
 35 H        2.5050     3.3190     1.6710 H     1 <1>   0.0800 
 36 H        1.4230     1.9330     1.6780 H     1 <1>   0.0800 
 37 H        5.4380     0.6820    -0.3230 H     1 <1>   0.0800 
 38 H        4.9650     1.4010    -1.8550 H     1 <1>   0.0800 
 39 H        4.6000     3.9800     1.3480 H     1 <1>   0.0800 
 40 H        5.2090     2.3860     1.7920 H     1 <1>   0.0800 
 41 H       -1.5760    -6.1930    -0.0250 H     1 <1>   0.0800 
 42 H       -0.9650    -6.0810     1.6290 H     1 <1>   0.0800 
 43 H        7.4210     1.7710    -0.7070 H     1 <1>   0.0800 
 44 H        6.6830     2.9660    -1.7460 H     1 <1>   0.0800 
 45 H        6.4530     4.4100     0.0090 H     1 <1>   0.0800 
 46 H        7.2200     3.2590     1.0780 H     1 <1>   0.0800 
 47 H       -3.4870    -4.7400     0.5860 H     1 <1>   0.0800 
 48 H       -2.8800    -4.6280     2.2320 H     1 <1>   0.0800 
 49 H       -3.4550    -6.1550     1.6080 H     1 <1>   0.0800 
 50 H        2.0300    -7.6880    -1.3130 H     1 <1>   0.0800 
 51 H        2.5020    -7.7600     0.3910 H     1 <1>   0.0800 
 52 H       -0.0010    -9.0100    -0.7990 H     1 <1>   0.0800 
 53 H        0.4680    -9.0820     0.8920 H     1 <1>   0.0800 
 54 H        1.4270    -9.8940    -0.3210 H     1 <1>   0.0800 
@<TRIPOS>BOND
  1   1   2  2   
  2   2   3  am  
  3   2   4  1   
  4   3   5  1   
  5   3  26  1   
  6   4   6  ar  
  7   4   7  ar  
  8   5   8  1   
  9   5   9  1   
 10   5  27  1   
 11   6  10  ar  
 12   6  28  1   
 13   7  11  ar  
 14   7  29  1   
 15   8  12  1   
 16   8  13  1   
 17   8  30  1   
 18   9  14  1   
 19   9  31  1   
 20   9  32  1   
 21  10  15  1   
 22  10  16  ar  
 23  11  16  ar  
 24  11  33  1   
 25  12  17  1   
 26  12  18  1   
 27  12  34  1   
 28  13  14  1   
 29  13  35  1   
 30  13  36  1   
 31  15  19  1   
 32  16  20  1   
 33  17  21  1   
 34  17  37  1   
 35  17  38  1   
 36  18  22  1   
 37  18  39  1   
 38  18  40  1   
 39  19  23  1   
 40  19  41  1   
 41  19  42  1   
 42  20  24  1   
 43  21  22  1   
 44  21  43  1   
 45  21  44  1   
 46  22  45  1   
 47  22  46  1   
 48  23  47  1   
 49  23  48  1   
 50  23  49  1   
 51  24  25  1   
 52  24  50  1   
 53  24  51  1   
 54  25  52  1   
 55  25  53  1   
 56  25  54  1   
@<TRIPOS>SUBSTRUCTURE
  1 ****   2 GROUP 4 **** **** 0

# MOE 2024.06 (io_trps.svl 2023.06)
