@<TRIPOS>MOLECULE
NONAME
48 50 1 0 0 
SMALL
USER_CHARGES


@<TRIPOS>ATOM
  1 O        1.6520     0.4250    -1.2710 O.3   1 <1>  -0.0190 
  2 N        0.9560     1.2660    -0.5690 N.2   1 <1>  -0.4100 
  3 C        2.1500    -0.4000    -0.3810 C.2   1 <1>   0.2980 
  4 C        1.0650     0.9180     0.6530 C.2   1 <1>   0.3350 
  5 N        1.8430    -0.1410     0.8310 N.2   1 <1>  -0.5650 
  6 C        3.0440    -1.5590    -0.8500 C.3   1 <1>   0.4690 
  7 C        0.3850     1.5900     1.8460 C.3   1 <1>   0.1010 
  8 N        2.3430    -2.5880    -1.6810 N.pl3 1 <1>  -0.8380 
  9 C        4.1980    -1.0760    -1.7310 C.3   1 <1>  -0.1600 
 10 C       -0.8750     0.8110     2.2490 C.3   1 <1>  -0.2400 
 11 C        0.0300     3.0610     1.5740 C.3   1 <1>  -0.2400 
 12 C        1.0010    -2.7950    -1.4390 C.ar  1 <1>   0.4100 
 13 C        2.8550    -2.5580    -3.0750 C.3   1 <1>   0.2090 
 14 C        3.7270    -1.3130    -3.1620 C.3   1 <1>  -0.1600 
 15 N        0.1540    -2.1640    -2.2270 N.ar  1 <1>  -0.6200 
 16 C        0.5490    -3.5990    -0.3990 C.ar  1 <1>  -0.1430 
 17 C       -1.1230    -2.3080    -1.9460 C.ar  1 <1>   0.4770 
 18 C       -0.8090    -3.6790    -0.2250 C.ar  1 <1>   0.1600 
 19 C        1.4780    -4.3840     0.5210 C.3   1 <1>  -0.0170 
 20 N       -1.6670    -3.0340    -0.9880 N.ar  1 <1>  -0.6200 
 21 C       -2.0730    -1.5430    -2.8330 C.3   1 <1>  -0.0970 
 22 C        1.5810    -3.7230     1.9020 C.3   1 <1>  -0.1600 
 23 C        2.5320    -4.4920     2.8240 C.3   1 <1>  -0.2400 
 24 H        3.4470    -2.0370     0.0250 H     1 <1>   0.0800 
 25 H        1.0790     1.5630     2.6680 H     1 <1>   0.0800 
 26 H        4.4470    -0.0460    -1.5460 H     1 <1>   0.0800 
 27 H        5.0610    -1.6840    -1.5280 H     1 <1>   0.0800 
 28 H       -1.5830     0.8060     1.4390 H     1 <1>   0.0800 
 29 H       -1.3340     1.2540     3.1140 H     1 <1>   0.0800 
 30 H       -0.6170    -0.2080     2.4790 H     1 <1>   0.0800 
 31 H       -0.6820     3.1320     0.7700 H     1 <1>   0.0800 
 32 H        0.9140     3.6060     1.2960 H     1 <1>   0.0800 
 33 H       -0.3930     3.5140     2.4520 H     1 <1>   0.0800 
 34 H        3.4490    -3.4410    -3.2410 H     1 <1>   0.0800 
 35 H        2.0610    -2.5300    -3.8020 H     1 <1>   0.0800 
 36 H        4.5430    -1.4440    -3.8510 H     1 <1>   0.0800 
 37 H        3.1180    -0.4890    -3.4920 H     1 <1>   0.0800 
 38 H       -1.2140    -4.2870     0.5650 H     1 <1>   0.1500 
 39 H        1.0960    -5.3840     0.6320 H     1 <1>   0.0800 
 40 H        2.4570    -4.4680     0.0820 H     1 <1>   0.0800 
 41 H       -3.0870    -1.6770    -2.5060 H     1 <1>   0.0800 
 42 H       -1.9790    -1.8930    -3.8430 H     1 <1>   0.0800 
 43 H       -1.8270    -0.4980    -2.7960 H     1 <1>   0.0800 
 44 H        1.9350    -2.7140     1.7920 H     1 <1>   0.0800 
 45 H        0.6060    -3.6790     2.3550 H     1 <1>   0.0800 
 46 H        3.5220    -4.5250     2.4020 H     1 <1>   0.0800 
 47 H        2.1830    -5.5000     2.9710 H     1 <1>   0.0800 
 48 H        2.5860    -4.0060     3.7820 H     1 <1>   0.0800 
@<TRIPOS>BOND
  1   1   2  1   
  2   1   3  1   
  3   2   4  2   
  4   3   5  2   
  5   3   6  1   
  6   4   5  1   
  7   4   7  1   
  8   6   8  1   
  9   6   9  1   
 10   6  24  1   
 11   7  10  1   
 12   7  11  1   
 13   7  25  1   
 14   8  12  1   
 15   8  13  1   
 16   9  14  1   
 17   9  26  1   
 18   9  27  1   
 19  10  28  1   
 20  10  29  1   
 21  10  30  1   
 22  11  31  1   
 23  11  32  1   
 24  11  33  1   
 25  12  15  ar  
 26  12  16  ar  
 27  13  14  1   
 28  13  34  1   
 29  13  35  1   
 30  14  36  1   
 31  14  37  1   
 32  15  17  ar  
 33  16  18  ar  
 34  16  19  1   
 35  17  20  ar  
 36  17  21  1   
 37  18  20  ar  
 38  18  38  1   
 39  19  22  1   
 40  19  39  1   
 41  19  40  1   
 42  21  41  1   
 43  21  42  1   
 44  21  43  1   
 45  22  23  1   
 46  22  44  1   
 47  22  45  1   
 48  23  46  1   
 49  23  47  1   
 50  23  48  1   
@<TRIPOS>SUBSTRUCTURE
  1 ****   3 GROUP 4 **** **** 0

# MOE 2024.06 (io_trps.svl 2023.06)
