@<TRIPOS>MOLECULE
NONAME
44 47 1 0 0 
SMALL
USER_CHARGES


@<TRIPOS>ATOM
  1 CL      -0.6530    -1.8710     3.0680 Cl    1 <1>  -0.1770 
  2 C       -1.5730    -1.9790     1.5900 C.ar  1 <1>   0.1770 
  3 C       -1.4180    -1.0020     0.6290 C.ar  1 <1>  -0.1500 
  4 C       -2.4410    -3.0400     1.4110 C.ar  1 <1>  -0.1500 
  5 C       -2.1650    -1.1290    -0.5230 C.ar  1 <1>   0.1900 
  6 C       -3.2000    -3.1660     0.2430 C.ar  1 <1>   0.0860 
  7 F       -2.0430    -0.2230    -1.4530 F     1 <1>  -0.1900 
  8 C       -3.0390    -2.1780    -0.7330 C.ar  1 <1>  -0.1500 
  9 C       -4.1160    -4.2810     0.0610 C.2   1 <1>   0.5440 
 10 O       -4.2160    -5.1720     0.8870 O.2   1 <1>  -0.5700 
 11 N       -4.9450    -4.3730    -1.0290 N.am  1 <1>  -0.6600 
 12 C       -6.3560    -3.9040    -0.8500 C.3   1 <1>   0.1400 
 13 C       -4.8610    -5.6220    -1.8570 C.3   1 <1>   0.1400 
 14 C       -7.2320    -4.9820    -0.1510 C.3   1 <1>   0.4230 
 15 C       -5.9370    -6.6660    -1.4630 C.3   1 <1>   0.3430 
 16 N       -6.5540    -6.3320    -0.1340 N.4   1 <1>  -0.9590 
 17 C       -8.6370    -5.0760    -0.7910 C.3   1 <1>   0.1200 
 18 C       -7.4450    -7.3690     0.4650 C.3   1 <1>   0.5180 
 19 O       -9.3990    -6.0740    -0.1710 O.3   1 <1>  -0.5600 
 20 C       -6.7710    -8.7440     0.3940 C.3   1 <1>  -0.1950 
 21 C       -8.8400    -7.3620    -0.1980 C.3   1 <1>   0.1200 
 22 C       -6.8530    -9.6800     1.5600 C.3   1 <1>  -0.2000 
 23 C       -5.5410    -9.0510     1.1940 C.3   1 <1>  -0.2000 
 24 H       -0.7430    -0.1770     0.7710 H     1 <1>   0.1500 
 25 H       -2.5250    -3.7780     2.1900 H     1 <1>   0.1500 
 26 H       -3.5880    -2.2190    -1.6560 H     1 <1>   0.1500 
 27 H       -6.3700    -3.0030    -0.2610 H     1 <1>   0.0800 
 28 H       -6.7650    -3.6590    -1.8150 H     1 <1>   0.0800 
 29 H       -4.9610    -5.3740    -2.9000 H     1 <1>   0.0800 
 30 H       -3.8880    -6.0660    -1.7270 H     1 <1>   0.0800 
 31 H       -7.3740    -4.6640     0.8690 H     1 <1>   0.0800 
 32 H       -5.4710    -7.6370    -1.4260 H     1 <1>   0.0800 
 33 H       -6.7000    -6.6960    -2.2220 H     1 <1>   0.0800 
 34 H       -5.7370    -6.2060     0.5000 H     1 <1>   0.4500 
 35 H       -8.5750    -5.2960    -1.8430 H     1 <1>   0.0800 
 36 H       -9.1630    -4.1450    -0.6670 H     1 <1>   0.0800 
 37 H       -7.5850    -7.1290     1.5070 H     1 <1>   0.0800 
 38 H       -6.8690    -9.2070    -0.5730 H     1 <1>   0.1000 
 39 H       -9.5030    -8.0160     0.3410 H     1 <1>   0.0800 
 40 H       -8.7880    -7.6950    -1.2190 H     1 <1>   0.0800 
 41 H       -7.3220    -9.3680     2.4790 H     1 <1>   0.1000 
 42 H       -6.9790   -10.7350     1.3800 H     1 <1>   0.1000 
 43 H       -4.7780    -9.6840     0.7710 H     1 <1>   0.1000 
 44 H       -5.1290    -8.3150     1.8660 H     1 <1>   0.1000 
@<TRIPOS>BOND
  1   1   2  1   
  2   2   3  ar  
  3   2   4  ar  
  4   3   5  ar  
  5   3  24  1   
  6   4   6  ar  
  7   4  25  1   
  8   5   7  1   
  9   5   8  ar  
 10   6   8  ar  
 11   6   9  1   
 12   8  26  1   
 13   9  10  2   
 14   9  11  am  
 15  11  12  1   
 16  11  13  1   
 17  12  14  1   
 18  12  27  1   
 19  12  28  1   
 20  13  15  1   
 21  13  29  1   
 22  13  30  1   
 23  14  16  1   
 24  14  17  1   
 25  14  31  1   
 26  15  16  1   
 27  15  32  1   
 28  15  33  1   
 29  16  18  1   
 30  16  34  1   
 31  17  19  1   
 32  17  35  1   
 33  17  36  1   
 34  18  20  1   
 35  18  21  1   
 36  18  37  1   
 37  19  21  1   
 38  20  22  1   
 39  20  23  1   
 40  20  38  1   
 41  21  39  1   
 42  21  40  1   
 43  22  23  1   
 44  22  41  1   
 45  22  42  1   
 46  23  43  1   
 47  23  44  1   
@<TRIPOS>SUBSTRUCTURE
  1 ****   9 GROUP 4 **** **** 0

# MOE 2024.06 (io_trps.svl 2023.06)
