@<TRIPOS>MOLECULE
NONAME
48 50 1 0 0 
SMALL
USER_CHARGES


@<TRIPOS>ATOM
  1 O       -2.7830    -0.1230    -2.7980 O.2   1 <1>  -0.5700 
  2 C       -2.7300    -0.6730    -1.7320 C.2   1 <1>   0.5690 
  3 N       -2.4080     0.0190    -0.6270 N.am  1 <1>  -0.7300 
  4 C       -3.0570    -2.1380    -1.6310 C.3   1 <1>  -0.0190 
  5 C       -2.2990    -0.5400     0.7400 C.3   1 <1>   0.2200 
  6 C       -1.8480    -2.9580    -1.1260 C.3   1 <1>   0.1200 
  7 C       -4.3700    -2.2950    -0.8530 C.3   1 <1>   0.3430 
  8 C       -1.2160    -1.6480     0.7830 C.3   1 <1>   0.1200 
  9 C       -3.6920    -1.0060     1.2510 C.3   1 <1>   0.3430 
 10 O       -1.6620    -2.8750     0.2640 O.3   1 <1>  -0.5600 
 11 N       -4.2040    -2.2850     0.6420 N.4   1 <1>  -0.9590 
 12 C       -5.4100    -2.8110     1.3340 C.3   1 <1>   0.4860 
 13 C       -5.5790    -4.2680     0.9590 C.ar  1 <1>  -0.1430 
 14 C       -6.4850    -4.6260    -0.0330 C.ar  1 <1>   0.0830 
 15 C       -4.8200    -5.2460     1.5800 C.ar  1 <1>  -0.1500 
 16 O       -7.2240    -3.6390    -0.5910 O.3   1 <1>  -0.3630 
 17 C       -6.5940    -5.9500    -0.4560 C.ar  1 <1>  -0.1430 
 18 C       -4.9520    -6.5680     1.2000 C.ar  1 <1>  -0.1500 
 19 C       -8.5850    -3.5780    -0.2120 C.3   1 <1>   0.0400 
 20 C       -5.8330    -6.9260     0.1820 C.ar  1 <1>   0.0830 
 21 C       -7.5100    -6.3520    -1.6130 C.3   1 <1>  -0.0970 
 22 O       -5.9840    -8.2140    -0.2270 O.3   1 <1>  -0.3630 
 23 C       -5.3180    -9.2870     0.4010 C.3   1 <1>   0.0400 
 24 H       -2.1450     1.0010    -0.7720 H     1 <1>   0.3700 
 25 H       -3.2530    -2.4640    -2.6370 H     1 <1>   0.0800 
 26 H       -1.9680     0.2620     1.3780 H     1 <1>   0.0800 
 27 H       -0.9400    -2.6460    -1.6170 H     1 <1>   0.0800 
 28 H       -2.0060    -3.9990    -1.3540 H     1 <1>   0.0800 
 29 H       -4.7990    -3.2380    -1.1480 H     1 <1>   0.0800 
 30 H       -5.0600    -1.5230    -1.1520 H     1 <1>   0.0800 
 31 H       -0.9410    -1.8320     1.8070 H     1 <1>   0.0800 
 32 H       -0.3290    -1.3420     0.2540 H     1 <1>   0.0800 
 33 H       -4.4020    -0.2140     1.0820 H     1 <1>   0.0800 
 34 H       -3.6130    -1.1480     2.3160 H     1 <1>   0.0800 
 35 H       -3.4440    -2.9780     0.7950 H     1 <1>   0.4500 
 36 H       -5.2900    -2.7360     2.4020 H     1 <1>   0.0800 
 37 H       -6.2820    -2.2470     1.0450 H     1 <1>   0.0800 
 38 H       -4.1210    -4.9960     2.3600 H     1 <1>   0.1500 
 39 H       -4.3560    -7.3060     1.7030 H     1 <1>   0.1500 
 40 H       -9.0400    -2.7430    -0.7150 H     1 <1>   0.0800 
 41 H       -8.6490    -3.4470     0.8530 H     1 <1>   0.0800 
 42 H       -9.0820    -4.4870    -0.5000 H     1 <1>   0.0800 
 43 H       -7.0190    -7.0710    -2.2440 H     1 <1>   0.0800 
 44 H       -7.7670    -5.5090    -2.2270 H     1 <1>   0.0800 
 45 H       -8.4090    -6.7960    -1.2280 H     1 <1>   0.0800 
 46 H       -5.6260   -10.1980    -0.0800 H     1 <1>   0.0800 
 47 H       -5.5960    -9.3120     1.4400 H     1 <1>   0.0800 
 48 H       -4.2560    -9.1560     0.2870 H     1 <1>   0.0800 
@<TRIPOS>BOND
  1   1   2  2   
  2   2   3  am  
  3   2   4  1   
  4   3   5  1   
  5   3  24  1   
  6   4   6  1   
  7   4   7  1   
  8   4  25  1   
  9   5   8  1   
 10   5   9  1   
 11   5  26  1   
 12   6  10  1   
 13   6  27  1   
 14   6  28  1   
 15   7  11  1   
 16   7  29  1   
 17   7  30  1   
 18   8  10  1   
 19   8  31  1   
 20   8  32  1   
 21   9  11  1   
 22   9  33  1   
 23   9  34  1   
 24  11  12  1   
 25  11  35  1   
 26  12  13  1   
 27  12  36  1   
 28  12  37  1   
 29  13  14  ar  
 30  13  15  ar  
 31  14  16  1   
 32  14  17  ar  
 33  15  18  ar  
 34  15  38  1   
 35  16  19  1   
 36  17  20  ar  
 37  17  21  1   
 38  18  20  ar  
 39  18  39  1   
 40  19  40  1   
 41  19  41  1   
 42  19  42  1   
 43  20  22  1   
 44  21  43  1   
 45  21  44  1   
 46  21  45  1   
 47  22  23  1   
 48  23  46  1   
 49  23  47  1   
 50  23  48  1   
@<TRIPOS>SUBSTRUCTURE
  1 ****   7 GROUP 4 **** **** 0

# MOE 2024.06 (io_trps.svl 2023.06)
