@<TRIPOS>MOLECULE
NONAME
53 55 1 0 0 
SMALL
USER_CHARGES


@<TRIPOS>ATOM
  1 O       -1.8060     1.5650    -1.5300 O.2   1 <1>  -0.5700 
  2 C       -2.0110     1.3400    -0.3510 C.2   1 <1>   0.6900 
  3 N       -3.1870     0.7560     0.0490 N.am  1 <1>  -0.6600 
  4 N       -1.0940     1.6770     0.5930 N.am  1 <1>  -0.7300 
  5 C       -3.3810     0.0460     1.3440 C.3   1 <1>   0.1400 
  6 C       -4.3460     0.6460    -0.8780 C.3   1 <1>   0.1400 
  7 C        0.2200     2.3230     0.4220 C.3   1 <1>   0.2200 
  8 C       -3.6600    -1.4340     1.0720 C.3   1 <1>  -0.1600 
  9 C       -4.6280    -0.8300    -1.1670 C.3   1 <1>  -0.1600 
 10 C        0.0460     3.7290    -0.1480 C.3   1 <1>  -0.2400 
 11 C        1.1310     1.4570    -0.4440 C.3   1 <1>  -0.2400 
 12 C       -4.8530    -1.6320     0.1260 C.3   1 <1>   0.4240 
 13 O       -5.9560    -1.0770     0.8050 O.3   1 <1>  -0.5600 
 14 C       -5.0660    -3.1320    -0.1730 C.ar  1 <1>  -0.1440 
 15 C       -7.2280    -1.4860     0.4080 C.3   1 <1>   0.1200 
 16 C       -6.2660    -3.7640     0.1230 C.ar  1 <1>  -0.1440 
 17 C       -4.0540    -3.8850    -0.7540 C.ar  1 <1>  -0.1500 
 18 C       -7.3940    -2.9650     0.7460 C.3   1 <1>  -0.0170 
 19 C       -6.4420    -5.1110    -0.1500 C.ar  1 <1>  -0.1500 
 20 C       -4.2070    -5.2330    -1.0280 C.ar  1 <1>   0.0820 
 21 C       -5.4260    -5.8640    -0.7330 C.ar  1 <1>   0.0820 
 22 O       -3.1140    -5.8300    -1.5840 O.3   1 <1>  -0.3620 
 23 O       -5.6050    -7.1850    -1.0350 O.3   1 <1>  -0.3620 
 24 C       -2.8180    -7.1880    -1.3450 C.3   1 <1>   0.0400 
 25 C       -6.8560    -7.8230    -0.9090 C.3   1 <1>   0.0400 
 26 H       -1.4320     1.6500     1.5480 H     1 <1>   0.3700 
 27 H       -4.2140     0.4880     1.8650 H     1 <1>   0.0800 
 28 H       -2.5100     0.1290     1.9680 H     1 <1>   0.0800 
 29 H       -4.1490     1.1660    -1.8000 H     1 <1>   0.0800 
 30 H       -5.2060     1.1020    -0.4180 H     1 <1>   0.0800 
 31 H        0.6710     2.4090     1.3970 H     1 <1>   0.0800 
 32 H       -3.8580    -1.9460     1.9960 H     1 <1>   0.0800 
 33 H       -2.7750    -1.8670     0.6460 H     1 <1>   0.0800 
 34 H       -3.7830    -1.2290    -1.6970 H     1 <1>   0.0800 
 35 H       -5.4770    -0.9230    -1.8160 H     1 <1>   0.0800 
 36 H       -0.3600     3.6880    -1.1420 H     1 <1>   0.0800 
 37 H        0.9980     4.2250    -0.1930 H     1 <1>   0.0800 
 38 H       -0.6110     4.3050     0.4780 H     1 <1>   0.0800 
 39 H        0.7530     1.3890    -1.4480 H     1 <1>   0.0800 
 40 H        1.2060     0.4680    -0.0290 H     1 <1>   0.0800 
 41 H        2.1150     1.8870    -0.4840 H     1 <1>   0.0800 
 42 H       -7.3440    -1.3140    -0.6480 H     1 <1>   0.0800 
 43 H       -7.9480    -0.8940     0.9440 H     1 <1>   0.0800 
 44 H       -3.1130    -3.4310    -1.0080 H     1 <1>   0.1500 
 45 H       -8.3430    -3.3070     0.3750 H     1 <1>   0.0800 
 46 H       -7.3810    -3.0910     1.8140 H     1 <1>   0.0800 
 47 H       -7.3840    -5.5570     0.1000 H     1 <1>   0.1500 
 48 H       -1.7780    -7.3470    -1.5620 H     1 <1>   0.0800 
 49 H       -3.4210    -7.7940    -1.9970 H     1 <1>   0.0800 
 50 H       -3.0210    -7.4170    -0.3140 H     1 <1>   0.0800 
 51 H       -6.7540    -8.8310    -1.2690 H     1 <1>   0.0800 
 52 H       -7.5800    -7.2940    -1.5050 H     1 <1>   0.0800 
 53 H       -7.1410    -7.8340     0.1280 H     1 <1>   0.0800 
@<TRIPOS>BOND
  1   1   2  2   
  2   2   3  am  
  3   2   4  am  
  4   3   5  1   
  5   3   6  1   
  6   4   7  1   
  7   4  26  1   
  8   5   8  1   
  9   5  27  1   
 10   5  28  1   
 11   6   9  1   
 12   6  29  1   
 13   6  30  1   
 14   7  10  1   
 15   7  11  1   
 16   7  31  1   
 17   8  12  1   
 18   8  32  1   
 19   8  33  1   
 20   9  12  1   
 21   9  34  1   
 22   9  35  1   
 23  10  36  1   
 24  10  37  1   
 25  10  38  1   
 26  11  39  1   
 27  11  40  1   
 28  11  41  1   
 29  12  13  1   
 30  12  14  1   
 31  13  15  1   
 32  14  16  ar  
 33  14  17  ar  
 34  15  18  1   
 35  15  42  1   
 36  15  43  1   
 37  16  18  1   
 38  16  19  ar  
 39  17  20  ar  
 40  17  44  1   
 41  18  45  1   
 42  18  46  1   
 43  19  21  ar  
 44  19  47  1   
 45  20  21  ar  
 46  20  22  1   
 47  21  23  1   
 48  22  24  1   
 49  23  25  1   
 50  24  48  1   
 51  24  49  1   
 52  24  50  1   
 53  25  51  1   
 54  25  52  1   
 55  25  53  1   
@<TRIPOS>SUBSTRUCTURE
  1 ****  12 GROUP 4 **** **** 0

# MOE 2024.06 (io_trps.svl 2023.06)
