@<TRIPOS>MOLECULE
NONAME
38 39 1 0 0 
SMALL
USER_CHARGES


@<TRIPOS>ATOM
  1 O       -0.2320     0.4450     0.2650 O.2   1 <1>  -0.5700 
  2 C       -1.3150     0.9900     0.1510 C.2   1 <1>   0.6900 
  3 N       -1.3900     2.2900    -0.3360 N.am  1 <1>  -0.4690 
  4 N       -2.4700     0.3230     0.5090 N.am  1 <1>  -0.4200 
  5 C       -2.6040     3.0030    -0.3200 C.2   1 <1>   0.1230 
  6 C       -0.1930     2.8310    -1.0560 C.3   1 <1>   0.0600 
  7 C       -3.6870     0.9690     0.4580 C.2   1 <1>   0.6160 
  8 C       -2.4000    -1.0920     0.9810 C.3   1 <1>   0.0600 
  9 C       -2.6700     4.4130    -0.6650 C.2   1 <1>   0.6160 
 10 C       -3.7200     2.3230     0.0470 C.2   1 <1>  -0.1360 
 11 O       -4.7100     0.3930     0.7800 O.2   1 <1>  -0.5700 
 12 O       -3.5270     4.8120    -1.4300 O.2   1 <1>  -0.5700 
 13 N       -1.7840     5.2910    -0.1000 N.am  1 <1>  -0.4930 
 14 C       -1.6340     6.6850    -0.3100 C.2   1 <1>   0.0630 
 15 C       -2.3330     7.5400    -1.1640 C.2   1 <1>   0.1390 
 16 C       -0.7390     7.4840     0.3060 C.2   1 <1>  -0.3020 
 17 N       -1.9100     8.7670    -1.0890 N.2   1 <1>  -0.7070 
 18 N       -0.9210     8.7370    -0.1760 N.pl3 1 <1>   0.3140 
 19 C       -0.1720     9.9680     0.2010 C.3   1 <1>   0.1760 
 20 C        1.3180     9.8250    -0.1370 C.3   1 <1>  -0.2400 
 21 C       -0.3710    10.2920     1.6880 C.3   1 <1>  -0.2400 
 22 H        0.3520     2.0300    -1.5260 H     1 <1>   0.0800 
 23 H        0.4590     3.3260    -0.3590 H     1 <1>   0.0800 
 24 H       -0.4880     3.5220    -1.8270 H     1 <1>   0.0800 
 25 H       -1.5680    -1.6000     0.5250 H     1 <1>   0.0800 
 26 H       -3.3010    -1.6200     0.7230 H     1 <1>   0.0800 
 27 H       -2.2780    -1.1070     2.0500 H     1 <1>   0.0800 
 28 H       -4.6870     2.7910     0.0510 H     1 <1>   0.1500 
 29 H       -1.1500     4.8920     0.5900 H     1 <1>   0.3700 
 30 H       -3.1330     7.2280    -1.8140 H     1 <1>   0.1500 
 31 H        0.0020     7.2470     1.0440 H     1 <1>   0.1500 
 32 H       -0.5800    10.7750    -0.3820 H     1 <1>   0.0800 
 33 H        1.7700     9.0380     0.4400 H     1 <1>   0.0800 
 34 H        1.8330    10.7440     0.0770 H     1 <1>   0.0800 
 35 H        1.4360     9.6090    -1.1850 H     1 <1>   0.0800 
 36 H        0.0420     9.5180     2.3090 H     1 <1>   0.0800 
 37 H       -1.4210    10.3960     1.9020 H     1 <1>   0.0800 
 38 H        0.1150    11.2200     1.9300 H     1 <1>   0.0800 
@<TRIPOS>BOND
  1   1   2  2   
  2   2   3  am  
  3   2   4  am  
  4   3   5  1   
  5   3   6  1   
  6   4   7  am  
  7   4   8  1   
  8   5   9  1   
  9   5  10  2   
 10   6  22  1   
 11   6  23  1   
 12   6  24  1   
 13   7  10  1   
 14   7  11  2   
 15   8  25  1   
 16   8  26  1   
 17   8  27  1   
 18   9  12  2   
 19   9  13  am  
 20  10  28  1   
 21  13  14  1   
 22  13  29  1   
 23  14  15  1   
 24  14  16  2   
 25  15  17  2   
 26  15  30  1   
 27  16  18  1   
 28  16  31  1   
 29  17  18  1   
 30  18  19  1   
 31  19  20  1   
 32  19  21  1   
 33  19  32  1   
 34  20  33  1   
 35  20  34  1   
 36  20  35  1   
 37  21  36  1   
 38  21  37  1   
 39  21  38  1   
@<TRIPOS>SUBSTRUCTURE
  1 ****  13 GROUP 4 **** **** 0

# MOE 2024.06 (io_trps.svl 2023.06)
