@<TRIPOS>MOLECULE
NONAME
56 59 1 0 0 
SMALL
USER_CHARGES


@<TRIPOS>ATOM
  1 O        0.1450     0.2800     0.0460 O.3   1 <1>  -0.5600 
  2 C        0.4770     0.9740    -1.1100 C.3   1 <1>   0.1200 
  3 C       -1.2470     0.1860     0.1330 C.3   1 <1>   0.1200 
  4 C       -0.5390     2.1130    -1.1220 C.3   1 <1>   0.4230 
  5 C       -1.7940     1.3240    -0.7450 C.3   1 <1>  -0.0800 
  6 N       -0.1830     3.0690    -0.0360 N.4   1 <1>  -0.9060 
  7 C       -2.9620     2.1050    -0.1090 C.3   1 <1>  -0.0170 
  8 C        0.5230     4.3090    -0.4330 C.3   1 <1>   0.4230 
  9 C       -4.1600     1.1930     0.0940 C.ar  1 <1>  -0.1440 
 10 C        1.9270     3.9940    -0.9680 C.3   1 <1>  -0.1600 
 11 C        0.5530     5.2270     0.7930 C.3   1 <1>  -0.1600 
 12 C       -5.0210     0.8840    -0.9410 C.ar  1 <1>  -0.1500 
 13 C       -4.4520     0.6260     1.3190 C.ar  1 <1>  -0.1500 
 14 C        2.7050     5.2800    -1.2360 C.3   1 <1>   0.2090 
 15 C        1.3400     6.5000     0.4950 C.3   1 <1>   0.2090 
 16 C       -6.0950     0.0410    -0.7100 C.ar  1 <1>   0.1600 
 17 C       -5.5530    -0.2060     1.4440 C.ar  1 <1>   0.1600 
 18 N        2.6600     6.0830    -0.0040 N.pl3 1 <1>  -0.8380 
 19 N       -6.3780    -0.5130     0.4570 N.ar  1 <1>  -0.6200 
 20 C        3.7970     6.7930     0.3790 C.ar  1 <1>   0.1000 
 21 C        4.0770     8.0870    -0.0720 C.ar  1 <1>  -0.1440 
 22 C        4.6880     6.1760     1.2480 C.ar  1 <1>  -0.1500 
 23 C        5.2290     8.7260     0.3590 C.ar  1 <1>  -0.1500 
 24 C        3.1520     8.8230    -1.0310 C.3   1 <1>  -0.0970 
 25 C        5.8340     6.8190     1.6720 C.ar  1 <1>  -0.1500 
 26 C        6.1060     8.0990     1.2270 C.ar  1 <1>  -0.1500 
 27 H        1.5030     1.2910    -1.0570 H     1 <1>   0.0800 
 28 H        0.3440     0.3140    -1.9520 H     1 <1>   0.0800 
 29 H       -1.5540    -0.7810    -0.2300 H     1 <1>   0.0800 
 30 H       -1.5230     0.2850     1.1690 H     1 <1>   0.0800 
 31 H       -0.6230     2.6010    -2.0800 H     1 <1>   0.0800 
 32 H       -2.1670     0.8660    -1.6460 H     1 <1>   0.0800 
 33 H       -1.0270     3.3250     0.4790 H     1 <1>   0.4500 
 34 H        0.3980     2.5360     0.6300 H     1 <1>   0.4500 
 35 H       -3.2550     2.9180    -0.7520 H     1 <1>   0.0800 
 36 H       -2.6830     2.5170     0.8440 H     1 <1>   0.0800 
 37 H       -0.0340     4.8080    -1.2110 H     1 <1>   0.0800 
 38 H        2.4830     3.4190    -0.2490 H     1 <1>   0.0800 
 39 H        1.8720     3.4480    -1.8900 H     1 <1>   0.0800 
 40 H       -0.4430     5.5050     1.0820 H     1 <1>   0.0800 
 41 H        1.0320     4.7340     1.6210 H     1 <1>   0.0800 
 42 H       -4.8770     1.2870    -1.9270 H     1 <1>   0.1500 
 43 H       -3.8430     0.8150     2.1840 H     1 <1>   0.1500 
 44 H        2.2650     5.8380    -2.0460 H     1 <1>   0.0800 
 45 H        3.7290     5.0580    -1.4890 H     1 <1>   0.0800 
 46 H        1.4590     7.0900     1.3900 H     1 <1>   0.0800 
 47 H        0.8430     7.0980    -0.2500 H     1 <1>   0.0800 
 48 H       -6.7580    -0.1910    -1.5270 H     1 <1>   0.1500 
 49 H       -5.7680    -0.6420     2.4050 H     1 <1>   0.1500 
 50 H        4.4720     5.1830     1.5920 H     1 <1>   0.1500 
 51 H        5.4540     9.7220     0.0220 H     1 <1>   0.1500 
 52 H        3.6350     9.6930    -1.4380 H     1 <1>   0.0800 
 53 H        2.2660     9.1380    -0.5120 H     1 <1>   0.0800 
 54 H        2.8760     8.1830    -1.8470 H     1 <1>   0.0800 
 55 H        6.5130     6.3270     2.3460 H     1 <1>   0.1500 
 56 H        6.9970     8.6060     1.5540 H     1 <1>   0.1500 
@<TRIPOS>BOND
  1   1   2  1   
  2   1   3  1   
  3   2   4  1   
  4   2  27  1   
  5   2  28  1   
  6   3   5  1   
  7   3  29  1   
  8   3  30  1   
  9   4   5  1   
 10   4   6  1   
 11   4  31  1   
 12   5   7  1   
 13   5  32  1   
 14   6   8  1   
 15   6  33  1   
 16   6  34  1   
 17   7   9  1   
 18   7  35  1   
 19   7  36  1   
 20   8  10  1   
 21   8  11  1   
 22   8  37  1   
 23   9  12  ar  
 24   9  13  ar  
 25  10  14  1   
 26  10  38  1   
 27  10  39  1   
 28  11  15  1   
 29  11  40  1   
 30  11  41  1   
 31  12  16  ar  
 32  12  42  1   
 33  13  17  ar  
 34  13  43  1   
 35  14  18  1   
 36  14  44  1   
 37  14  45  1   
 38  15  18  1   
 39  15  46  1   
 40  15  47  1   
 41  16  19  ar  
 42  16  48  1   
 43  17  19  ar  
 44  17  49  1   
 45  18  20  1   
 46  20  21  ar  
 47  20  22  ar  
 48  21  23  ar  
 49  21  24  1   
 50  22  25  ar  
 51  22  50  1   
 52  23  26  ar  
 53  23  51  1   
 54  24  52  1   
 55  24  53  1   
 56  24  54  1   
 57  25  26  ar  
 58  25  55  1   
 59  26  56  1   
@<TRIPOS>SUBSTRUCTURE
  1 ****   6 GROUP 4 **** **** 0

# MOE 2024.06 (io_trps.svl 2023.06)
