@<TRIPOS>MOLECULE
NONAME
32 34 1 0 0 
SMALL
USER_CHARGES


@<TRIPOS>ATOM
  1 S        0.1730    -0.5970     0.1820 S.3   1 <1>  -0.4600 
  2 C       -1.2630     0.5220     0.1060 C.3   1 <1>   0.2510 
  3 C       -0.7040    -2.1870     0.0960 C.3   1 <1>   0.2510 
  4 C       -2.4320    -0.4270    -0.0050 C.2   1 <1>   0.1080 
  5 C       -2.1520    -1.7770    -0.0110 C.2   1 <1>  -0.1810 
  6 N       -3.6980    -0.1710    -0.1000 N.2   1 <1>  -0.7070 
  7 C       -3.3500    -2.3970    -0.1130 C.2   1 <1>  -0.0880 
  8 N       -4.2810    -1.3950    -0.1640 N.pl3 1 <1>   0.3140 
  9 N       -3.5570    -3.7970    -0.1750 N.am  1 <1>  -0.4940 
 10 C       -5.7320    -1.4970    -0.3630 C.3   1 <1>   0.0160 
 11 C       -4.5510    -4.6100     0.3210 C.2   1 <1>   0.5440 
 12 O       -5.5180    -4.1200     0.8760 O.2   1 <1>  -0.5700 
 13 C       -4.4140    -6.0540     0.1780 C.ar  1 <1>   0.3960 
 14 N       -3.3200    -6.5510    -0.4270 N.ar  1 <1>  -0.6200 
 15 C       -5.4170    -6.8970     0.6700 C.ar  1 <1>   0.1600 
 16 C       -3.3200    -7.8700    -0.4930 C.ar  1 <1>   0.1600 
 17 N       -5.4110    -8.2180     0.6010 N.ar  1 <1>  -0.6200 
 18 C       -4.3320    -8.6860     0.0040 C.ar  1 <1>   0.1670 
 19 C       -4.2450   -10.1940    -0.1190 C.3   1 <1>  -0.0970 
 20 H       -1.1660     1.1470    -0.7620 H     1 <1>   0.0800 
 21 H       -1.2970     1.0990     1.0120 H     1 <1>   0.0800 
 22 H       -0.4990    -2.7320     1.0000 H     1 <1>   0.0800 
 23 H       -0.3580    -2.7140    -0.7750 H     1 <1>   0.0800 
 24 H       -2.7800    -4.3400    -0.5630 H     1 <1>   0.3700 
 25 H       -6.0940    -0.5860    -0.8000 H     1 <1>   0.0800 
 26 H       -6.2040    -1.6520     0.5890 H     1 <1>   0.0800 
 27 H       -5.9460    -2.3210    -1.0160 H     1 <1>   0.0800 
 28 H       -6.2690    -6.4440     1.1480 H     1 <1>   0.1500 
 29 H       -2.4720    -8.3340    -0.9670 H     1 <1>   0.1500 
 30 H       -3.3410   -10.4960    -0.6150 H     1 <1>   0.0800 
 31 H       -5.0870   -10.5580    -0.6790 H     1 <1>   0.0800 
 32 H       -4.2690   -10.6360     0.8610 H     1 <1>   0.0800 
@<TRIPOS>BOND
  1   1   2  1   
  2   1   3  1   
  3   2   4  1   
  4   2  20  1   
  5   2  21  1   
  6   3   5  1   
  7   3  22  1   
  8   3  23  1   
  9   4   5  1   
 10   4   6  2   
 11   5   7  2   
 12   6   8  1   
 13   7   8  1   
 14   7   9  1   
 15   8  10  1   
 16   9  11  am  
 17   9  24  1   
 18  10  25  1   
 19  10  26  1   
 20  10  27  1   
 21  11  12  2   
 22  11  13  1   
 23  13  14  ar  
 24  13  15  ar  
 25  14  16  ar  
 26  15  17  ar  
 27  15  28  1   
 28  16  18  ar  
 29  16  29  1   
 30  17  18  ar  
 31  18  19  1   
 32  19  30  1   
 33  19  31  1   
 34  19  32  1   
@<TRIPOS>SUBSTRUCTURE
  1 ****   9 GROUP 4 **** **** 0

# MOE 2024.06 (io_trps.svl 2023.06)
