@<TRIPOS>MOLECULE
NONAME
48 50 1 0 0 
SMALL
USER_CHARGES


@<TRIPOS>ATOM
  1 O       -0.4460    -0.6890     1.3240 O.3   1 <1>  -0.5600 
  2 C       -0.3260    -1.9140     0.6350 C.3   1 <1>   0.2800 
  3 C       -1.7040    -0.0840     1.4500 C.3   1 <1>   0.1200 
  4 C       -1.7150    -2.4500     0.1670 C.3   1 <1>   0.2000 
  5 C        0.3210    -2.8870     1.6460 C.3   1 <1>  -0.1600 
  6 C        0.6300    -1.6220    -0.5430 C.3   1 <1>  -0.1600 
  7 C       -2.3610     0.0160     0.0700 C.3   1 <1>  -0.1600 
  8 O       -1.6050    -3.6260    -0.5870 O.3   1 <1>  -0.6800 
  9 C       -2.5870    -1.3760    -0.5480 C.3   1 <1>   0.2800 
 10 C        1.2730    -3.8700     0.9650 C.3   1 <1>   0.2090 
 11 C        2.0910    -1.7230    -0.1160 C.3   1 <1>   0.2090 
 12 O       -3.9040    -1.7260    -0.3200 O.3   1 <1>  -0.6800 
 13 C       -2.4470    -1.3170    -2.0770 C.3   1 <1>  -0.2400 
 14 N        2.3980    -3.1380     0.2860 N.pl3 1 <1>  -0.8380 
 15 C        3.6400    -3.6660     0.0970 C.ar  1 <1>   0.4610 
 16 N        3.7620    -4.9880    -0.0840 N.ar  1 <1>  -0.1790 
 17 C        4.8130    -2.9430     0.0530 C.ar  1 <1>  -0.1500 
 18 C        4.9550    -5.5770    -0.2940 C.ar  1 <1>   0.7710 
 19 C        6.0050    -3.6040    -0.1610 C.ar  1 <1>   0.3920 
 20 N        6.0880    -4.9220    -0.3340 N.ar  1 <1>  -0.6200 
 21 N        5.0220    -6.8970    -0.4780 N.pl3 1 <1>  -0.9000 
 22 O        7.1190    -2.8770    -0.1930 O.3   1 <1>  -0.3620 
 23 C        8.4040    -3.4320    -0.4010 C.3   1 <1>   0.0400 
 24 H       -2.3040    -0.6630     2.1330 H     1 <1>   0.0800 
 25 H       -1.5530     0.8960     1.8690 H     1 <1>   0.0800 
 26 H       -2.2450    -2.7320     1.0610 H     1 <1>   0.0800 
 27 H        0.8790    -2.3390     2.3850 H     1 <1>   0.0800 
 28 H       -0.4390    -3.4410     2.1670 H     1 <1>   0.0800 
 29 H        0.4730    -2.3230    -1.3430 H     1 <1>   0.0800 
 30 H        0.4380    -0.6400    -0.9330 H     1 <1>   0.0800 
 31 H       -1.7030     0.5970    -0.5510 H     1 <1>   0.0800 
 32 H       -3.2870     0.5580     0.1450 H     1 <1>   0.0800 
 33 H       -2.5100    -3.8870    -0.8610 H     1 <1>   0.4000 
 34 H        0.7240    -4.4440     0.2370 H     1 <1>   0.0800 
 35 H        1.6660    -4.5410     1.7100 H     1 <1>   0.0800 
 36 H        2.2730    -1.0590     0.7140 H     1 <1>   0.0800 
 37 H        2.7210    -1.4250    -0.9380 H     1 <1>   0.0800 
 38 H       -4.4940    -1.1170    -0.8040 H     1 <1>   0.4000 
 39 H       -1.4350    -1.0990    -2.3560 H     1 <1>   0.0800 
 40 H       -3.0740    -0.5450    -2.4850 H     1 <1>   0.0800 
 41 H       -2.7190    -2.2570    -2.5240 H     1 <1>   0.0800 
 42 H        2.9220    -5.5410    -0.1290 H     1 <1>   0.4570 
 43 H        4.8170    -1.8800     0.1930 H     1 <1>   0.1500 
 44 H        4.2620    -7.5800    -0.4790 H     1 <1>   0.4000 
 45 H        5.9480    -7.3060    -0.6400 H     1 <1>   0.4000 
 46 H        9.1250    -2.6350    -0.3810 H     1 <1>   0.0800 
 47 H        8.4230    -3.9220    -1.3590 H     1 <1>   0.0800 
 48 H        8.6130    -4.1360     0.3860 H     1 <1>   0.0800 
@<TRIPOS>BOND
  1   1   2  1   
  2   1   3  1   
  3   2   4  1   
  4   2   5  1   
  5   2   6  1   
  6   3   7  1   
  7   3  24  1   
  8   3  25  1   
  9   4   8  1   
 10   4   9  1   
 11   4  26  1   
 12   5  10  1   
 13   5  27  1   
 14   5  28  1   
 15   6  11  1   
 16   6  29  1   
 17   6  30  1   
 18   7   9  1   
 19   7  31  1   
 20   7  32  1   
 21   8  33  1   
 22   9  12  1   
 23   9  13  1   
 24  10  14  1   
 25  10  34  1   
 26  10  35  1   
 27  11  14  1   
 28  11  36  1   
 29  11  37  1   
 30  12  38  1   
 31  13  39  1   
 32  13  40  1   
 33  13  41  1   
 34  14  15  1   
 35  15  16  ar  
 36  15  17  ar  
 37  16  18  ar  
 38  16  42  1   
 39  17  19  ar  
 40  17  43  1   
 41  18  20  ar  
 42  18  21  1   
 43  19  20  ar  
 44  19  22  1   
 45  21  44  1   
 46  21  45  1   
 47  22  23  1   
 48  23  46  1   
 49  23  47  1   
 50  23  48  1   
@<TRIPOS>SUBSTRUCTURE
  1 ****  14 GROUP 4 **** **** 0

# MOE 2024.06 (io_trps.svl 2023.06)
