@<TRIPOS>MOLECULE
NONAME
42 44 1 0 0 
SMALL
USER_CHARGES


@<TRIPOS>ATOM
  1 O       -0.5130    -0.1530     0.6410 O.2   1 <1>  -0.5700 
  2 C       -1.3440     0.6890     0.3590 C.2   1 <1>   0.5440 
  3 N       -2.5220     0.2960    -0.2460 N.am  1 <1>  -0.6600 
  4 C       -1.0750     2.0710     0.6880 C.ar  1 <1>   0.0860 
  5 C       -3.7400     1.1630    -0.2320 C.3   1 <1>   0.2200 
  6 C       -2.6530    -1.0980    -0.7720 C.3   1 <1>   0.0600 
  7 C       -0.7900     2.4360     2.0000 C.ar  1 <1>   0.1600 
  8 C       -1.0960     3.0820    -0.2630 C.ar  1 <1>  -0.1500 
  9 C       -4.9870     0.4940     0.3410 C.3   1 <1>  -0.1600 
 10 C       -4.1660     1.6240    -1.6220 C.3   1 <1>  -0.1600 
 11 N       -0.5710     3.6700     2.4290 N.ar  1 <1>  -0.6200 
 12 C       -0.8670     4.3770     0.1530 C.ar  1 <1>  -0.1430 
 13 C       -6.1480     1.3480    -0.1850 C.3   1 <1>  -0.0800 
 14 C       -5.6230     2.0700    -1.4400 C.3   1 <1>  -0.0800 
 15 C       -0.6130     4.6090     1.4970 C.ar  1 <1>   0.1600 
 16 C       -0.8850     5.5210    -0.8470 C.3   1 <1>  -0.0970 
 17 C       -6.5910     2.4460     0.7940 C.3   1 <1>  -0.1600 
 18 C       -5.7650     3.5750    -1.1670 C.3   1 <1>  -0.1600 
 19 C       -6.8220     3.6690    -0.0780 C.3   1 <1>   0.2000 
 20 O       -6.6430     4.8190     0.6580 O.3   1 <1>  -0.6800 
 21 H       -3.5580     2.0410     0.3640 H     1 <1>   0.0800 
 22 H       -3.3190    -1.1300    -1.6150 H     1 <1>   0.0800 
 23 H       -3.0290    -1.7410     0.0040 H     1 <1>   0.0800 
 24 H       -1.6920    -1.4670    -1.0870 H     1 <1>   0.0800 
 25 H       -0.7480     1.6500     2.7350 H     1 <1>   0.1500 
 26 H       -1.2840     2.8460    -1.2950 H     1 <1>   0.1500 
 27 H       -5.1020    -0.5000    -0.0500 H     1 <1>   0.0800 
 28 H       -4.9580     0.4490     1.4150 H     1 <1>   0.0800 
 29 H       -3.5410     2.4130    -1.9970 H     1 <1>   0.0800 
 30 H       -4.1420     0.7990    -2.3100 H     1 <1>   0.0800 
 31 H       -6.9920     0.7280    -0.4390 H     1 <1>   0.0800 
 32 H       -6.2140     1.7990    -2.3000 H     1 <1>   0.0800 
 33 H       -0.4310     5.6190     1.8240 H     1 <1>   0.1500 
 34 H       -1.5510     5.3010    -1.6610 H     1 <1>   0.0800 
 35 H        0.1040     5.6760    -1.2410 H     1 <1>   0.0800 
 36 H       -1.2150     6.4300    -0.3750 H     1 <1>   0.0800 
 37 H       -5.8090     2.6490     1.5050 H     1 <1>   0.0800 
 38 H       -7.4880     2.1660     1.3170 H     1 <1>   0.0800 
 39 H       -6.0690     4.1070    -2.0500 H     1 <1>   0.0800 
 40 H       -4.8350     3.9780    -0.8040 H     1 <1>   0.0800 
 41 H       -7.8150     3.6680    -0.4980 H     1 <1>   0.0800 
 42 H       -5.7660     4.8100     1.0820 H     1 <1>   0.4000 
@<TRIPOS>BOND
  1   1   2  2   
  2   2   3  am  
  3   2   4  1   
  4   3   5  1   
  5   3   6  1   
  6   4   7  ar  
  7   4   8  ar  
  8   5   9  1   
  9   5  10  1   
 10   5  21  1   
 11   6  22  1   
 12   6  23  1   
 13   6  24  1   
 14   7  11  ar  
 15   7  25  1   
 16   8  12  ar  
 17   8  26  1   
 18   9  13  1   
 19   9  27  1   
 20   9  28  1   
 21  10  14  1   
 22  10  29  1   
 23  10  30  1   
 24  11  15  ar  
 25  12  15  ar  
 26  12  16  1   
 27  13  14  1   
 28  13  17  1   
 29  13  31  1   
 30  14  18  1   
 31  14  32  1   
 32  15  33  1   
 33  16  34  1   
 34  16  35  1   
 35  16  36  1   
 36  17  19  1   
 37  17  37  1   
 38  17  38  1   
 39  18  19  1   
 40  18  39  1   
 41  18  40  1   
 42  19  20  1   
 43  19  41  1   
 44  20  42  1   
@<TRIPOS>SUBSTRUCTURE
  1 ****   5 GROUP 4 **** **** 0

# MOE 2024.06 (io_trps.svl 2023.06)
