@<TRIPOS>MOLECULE
NONAME
53 56 1 0 0 
SMALL
USER_CHARGES


@<TRIPOS>ATOM
  1 F       -0.7970    -0.0650     0.3550 F     1 <1>  -0.1900 
  2 C       -1.8910    -0.7830     0.3150 C.ar  1 <1>   0.1900 
  3 C       -2.9470    -0.3440    -0.4620 C.ar  1 <1>  -0.1500 
  4 C       -1.9500    -1.9510     1.0510 C.ar  1 <1>  -0.1500 
  5 C       -4.1010    -1.1070    -0.4990 C.ar  1 <1>  -0.1500 
  6 C       -3.1110    -2.7030     1.0030 C.ar  1 <1>  -0.1500 
  7 C       -4.1930    -2.2910     0.2310 C.ar  1 <1>   0.1000 
  8 N       -5.3440    -3.0690     0.2020 N.pl3 1 <1>  -0.8380 
  9 C       -5.5720    -3.8460    -1.0310 C.3   1 <1>   0.2090 
 10 C       -6.5520    -2.4810     0.8110 C.3   1 <1>   0.2090 
 11 C       -6.4690    -5.0270    -0.6710 C.3   1 <1>  -0.1600 
 12 C       -7.4650    -3.6350     1.2150 C.3   1 <1>  -0.1600 
 13 C       -7.7520    -4.5430     0.0160 C.3   1 <1>   0.4230 
 14 N       -8.5540    -5.6860     0.5080 N.4   1 <1>  -0.9060 
 15 C       -9.1330    -6.5990    -0.5170 C.3   1 <1>   0.4230 
 16 C      -10.4260    -7.1880     0.0420 C.3   1 <1>  -0.0800 
 17 C       -8.2720    -7.8580    -0.5970 C.3   1 <1>   0.1200 
 18 C       -9.9350    -8.4080     0.8450 C.3   1 <1>   0.1200 
 19 C      -11.4020    -7.5910    -1.0820 C.3   1 <1>  -0.0170 
 20 O       -8.5650    -8.5080     0.5920 O.3   1 <1>  -0.5600 
 21 C      -12.6940    -8.1440    -0.5040 C.ar  1 <1>  -0.1430 
 22 C      -13.6690    -7.3190     0.0230 C.ar  1 <1>  -0.1500 
 23 C      -12.9650    -9.4980    -0.4760 C.ar  1 <1>  -0.1500 
 24 C      -14.8250    -7.8720     0.5470 C.ar  1 <1>   0.1600 
 25 C      -14.1540    -9.9490     0.0720 C.ar  1 <1>   0.1600 
 26 N      -15.0870    -9.1670     0.5890 N.ar  1 <1>  -0.6200 
 27 H       -2.8620     0.5700    -1.0190 H     1 <1>   0.1500 
 28 H       -1.1080    -2.2590     1.6440 H     1 <1>   0.1500 
 29 H       -4.9340    -0.7880    -1.0970 H     1 <1>   0.1500 
 30 H       -3.1900    -3.6160     1.5630 H     1 <1>   0.1500 
 31 H       -6.0330    -3.2190    -1.7760 H     1 <1>   0.0800 
 32 H       -4.6280    -4.1970    -1.4170 H     1 <1>   0.0800 
 33 H       -6.2760    -1.9020     1.6780 H     1 <1>   0.0800 
 34 H       -7.0390    -1.8290     0.1040 H     1 <1>   0.0800 
 35 H       -5.9120    -5.6740    -0.0160 H     1 <1>   0.0800 
 36 H       -6.6960    -5.5550    -1.5780 H     1 <1>   0.0800 
 37 H       -8.3790    -3.2260     1.6050 H     1 <1>   0.0800 
 38 H       -6.9700    -4.1870     1.9950 H     1 <1>   0.0800 
 39 H       -8.3300    -3.9790    -0.7000 H     1 <1>   0.0800 
 40 H       -9.3070    -5.3300     1.1020 H     1 <1>   0.4500 
 41 H       -7.9760    -6.2810     1.1220 H     1 <1>   0.4500 
 42 H       -9.2670    -6.1070    -1.4660 H     1 <1>   0.0800 
 43 H      -10.9340    -6.4940     0.6880 H     1 <1>   0.0800 
 44 H       -7.2160    -7.6700    -0.6540 H     1 <1>   0.0800 
 45 H       -8.5710    -8.4940    -1.4130 H     1 <1>   0.0800 
 46 H      -10.4020    -9.3270     0.5340 H     1 <1>   0.0800 
 47 H      -10.0760    -8.2810     1.9050 H     1 <1>   0.0800 
 48 H      -10.9570    -8.3280    -1.7290 H     1 <1>   0.0800 
 49 H      -11.6410    -6.7320    -1.6860 H     1 <1>   0.0800 
 50 H      -13.5500    -6.2510     0.0310 H     1 <1>   0.1500 
 51 H      -12.2700   -10.2150    -0.8750 H     1 <1>   0.1500 
 52 H      -15.5770    -7.2150     0.9530 H     1 <1>   0.1500 
 53 H      -14.3490   -11.0080     0.0870 H     1 <1>   0.1500 
@<TRIPOS>BOND
  1   1   2  1   
  2   2   3  ar  
  3   2   4  ar  
  4   3   5  ar  
  5   3  27  1   
  6   4   6  ar  
  7   4  28  1   
  8   5   7  ar  
  9   5  29  1   
 10   6   7  ar  
 11   6  30  1   
 12   7   8  1   
 13   8   9  1   
 14   8  10  1   
 15   9  11  1   
 16   9  31  1   
 17   9  32  1   
 18  10  12  1   
 19  10  33  1   
 20  10  34  1   
 21  11  13  1   
 22  11  35  1   
 23  11  36  1   
 24  12  13  1   
 25  12  37  1   
 26  12  38  1   
 27  13  14  1   
 28  13  39  1   
 29  14  15  1   
 30  14  40  1   
 31  14  41  1   
 32  15  16  1   
 33  15  17  1   
 34  15  42  1   
 35  16  18  1   
 36  16  19  1   
 37  16  43  1   
 38  17  20  1   
 39  17  44  1   
 40  17  45  1   
 41  18  20  1   
 42  18  46  1   
 43  18  47  1   
 44  19  21  1   
 45  19  48  1   
 46  19  49  1   
 47  21  22  ar  
 48  21  23  ar  
 49  22  24  ar  
 50  22  50  1   
 51  23  25  ar  
 52  23  51  1   
 53  24  26  ar  
 54  24  52  1   
 55  25  26  ar  
 56  25  53  1   
@<TRIPOS>SUBSTRUCTURE
  1 ****  13 GROUP 4 **** **** 0

# MOE 2024.06 (io_trps.svl 2023.06)
