@<TRIPOS>MOLECULE
NONAME
52 55 1 0 0 
SMALL
USER_CHARGES


@<TRIPOS>ATOM
  1 S       -0.0470     2.4660     2.9760 S.3   1 <1>  -0.0800 
  2 C       -0.9130     2.1870     1.4720 C.2   1 <1>  -0.1400 
  3 C       -1.3290     1.6860     3.8950 C.2   1 <1>  -0.1100 
  4 C       -2.0760     1.5640     1.7040 C.2   1 <1>  -0.1810 
  5 C       -0.3690     2.6180     0.1150 C.3   1 <1>   0.4600 
  6 C       -2.3190     1.2680     3.0820 C.2   1 <1>  -0.1500 
  7 C       -2.9910     1.2410     0.5450 C.3   1 <1>   0.0210 
  8 O       -1.2270     2.1210    -0.8940 O.3   1 <1>  -0.5600 
  9 C        1.0060     1.9930    -0.1480 C.3   1 <1>  -0.1600 
 10 C       -0.2970     4.1480    -0.0050 C.3   1 <1>  -0.1600 
 11 C       -2.6160     2.1330    -0.6550 C.3   1 <1>   0.1200 
 12 C        1.5920     2.4560    -1.4830 C.3   1 <1>   0.1400 
 13 C        0.2970     4.5720    -1.3490 C.3   1 <1>   0.1400 
 14 N        1.6400     3.9460    -1.5010 N.am  1 <1>  -0.6600 
 15 C        2.8290     4.6180    -1.6340 C.2   1 <1>   0.5690 
 16 O        3.8650     4.0360    -1.8620 O.2   1 <1>  -0.5700 
 17 C        2.8760     6.1290    -1.5050 C.3   1 <1>  -0.0990 
 18 C        4.2970     6.6590    -1.2930 C.3   1 <1>   0.2810 
 19 N        4.8190     6.2560     0.0330 N.am  1 <1>  -0.7300 
 20 C        4.3520     8.1790    -1.1540 C.2   1 <1>   0.5690 
 21 C        5.1850     7.3430     0.7390 C.2   1 <1>   0.6900 
 22 O        3.9760     8.9630    -1.9930 O.2   1 <1>  -0.5700 
 23 N        4.8830     8.4910     0.0630 N.am  1 <1>  -0.4200 
 24 O        5.7340     7.2900     1.8170 O.2   1 <1>  -0.5700 
 25 C        5.1490     9.8550     0.5600 C.3   1 <1>   0.1400 
 26 C        3.9540    10.3570     1.3760 C.3   1 <1>  -0.1600 
 27 C        4.1980    11.7740     1.9070 C.3   1 <1>  -0.2400 
 28 H       -1.2020     1.6220     4.9610 H     1 <1>   0.1500 
 29 H       -3.2150     0.7620     3.3960 H     1 <1>   0.1500 
 30 H       -4.0140     1.4240     0.8180 H     1 <1>   0.0800 
 31 H       -2.8880     0.2050     0.2770 H     1 <1>   0.0800 
 32 H        0.9160     0.9230    -0.1380 H     1 <1>   0.0800 
 33 H        1.6870     2.2700     0.6350 H     1 <1>   0.0800 
 34 H        0.3240     4.5350     0.7820 H     1 <1>   0.0800 
 35 H       -1.2730     4.5740     0.1220 H     1 <1>   0.0800 
 36 H       -2.9220     3.1480    -0.4740 H     1 <1>   0.0800 
 37 H       -3.1040     1.7800    -1.5460 H     1 <1>   0.0800 
 38 H        0.9770     2.1110    -2.2970 H     1 <1>   0.0800 
 39 H        2.5760     2.0370    -1.6090 H     1 <1>   0.0800 
 40 H        0.3470     5.6430    -1.4070 H     1 <1>   0.0800 
 41 H       -0.3380     4.2310    -2.1500 H     1 <1>   0.0800 
 42 H        2.2680     6.4460    -0.6790 H     1 <1>   0.0800 
 43 H        2.4780     6.5540    -2.4080 H     1 <1>   0.0800 
 44 H        4.9630     6.3380    -2.0750 H     1 <1>   0.0800 
 45 H        5.1490     5.3090     0.2290 H     1 <1>   0.3700 
 46 H        5.3230    10.5090    -0.2780 H     1 <1>   0.0800 
 47 H        6.0350     9.8420     1.1720 H     1 <1>   0.0800 
 48 H        3.7880     9.6940     2.2080 H     1 <1>   0.0800 
 49 H        3.0740    10.3600     0.7560 H     1 <1>   0.0800 
 50 H        5.0640    11.7940     2.5460 H     1 <1>   0.0800 
 51 H        3.3470    12.1040     2.4770 H     1 <1>   0.0800 
 52 H        4.3500    12.4610     1.0930 H     1 <1>   0.0800 
@<TRIPOS>BOND
  1   1   2  1   
  2   1   3  1   
  3   2   4  2   
  4   2   5  1   
  5   3   6  2   
  6   3  28  1   
  7   4   6  1   
  8   4   7  1   
  9   5   8  1   
 10   5   9  1   
 11   5  10  1   
 12   6  29  1   
 13   7  11  1   
 14   7  30  1   
 15   7  31  1   
 16   8  11  1   
 17   9  12  1   
 18   9  32  1   
 19   9  33  1   
 20  10  13  1   
 21  10  34  1   
 22  10  35  1   
 23  11  36  1   
 24  11  37  1   
 25  12  14  1   
 26  12  38  1   
 27  12  39  1   
 28  13  14  1   
 29  13  40  1   
 30  13  41  1   
 31  14  15  am  
 32  15  16  2   
 33  15  17  1   
 34  17  18  1   
 35  17  42  1   
 36  17  43  1   
 37  18  19  1   
 38  18  20  1   
 39  18  44  1   
 40  19  21  am  
 41  19  45  1   
 42  20  22  2   
 43  20  23  am  
 44  21  23  am  
 45  21  24  2   
 46  23  25  1   
 47  25  26  1   
 48  25  46  1   
 49  25  47  1   
 50  26  27  1   
 51  26  48  1   
 52  26  49  1   
 53  27  50  1   
 54  27  51  1   
 55  27  52  1   
@<TRIPOS>SUBSTRUCTURE
  1 ****  14 GROUP 4 **** **** 0

# MOE 2024.06 (io_trps.svl 2023.06)
