@<TRIPOS>MOLECULE
NONAME
53 55 1 0 0 
SMALL
USER_CHARGES


@<TRIPOS>ATOM
  1 S       -0.5930    -0.1640     0.7450 S.o2  1 <1>   1.3330 
  2 O        0.0670    -0.4850     1.9900 O.2   1 <1>  -0.6500 
  3 O       -1.8270     0.5880     0.7300 O.2   1 <1>  -0.6500 
  4 N       -0.7960    -1.5830    -0.1560 N.am  1 <1>  -0.8490 
  5 C        0.5770     0.7170    -0.2630 C.3   1 <1>  -0.1350 
  6 C       -0.5890    -2.8570     0.5130 C.3   1 <1>   0.2760 
  7 C       -2.1030    -1.8660    -0.6880 C.3   1 <1>   0.2760 
  8 C       -0.6870    -3.8330    -0.6940 C.3   1 <1>   0.0610 
  9 C       -1.8390    -2.9450     1.4180 C.3   1 <1>  -0.1600 
 10 C       -1.7820    -3.1070    -1.5340 C.3   1 <1>  -0.1600 
 11 C       -2.9150    -2.3050     0.5390 C.3   1 <1>  -0.1600 
 12 C       -1.0640    -5.2550    -0.2400 C.2   1 <1>   0.5690 
 13 C        0.6510    -3.9810    -1.4850 C.3   1 <1>  -0.1600 
 14 O       -0.5620    -5.7060     0.7630 O.2   1 <1>  -0.5700 
 15 N       -1.9150    -6.0140    -0.9850 N.am  1 <1>  -0.7300 
 16 C        1.3840    -2.7050    -1.9330 C.3   1 <1>  -0.2400 
 17 C       -2.2980    -7.4070    -0.6560 C.3   1 <1>   0.1400 
 18 C       -3.5240    -7.4100     0.2570 C.3   1 <1>  -0.0170 
 19 C       -3.9150    -8.8370     0.6060 C.ar  1 <1>  -0.1440 
 20 C       -4.9060    -9.4940    -0.1060 C.ar  1 <1>  -0.1500 
 21 C       -3.2740    -9.4930     1.6430 C.ar  1 <1>  -0.1500 
 22 C       -5.2680   -10.8020     0.2050 C.ar  1 <1>  -0.1440 
 23 C       -3.6190   -10.7920     1.9630 C.ar  1 <1>  -0.1500 
 24 C       -4.6080   -11.4430     1.2490 C.ar  1 <1>  -0.1500 
 25 C       -6.3650   -11.5150    -0.6000 C.3   1 <1>   1.1630 
 26 F       -5.8950   -12.0310    -1.7280 F     1 <1>  -0.3400 
 27 F       -7.3540   -10.6990    -0.9480 F     1 <1>  -0.3400 
 28 F       -6.9310   -12.5180     0.0620 F     1 <1>  -0.3400 
 29 H        1.4870     0.1580    -0.3460 H     1 <1>   0.0800 
 30 H        0.7950     1.6690     0.1780 H     1 <1>   0.0800 
 31 H        0.1730     0.8740    -1.2440 H     1 <1>   0.0800 
 32 H        0.3440    -2.9260     1.0490 H     1 <1>   0.0800 
 33 H       -2.5370    -1.0520    -1.2460 H     1 <1>   0.0800 
 34 H       -2.0960    -3.9430     1.7190 H     1 <1>   0.0800 
 35 H       -1.6890    -2.3700     2.3140 H     1 <1>   0.0800 
 36 H       -2.6740    -3.6820    -1.6930 H     1 <1>   0.0800 
 37 H       -1.4100    -2.7980    -2.4930 H     1 <1>   0.0800 
 38 H       -3.3610    -1.4580     1.0300 H     1 <1>   0.0800 
 39 H       -3.6940    -2.9990     0.2780 H     1 <1>   0.0800 
 40 H        1.3380    -4.5420    -0.8740 H     1 <1>   0.0800 
 41 H        0.4600    -4.5800    -2.3590 H     1 <1>   0.0800 
 42 H       -2.2880    -5.6430    -1.8590 H     1 <1>   0.3700 
 43 H        1.7210    -2.1480    -1.0770 H     1 <1>   0.0800 
 44 H        0.7510    -2.0760    -2.5310 H     1 <1>   0.0800 
 45 H        2.2480    -2.9680    -2.5170 H     1 <1>   0.0800 
 46 H       -2.5080    -7.9490    -1.5620 H     1 <1>   0.0800 
 47 H       -1.4790    -7.8960    -0.1550 H     1 <1>   0.0800 
 48 H       -3.2960    -6.8730     1.1610 H     1 <1>   0.0800 
 49 H       -4.3440    -6.9150    -0.2330 H     1 <1>   0.0800 
 50 H       -5.4020    -8.9810    -0.9140 H     1 <1>   0.1500 
 51 H       -2.5010    -8.9940     2.2040 H     1 <1>   0.1500 
 52 H       -3.1150   -11.2970     2.7700 H     1 <1>   0.1500 
 53 H       -4.8580   -12.4570     1.5150 H     1 <1>   0.1500 
@<TRIPOS>BOND
  1   1   2  2   
  2   1   3  2   
  3   1   4  am  
  4   1   5  1   
  5   4   6  1   
  6   4   7  1   
  7   5  29  1   
  8   5  30  1   
  9   5  31  1   
 10   6   8  1   
 11   6   9  1   
 12   6  32  1   
 13   7  10  1   
 14   7  11  1   
 15   7  33  1   
 16   8  10  1   
 17   8  12  1   
 18   8  13  1   
 19   9  11  1   
 20   9  34  1   
 21   9  35  1   
 22  10  36  1   
 23  10  37  1   
 24  11  38  1   
 25  11  39  1   
 26  12  14  2   
 27  12  15  am  
 28  13  16  1   
 29  13  40  1   
 30  13  41  1   
 31  15  17  1   
 32  15  42  1   
 33  16  43  1   
 34  16  44  1   
 35  16  45  1   
 36  17  18  1   
 37  17  46  1   
 38  17  47  1   
 39  18  19  1   
 40  18  48  1   
 41  18  49  1   
 42  19  20  ar  
 43  19  21  ar  
 44  20  22  ar  
 45  20  50  1   
 46  21  23  ar  
 47  21  51  1   
 48  22  24  ar  
 49  22  25  1   
 50  23  24  ar  
 51  23  52  1   
 52  24  53  1   
 53  25  26  1   
 54  25  27  1   
 55  25  28  1   
@<TRIPOS>SUBSTRUCTURE
  1 ****  15 GROUP 4 **** **** 0

# MOE 2024.06 (io_trps.svl 2023.06)
