@<TRIPOS>MOLECULE
NONAME
45 47 1 0 0 
SMALL
USER_CHARGES


@<TRIPOS>ATOM
  1 CL       0.0350     0.6870     1.0140 Cl    1 <1>  -0.1770 
  2 C        0.6240    -0.9070     0.6030 C.ar  1 <1>   0.1770 
  3 C        1.3850    -1.0990    -0.5430 C.ar  1 <1>  -0.1440 
  4 C        0.3120    -1.9510     1.4580 C.ar  1 <1>  -0.1500 
  5 C        1.8230    -2.3940    -0.7850 C.ar  1 <1>   0.1900 
  6 C        1.7230     0.0660    -1.4780 C.3   1 <1>   0.0450 
  7 C        0.7630    -3.2320     1.1820 C.ar  1 <1>  -0.1500 
  8 F        2.5620    -2.6360    -1.8350 F     1 <1>  -0.1900 
  9 C        1.5270    -3.4570     0.0490 C.ar  1 <1>  -0.1500 
 10 C        2.6700     1.0860    -0.8610 C.2   1 <1>   0.5690 
 11 O        2.6220     2.2300    -1.2440 O.2   1 <1>  -0.5700 
 12 N        3.6120     0.7350     0.0680 N.am  1 <1>  -0.6600 
 13 C        3.9770     1.7320     1.1460 C.3   1 <1>   0.1400 
 14 C        4.5380    -0.4080    -0.1910 C.3   1 <1>   0.1400 
 15 C        5.2240     2.5940     0.8140 C.3   1 <1>   0.4230 
 16 C        6.0330    -0.0240    -0.1470 C.3   1 <1>  -0.0800 
 17 N        5.5390     2.4190    -0.6520 N.4   1 <1>  -0.9590 
 18 C        6.3930     2.3260     1.8150 C.3   1 <1>   0.1200 
 19 C        6.5570    -0.0080     1.3010 C.3   1 <1>   0.1200 
 20 C        6.4180     1.2490    -0.9460 C.3   1 <1>   0.3430 
 21 C        6.0560     3.7070    -1.2840 C.3   1 <1>   0.2370 
 22 O        7.1900     1.1930     1.5670 O.3   1 <1>  -0.5600 
 23 C        7.0900     4.5180    -0.4960 C.2   1 <1>   0.9060 
 24 O        8.2740     4.4430    -0.8270 O.co2 1 <1>  -0.9000 
 25 O        6.6880     5.1580     0.4840 O.co2 1 <1>  -0.9000 
 26 H       -0.2830    -1.7600     2.3340 H     1 <1>   0.1500 
 27 H        0.8120     0.5730    -1.7400 H     1 <1>   0.0800 
 28 H        2.1560    -0.2820    -2.3960 H     1 <1>   0.0800 
 29 H        0.5200    -4.0470     1.8430 H     1 <1>   0.1500 
 30 H        1.8870    -4.4430    -0.1860 H     1 <1>   0.1500 
 31 H        3.1480     2.4050     1.2850 H     1 <1>   0.0800 
 32 H        4.1030     1.2200     2.0830 H     1 <1>   0.0800 
 33 H        4.3370    -1.1910     0.5210 H     1 <1>   0.0800 
 34 H        4.3310    -0.8080    -1.1690 H     1 <1>   0.0800 
 35 H        4.9300     3.6200     0.9740 H     1 <1>   0.0800 
 36 H        6.5560    -0.8360    -0.6190 H     1 <1>   0.0800 
 37 H        4.6070     2.2300    -1.0620 H     1 <1>   0.4500 
 38 H        6.0060     2.2430     2.8140 H     1 <1>   0.0800 
 39 H        7.0610     3.1690     1.8180 H     1 <1>   0.0800 
 40 H        7.2980    -0.7800     1.4250 H     1 <1>   0.0800 
 41 H        5.7870    -0.1710     2.0350 H     1 <1>   0.0800 
 42 H        6.3680     1.0360    -2.0000 H     1 <1>   0.0800 
 43 H        7.4400     1.5110    -0.7160 H     1 <1>   0.0800 
 44 H        6.4890     3.4930    -2.2440 H     1 <1>   0.0800 
 45 H        5.2250     4.3700    -1.4400 H     1 <1>   0.0800 
@<TRIPOS>BOND
  1   1   2  1   
  2   2   3  ar  
  3   2   4  ar  
  4   3   5  ar  
  5   3   6  1   
  6   4   7  ar  
  7   4  26  1   
  8   5   8  1   
  9   5   9  ar  
 10   6  10  1   
 11   6  27  1   
 12   6  28  1   
 13   7   9  ar  
 14   7  29  1   
 15   9  30  1   
 16  10  11  2   
 17  10  12  am  
 18  12  13  1   
 19  12  14  1   
 20  13  15  1   
 21  13  31  1   
 22  13  32  1   
 23  14  16  1   
 24  14  33  1   
 25  14  34  1   
 26  15  17  1   
 27  15  18  1   
 28  15  35  1   
 29  16  19  1   
 30  16  20  1   
 31  16  36  1   
 32  17  20  1   
 33  17  21  1   
 34  17  37  1   
 35  18  22  1   
 36  18  38  1   
 37  18  39  1   
 38  19  22  1   
 39  19  40  1   
 40  19  41  1   
 41  20  42  1   
 42  20  43  1   
 43  21  23  1   
 44  21  44  1   
 45  21  45  1   
 46  23  24  ar  
 47  23  25  ar  
@<TRIPOS>SUBSTRUCTURE
  1 ****  12 GROUP 4 **** **** 0

# MOE 2024.06 (io_trps.svl 2023.06)
