@<TRIPOS>MOLECULE
NONAME
52 54 1 0 0 
SMALL
USER_CHARGES


@<TRIPOS>ATOM
  1 O       -2.1150     0.9900    -1.8450 O.2   1 <1>  -0.5700 
  2 C       -1.8260     0.8050    -0.6890 C.2   1 <1>   0.5690 
  3 N       -1.7830    -0.4360    -0.1490 N.am  1 <1>  -0.7300 
  4 C       -1.5020     1.9930     0.1860 C.3   1 <1>  -0.0990 
  5 C       -2.0510    -1.6920    -0.8890 C.3   1 <1>   0.2200 
  6 C       -0.0370     2.4210     0.0190 C.3   1 <1>  -0.0990 
  7 C       -3.4180    -2.2620    -0.5360 C.3   1 <1>  -0.0800 
  8 C       -1.1440    -2.7870    -0.3440 C.3   1 <1>   0.1200 
  9 C        0.2790     3.6130     0.8920 C.2   1 <1>   0.5690 
 10 C       -3.1420    -3.0550     0.7460 C.3   1 <1>   0.1200 
 11 C       -4.5640    -1.2400    -0.4170 C.3   1 <1>  -0.0170 
 12 O       -1.7550    -3.2100     0.8370 O.3   1 <1>  -0.5600 
 13 O        0.5300     3.4270     2.0570 O.2   1 <1>  -0.5700 
 14 N        0.2490     4.8480     0.3380 N.am  1 <1>  -0.7300 
 15 C       -5.8880    -1.9390    -0.1500 C.ar  1 <1>  -0.1440 
 16 C        0.5180     6.1080     1.0500 C.3   1 <1>   0.2200 
 17 C       -6.4230    -2.0400     1.1180 C.ar  1 <1>  -0.1500 
 18 C       -6.6240    -2.5100    -1.1680 C.ar  1 <1>  -0.1500 
 19 C       -0.6880     7.0250     0.8980 C.3   1 <1>  -0.1600 
 20 C        1.6240     6.8580     0.3190 C.3   1 <1>  -0.1600 
 21 C       -7.6290    -2.6940     1.3030 C.ar  1 <1>   0.1600 
 22 C       -7.8210    -3.1430    -0.8770 C.ar  1 <1>   0.1600 
 23 C       -0.5440     7.6800    -0.4810 C.3   1 <1>  -0.1600 
 24 C        0.9410     7.5760    -0.8510 C.3   1 <1>  -0.1600 
 25 N       -8.3410    -3.2510     0.3360 N.ar  1 <1>  -0.6200 
 26 H       -1.5440    -0.5750     0.8350 H     1 <1>   0.3700 
 27 H       -2.1500     2.8060    -0.0890 H     1 <1>   0.0800 
 28 H       -1.6950     1.7490     1.2150 H     1 <1>   0.0800 
 29 H       -1.9230    -1.5440    -1.9480 H     1 <1>   0.0800 
 30 H        0.1580     2.6630    -1.0100 H     1 <1>   0.0800 
 31 H        0.6120     1.6110     0.3000 H     1 <1>   0.0800 
 32 H       -3.6820    -2.9720    -1.3000 H     1 <1>   0.0800 
 33 H       -0.1470    -2.4410    -0.1360 H     1 <1>   0.0800 
 34 H       -1.1100    -3.6250    -1.0180 H     1 <1>   0.0800 
 35 H       -3.6040    -4.0270     0.7210 H     1 <1>   0.0800 
 36 H       -3.4660    -2.5210     1.6230 H     1 <1>   0.0800 
 37 H       -4.6360    -0.6760    -1.3320 H     1 <1>   0.0800 
 38 H       -4.3660    -0.5420     0.3760 H     1 <1>   0.0800 
 39 H        0.0200     4.9670    -0.6480 H     1 <1>   0.3700 
 40 H        0.7640     5.9190     2.0830 H     1 <1>   0.0800 
 41 H       -5.9150    -1.6170     1.9650 H     1 <1>   0.1500 
 42 H       -6.2780    -2.4690    -2.1850 H     1 <1>   0.1500 
 43 H       -1.6180     6.4970     1.0150 H     1 <1>   0.0800 
 44 H       -0.6300     7.7880     1.6540 H     1 <1>   0.0800 
 45 H        2.0330     7.5940     0.9880 H     1 <1>   0.0800 
 46 H        2.4190     6.2050     0.0020 H     1 <1>   0.0800 
 47 H       -8.0310    -2.7640     2.2990 H     1 <1>   0.1500 
 48 H       -8.3820    -3.5830    -1.6840 H     1 <1>   0.1500 
 49 H       -1.1370     7.1460    -1.2040 H     1 <1>   0.0800 
 50 H       -0.8720     8.7050    -0.4540 H     1 <1>   0.0800 
 51 H        1.3760     8.5480    -1.0100 H     1 <1>   0.0800 
 52 H        1.0510     6.9960    -1.7520 H     1 <1>   0.0800 
@<TRIPOS>BOND
  1   1   2  2   
  2   2   3  am  
  3   2   4  1   
  4   3   5  1   
  5   3  26  1   
  6   4   6  1   
  7   4  27  1   
  8   4  28  1   
  9   5   7  1   
 10   5   8  1   
 11   5  29  1   
 12   6   9  1   
 13   6  30  1   
 14   6  31  1   
 15   7  10  1   
 16   7  11  1   
 17   7  32  1   
 18   8  12  1   
 19   8  33  1   
 20   8  34  1   
 21   9  13  2   
 22   9  14  am  
 23  10  12  1   
 24  10  35  1   
 25  10  36  1   
 26  11  15  1   
 27  11  37  1   
 28  11  38  1   
 29  14  16  1   
 30  14  39  1   
 31  15  17  ar  
 32  15  18  ar  
 33  16  19  1   
 34  16  20  1   
 35  16  40  1   
 36  17  21  ar  
 37  17  41  1   
 38  18  22  ar  
 39  18  42  1   
 40  19  23  1   
 41  19  43  1   
 42  19  44  1   
 43  20  24  1   
 44  20  45  1   
 45  20  46  1   
 46  21  25  ar  
 47  21  47  1   
 48  22  25  ar  
 49  22  48  1   
 50  23  24  1   
 51  23  49  1   
 52  23  50  1   
 53  24  51  1   
 54  24  52  1   
@<TRIPOS>SUBSTRUCTURE
  1 ****   2 GROUP 4 **** **** 0

# MOE 2024.06 (io_trps.svl 2023.06)
