@<TRIPOS>MOLECULE
NONAME
40 42 1 0 0 
SMALL
USER_CHARGES


@<TRIPOS>ATOM
  1 S        0.5160     0.1500     1.2140 S.3   1 <1>  -0.0800 
  2 C        0.6720     1.8300     0.7520 C.ar  1 <1>   0.0400 
  3 C       -1.2160     0.2540     0.9220 C.2   1 <1>   0.2280 
  4 C       -0.5820     2.3060     0.4230 C.ar  1 <1>   0.2270 
  5 C        1.8130     2.6070     0.6970 C.ar  1 <1>  -0.1500 
  6 N       -1.6280     1.3910     0.5310 N.2   1 <1>  -0.5650 
  7 C       -0.7010     3.6250     0.0230 C.ar  1 <1>  -0.1500 
  8 C        1.6700     3.9230     0.2960 C.ar  1 <1>  -0.1500 
  9 C        0.4150     4.4610    -0.0400 C.ar  1 <1>   0.0860 
 10 C        0.2700     5.8470    -0.4430 C.2   1 <1>   0.5440 
 11 O       -0.5200     6.1450    -1.3160 O.2   1 <1>  -0.5700 
 12 N        1.0230     6.8130     0.1730 N.am  1 <1>  -0.4930 
 13 C        1.0780     8.2110    -0.0580 C.2   1 <1>   0.0630 
 14 C        0.0390     9.1290    -0.2470 C.2   1 <1>   0.1080 
 15 C        2.2050     8.9550    -0.1030 C.2   1 <1>  -0.3320 
 16 N        0.4770    10.3400    -0.3970 N.2   1 <1>  -0.7070 
 17 C       -1.4420     8.8220    -0.2670 C.3   1 <1>  -0.0590 
 18 N        1.8140    10.2380    -0.3150 N.pl3 1 <1>   0.3140 
 19 C        3.6570     8.5160     0.0330 C.3   1 <1>  -0.0600 
 20 C        2.6710    11.4340    -0.4550 C.3   1 <1>   0.0960 
 21 C        2.9640    12.0650     0.9140 C.3   1 <1>  -0.1600 
 22 C        3.8640    13.2980     0.7810 C.3   1 <1>  -0.2400 
 23 H       -1.7890    -0.6410     1.0940 H     1 <1>   0.1500 
 24 H        2.7710     2.1900     0.9550 H     1 <1>   0.1500 
 25 H       -1.6740     4.0010    -0.2420 H     1 <1>   0.1500 
 26 H        2.5470     4.5440     0.2290 H     1 <1>   0.1500 
 27 H        1.6630     6.4950     0.8950 H     1 <1>   0.3700 
 28 H       -1.6620     8.0050     0.3930 H     1 <1>   0.0800 
 29 H       -1.7370     8.5590    -1.2650 H     1 <1>   0.0800 
 30 H       -1.9980     9.6860     0.0470 H     1 <1>   0.0800 
 31 H        3.7210     7.4520     0.1680 H     1 <1>   0.0800 
 32 H        4.1140     8.9970     0.8790 H     1 <1>   0.0800 
 33 H        4.2040     8.7750    -0.8560 H     1 <1>   0.0800 
 34 H        2.1550    12.1390    -1.0800 H     1 <1>   0.0800 
 35 H        3.5830    11.1500    -0.9440 H     1 <1>   0.0800 
 36 H        3.4450    11.3420     1.5500 H     1 <1>   0.0800 
 37 H        2.0330    12.3530     1.3720 H     1 <1>   0.0800 
 38 H        4.8090    13.0330     0.3400 H     1 <1>   0.0800 
 39 H        4.0480    13.7250     1.7510 H     1 <1>   0.0800 
 40 H        3.3900    14.0450     0.1660 H     1 <1>   0.0800 
@<TRIPOS>BOND
  1   1   2  1   
  2   1   3  1   
  3   2   4  ar  
  4   2   5  ar  
  5   3   6  2   
  6   3  23  1   
  7   4   6  1   
  8   4   7  ar  
  9   5   8  ar  
 10   5  24  1   
 11   7   9  ar  
 12   7  25  1   
 13   8   9  ar  
 14   8  26  1   
 15   9  10  1   
 16  10  11  2   
 17  10  12  am  
 18  12  13  1   
 19  12  27  1   
 20  13  14  1   
 21  13  15  2   
 22  14  16  2   
 23  14  17  1   
 24  15  18  1   
 25  15  19  1   
 26  16  18  1   
 27  17  28  1   
 28  17  29  1   
 29  17  30  1   
 30  18  20  1   
 31  19  31  1   
 32  19  32  1   
 33  19  33  1   
 34  20  21  1   
 35  20  34  1   
 36  20  35  1   
 37  21  22  1   
 38  21  36  1   
 39  21  37  1   
 40  22  38  1   
 41  22  39  1   
 42  22  40  1   
@<TRIPOS>SUBSTRUCTURE
  1 ****  12 GROUP 4 **** **** 0

# MOE 2024.06 (io_trps.svl 2023.06)
