@<TRIPOS>MOLECULE
STOCK7S-72092
36 38 1 0 0 
SMALL
USER_CHARGES


@<TRIPOS>ATOM
  1 S       -0.4430    -0.2750    -1.0530 S.o2  1 <1>   1.0900 
  2 O       -0.4890     1.1680    -1.0860 O.2   1 <1>  -0.6500 
  3 O        0.0280    -1.0520    -2.1760 O.2   1 <1>  -0.6500 
  4 C       -2.0250    -0.9000    -0.5140 C.3   1 <1>  -0.0550 
  5 C        0.4250    -0.7770     0.4270 C.3   1 <1>  -0.0550 
  6 C       -1.9490    -1.0930     1.0090 C.3   1 <1>  -0.0800 
  7 C       -0.5310    -1.6190     1.2860 C.3   1 <1>  -0.1600 
  8 C       -3.0340    -2.0300     1.5650 C.3   1 <1>   0.1400 
  9 N       -4.3940    -1.4560     1.3520 N.am  1 <1>  -0.4690 
 10 C       -5.1740    -1.8570     0.2670 C.2   1 <1>   0.6160 
 11 C       -4.8780    -0.5560     2.2710 C.2   1 <1>  -0.0410 
 12 O       -4.6740    -2.6350    -0.5370 O.2   1 <1>  -0.5700 
 13 C       -6.5160    -1.3380     0.1210 C.2   1 <1>   0.0140 
 14 C       -6.1280    -0.0450     2.1500 C.2   1 <1>  -0.1500 
 15 C       -6.9550    -0.4350     1.0790 C.2   1 <1>   0.0770 
 16 C       -7.4400    -1.6760    -0.9310 C.2   1 <1>  -0.1380 
 17 O       -8.1790     0.1070     1.0400 O.3   1 <1>  -0.2270 
 18 C       -8.6690    -1.1010    -0.9240 C.2   1 <1>  -0.1360 
 19 C       -7.0840    -2.6540    -2.0450 C.3   1 <1>  -0.1020 
 20 C       -9.0630    -0.1830     0.0840 C.2   1 <1>   0.7060 
 21 O      -10.1540     0.3510     0.1220 O.2   1 <1>  -0.5700 
 22 H       -2.2050    -1.8500    -0.9820 H     1 <1>   0.0800 
 23 H       -2.8220    -0.2330    -0.7840 H     1 <1>   0.0800 
 24 H        0.7090     0.1010     0.9770 H     1 <1>   0.0800 
 25 H        1.3130    -1.3300     0.1870 H     1 <1>   0.0800 
 26 H       -2.0450    -0.1300     1.4820 H     1 <1>   0.0800 
 27 H       -0.2770    -1.5520     2.3300 H     1 <1>   0.0800 
 28 H       -0.4610    -2.6490     0.9770 H     1 <1>   0.0800 
 29 H       -2.8810    -2.1700     2.6210 H     1 <1>   0.0800 
 30 H       -2.9630    -2.9990     1.1010 H     1 <1>   0.0800 
 31 H       -4.2350    -0.2710     3.0890 H     1 <1>   0.1500 
 32 H       -6.5180     0.6610     2.8620 H     1 <1>   0.1500 
 33 H       -9.4110    -1.3050    -1.6730 H     1 <1>   0.1500 
 34 H       -6.8410    -3.6170    -1.6300 H     1 <1>   0.0800 
 35 H       -6.2370    -2.2920    -2.6000 H     1 <1>   0.0800 
 36 H       -7.9020    -2.7820    -2.7300 H     1 <1>   0.0800 
@<TRIPOS>BOND
  1   1   2  2   
  2   1   3  2   
  3   1   4  1   
  4   1   5  1   
  5   4   6  1   
  6   4  22  1   
  7   4  23  1   
  8   5   7  1   
  9   5  24  1   
 10   5  25  1   
 11   6   7  1   
 12   6   8  1   
 13   6  26  1   
 14   7  27  1   
 15   7  28  1   
 16   8   9  1   
 17   8  29  1   
 18   8  30  1   
 19   9  10  am  
 20   9  11  1   
 21  10  12  2   
 22  10  13  1   
 23  11  14  2   
 24  11  31  1   
 25  13  15  2   
 26  13  16  1   
 27  14  15  1   
 28  14  32  1   
 29  15  17  1   
 30  16  18  2   
 31  16  19  1   
 32  17  20  1   
 33  18  20  1   
 34  18  33  1   
 35  19  34  1   
 36  19  35  1   
 37  19  36  1   
 38  20  21  2   
@<TRIPOS>SUBSTRUCTURE
  1 ****  10 GROUP 4 **** **** 0

# MOE 2024.06 (io_trps.svl 2023.06)
