@<TRIPOS>MOLECULE
NONAME
44 45 1 0 0 
SMALL
USER_CHARGES


@<TRIPOS>ATOM
  1 CL       1.9430     2.1490    -1.4420 Cl    1 <1>  -0.1770 
  2 C        2.5830     0.5960    -0.9520 C.ar  1 <1>   0.1770 
  3 C        3.7340     0.5190    -0.1680 C.ar  1 <1>   0.0830 
  4 C        1.9280    -0.5470    -1.3700 C.ar  1 <1>  -0.1500 
  5 O        4.3900     1.6290     0.2440 O.3   1 <1>  -0.3630 
  6 C        4.2480    -0.7220     0.1860 C.ar  1 <1>  -0.1500 
  7 C        2.4560    -1.7670    -0.9920 C.ar  1 <1>   0.1900 
  8 C        3.7940     2.3960     1.2880 C.3   1 <1>   0.2610 
  9 C        3.6030    -1.8780    -0.2250 C.ar  1 <1>  -0.1500 
 10 F        1.8510    -2.8580    -1.3770 F     1 <1>  -0.1900 
 11 C        3.8770     3.8980     0.9630 C.2   1 <1>   0.5690 
 12 C        4.5170     2.0260     2.5890 C.3   1 <1>  -0.2400 
 13 O        3.4950     4.7030     1.7810 O.2   1 <1>  -0.5700 
 14 N        4.3780     4.2940    -0.2400 N.am  1 <1>  -0.7300 
 15 C        4.4910     5.6980    -0.7110 C.3   1 <1>   0.1400 
 16 C        5.9620     6.1850    -0.7620 C.3   1 <1>   0.0000 
 17 C        6.5960     6.1770     0.6490 C.3   1 <1>  -0.1600 
 18 C        6.0050     7.6430    -1.2760 C.3   1 <1>  -0.1600 
 19 C        6.8060     5.2800    -1.6880 C.3   1 <1>   0.1200 
 20 C        5.9840     7.2460     1.5620 C.3   1 <1>   0.1200 
 21 C        5.4480     8.6430    -0.2520 C.3   1 <1>   0.1200 
 22 O        6.2880     5.2500    -2.9780 O.3   1 <1>  -0.6800 
 23 O        6.1250     8.4940     0.9560 O.3   1 <1>  -0.5600 
 24 H        1.0390    -0.4920    -1.9710 H     1 <1>   0.1500 
 25 H        5.1450    -0.7770     0.7780 H     1 <1>   0.1500 
 26 H        2.7540     2.1320     1.3640 H     1 <1>   0.0800 
 27 H        3.9800    -2.8500     0.0400 H     1 <1>   0.1500 
 28 H        5.5600     2.2800     2.5190 H     1 <1>   0.0800 
 29 H        4.4100     0.9770     2.7920 H     1 <1>   0.0800 
 30 H        4.0890     2.5760     3.4080 H     1 <1>   0.0800 
 31 H        4.6780     3.5560    -0.8830 H     1 <1>   0.3700 
 32 H        3.9140     6.3300    -0.0600 H     1 <1>   0.0800 
 33 H        4.0470     5.7700    -1.6880 H     1 <1>   0.0800 
 34 H        7.6510     6.3770     0.5760 H     1 <1>   0.0800 
 35 H        6.4860     5.2140     1.1130 H     1 <1>   0.0800 
 36 H        5.4550     7.7320    -2.1960 H     1 <1>   0.0800 
 37 H        7.0230     7.9220    -1.4870 H     1 <1>   0.0800 
 38 H        6.8420     4.2700    -1.3170 H     1 <1>   0.0800 
 39 H        7.8140     5.6520    -1.7560 H     1 <1>   0.0800 
 40 H        6.5050     7.2790     2.5030 H     1 <1>   0.0800 
 41 H        4.9400     7.0640     1.7540 H     1 <1>   0.0800 
 42 H        4.3960     8.4980    -0.0770 H     1 <1>   0.0800 
 43 H        5.6060     9.6520    -0.5910 H     1 <1>   0.0800 
 44 H        5.4110     4.8220    -2.9920 H     1 <1>   0.4000 
@<TRIPOS>BOND
  1   1   2  1   
  2   2   3  ar  
  3   2   4  ar  
  4   3   5  1   
  5   3   6  ar  
  6   4   7  ar  
  7   4  24  1   
  8   5   8  1   
  9   6   9  ar  
 10   6  25  1   
 11   7   9  ar  
 12   7  10  1   
 13   8  11  1   
 14   8  12  1   
 15   8  26  1   
 16   9  27  1   
 17  11  13  2   
 18  11  14  am  
 19  12  28  1   
 20  12  29  1   
 21  12  30  1   
 22  14  15  1   
 23  14  31  1   
 24  15  16  1   
 25  15  32  1   
 26  15  33  1   
 27  16  17  1   
 28  16  18  1   
 29  16  19  1   
 30  17  20  1   
 31  17  34  1   
 32  17  35  1   
 33  18  21  1   
 34  18  36  1   
 35  18  37  1   
 36  19  22  1   
 37  19  38  1   
 38  19  39  1   
 39  20  23  1   
 40  20  40  1   
 41  20  41  1   
 42  21  23  1   
 43  21  42  1   
 44  21  43  1   
 45  22  44  1   
@<TRIPOS>SUBSTRUCTURE
  1 ****  14 GROUP 4 **** **** 0

# MOE 2024.06 (io_trps.svl 2023.06)
