@<TRIPOS>MOLECULE
NONAME
50 54 1 0 0 
SMALL
USER_CHARGES


@<TRIPOS>ATOM
  1 O        0.7160    -0.9480     0.3690 O.2   1 <1>  -0.5700 
  2 C        0.3370    -2.0860     0.2520 C.2   1 <1>   0.5690 
  3 N       -0.6130    -2.4170    -0.6560 N.am  1 <1>  -0.5470 
  4 C        0.9410    -3.2010     1.1060 C.3   1 <1>   0.1810 
  5 C       -1.1090    -3.7120    -0.7740 C.ar  1 <1>   0.1170 
  6 O        0.1340    -4.3840     1.1740 O.3   1 <1>  -0.3630 
  7 C       -0.7180    -4.6830     0.1530 C.ar  1 <1>   0.0830 
  8 C       -1.9860    -4.0720    -1.7850 C.ar  1 <1>  -0.1500 
  9 C       -1.1990    -5.9740     0.0610 C.ar  1 <1>  -0.1500 
 10 C       -2.4610    -5.3690    -1.8690 C.ar  1 <1>  -0.1500 
 11 C       -2.0870    -6.3530    -0.9500 C.ar  1 <1>   0.0860 
 12 C       -2.5970    -7.7100    -1.0540 C.2   1 <1>   0.5440 
 13 O       -3.0760    -8.1280    -2.0910 O.2   1 <1>  -0.5700 
 14 N       -2.6180    -8.5720     0.0180 N.am  1 <1>  -0.6600 
 15 C       -3.4700    -8.2590     1.2030 C.3   1 <1>   0.1400 
 16 C       -2.4490   -10.0320    -0.2320 C.3   1 <1>   0.1400 
 17 C       -4.8430    -8.9790     1.1300 C.3   1 <1>   0.4230 
 18 C       -3.8230   -10.7080    -0.3710 C.3   1 <1>   0.3430 
 19 N       -4.7000   -10.4650     0.8380 N.4   1 <1>  -0.9590 
 20 C       -5.7750    -8.3010     0.0970 C.3   1 <1>   0.1200 
 21 C       -6.0620   -11.0880     0.7040 C.3   1 <1>   0.5180 
 22 O       -7.0120    -8.9530     0.0660 O.3   1 <1>  -0.5600 
 23 C       -5.9100   -12.5900     0.3860 C.3   1 <1>  -0.1950 
 24 C       -6.9470   -10.3040    -0.2970 C.3   1 <1>   0.1200 
 25 C       -5.7910   -13.1660    -0.9960 C.3   1 <1>  -0.2000 
 26 C       -7.0260   -13.4180    -0.1790 C.3   1 <1>  -0.2000 
 27 H       -0.9650    -1.6580    -1.2390 H     1 <1>   0.3700 
 28 H        1.0870    -2.8460     2.1090 H     1 <1>   0.0800 
 29 H        1.8920    -3.4800     0.6930 H     1 <1>   0.0800 
 30 H       -2.2950    -3.3400    -2.5100 H     1 <1>   0.1500 
 31 H       -0.8670    -6.6960     0.7850 H     1 <1>   0.1500 
 32 H       -3.1350    -5.6310    -2.6680 H     1 <1>   0.1500 
 33 H       -2.9520    -8.5630     2.0960 H     1 <1>   0.0800 
 34 H       -3.6270    -7.1950     1.2710 H     1 <1>   0.0800 
 35 H       -1.8890   -10.1810    -1.1410 H     1 <1>   0.0800 
 36 H       -1.8910   -10.4780     0.5720 H     1 <1>   0.0800 
 37 H       -5.3170    -8.8590     2.0900 H     1 <1>   0.0800 
 38 H       -3.6750   -11.7650    -0.5140 H     1 <1>   0.0800 
 39 H       -4.3000   -10.3180    -1.2560 H     1 <1>   0.0800 
 40 H       -4.2450   -10.9050     1.6430 H     1 <1>   0.4500 
 41 H       -5.3540    -8.3140    -0.8930 H     1 <1>   0.0800 
 42 H       -5.9570    -7.2770     0.3740 H     1 <1>   0.0800 
 43 H       -6.5590   -11.0210     1.6580 H     1 <1>   0.0800 
 44 H       -5.3570   -13.0830     1.1670 H     1 <1>   0.1000 
 45 H       -7.9520   -10.6860    -0.2810 H     1 <1>   0.0800 
 46 H       -6.5710   -10.3740    -1.3020 H     1 <1>   0.0800 
 47 H       -5.9040   -12.5560    -1.8770 H     1 <1>   0.1000 
 48 H       -5.1280   -13.9980    -1.1670 H     1 <1>   0.1000 
 49 H       -7.1830   -14.4120     0.2080 H     1 <1>   0.1000 
 50 H       -7.9470   -12.9740    -0.5160 H     1 <1>   0.1000 
@<TRIPOS>BOND
  1   1   2  2   
  2   2   3  am  
  3   2   4  1   
  4   3   5  1   
  5   3  27  1   
  6   4   6  1   
  7   4  28  1   
  8   4  29  1   
  9   5   7  ar  
 10   5   8  ar  
 11   6   7  1   
 12   7   9  ar  
 13   8  10  ar  
 14   8  30  1   
 15   9  11  ar  
 16   9  31  1   
 17  10  11  ar  
 18  10  32  1   
 19  11  12  1   
 20  12  13  2   
 21  12  14  am  
 22  14  15  1   
 23  14  16  1   
 24  15  17  1   
 25  15  33  1   
 26  15  34  1   
 27  16  18  1   
 28  16  35  1   
 29  16  36  1   
 30  17  19  1   
 31  17  20  1   
 32  17  37  1   
 33  18  19  1   
 34  18  38  1   
 35  18  39  1   
 36  19  21  1   
 37  19  40  1   
 38  20  22  1   
 39  20  41  1   
 40  20  42  1   
 41  21  23  1   
 42  21  24  1   
 43  21  43  1   
 44  22  24  1   
 45  23  25  1   
 46  23  26  1   
 47  23  44  1   
 48  24  45  1   
 49  24  46  1   
 50  25  26  1   
 51  25  47  1   
 52  25  48  1   
 53  26  49  1   
 54  26  50  1   
@<TRIPOS>SUBSTRUCTURE
  1 ****  12 GROUP 4 **** **** 0

# MOE 2024.06 (io_trps.svl 2023.06)
