@<TRIPOS>MOLECULE
NONAME
46 48 1 0 0 
SMALL
USER_CHARGES


@<TRIPOS>ATOM
  1 S        0.1580    -0.0670     0.0760 S.o2  1 <1>   1.3330 
  2 O        0.2220    -0.6740     1.3870 O.2   1 <1>  -0.6500 
  3 O       -0.5660     1.1710    -0.1040 O.2   1 <1>  -0.6500 
  4 N       -0.4680    -1.2170    -1.0040 N.am  1 <1>  -0.8490 
  5 C        1.8210     0.1840    -0.5450 C.3   1 <1>  -0.0550 
  6 C       -0.1410    -2.6000    -0.6380 C.3   1 <1>   0.1160 
  7 C       -1.9160    -1.0790    -1.1890 C.3   1 <1>   0.1160 
  8 C        2.5810     1.3040     0.1910 C.3   1 <1>  -0.0800 
  9 C        3.9080     1.6110    -0.4870 C.3   1 <1>   0.2200 
 10 C        2.9940     0.8950     1.6150 C.3   1 <1>   0.1200 
 11 N        4.2180     3.0440    -0.2860 N.am  1 <1>  -0.7300 
 12 C        4.8780     0.7690     0.3270 C.3   1 <1>   0.1200 
 13 O        4.3890     0.8220     1.6280 O.3   1 <1>  -0.5600 
 14 C        4.4190     3.9570    -1.2800 C.2   1 <1>   0.5440 
 15 O        4.4370     3.5690    -2.4300 O.2   1 <1>  -0.5700 
 16 C        4.6130     5.3530    -0.9780 C.ar  1 <1>   0.0860 
 17 C        5.3390     6.1900    -1.8040 C.ar  1 <1>   0.1600 
 18 C        4.0830     5.9560     0.1470 C.ar  1 <1>   0.1600 
 19 N        5.5410     7.4640    -1.5430 N.ar  1 <1>  -0.6200 
 20 N        4.2650     7.2240     0.4410 N.ar  1 <1>  -0.6200 
 21 C        4.9930     7.9140    -0.4240 C.ar  1 <1>   0.5880 
 22 C        5.2170     9.3850    -0.1030 C.3   1 <1>  -0.0680 
 23 C        6.6030     9.9580    -0.0120 C.3   1 <1>  -0.2000 
 24 C        5.7720     9.8180     1.2250 C.3   1 <1>  -0.2000 
 25 H        2.3730    -0.7330    -0.4790 H     1 <1>   0.0800 
 26 H        1.7480     0.4490    -1.5820 H     1 <1>   0.0800 
 27 H       -0.4820    -3.2750    -1.4040 H     1 <1>   0.0800 
 28 H       -0.6110    -2.8630     0.2960 H     1 <1>   0.0800 
 29 H        0.9240    -2.7150    -0.5320 H     1 <1>   0.0800 
 30 H       -2.2750    -1.8120    -1.8910 H     1 <1>   0.0800 
 31 H       -2.1470    -0.1010    -1.5790 H     1 <1>   0.0800 
 32 H       -2.4270    -1.2060    -0.2490 H     1 <1>   0.0800 
 33 H        1.9520     2.1790     0.2140 H     1 <1>   0.0800 
 34 H        3.9270     1.3560    -1.5330 H     1 <1>   0.0800 
 35 H        2.6100    -0.0690     1.9020 H     1 <1>   0.0800 
 36 H        2.6920     1.6300     2.3420 H     1 <1>   0.0800 
 37 H        4.3970     3.2780     0.6940 H     1 <1>   0.3700 
 38 H        5.8850     1.1470     0.2990 H     1 <1>   0.0800 
 39 H        4.8620    -0.2590     0.0070 H     1 <1>   0.0800 
 40 H        5.7650     5.7880    -2.7090 H     1 <1>   0.1500 
 41 H        3.4850     5.3750     0.8270 H     1 <1>   0.1500 
 42 H        4.4560    10.0010    -0.5460 H     1 <1>   0.1000 
 43 H        7.4390     9.2960    -0.1570 H     1 <1>   0.1000 
 44 H        6.7770    10.9390    -0.4190 H     1 <1>   0.1000 
 45 H        5.3650    10.7000     1.6860 H     1 <1>   0.1000 
 46 H        6.0320     9.0590     1.9420 H     1 <1>   0.1000 
@<TRIPOS>BOND
  1   1   2  2   
  2   1   3  2   
  3   1   4  am  
  4   1   5  1   
  5   4   6  1   
  6   4   7  1   
  7   5   8  1   
  8   5  25  1   
  9   5  26  1   
 10   6  27  1   
 11   6  28  1   
 12   6  29  1   
 13   7  30  1   
 14   7  31  1   
 15   7  32  1   
 16   8   9  1   
 17   8  10  1   
 18   8  33  1   
 19   9  11  1   
 20   9  12  1   
 21   9  34  1   
 22  10  13  1   
 23  10  35  1   
 24  10  36  1   
 25  11  14  am  
 26  11  37  1   
 27  12  13  1   
 28  12  38  1   
 29  12  39  1   
 30  14  15  2   
 31  14  16  1   
 32  16  17  ar  
 33  16  18  ar  
 34  17  19  ar  
 35  17  40  1   
 36  18  20  ar  
 37  18  41  1   
 38  19  21  ar  
 39  20  21  ar  
 40  21  22  1   
 41  22  23  1   
 42  22  24  1   
 43  22  42  1   
 44  23  24  1   
 45  23  43  1   
 46  23  44  1   
 47  24  45  1   
 48  24  46  1   
@<TRIPOS>SUBSTRUCTURE
  1 ****  11 GROUP 4 **** **** 0

# MOE 2024.06 (io_trps.svl 2023.06)
