@<TRIPOS>MOLECULE
NONAME
55 58 1 0 0 
SMALL
USER_CHARGES


@<TRIPOS>ATOM
  1 O       -0.4510    -0.4870     1.1340 O.2   1 <1>  -0.5700 
  2 C       -1.3370     0.3460     1.1270 C.2   1 <1>   0.7160 
  3 N       -2.4140     0.1420     1.9290 N.am  1 <1>  -0.7300 
  4 C       -1.2910     1.4880     0.2650 C.2   1 <1>  -0.0860 
  5 C       -2.8270    -1.1730     2.5030 C.3   1 <1>   0.2010 
  6 C       -2.3960     2.2520    -0.1360 C.2   1 <1>   0.3720 
  7 C       -0.2510     2.0770    -0.3880 C.2   1 <1>   0.0870 
  8 C       -3.9700    -1.8180     1.7130 C.2   1 <1>   0.5690 
  9 N       -2.0460     3.1860    -0.9480 N.2   1 <1>  -0.4100 
 10 N       -3.7230     2.0190     0.2610 N.pl3 1 <1>  -0.8210 
 11 O       -0.7540     3.0640    -1.0870 O.3   1 <1>  -0.0190 
 12 C        1.1680     1.8290    -0.4370 C.ar  1 <1>   0.0530 
 13 O       -5.0880    -1.7360     2.1690 O.2   1 <1>  -0.5700 
 14 N       -3.7400    -2.4440     0.5150 N.am  1 <1>  -0.6600 
 15 C       -4.5800     3.2220     0.4740 C.3   1 <1>   0.2090 
 16 C       -4.4570     1.0620    -0.6150 C.3   1 <1>   0.2090 
 17 C        1.8870     1.4060     0.6820 C.ar  1 <1>  -0.1500 
 18 C        1.8820     2.0200    -1.6200 C.ar  1 <1>  -0.1500 
 19 C       -2.4320    -2.5990    -0.1620 C.3   1 <1>   0.1400 
 20 C       -4.8180    -3.0990    -0.2560 C.3   1 <1>   0.1400 
 21 C       -5.9670     2.8250    -0.0070 C.3   1 <1>  -0.1600 
 22 C       -5.6980     1.8000    -1.0970 C.3   1 <1>  -0.1600 
 23 C        3.2480     1.1730     0.6250 C.ar  1 <1>  -0.1500 
 24 C        3.2430     1.7910    -1.6860 C.ar  1 <1>  -0.1500 
 25 C       -2.6870    -3.6220    -1.2620 C.3   1 <1>  -0.1600 
 26 C       -4.1720    -3.4780    -1.5840 C.3   1 <1>  -0.1600 
 27 C        3.9400     1.3630    -0.5680 C.ar  1 <1>   0.0830 
 28 O        5.2690     1.1560    -0.7130 O.3   1 <1>  -0.3630 
 29 C        6.0650     0.6960     0.3560 C.3   1 <1>   0.0400 
 30 H       -3.1930     0.7940     1.7480 H     1 <1>   0.3700 
 31 H       -3.1570    -1.0190     3.5150 H     1 <1>   0.0800 
 32 H       -1.9900    -1.8470     2.5330 H     1 <1>   0.0800 
 33 H       -4.2220     4.0570    -0.1040 H     1 <1>   0.0800 
 34 H       -4.5930     3.4950     1.5160 H     1 <1>   0.0800 
 35 H       -4.7480     0.2060    -0.0300 H     1 <1>   0.0800 
 36 H       -3.8520     0.7350    -1.4440 H     1 <1>   0.0800 
 37 H        1.3720     1.2580     1.6140 H     1 <1>   0.1500 
 38 H        1.3610     2.3510    -2.5010 H     1 <1>   0.1500 
 39 H       -1.6670    -2.9330     0.5200 H     1 <1>   0.0800 
 40 H       -2.1450    -1.6580    -0.5980 H     1 <1>   0.0800 
 41 H       -5.6540    -2.4330    -0.3920 H     1 <1>   0.0800 
 42 H       -5.1420    -3.9780     0.2740 H     1 <1>   0.0800 
 43 H       -6.5240     3.6720    -0.3660 H     1 <1>   0.0800 
 44 H       -6.5030     2.3660     0.8060 H     1 <1>   0.0800 
 45 H       -6.5260     1.1310    -1.2500 H     1 <1>   0.0800 
 46 H       -5.4680     2.2990    -2.0230 H     1 <1>   0.0800 
 47 H        3.7530     0.8440     1.5130 H     1 <1>   0.1500 
 48 H        3.7780     1.9410    -2.6060 H     1 <1>   0.1500 
 49 H       -2.4900    -4.6070    -0.8750 H     1 <1>   0.0800 
 50 H       -2.0600    -3.4510    -2.1190 H     1 <1>   0.0800 
 51 H       -4.3180    -2.6760    -2.2860 H     1 <1>   0.0800 
 52 H       -4.5940    -4.3800    -1.9900 H     1 <1>   0.0800 
 53 H        7.0760     0.6000     0.0040 H     1 <1>   0.0800 
 54 H        5.6960    -0.2630     0.6770 H     1 <1>   0.0800 
 55 H        6.0230     1.4130     1.1570 H     1 <1>   0.0800 
@<TRIPOS>BOND
  1   1   2  2   
  2   2   3  am  
  3   2   4  1   
  4   3   5  1   
  5   3  30  1   
  6   4   6  1   
  7   4   7  2   
  8   5   8  1   
  9   5  31  1   
 10   5  32  1   
 11   6   9  2   
 12   6  10  1   
 13   7  11  1   
 14   7  12  1   
 15   8  13  2   
 16   8  14  am  
 17   9  11  1   
 18  10  15  1   
 19  10  16  1   
 20  12  17  ar  
 21  12  18  ar  
 22  14  19  1   
 23  14  20  1   
 24  15  21  1   
 25  15  33  1   
 26  15  34  1   
 27  16  22  1   
 28  16  35  1   
 29  16  36  1   
 30  17  23  ar  
 31  17  37  1   
 32  18  24  ar  
 33  18  38  1   
 34  19  25  1   
 35  19  39  1   
 36  19  40  1   
 37  20  26  1   
 38  20  41  1   
 39  20  42  1   
 40  21  22  1   
 41  21  43  1   
 42  21  44  1   
 43  22  45  1   
 44  22  46  1   
 45  23  27  ar  
 46  23  47  1   
 47  24  27  ar  
 48  24  48  1   
 49  25  26  1   
 50  25  49  1   
 51  25  50  1   
 52  26  51  1   
 53  26  52  1   
 54  27  28  1   
 55  28  29  1   
 56  29  53  1   
 57  29  54  1   
 58  29  55  1   
@<TRIPOS>SUBSTRUCTURE
  1 ****   4 GROUP 4 **** **** 0

# MOE 2024.06 (io_trps.svl 2023.06)
