@<TRIPOS>MOLECULE
NONAME
53 57 1 0 0 
SMALL
USER_CHARGES


@<TRIPOS>ATOM
  1 O       -1.1380     1.8340     1.8840 O.2   1 <1>  -0.5700 
  2 C       -1.6660     1.0460     1.1360 C.2   1 <1>   0.5690 
  3 N       -1.4230    -0.2850     1.1830 N.am  1 <1>  -0.5470 
  4 C       -2.7740     1.3300     0.1020 C.3   1 <1>   0.2050 
  5 C       -2.2990    -0.9860     0.3790 C.ar  1 <1>   0.1170 
  6 C       -3.1390    -0.1080    -0.2770 C.ar  1 <1>  -0.1440 
  7 C       -2.2360     2.0510    -1.1460 C.3   1 <1>   0.2090 
  8 C       -3.9900     2.0720     0.6980 C.3   1 <1>  -0.1600 
  9 C       -2.4110    -2.3540     0.1960 C.ar  1 <1>  -0.1500 
 10 C       -4.1170    -0.5840    -1.1330 C.ar  1 <1>  -0.1500 
 11 N       -2.0120     3.5200    -0.9250 N.pl3 1 <1>  -0.8380 
 12 C       -3.6860     3.5640     0.9150 C.3   1 <1>  -0.1600 
 13 C       -3.3880    -2.8340    -0.6600 C.ar  1 <1>  -0.1500 
 14 C       -4.2370    -1.9540    -1.3210 C.ar  1 <1>  -0.1500 
 15 C       -0.7390     4.0650    -0.9880 C.ar  1 <1>   0.4100 
 16 C       -3.1810     4.2520    -0.3600 C.3   1 <1>   0.2090 
 17 N        0.2860     3.2280    -0.8490 N.ar  1 <1>  -0.6200 
 18 C       -0.5410     5.4310    -1.2000 C.ar  1 <1>  -0.1500 
 19 C        1.4970     3.7520    -0.8720 C.ar  1 <1>   0.1600 
 20 C        0.7250     5.9630    -1.2180 C.ar  1 <1>  -0.1500 
 21 C        1.7990     5.1000    -1.0280 C.ar  1 <1>   0.0860 
 22 C        3.1680     5.5520    -1.0040 C.2   1 <1>   0.5440 
 23 O        3.9740     5.0420    -1.7590 O.2   1 <1>  -0.5700 
 24 N        3.6000     6.5400    -0.1430 N.am  1 <1>  -0.6600 
 25 C        4.9600     7.1430    -0.2570 C.3   1 <1>   0.1400 
 26 C        2.8760     6.9650     1.0920 C.3   1 <1>   0.1400 
 27 C        4.9000     8.6610    -0.0210 C.3   1 <1>   0.1200 
 28 C        2.9270     8.4950     1.2460 C.3   1 <1>   0.1200 
 29 O        4.2480     8.9550     1.1850 O.3   1 <1>  -0.5600 
 30 H       -0.7460    -0.6770     1.8350 H     1 <1>   0.3700 
 31 H       -2.9550     1.9480    -1.9380 H     1 <1>   0.0800 
 32 H       -1.3380     1.5610    -1.4790 H     1 <1>   0.0800 
 33 H       -4.2680     1.6160     1.6320 H     1 <1>   0.0800 
 34 H       -4.8230     1.9840     0.0240 H     1 <1>   0.0800 
 35 H       -1.7500    -3.0250     0.7130 H     1 <1>   0.1500 
 36 H       -4.7760     0.0910    -1.6500 H     1 <1>   0.1500 
 37 H       -2.9400     3.6800     1.6810 H     1 <1>   0.0800 
 38 H       -4.5750     4.0650     1.2550 H     1 <1>   0.0800 
 39 H       -3.4920    -3.8940    -0.8160 H     1 <1>   0.1500 
 40 H       -4.9930    -2.3390    -1.9840 H     1 <1>   0.1500 
 41 H       -3.9650     4.2770    -1.0970 H     1 <1>   0.0800 
 42 H       -2.9180     5.2650    -0.1150 H     1 <1>   0.0800 
 43 H       -1.3870     6.0680    -1.3610 H     1 <1>   0.1500 
 44 H        2.3220     3.0700    -0.7560 H     1 <1>   0.1500 
 45 H        0.8950     7.0120    -1.3810 H     1 <1>   0.1500 
 46 H        5.3740     6.9540    -1.2330 H     1 <1>   0.0800 
 47 H        5.6100     6.6920     0.4720 H     1 <1>   0.0800 
 48 H        3.3500     6.5140     1.9470 H     1 <1>   0.0800 
 49 H        1.8520     6.6390     1.0770 H     1 <1>   0.0800 
 50 H        4.3740     9.1470    -0.8240 H     1 <1>   0.0800 
 51 H        5.8940     9.0670     0.0360 H     1 <1>   0.0800 
 52 H        2.5240     8.7850     2.2000 H     1 <1>   0.0800 
 53 H        2.3590     8.9740     0.4680 H     1 <1>   0.0800 
@<TRIPOS>BOND
  1   1   2  2   
  2   2   3  am  
  3   2   4  1   
  4   3   5  1   
  5   3  30  1   
  6   4   6  1   
  7   4   7  1   
  8   4   8  1   
  9   5   6  ar  
 10   5   9  ar  
 11   6  10  ar  
 12   7  11  1   
 13   7  31  1   
 14   7  32  1   
 15   8  12  1   
 16   8  33  1   
 17   8  34  1   
 18   9  13  ar  
 19   9  35  1   
 20  10  14  ar  
 21  10  36  1   
 22  11  15  1   
 23  11  16  1   
 24  12  16  1   
 25  12  37  1   
 26  12  38  1   
 27  13  14  ar  
 28  13  39  1   
 29  14  40  1   
 30  15  17  ar  
 31  15  18  ar  
 32  16  41  1   
 33  16  42  1   
 34  17  19  ar  
 35  18  20  ar  
 36  18  43  1   
 37  19  21  ar  
 38  19  44  1   
 39  20  21  ar  
 40  20  45  1   
 41  21  22  1   
 42  22  23  2   
 43  22  24  am  
 44  24  25  1   
 45  24  26  1   
 46  25  27  1   
 47  25  46  1   
 48  25  47  1   
 49  26  28  1   
 50  26  48  1   
 51  26  49  1   
 52  27  29  1   
 53  27  50  1   
 54  27  51  1   
 55  28  29  1   
 56  28  52  1   
 57  28  53  1   
@<TRIPOS>SUBSTRUCTURE
  1 ****  17 GROUP 4 **** **** 0

# MOE 2024.06 (io_trps.svl 2023.06)
