@<TRIPOS>MOLECULE
NONAME
47 50 1 0 0 
SMALL
USER_CHARGES


@<TRIPOS>ATOM
  1 O        0.0370    -0.3940     0.5610 O.2   1 <1>  -0.5700 
  2 C        0.9920    -0.8980     0.0000 C.2   1 <1>   0.5440 
  3 N        2.1200    -0.1380    -0.2030 N.am  1 <1>  -0.6600 
  4 C        0.9190    -2.2810    -0.4260 C.ar  1 <1>   0.0860 
  5 C        2.1980     1.2780     0.2220 C.3   1 <1>   0.1400 
  6 C        3.4710    -0.6800    -0.4740 C.3   1 <1>   0.1400 
  7 C        0.4680    -3.2820     0.4130 C.ar  1 <1>  -0.1500 
  8 C        1.2820    -2.7020    -1.6990 C.ar  1 <1>  -0.1500 
  9 C        3.6540     1.6760     0.0070 C.3   1 <1>  -0.1600 
 10 C        4.4270     0.3630     0.0900 C.3   1 <1>  -0.1600 
 11 C        0.4140    -4.6010    -0.0100 C.ar  1 <1>   0.4100 
 12 C        1.1950    -4.0370    -2.0350 C.ar  1 <1>   0.1600 
 13 N        0.7780    -4.9910    -1.2230 N.ar  1 <1>  -0.6200 
 14 N       -0.0420    -5.5620     0.8620 N.pl3 1 <1>  -0.8690 
 15 C       -0.3780    -6.9420     0.4450 C.3   1 <1>   0.2890 
 16 C       -1.7720    -6.9760    -0.1910 C.3   1 <1>  -0.0170 
 17 C       -0.3240    -7.8400     1.6790 C.3   1 <1>  -0.1600 
 18 C       -2.3370    -8.3880    -0.3130 C.ar  1 <1>  -0.1430 
 19 C       -0.5670    -9.2990     1.2790 C.3   1 <1>  -0.0170 
 20 C       -1.7870    -9.4610     0.3810 C.ar  1 <1>  -0.1430 
 21 C       -3.4380    -8.5920    -1.1300 C.ar  1 <1>  -0.1500 
 22 C       -2.3490   -10.7220     0.2450 C.ar  1 <1>  -0.1500 
 23 C       -3.9930    -9.8520    -1.2610 C.ar  1 <1>  -0.1500 
 24 C       -3.4480   -10.9190    -0.5710 C.ar  1 <1>  -0.1500 
 25 H        1.9340     1.3480     1.2640 H     1 <1>   0.0800 
 26 H        1.5250     1.8860    -0.3600 H     1 <1>   0.0800 
 27 H        3.6070    -0.7710    -1.5380 H     1 <1>   0.0800 
 28 H        3.6120    -1.6390    -0.0030 H     1 <1>   0.0800 
 29 H        0.1570    -3.0320     1.4090 H     1 <1>   0.1500 
 30 H        1.6230    -1.9820    -2.4200 H     1 <1>   0.1500 
 31 H        3.9820     2.3940     0.7370 H     1 <1>   0.0800 
 32 H        3.7570     2.1020    -0.9750 H     1 <1>   0.0800 
 33 H        5.3530     0.3960    -0.4570 H     1 <1>   0.0800 
 34 H        4.6350     0.1270     1.1190 H     1 <1>   0.0800 
 35 H        1.4840    -4.3410    -3.0270 H     1 <1>   0.1500 
 36 H       -0.5920    -5.2270     1.6530 H     1 <1>   0.4000 
 37 H        0.3480    -7.2940    -0.2700 H     1 <1>   0.0800 
 38 H       -1.7120    -6.5270    -1.1660 H     1 <1>   0.0800 
 39 H       -2.4500    -6.3980     0.4090 H     1 <1>   0.0800 
 40 H       -1.0810    -7.5350     2.3790 H     1 <1>   0.0800 
 41 H        0.6410    -7.7560     2.1470 H     1 <1>   0.0800 
 42 H       -0.6880    -9.8930     2.1680 H     1 <1>   0.0800 
 43 H        0.2930    -9.6690     0.7490 H     1 <1>   0.0800 
 44 H       -3.8690    -7.7670    -1.6690 H     1 <1>   0.1500 
 45 H       -1.9300   -11.5590     0.7740 H     1 <1>   0.1500 
 46 H       -4.8480   -10.0010    -1.8970 H     1 <1>   0.1500 
 47 H       -3.8770   -11.9000    -0.6700 H     1 <1>   0.1500 
@<TRIPOS>BOND
  1   1   2  2   
  2   2   3  am  
  3   2   4  1   
  4   3   5  1   
  5   3   6  1   
  6   4   7  ar  
  7   4   8  ar  
  8   5   9  1   
  9   5  25  1   
 10   5  26  1   
 11   6  10  1   
 12   6  27  1   
 13   6  28  1   
 14   7  11  ar  
 15   7  29  1   
 16   8  12  ar  
 17   8  30  1   
 18   9  10  1   
 19   9  31  1   
 20   9  32  1   
 21  10  33  1   
 22  10  34  1   
 23  11  13  ar  
 24  11  14  1   
 25  12  13  ar  
 26  12  35  1   
 27  14  15  1   
 28  14  36  1   
 29  15  16  1   
 30  15  17  1   
 31  15  37  1   
 32  16  18  1   
 33  16  38  1   
 34  16  39  1   
 35  17  19  1   
 36  17  40  1   
 37  17  41  1   
 38  18  20  ar  
 39  18  21  ar  
 40  19  20  1   
 41  19  42  1   
 42  19  43  1   
 43  20  22  ar  
 44  21  23  ar  
 45  21  44  1   
 46  22  24  ar  
 47  22  45  1   
 48  23  24  ar  
 49  23  46  1   
 50  24  47  1   
@<TRIPOS>SUBSTRUCTURE
  1 ****  11 GROUP 4 **** **** 0

# MOE 2024.06 (io_trps.svl 2023.06)
