@<TRIPOS>MOLECULE
NONAME
56 58 1 0 0 
SMALL
USER_CHARGES


@<TRIPOS>ATOM
  1 S       -0.6740     0.3650     1.8480 S.o2  1 <1>   1.4470 
  2 O       -0.5010    -1.0300     2.2120 O.2   1 <1>  -0.6500 
  3 O       -1.2170     1.2920     2.8120 O.2   1 <1>  -0.6500 
  4 N       -1.7640     0.3120     0.5440 N.am  1 <1>  -0.8490 
  5 C        0.8420     1.0220     1.1000 C.ar  1 <1>  -0.0090 
  6 C       -1.4960    -0.8220    -0.3650 C.3   1 <1>   0.1960 
  7 C       -3.1670     0.4090     1.0200 C.3   1 <1>   0.1960 
  8 C        2.0780     0.4390     1.3520 C.ar  1 <1>  -0.1500 
  9 C        0.8050     2.1260     0.2570 C.ar  1 <1>  -0.1500 
 10 C       -2.3600    -2.0260     0.0630 C.3   1 <1>   0.4230 
 11 C       -4.1610    -0.2520     0.0500 C.3   1 <1>  -0.1600 
 12 C        3.2350     0.9310     0.7710 C.ar  1 <1>  -0.1500 
 13 C        1.9570     2.6220    -0.3270 C.ar  1 <1>  -0.1500 
 14 N       -1.8760    -3.4100    -0.3070 N.4   1 <1>  -0.9590 
 15 C       -3.8540    -1.7550    -0.2470 C.3   1 <1>   0.0000 
 16 C        3.1800     2.0250    -0.0760 C.ar  1 <1>  -0.1430 
 17 C       -2.9230    -4.4660    -0.0760 C.3   1 <1>   0.3430 
 18 C       -1.2630    -3.5370    -1.6680 C.3   1 <1>   0.2630 
 19 C       -4.6620    -2.6990     0.6840 C.3   1 <1>  -0.1600 
 20 C       -4.1930    -2.0320    -1.7380 C.3   1 <1>   0.1200 
 21 C        4.4500     2.5690    -0.7140 C.3   1 <1>  -0.0170 
 22 C       -3.9380    -4.0340     0.9950 C.3   1 <1>  -0.1600 
 23 O       -5.4810    -1.6250    -2.0440 O.3   1 <1>  -0.6800 
 24 C        5.0950     3.6270     0.1880 C.3   1 <1>  -0.1600 
 25 C        6.3770     4.1920    -0.4320 C.3   1 <1>  -0.2400 
 26 H       -1.7470    -0.5260    -1.3690 H     1 <1>   0.0800 
 27 H       -0.4500    -1.0740    -0.3430 H     1 <1>   0.0800 
 28 H       -3.2640    -0.0690     1.9820 H     1 <1>   0.0800 
 29 H       -3.4180     1.4500     1.1540 H     1 <1>   0.0800 
 30 H        2.1430    -0.4080     2.0130 H     1 <1>   0.1500 
 31 H       -0.1380     2.6060     0.0550 H     1 <1>   0.1500 
 32 H       -2.3030    -2.0040     1.1390 H     1 <1>   0.0800 
 33 H       -5.1600    -0.1460     0.4360 H     1 <1>   0.0800 
 34 H       -4.1310     0.3260    -0.8590 H     1 <1>   0.0800 
 35 H        4.1800     0.4630     0.9850 H     1 <1>   0.1500 
 36 H        1.8990     3.4800    -0.9760 H     1 <1>   0.1500 
 37 H       -1.1280    -3.6000     0.3810 H     1 <1>   0.4500 
 38 H       -3.4550    -4.6560    -0.9930 H     1 <1>   0.0800 
 39 H       -2.4510    -5.3890     0.2230 H     1 <1>   0.0800 
 40 H       -1.9910    -3.3270    -2.4350 H     1 <1>   0.0800 
 41 H       -0.8910    -4.5390    -1.8170 H     1 <1>   0.0800 
 42 H       -0.4380    -2.8520    -1.7780 H     1 <1>   0.0800 
 43 H       -4.8500    -2.2080     1.6250 H     1 <1>   0.0800 
 44 H       -5.6280    -2.9060     0.2550 H     1 <1>   0.0800 
 45 H       -4.1240    -3.0730    -1.9900 H     1 <1>   0.0800 
 46 H       -3.5360    -1.4780    -2.3860 H     1 <1>   0.0800 
 47 H        5.1430     1.7630    -0.8810 H     1 <1>   0.0800 
 48 H        4.2160     3.0020    -1.6710 H     1 <1>   0.0800 
 49 H       -4.6720    -4.8130     1.1160 H     1 <1>   0.0800 
 50 H       -3.4220    -3.9510     1.9360 H     1 <1>   0.0800 
 51 H       -6.1590    -2.1230    -1.5460 H     1 <1>   0.4000 
 52 H        4.3950     4.4290     0.3530 H     1 <1>   0.0800 
 53 H        5.3240     3.1880     1.1440 H     1 <1>   0.0800 
 54 H        6.1660     4.6570    -1.3790 H     1 <1>   0.0800 
 55 H        7.1000     3.4100    -0.5830 H     1 <1>   0.0800 
 56 H        6.8070     4.9310     0.2220 H     1 <1>   0.0800 
@<TRIPOS>BOND
  1   1   2  2   
  2   1   3  2   
  3   1   4  am  
  4   1   5  1   
  5   4   6  1   
  6   4   7  1   
  7   5   8  ar  
  8   5   9  ar  
  9   6  10  1   
 10   6  26  1   
 11   6  27  1   
 12   7  11  1   
 13   7  28  1   
 14   7  29  1   
 15   8  12  ar  
 16   8  30  1   
 17   9  13  ar  
 18   9  31  1   
 19  10  14  1   
 20  10  15  1   
 21  10  32  1   
 22  11  15  1   
 23  11  33  1   
 24  11  34  1   
 25  12  16  ar  
 26  12  35  1   
 27  13  16  ar  
 28  13  36  1   
 29  14  17  1   
 30  14  18  1   
 31  14  37  1   
 32  15  19  1   
 33  15  20  1   
 34  16  21  1   
 35  17  22  1   
 36  17  38  1   
 37  17  39  1   
 38  18  40  1   
 39  18  41  1   
 40  18  42  1   
 41  19  22  1   
 42  19  43  1   
 43  19  44  1   
 44  20  23  1   
 45  20  45  1   
 46  20  46  1   
 47  21  24  1   
 48  21  47  1   
 49  21  48  1   
 50  22  49  1   
 51  22  50  1   
 52  23  51  1   
 53  24  25  1   
 54  24  52  1   
 55  24  53  1   
 56  25  54  1   
 57  25  55  1   
 58  25  56  1   
@<TRIPOS>SUBSTRUCTURE
  1 ****   6 GROUP 4 **** **** 0

# MOE 2024.06 (io_trps.svl 2023.06)
