@<TRIPOS>MOLECULE
NONAME
48 50 1 0 0 
SMALL
USER_CHARGES


@<TRIPOS>ATOM
  1 O       -1.6820     1.1130     1.7270 O.2   1 <1>  -0.5700 
  2 C       -1.7710     1.7080     0.6640 C.2   1 <1>   0.7160 
  3 N       -2.7010     1.2390    -0.2520 N.am  1 <1>  -0.6600 
  4 C       -0.9120     2.8640     0.4430 C.2   1 <1>   0.1410 
  5 C       -3.2080    -0.1630    -0.1380 C.3   1 <1>   0.1400 
  6 C       -3.2570     2.0900    -1.3460 C.3   1 <1>   0.1400 
  7 N       -0.6050     3.3910    -0.7670 N.2   1 <1>  -0.2270 
  8 C       -0.2520     3.5960     1.3730 C.2   1 <1>  -0.3020 
  9 C       -4.4620    -0.2300     0.7440 C.3   1 <1>   0.1400 
 10 C       -4.7540     1.8800    -1.6160 C.3   1 <1>  -0.1600 
 11 N        0.1820     4.3910    -0.6040 N.2   1 <1>  -0.4180 
 12 N        0.4130     4.5270     0.7010 N.pl3 1 <1>   0.3000 
 13 N       -5.6730     0.2840     0.0290 N.am  1 <1>  -0.6600 
 14 C       -5.6080     1.7230    -0.3540 C.3   1 <1>   0.1400 
 15 C       -6.7650    -0.4760    -0.3110 C.2   1 <1>   0.5690 
 16 O       -7.7200     0.0010    -0.8810 O.2   1 <1>  -0.5700 
 17 C       -6.8070    -1.9570     0.0210 C.3   1 <1>  -0.0990 
 18 C       -7.9990    -2.6760    -0.6240 C.3   1 <1>   0.0960 
 19 N       -8.0050    -4.0990    -0.2350 N.pl3 1 <1>   0.3140 
 20 N       -7.0450    -4.9380    -0.6700 N.2   1 <1>  -0.7070 
 21 C       -8.8800    -4.7360     0.5790 C.2   1 <1>  -0.3320 
 22 C       -7.3330    -6.0810    -0.1350 C.2   1 <1>   0.1080 
 23 C       -8.4710    -6.0190     0.6590 C.2   1 <1>  -0.1500 
 24 C      -10.0800    -4.0920     1.2530 C.3   1 <1>  -0.0600 
 25 C       -6.4990    -7.3180    -0.3730 C.3   1 <1>  -0.0590 
 26 H       -2.4420    -0.7740     0.3090 H     1 <1>   0.0800 
 27 H       -3.4150    -0.5690    -1.1130 H     1 <1>   0.0800 
 28 H       -2.6990     1.9110    -2.2500 H     1 <1>   0.0800 
 29 H       -3.1240     3.1250    -1.0810 H     1 <1>   0.0800 
 30 H       -0.2330     3.4810     2.4410 H     1 <1>   0.1500 
 31 H       -4.2990     0.3470     1.6380 H     1 <1>   0.0800 
 32 H       -4.6050    -1.2480     1.0520 H     1 <1>   0.0800 
 33 H       -4.9030     1.0360    -2.2670 H     1 <1>   0.0800 
 34 H       -5.1040     2.7430    -2.1530 H     1 <1>   0.0800 
 35 H        1.0250     5.2590     1.0800 H     1 <1>   0.2700 
 36 H       -6.6010     2.0890    -0.5530 H     1 <1>   0.0800 
 37 H       -5.2050     2.3050     0.4570 H     1 <1>   0.0800 
 38 H       -6.8630    -2.0660     1.0880 H     1 <1>   0.0800 
 39 H       -5.9050    -2.4170    -0.3370 H     1 <1>   0.0800 
 40 H       -7.9270    -2.6210    -1.6950 H     1 <1>   0.0800 
 41 H       -8.9220    -2.2210    -0.3200 H     1 <1>   0.0800 
 42 H       -8.9070    -6.8350     1.2060 H     1 <1>   0.1500 
 43 H       -9.7620    -3.2830     1.8860 H     1 <1>   0.0800 
 44 H      -10.5980    -4.8160     1.8560 H     1 <1>   0.0800 
 45 H      -10.7630    -3.7130     0.5130 H     1 <1>   0.0800 
 46 H       -5.4850    -7.1280    -0.0730 H     1 <1>   0.0800 
 47 H       -6.5150    -7.5620    -1.4190 H     1 <1>   0.0800 
 48 H       -6.8860    -8.1460     0.1900 H     1 <1>   0.0800 
@<TRIPOS>BOND
  1   1   2  2   
  2   2   3  am  
  3   2   4  1   
  4   3   5  1   
  5   3   6  1   
  6   4   7  1   
  7   4   8  2   
  8   5   9  1   
  9   5  26  1   
 10   5  27  1   
 11   6  10  1   
 12   6  28  1   
 13   6  29  1   
 14   7  11  2   
 15   8  12  1   
 16   8  30  1   
 17   9  13  1   
 18   9  31  1   
 19   9  32  1   
 20  10  14  1   
 21  10  33  1   
 22  10  34  1   
 23  11  12  1   
 24  12  35  1   
 25  13  14  1   
 26  13  15  am  
 27  14  36  1   
 28  14  37  1   
 29  15  16  2   
 30  15  17  1   
 31  17  18  1   
 32  17  38  1   
 33  17  39  1   
 34  18  19  1   
 35  18  40  1   
 36  18  41  1   
 37  19  20  1   
 38  19  21  1   
 39  20  22  2   
 40  21  23  2   
 41  21  24  1   
 42  22  23  1   
 43  22  25  1   
 44  23  42  1   
 45  24  43  1   
 46  24  44  1   
 47  24  45  1   
 48  25  46  1   
 49  25  47  1   
 50  25  48  1   
@<TRIPOS>SUBSTRUCTURE
  1 ****   9 GROUP 4 **** **** 0

# MOE 2024.06 (io_trps.svl 2023.06)
