@<TRIPOS>MOLECULE
NONAME
39 40 1 0 0 
SMALL
USER_CHARGES


@<TRIPOS>ATOM
  1 O        1.5750     0.2960    -1.7290 O.co2 1 <1>  -0.9000 
  2 C        1.3170     1.4720    -1.4630 C.2   1 <1>   0.9060 
  3 O        0.6430     2.1810    -2.2290 O.co2 1 <1>  -0.9000 
  4 C        1.8790     2.1170    -0.1340 C.3   1 <1>   0.3970 
  5 N        1.9020     3.6250    -0.1020 N.4   1 <1>  -0.9590 
  6 C        0.9330     1.7970     1.0330 C.3   1 <1>  -0.1600 
  7 C        3.3050     1.6350     0.1780 C.3   1 <1>  -0.2400 
  8 C        0.4960     4.0180     0.1380 C.3   1 <1>   0.3430 
  9 C        2.4160     4.2220    -1.3600 C.3   1 <1>   0.5240 
 10 C       -0.0270     2.9880     1.1300 C.3   1 <1>  -0.1600 
 11 C        2.6510     5.6900    -1.0900 C.2   1 <1>  -0.1810 
 12 C        1.8320     6.7230    -1.5250 C.2   1 <1>   0.1390 
 13 C        3.6390     6.3020    -0.3990 C.2   1 <1>  -0.3020 
 14 N        2.2580     7.8800    -1.1300 N.2   1 <1>  -0.7070 
 15 N        3.3890     7.6290    -0.4360 N.pl3 1 <1>   0.3140 
 16 C        4.2210     8.6990     0.1880 C.3   1 <1>   0.1760 
 17 C        3.4280     9.4360     1.2770 C.3   1 <1>  -0.2400 
 18 C        4.7300     9.6820    -0.8750 C.3   1 <1>  -0.2400 
 19 H        2.4830     3.9380     0.6730 H     1 <1>   0.4500 
 20 H        0.4070     0.8740     0.8540 H     1 <1>   0.0800 
 21 H        1.4810     1.6950     1.9530 H     1 <1>   0.0800 
 22 H        3.2920     0.5660     0.3130 H     1 <1>   0.0800 
 23 H        3.6930     2.0840     1.0730 H     1 <1>   0.0800 
 24 H        3.9600     1.8410    -0.6490 H     1 <1>   0.0800 
 25 H        0.4200     5.0250     0.5160 H     1 <1>   0.0800 
 26 H       -0.0610     3.9340    -0.7840 H     1 <1>   0.0800 
 27 H        3.3420     3.7520    -1.6450 H     1 <1>   0.0800 
 28 H        1.7070     4.0980    -2.1640 H     1 <1>   0.0800 
 29 H       -0.0360     3.3950     2.1260 H     1 <1>   0.0800 
 30 H       -1.0290     2.7040     0.8600 H     1 <1>   0.0800 
 31 H        0.9400     6.5980    -2.1200 H     1 <1>   0.1500 
 32 H        4.4930     5.8870     0.1060 H     1 <1>   0.1500 
 33 H        5.0700     8.2250     0.6470 H     1 <1>   0.0800 
 34 H        2.5710     9.9260     0.8460 H     1 <1>   0.0800 
 35 H        4.0450    10.1800     1.7470 H     1 <1>   0.0800 
 36 H        3.0950     8.7440     2.0280 H     1 <1>   0.0800 
 37 H        3.9020    10.1820    -1.3490 H     1 <1>   0.0800 
 38 H        5.2970     9.1590    -1.6240 H     1 <1>   0.0800 
 39 H        5.3640    10.4240    -0.4240 H     1 <1>   0.0800 
@<TRIPOS>BOND
  1   1   2  ar  
  2   2   3  ar  
  3   2   4  1   
  4   4   5  1   
  5   4   6  1   
  6   4   7  1   
  7   5   8  1   
  8   5   9  1   
  9   5  19  1   
 10   6  10  1   
 11   6  20  1   
 12   6  21  1   
 13   7  22  1   
 14   7  23  1   
 15   7  24  1   
 16   8  10  1   
 17   8  25  1   
 18   8  26  1   
 19   9  11  1   
 20   9  27  1   
 21   9  28  1   
 22  10  29  1   
 23  10  30  1   
 24  11  12  1   
 25  11  13  2   
 26  12  14  2   
 27  12  31  1   
 28  13  15  1   
 29  13  32  1   
 30  14  15  1   
 31  15  16  1   
 32  16  17  1   
 33  16  18  1   
 34  16  33  1   
 35  17  34  1   
 36  17  35  1   
 37  17  36  1   
 38  18  37  1   
 39  18  38  1   
 40  18  39  1   
@<TRIPOS>SUBSTRUCTURE
  1 ****   9 GROUP 4 **** **** 0

# MOE 2024.06 (io_trps.svl 2023.06)
