@<TRIPOS>MOLECULE
NONAME
42 44 1 0 0 
SMALL
USER_CHARGES


@<TRIPOS>ATOM
  1 O        0.0160    -0.1290    -0.6670 O.2   1 <1>  -0.5700 
  2 C        0.0140    -1.3140    -0.9320 C.2   1 <1>   0.5440 
  3 N       -0.9690    -1.7280    -1.7620 N.am  1 <1>  -0.8000 
  4 C        1.0180    -2.2140    -0.4080 C.ar  1 <1>   0.0860 
  5 C        0.7860    -3.5860    -0.1780 C.ar  1 <1>   0.4100 
  6 C        2.2870    -1.7280    -0.1270 C.ar  1 <1>  -0.1500 
  7 N        1.7320    -4.4300     0.2320 N.ar  1 <1>  -0.6200 
  8 N       -0.4670    -4.1640    -0.3330 N.pl3 1 <1>  -0.8380 
  9 C        3.2590    -2.5940     0.3210 C.ar  1 <1>  -0.1430 
 10 C        2.9290    -3.9360     0.4710 C.ar  1 <1>   0.1670 
 11 C       -0.5990    -5.5230    -0.9500 C.3   1 <1>   0.2090 
 12 C       -1.5250    -3.8300     0.6600 C.3   1 <1>   0.2090 
 13 C        4.6490    -2.0510     0.6290 C.3   1 <1>  -0.0970 
 14 C        3.9600    -4.9450     0.9430 C.3   1 <1>  -0.0970 
 15 C       -0.6720    -6.6200     0.1260 C.3   1 <1>   0.1000 
 16 C       -1.5840    -4.9080     1.7480 C.3   1 <1>  -0.1600 
 17 C       -0.9080    -7.9770    -0.5190 C.2   1 <1>   0.0060 
 18 C       -1.7740    -6.3120     1.1530 C.3   1 <1>  -0.1600 
 19 N       -1.7870    -8.2300    -1.4290 N.2   1 <1>  -0.3380 
 20 N       -0.2160    -9.0710    -0.2020 N.pl3 1 <1>   0.0330 
 21 N       -1.6800    -9.5250    -1.7310 N.2   1 <1>  -0.3380 
 22 C       -0.7420   -10.0050    -0.9910 C.2   1 <1>   0.0360 
 23 H       -1.6910    -1.0760    -2.0640 H     1 <1>   0.3700 
 24 H       -1.1580    -2.7330    -1.8410 H     1 <1>   0.3700 
 25 H        2.4960    -0.6810    -0.2690 H     1 <1>   0.1500 
 26 H        0.2410    -5.7120    -1.5980 H     1 <1>   0.0800 
 27 H       -1.4910    -5.5480    -1.5510 H     1 <1>   0.0800 
 28 H       -2.4750    -3.7660     0.1560 H     1 <1>   0.0800 
 29 H       -1.3190    -2.8740     1.1120 H     1 <1>   0.0800 
 30 H        4.6610    -0.9770     0.5840 H     1 <1>   0.0800 
 31 H        5.3590    -2.4270    -0.0860 H     1 <1>   0.0800 
 32 H        4.9550    -2.3460     1.6170 H     1 <1>   0.0800 
 33 H        3.6120    -5.9460     0.7610 H     1 <1>   0.0800 
 34 H        4.1250    -4.8260     1.9970 H     1 <1>   0.0800 
 35 H        4.8870    -4.8130     0.4170 H     1 <1>   0.0800 
 36 H        0.2760    -6.6420     0.6320 H     1 <1>   0.0800 
 37 H       -2.3940    -4.6870     2.4200 H     1 <1>   0.0800 
 38 H       -0.6690    -4.8730     2.3140 H     1 <1>   0.0800 
 39 H       -1.7540    -7.0470     1.9390 H     1 <1>   0.0800 
 40 H       -2.7340    -6.3700     0.6690 H     1 <1>   0.0800 
 41 H        0.5390    -9.1670     0.4800 H     1 <1>   0.2700 
 42 H       -0.4150   -11.0290    -1.0000 H     1 <1>   0.1500 
@<TRIPOS>BOND
  1   1   2  2   
  2   2   3  am  
  3   2   4  1   
  4   3  23  1   
  5   3  24  1   
  6   4   5  ar  
  7   4   6  ar  
  8   5   7  ar  
  9   5   8  1   
 10   6   9  ar  
 11   6  25  1   
 12   7  10  ar  
 13   8  11  1   
 14   8  12  1   
 15   9  10  ar  
 16   9  13  1   
 17  10  14  1   
 18  11  15  1   
 19  11  26  1   
 20  11  27  1   
 21  12  16  1   
 22  12  28  1   
 23  12  29  1   
 24  13  30  1   
 25  13  31  1   
 26  13  32  1   
 27  14  33  1   
 28  14  34  1   
 29  14  35  1   
 30  15  17  1   
 31  15  18  1   
 32  15  36  1   
 33  16  18  1   
 34  16  37  1   
 35  16  38  1   
 36  17  19  2   
 37  17  20  1   
 38  18  39  1   
 39  18  40  1   
 40  19  21  1   
 41  20  22  1   
 42  20  41  1   
 43  21  22  2   
 44  22  42  1   
@<TRIPOS>SUBSTRUCTURE
  1 ****   8 GROUP 4 **** **** 0

# MOE 2024.06 (io_trps.svl 2023.06)
