@<TRIPOS>MOLECULE
NONAME
51 53 1 0 0 
SMALL
USER_CHARGES


@<TRIPOS>ATOM
  1 O       -3.8080     2.1380    -2.0490 O.2   1 <1>  -0.5700 
  2 C       -3.1950     1.9740    -1.0220 C.2   1 <1>   0.5690 
  3 N       -2.6410     0.7760    -0.7060 N.am  1 <1>  -0.7300 
  4 C       -3.0580     3.1380    -0.0640 C.3   1 <1>   0.1570 
  5 C       -2.5990    -0.4270    -1.5650 C.3   1 <1>   0.2200 
  6 N       -1.7340     3.0920     0.5710 N.pl3 1 <1>   0.3140 
  7 C       -3.3170    -1.5960    -0.9090 C.3   1 <1>  -0.0800 
  8 C       -1.1700    -0.9570    -1.6140 C.3   1 <1>   0.1200 
  9 N       -1.5180     2.3070     1.6430 N.2   1 <1>  -0.7070 
 10 C       -0.5910     3.6850     0.1550 C.2   1 <1>  -0.3320 
 11 C       -2.2470    -2.1660     0.0250 C.3   1 <1>   0.1200 
 12 C       -4.6480    -1.2610    -0.2120 C.3   1 <1>  -0.0160 
 13 O       -1.0090    -1.7520    -0.4760 O.3   1 <1>  -0.5600 
 14 C       -0.2530     2.4220     1.8920 C.2   1 <1>   0.1080 
 15 C        0.3850     3.2760     0.9950 C.2   1 <1>  -0.1810 
 16 C       -0.5000     4.6050    -1.0540 C.3   1 <1>  -0.0600 
 17 C       -5.3100    -2.5190     0.3280 C.ar  1 <1>  -0.1440 
 18 C        0.4080     1.6870     3.0360 C.3   1 <1>  -0.0590 
 19 C        1.8610     3.6350     0.9830 C.3   1 <1>   0.0210 
 20 C       -6.0580    -3.3510    -0.4810 C.ar  1 <1>  -0.1500 
 21 C       -5.1970    -2.8970     1.6510 C.ar  1 <1>  -0.1500 
 22 C        2.6420     2.6470     0.1160 C.3   1 <1>  -0.2400 
 23 C       -6.6360    -4.4900     0.0550 C.ar  1 <1>   0.1600 
 24 C       -5.8160    -4.0570     2.0870 C.ar  1 <1>   0.1600 
 25 N       -6.5320    -4.8640     1.3200 N.ar  1 <1>  -0.6200 
 26 H       -2.0630     0.7260     0.1500 H     1 <1>   0.3700 
 27 H       -3.8090     3.0650     0.6980 H     1 <1>   0.0800 
 28 H       -3.1740     4.0640    -0.5900 H     1 <1>   0.0800 
 29 H       -2.9810    -0.2040    -2.5460 H     1 <1>   0.0800 
 30 H       -3.5080    -2.3340    -1.6680 H     1 <1>   0.0800 
 31 H       -0.4360    -0.1700    -1.6120 H     1 <1>   0.0800 
 32 H       -1.0310    -1.5880    -2.4740 H     1 <1>   0.0800 
 33 H       -2.2730    -3.2410     0.0610 H     1 <1>   0.0800 
 34 H       -2.3410    -1.7640     1.0190 H     1 <1>   0.0800 
 35 H       -5.3080    -0.7830    -0.9150 H     1 <1>   0.0800 
 36 H       -4.4850    -0.5700     0.5970 H     1 <1>   0.0800 
 37 H        0.5180     4.9000    -1.2310 H     1 <1>   0.0800 
 38 H       -1.0870     5.4910    -0.8910 H     1 <1>   0.0800 
 39 H       -0.8610     4.1000    -1.9330 H     1 <1>   0.0800 
 40 H        1.2840     1.1750     2.6860 H     1 <1>   0.0800 
 41 H       -0.2730     0.9650     3.4480 H     1 <1>   0.0800 
 42 H        0.6820     2.3860     3.8030 H     1 <1>   0.0800 
 43 H        1.9860     4.6310     0.5990 H     1 <1>   0.0800 
 44 H        2.2450     3.6250     1.9880 H     1 <1>   0.0800 
 45 H       -6.1960    -3.1240    -1.5220 H     1 <1>   0.1500 
 46 H       -4.6350    -2.3010     2.3470 H     1 <1>   0.1500 
 47 H        2.2690     2.6700    -0.8930 H     1 <1>   0.0800 
 48 H        2.5310     1.6480     0.4980 H     1 <1>   0.0800 
 49 H        3.6860     2.9030     0.1080 H     1 <1>   0.0800 
 50 H       -7.2160    -5.1260    -0.5910 H     1 <1>   0.1500 
 51 H       -5.7170    -4.3360     3.1220 H     1 <1>   0.1500 
@<TRIPOS>BOND
  1   1   2  2   
  2   2   3  am  
  3   2   4  1   
  4   3   5  1   
  5   3  26  1   
  6   4   6  1   
  7   4  27  1   
  8   4  28  1   
  9   5   7  1   
 10   5   8  1   
 11   5  29  1   
 12   6   9  1   
 13   6  10  1   
 14   7  11  1   
 15   7  12  1   
 16   7  30  1   
 17   8  13  1   
 18   8  31  1   
 19   8  32  1   
 20   9  14  2   
 21  10  15  2   
 22  10  16  1   
 23  11  13  1   
 24  11  33  1   
 25  11  34  1   
 26  12  17  1   
 27  12  35  1   
 28  12  36  1   
 29  14  15  1   
 30  14  18  1   
 31  15  19  1   
 32  16  37  1   
 33  16  38  1   
 34  16  39  1   
 35  17  20  ar  
 36  17  21  ar  
 37  18  40  1   
 38  18  41  1   
 39  18  42  1   
 40  19  22  1   
 41  19  43  1   
 42  19  44  1   
 43  20  23  ar  
 44  20  45  1   
 45  21  24  ar  
 46  21  46  1   
 47  22  47  1   
 48  22  48  1   
 49  22  49  1   
 50  23  25  ar  
 51  23  50  1   
 52  24  25  ar  
 53  24  51  1   
@<TRIPOS>SUBSTRUCTURE
  1 ****   3 GROUP 4 **** **** 0

# MOE 2024.06 (io_trps.svl 2023.06)
