@<TRIPOS>MOLECULE
NONAME
44 47 1 0 0 
SMALL
USER_CHARGES


@<TRIPOS>ATOM
  1 O        0.1310     0.6160     0.3930 O.2   1 <1>  -0.5700 
  2 C       -0.4830     1.6410     0.6100 C.2   1 <1>   0.5440 
  3 N       -1.8540     1.6000     0.7540 N.am  1 <1>  -0.6600 
  4 C        0.2400     2.8860     0.7030 C.ar  1 <1>   0.0860 
  5 C       -2.7160     2.8190     0.8920 C.3   1 <1>   0.1400 
  6 C       -2.6240     0.3260     0.6710 C.3   1 <1>   0.1400 
  7 C        0.5020     3.4580     1.9470 C.ar  1 <1>   0.1600 
  8 C        0.6780     3.5670    -0.4220 C.ar  1 <1>  -0.1500 
  9 C       -3.7000     2.9330    -0.2870 C.3   1 <1>   0.1440 
 10 C       -3.6240     0.3940    -0.4910 C.3   1 <1>  -0.1600 
 11 N        1.1160     4.6150     2.1550 N.ar  1 <1>  -0.6200 
 12 C        1.3180     4.7710    -0.2330 C.ar  1 <1>   0.0820 
 13 C       -4.5570     4.1660    -0.0690 C.ar  1 <1>   0.1670 
 14 C       -4.5300     1.6360    -0.3980 C.3   1 <1>  -0.1600 
 15 C       -2.9710     3.2730    -1.6150 C.3   1 <1>  -0.1600 
 16 C        1.5120     5.2460     1.0600 C.ar  1 <1>   0.1600 
 17 O        1.7370     5.4570    -1.3130 O.3   1 <1>  -0.5320 
 18 N       -5.5340     4.2750     0.8040 N.ar  1 <1>  -0.6200 
 19 C       -4.1790     5.1890    -0.8870 C.ar  1 <1>  -0.1440 
 20 C       -3.0210     4.8020    -1.7740 C.3   1 <1>  -0.0170 
 21 C       -6.1300     5.4580     0.8140 C.ar  1 <1>   0.4770 
 22 C       -4.8660     6.3730    -0.7910 C.ar  1 <1>   0.1600 
 23 N       -5.8550     6.5190     0.0650 N.ar  1 <1>  -0.6200 
 24 C       -7.2660     5.6230     1.7940 C.3   1 <1>  -0.0970 
 25 H       -2.1250     3.7150     0.9490 H     1 <1>   0.0800 
 26 H       -3.2760     2.7430     1.8090 H     1 <1>   0.0800 
 27 H       -3.1520     0.1790     1.5980 H     1 <1>   0.0800 
 28 H       -1.9640    -0.5130     0.5310 H     1 <1>   0.0800 
 29 H        0.1740     2.9190     2.8200 H     1 <1>   0.1500 
 30 H        0.5250     3.1680    -1.4080 H     1 <1>   0.1500 
 31 H       -4.2310    -0.4940    -0.4830 H     1 <1>   0.0800 
 32 H       -3.0760     0.4020    -1.4170 H     1 <1>   0.0800 
 33 H       -5.1830     1.6850    -1.2520 H     1 <1>   0.0800 
 34 H       -5.1520     1.5460     0.4760 H     1 <1>   0.0800 
 35 H       -3.5130     2.8390    -2.4370 H     1 <1>   0.0800 
 36 H       -1.9650     2.8970    -1.6470 H     1 <1>   0.0800 
 37 H        2.0150     6.1860     1.2000 H     1 <1>   0.1500 
 38 H        2.2350     6.2700    -1.1070 H     1 <1>   0.4500 
 39 H       -3.1860     5.0890    -2.7980 H     1 <1>   0.0800 
 40 H       -2.1150     5.2520    -1.4060 H     1 <1>   0.0800 
 41 H       -4.6050     7.2090    -1.4180 H     1 <1>   0.1500 
 42 H       -7.1990     4.8860     2.5720 H     1 <1>   0.0800 
 43 H       -8.1990     5.5070     1.2770 H     1 <1>   0.0800 
 44 H       -7.2270     6.6010     2.2360 H     1 <1>   0.0800 
@<TRIPOS>BOND
  1   1   2  2   
  2   2   3  am  
  3   2   4  1   
  4   3   5  1   
  5   3   6  1   
  6   4   7  ar  
  7   4   8  ar  
  8   5   9  1   
  9   5  25  1   
 10   5  26  1   
 11   6  10  1   
 12   6  27  1   
 13   6  28  1   
 14   7  11  ar  
 15   7  29  1   
 16   8  12  ar  
 17   8  30  1   
 18   9  13  1   
 19   9  14  1   
 20   9  15  1   
 21  10  14  1   
 22  10  31  1   
 23  10  32  1   
 24  11  16  ar  
 25  12  16  ar  
 26  12  17  1   
 27  13  18  ar  
 28  13  19  ar  
 29  14  33  1   
 30  14  34  1   
 31  15  20  1   
 32  15  35  1   
 33  15  36  1   
 34  16  37  1   
 35  17  38  1   
 36  18  21  ar  
 37  19  20  1   
 38  19  22  ar  
 39  20  39  1   
 40  20  40  1   
 41  21  23  ar  
 42  21  24  1   
 43  22  23  ar  
 44  22  41  1   
 45  24  42  1   
 46  24  43  1   
 47  24  44  1   
@<TRIPOS>SUBSTRUCTURE
  1 ****   5 GROUP 4 **** **** 0

# MOE 2024.06 (io_trps.svl 2023.06)
