@<TRIPOS>MOLECULE
NONAME
48 51 1 0 0 
SMALL
USER_CHARGES


@<TRIPOS>ATOM
  1 S        1.6960     0.8110     0.1970 S.3   1 <1>  -0.0800 
  2 C        0.0430     1.2490    -0.2080 C.2   1 <1>  -0.1400 
  3 C        1.4430    -0.8220    -0.4050 C.2   1 <1>  -0.1100 
  4 C       -0.6080     0.2060    -0.7400 C.2   1 <1>  -0.1810 
  5 C       -0.5260     2.6430     0.0350 C.3   1 <1>   0.4600 
  6 C        0.1850    -0.9790    -0.8620 C.2   1 <1>  -0.1500 
  7 C       -2.0560     0.3590    -1.1480 C.3   1 <1>   0.0210 
  8 O       -1.8120     2.7120    -0.5530 O.3   1 <1>  -0.5600 
  9 C       -0.6410     2.9530     1.5340 C.3   1 <1>  -0.1600 
 10 C        0.3220     3.7070    -0.6700 C.3   1 <1>  -0.1600 
 11 C       -2.6540     1.5890    -0.4360 C.3   1 <1>   0.1200 
 12 C       -1.1680     4.3680     1.7780 C.3   1 <1>   0.1400 
 13 C       -0.1960     5.1190    -0.3940 C.3   1 <1>   0.1400 
 14 N       -0.2840     5.3380     1.0770 N.am  1 <1>  -0.6600 
 15 C        0.3960     6.3310     1.7560 C.2   1 <1>   0.5440 
 16 O        0.0970     6.5670     2.9130 O.2   1 <1>  -0.5700 
 17 C        1.4140     7.1320     1.1270 C.ar  1 <1>   0.0860 
 18 C        2.6500     6.5940     0.7500 C.ar  1 <1>   0.3930 
 19 C        1.1970     8.4800     0.8730 C.ar  1 <1>  -0.1500 
 20 O        2.8760     5.2920     1.0260 O.3   1 <1>  -0.3630 
 21 N        3.6240     7.2650     0.1380 N.ar  1 <1>  -0.6200 
 22 C        2.1970     9.1880     0.2510 C.ar  1 <1>  -0.1500 
 23 C        4.0930     4.6490     0.7000 C.3   1 <1>   0.0400 
 24 C        3.3760     8.5470    -0.0970 C.ar  1 <1>   0.3930 
 25 O        4.3150     9.2910    -0.7110 O.3   1 <1>  -0.3620 
 26 C        5.5610     8.7390    -1.0870 C.3   1 <1>   0.0400 
 27 H        2.2750    -1.5020    -0.3530 H     1 <1>   0.1500 
 28 H       -0.2210    -1.8820    -1.2830 H     1 <1>   0.1500 
 29 H       -2.6130    -0.5180    -0.8720 H     1 <1>   0.0800 
 30 H       -2.1220     0.4850    -2.2130 H     1 <1>   0.0800 
 31 H        0.3310     2.8740     1.9860 H     1 <1>   0.0800 
 32 H       -1.2740     2.2340     2.0170 H     1 <1>   0.0800 
 33 H        0.3230     3.5150    -1.7270 H     1 <1>   0.0800 
 34 H        1.3370     3.6410    -0.3280 H     1 <1>   0.0800 
 35 H       -2.8010     1.3810     0.6090 H     1 <1>   0.0800 
 36 H       -3.6030     1.8440    -0.8720 H     1 <1>   0.0800 
 37 H       -1.1910     4.5660     2.8360 H     1 <1>   0.0800 
 38 H       -2.1700     4.4640     1.3960 H     1 <1>   0.0800 
 39 H       -1.1780     5.2340    -0.8210 H     1 <1>   0.0800 
 40 H        0.4520     5.8410    -0.8570 H     1 <1>   0.0800 
 41 H        0.2690     8.9430     1.1630 H     1 <1>   0.1500 
 42 H        2.0830    10.2330     0.0290 H     1 <1>   0.1500 
 43 H        4.0270     3.6230     1.0160 H     1 <1>   0.0800 
 44 H        4.8960     5.1450     1.2160 H     1 <1>   0.0800 
 45 H        4.2390     4.7000    -0.3640 H     1 <1>   0.0800 
 46 H        6.1460     9.5110    -1.5540 H     1 <1>   0.0800 
 47 H        5.3900     7.9330    -1.7790 H     1 <1>   0.0800 
 48 H        6.0610     8.3780    -0.2050 H     1 <1>   0.0800 
@<TRIPOS>BOND
  1   1   2  1   
  2   1   3  1   
  3   2   4  2   
  4   2   5  1   
  5   3   6  2   
  6   3  27  1   
  7   4   6  1   
  8   4   7  1   
  9   5   8  1   
 10   5   9  1   
 11   5  10  1   
 12   6  28  1   
 13   7  11  1   
 14   7  29  1   
 15   7  30  1   
 16   8  11  1   
 17   9  12  1   
 18   9  31  1   
 19   9  32  1   
 20  10  13  1   
 21  10  33  1   
 22  10  34  1   
 23  11  35  1   
 24  11  36  1   
 25  12  14  1   
 26  12  37  1   
 27  12  38  1   
 28  13  14  1   
 29  13  39  1   
 30  13  40  1   
 31  14  15  am  
 32  15  16  2   
 33  15  17  1   
 34  17  18  ar  
 35  17  19  ar  
 36  18  20  1   
 37  18  21  ar  
 38  19  22  ar  
 39  19  41  1   
 40  20  23  1   
 41  21  24  ar  
 42  22  24  ar  
 43  22  42  1   
 44  23  43  1   
 45  23  44  1   
 46  23  45  1   
 47  24  25  1   
 48  25  26  1   
 49  26  46  1   
 50  26  47  1   
 51  26  48  1   
@<TRIPOS>SUBSTRUCTURE
  1 ****  10 GROUP 4 **** **** 0

# MOE 2024.06 (io_trps.svl 2023.06)
