@<TRIPOS>MOLECULE
NONAME
55 56 1 0 0 
SMALL
USER_CHARGES


@<TRIPOS>ATOM
  1 S       -0.7060     0.5240    -1.0930 S.o2  1 <1>   1.5760 
  2 O       -1.6750     1.5960    -1.1370 O.2   1 <1>  -0.6500 
  3 O       -0.2530    -0.1070    -2.3120 O.2   1 <1>  -0.6500 
  4 N        0.6530     1.0550    -0.2490 N.am  1 <1>  -0.8490 
  5 N       -1.2870    -0.6570    -0.0330 N.am  1 <1>  -0.8490 
  6 C        1.1240     2.3450    -0.7720 C.3   1 <1>   0.1960 
  7 C        1.7270     0.0640    -0.2490 C.3   1 <1>   0.1960 
  8 C       -2.3540    -1.4320    -0.6890 C.3   1 <1>   0.1960 
  9 C       -1.7200    -0.0740     1.2420 C.3   1 <1>   0.1960 
 10 C        2.5140     2.7550    -0.2350 C.3   1 <1>  -0.0800 
 11 C        2.8010     0.4540     0.7800 C.3   1 <1>  -0.1600 
 12 C       -2.7090    -2.7060     0.0810 C.3   1 <1>   0.1200 
 13 C       -1.0440    -0.8270     2.3840 C.3   1 <1>  -0.2400 
 14 C        2.8890     1.9690     1.0350 C.3   1 <1>  -0.1600 
 15 C        2.5610     4.2720    -0.0050 C.3   1 <1>   0.1200 
 16 O       -3.7010    -3.4010    -0.6420 O.3   1 <1>  -0.3630 
 17 O        3.8610     4.6420     0.3290 O.3   1 <1>  -0.5600 
 18 C       -4.2440    -4.5560    -0.1750 C.ar  1 <1>   0.0820 
 19 C        4.0100     5.9960     0.6040 C.3   1 <1>   0.0400 
 20 C       -5.2760    -5.1270    -0.9160 C.ar  1 <1>  -0.1440 
 21 C       -3.8120    -5.1760     0.9960 C.ar  1 <1>  -0.1500 
 22 C       -5.8650    -6.3030    -0.4770 C.ar  1 <1>  -0.1500 
 23 C       -5.7630    -4.4720    -2.2000 C.3   1 <1>  -0.0970 
 24 C       -4.4070    -6.3490     1.4240 C.ar  1 <1>  -0.1500 
 25 C       -5.4340    -6.9120     0.6880 C.ar  1 <1>  -0.1500 
 26 H        0.3960     3.0920    -0.5000 H     1 <1>   0.0800 
 27 H        1.1660     2.3090    -1.8490 H     1 <1>   0.0800 
 28 H        2.1620     0.0070    -1.2340 H     1 <1>   0.0800 
 29 H        1.3380    -0.9100    -0.0020 H     1 <1>   0.0800 
 30 H       -2.0200    -1.7350    -1.6680 H     1 <1>   0.0800 
 31 H       -3.2310    -0.8180    -0.8070 H     1 <1>   0.0800 
 32 H       -2.7920    -0.1150     1.3440 H     1 <1>   0.0800 
 33 H       -1.4320     0.9630     1.3120 H     1 <1>   0.0800 
 34 H        3.2350     2.5260    -1.0010 H     1 <1>   0.0800 
 35 H        3.7500     0.0910     0.4270 H     1 <1>   0.0800 
 36 H        2.5950    -0.0450     1.7100 H     1 <1>   0.0800 
 37 H       -3.1140    -2.4690     1.0470 H     1 <1>   0.0800 
 38 H       -1.8450    -3.3400     0.1670 H     1 <1>   0.0800 
 39 H       -1.3020    -1.8690     2.3740 H     1 <1>   0.0800 
 40 H       -1.3520    -0.4070     3.3240 H     1 <1>   0.0800 
 41 H        0.0230    -0.7260     2.3020 H     1 <1>   0.0800 
 42 H        2.1980     2.2310     1.8180 H     1 <1>   0.0800 
 43 H        3.8800     2.2290     1.3660 H     1 <1>   0.0800 
 44 H        1.9040     4.5490     0.8030 H     1 <1>   0.0800 
 45 H        2.2800     4.7980    -0.9010 H     1 <1>   0.0800 
 46 H        5.0420     6.1760     0.8450 H     1 <1>   0.0800 
 47 H        3.3910     6.2570     1.4450 H     1 <1>   0.0800 
 48 H        3.7340     6.5680    -0.2650 H     1 <1>   0.0800 
 49 H       -3.0170    -4.7650     1.5870 H     1 <1>   0.1500 
 50 H       -6.6630    -6.7520    -1.0410 H     1 <1>   0.1500 
 51 H       -4.9520    -4.4050    -2.9030 H     1 <1>   0.0800 
 52 H       -6.1200    -3.4800    -1.9890 H     1 <1>   0.0800 
 53 H       -6.5600    -5.0370    -2.6480 H     1 <1>   0.0800 
 54 H       -4.0730    -6.8260     2.3290 H     1 <1>   0.1500 
 55 H       -5.8970    -7.8240     1.0200 H     1 <1>   0.1500 
@<TRIPOS>BOND
  1   1   2  2   
  2   1   3  2   
  3   1   4  am  
  4   1   5  am  
  5   4   6  1   
  6   4   7  1   
  7   5   8  1   
  8   5   9  1   
  9   6  10  1   
 10   6  26  1   
 11   6  27  1   
 12   7  11  1   
 13   7  28  1   
 14   7  29  1   
 15   8  12  1   
 16   8  30  1   
 17   8  31  1   
 18   9  13  1   
 19   9  32  1   
 20   9  33  1   
 21  10  14  1   
 22  10  15  1   
 23  10  34  1   
 24  11  14  1   
 25  11  35  1   
 26  11  36  1   
 27  12  16  1   
 28  12  37  1   
 29  12  38  1   
 30  13  39  1   
 31  13  40  1   
 32  13  41  1   
 33  14  42  1   
 34  14  43  1   
 35  15  17  1   
 36  15  44  1   
 37  15  45  1   
 38  16  18  1   
 39  17  19  1   
 40  18  20  ar  
 41  18  21  ar  
 42  19  46  1   
 43  19  47  1   
 44  19  48  1   
 45  20  22  ar  
 46  20  23  1   
 47  21  24  ar  
 48  21  49  1   
 49  22  25  ar  
 50  22  50  1   
 51  23  51  1   
 52  23  52  1   
 53  23  53  1   
 54  24  25  ar  
 55  24  54  1   
 56  25  55  1   
@<TRIPOS>SUBSTRUCTURE
  1 ****   5 GROUP 4 **** **** 0

# MOE 2024.06 (io_trps.svl 2023.06)
