@<TRIPOS>MOLECULE
NONAME
31 31 1 0 0 
SMALL
USER_CHARGES


@<TRIPOS>ATOM
  1 O        1.8060     0.2000    -1.4990 O.2   1 <1>  -0.5700 
  2 C        2.0530    -0.4770    -0.5270 C.2   1 <1>   0.5690 
  3 N        2.9100    -0.0590     0.4450 N.am  1 <1>  -0.4930 
  4 C        1.3900    -1.8720    -0.3520 C.3   1 <1>   0.3410 
  5 C        3.6710     1.1080     0.6200 C.2   1 <1>   0.3520 
  6 O        1.8630    -2.4260     0.8660 O.3   1 <1>  -0.5600 
  7 C       -0.1390    -1.7190    -0.2770 C.3   1 <1>  -0.2400 
  8 C        1.7930    -2.7940    -1.5160 C.3   1 <1>  -0.2400 
  9 N        4.4040     1.2330     1.6560 N.2   1 <1>  -0.4100 
 10 C        3.8140     2.2670    -0.1630 C.2   1 <1>   0.3520 
 11 C        1.4270    -3.6910     1.2830 C.3   1 <1>   0.0400 
 12 O        4.9590     2.3980     1.5100 O.3   1 <1>   0.2420 
 13 N        4.6310     3.0470     0.4350 N.2   1 <1>  -0.4100 
 14 N        3.1900     2.5590    -1.3900 N.am  1 <1>  -0.4930 
 15 C        3.2490     3.6260    -2.2250 C.2   1 <1>   0.5690 
 16 O        2.6000     3.6280    -3.2390 O.2   1 <1>  -0.5700 
 17 C        4.1090     4.8330    -1.9310 C.3   1 <1>  -0.1790 
 18 H        3.0140    -0.7430     1.2010 H     1 <1>   0.3700 
 19 H       -0.4130    -1.1610     0.6000 H     1 <1>   0.0800 
 20 H       -0.6340    -2.6730    -0.2690 H     1 <1>   0.0800 
 21 H       -0.4910    -1.1810    -1.1400 H     1 <1>   0.0800 
 22 H        2.8530    -2.9760    -1.4940 H     1 <1>   0.0800 
 23 H        1.5550    -2.3190    -2.4510 H     1 <1>   0.0800 
 24 H        1.2630    -3.7270    -1.4850 H     1 <1>   0.0800 
 25 H        1.9060    -3.9120     2.2200 H     1 <1>   0.0800 
 26 H        1.7120    -4.4360     0.5630 H     1 <1>   0.0800 
 27 H        0.3620    -3.6850     1.4290 H     1 <1>   0.0800 
 28 H        2.5600     1.8190    -1.7300 H     1 <1>   0.3700 
 29 H        3.8020     5.2840    -1.0060 H     1 <1>   0.0800 
 30 H        4.0060     5.5550    -2.7190 H     1 <1>   0.0800 
 31 H        5.1400     4.5380    -1.8640 H     1 <1>   0.0800 
@<TRIPOS>BOND
  1   1   2  2   
  2   2   3  am  
  3   2   4  1   
  4   3   5  1   
  5   3  18  1   
  6   4   6  1   
  7   4   7  1   
  8   4   8  1   
  9   5   9  2   
 10   5  10  1   
 11   6  11  1   
 12   7  19  1   
 13   7  20  1   
 14   7  21  1   
 15   8  22  1   
 16   8  23  1   
 17   8  24  1   
 18   9  12  1   
 19  10  13  2   
 20  10  14  1   
 21  11  25  1   
 22  11  26  1   
 23  11  27  1   
 24  12  13  1   
 25  14  15  am  
 26  14  28  1   
 27  15  16  2   
 28  15  17  1   
 29  17  29  1   
 30  17  30  1   
 31  17  31  1   
@<TRIPOS>SUBSTRUCTURE
  1 ****   3 GROUP 4 **** **** 0

# MOE 2024.06 (io_trps.svl 2023.06)
