@<TRIPOS>MOLECULE
NONAME
45 47 1 0 0 
SMALL
USER_CHARGES


@<TRIPOS>ATOM
  1 O       -0.6470    -0.7290    -1.1090 O.co2 1 <1>  -0.9000 
  2 C       -0.5890    -1.9350    -0.8230 C.2   1 <1>   1.0330 
  3 O       -1.6590    -2.5460    -0.6290 O.co2 1 <1>  -0.9000 
  4 C        0.6660    -2.6160    -0.6990 C.2   1 <1>  -0.2330 
  5 C        0.8060    -4.0020    -0.7620 C.2   1 <1>   0.3720 
  6 C        1.9420    -2.1830    -0.5020 C.2   1 <1>   0.0870 
  7 N        2.0310    -4.3650    -0.6170 N.2   1 <1>  -0.4100 
  8 N       -0.2470    -4.8860    -0.9480 N.pl3 1 <1>  -0.8520 
  9 O        2.7020    -3.2550    -0.4680 O.3   1 <1>  -0.0190 
 10 C        2.5610    -0.8910    -0.3170 C.ar  1 <1>   0.0530 
 11 C       -0.3470    -5.9520     0.0580 C.3   1 <1>   0.2090 
 12 C        1.9010     0.1750     0.2940 C.ar  1 <1>  -0.1500 
 13 C        3.8770    -0.6690    -0.7300 C.ar  1 <1>  -0.1500 
 14 C       -1.4900    -6.8930    -0.3150 C.3   1 <1>  -0.1600 
 15 C        2.5170     1.3990     0.4830 C.ar  1 <1>  -0.1500 
 16 C        4.5020     0.5510    -0.5430 C.ar  1 <1>  -0.1500 
 17 C       -1.5750    -8.0470     0.6810 C.3   1 <1>   0.1200 
 18 C        3.8220     1.5900     0.0660 C.ar  1 <1>  -0.1500 
 19 O       -2.6020    -8.8950     0.2780 O.3   1 <1>  -0.5600 
 20 C       -2.7530   -10.0490     1.0440 C.3   1 <1>   0.2000 
 21 C       -1.8660   -11.1560     0.4780 C.3   1 <1>  -0.1600 
 22 C       -4.1640   -10.5740     0.8080 C.3   1 <1>  -0.1600 
 23 C       -2.6240   -11.7030    -0.7360 C.3   1 <1>  -0.1600 
 24 C       -4.1010   -11.3520    -0.5120 C.3   1 <1>  -0.1600 
 25 H       -1.1100    -4.2980    -0.9280 H     1 <1>   0.4000 
 26 H       -0.5240    -5.5110     1.0250 H     1 <1>   0.0800 
 27 H        0.5810    -6.4980     0.0880 H     1 <1>   0.0800 
 28 H        0.8850     0.0440     0.6220 H     1 <1>   0.1500 
 29 H        4.4140    -1.4680    -1.2080 H     1 <1>   0.1500 
 30 H       -1.3120    -7.2870    -1.2990 H     1 <1>   0.0800 
 31 H       -2.4160    -6.3460    -0.3100 H     1 <1>   0.0800 
 32 H        1.9740     2.2000     0.9510 H     1 <1>   0.1500 
 33 H        5.5170     0.6910    -0.8720 H     1 <1>   0.1500 
 34 H       -1.8010    -7.6810     1.6680 H     1 <1>   0.0800 
 35 H       -0.6510    -8.5980     0.6940 H     1 <1>   0.0800 
 36 H        4.3020     2.5410     0.2120 H     1 <1>   0.1500 
 37 H       -2.5680    -9.8300     2.0830 H     1 <1>   0.0800 
 38 H       -1.7800   -11.9350     1.2140 H     1 <1>   0.0800 
 39 H       -0.8810   -10.8120     0.2210 H     1 <1>   0.0800 
 40 H       -4.8870    -9.7780     0.7830 H     1 <1>   0.0800 
 41 H       -4.4170   -11.2520     1.6030 H     1 <1>   0.0800 
 42 H       -2.4780   -12.7630    -0.8430 H     1 <1>   0.0800 
 43 H       -2.2750   -11.2070    -1.6260 H     1 <1>   0.0800 
 44 H       -4.4420   -10.7210    -1.3160 H     1 <1>   0.0800 
 45 H       -4.7170   -12.2330    -0.4710 H     1 <1>   0.0800 
@<TRIPOS>BOND
  1   1   2  ar  
  2   2   3  ar  
  3   2   4  1   
  4   4   5  1   
  5   4   6  2   
  6   5   7  2   
  7   5   8  1   
  8   6   9  1   
  9   6  10  1   
 10   7   9  1   
 11   8  11  1   
 12   8  25  1   
 13  10  12  ar  
 14  10  13  ar  
 15  11  14  1   
 16  11  26  1   
 17  11  27  1   
 18  12  15  ar  
 19  12  28  1   
 20  13  16  ar  
 21  13  29  1   
 22  14  17  1   
 23  14  30  1   
 24  14  31  1   
 25  15  18  ar  
 26  15  32  1   
 27  16  18  ar  
 28  16  33  1   
 29  17  19  1   
 30  17  34  1   
 31  17  35  1   
 32  18  36  1   
 33  19  20  1   
 34  20  21  1   
 35  20  22  1   
 36  20  37  1   
 37  21  23  1   
 38  21  38  1   
 39  21  39  1   
 40  22  24  1   
 41  22  40  1   
 42  22  41  1   
 43  23  24  1   
 44  23  42  1   
 45  23  43  1   
 46  24  44  1   
 47  24  45  1   
@<TRIPOS>SUBSTRUCTURE
  1 ****   8 GROUP 4 **** **** 0

# MOE 2024.06 (io_trps.svl 2023.06)
