@<TRIPOS>MOLECULE
NONAME
56 58 1 0 0 
SMALL
USER_CHARGES


@<TRIPOS>ATOM
  1 F       -1.0410    -0.4940     0.4910 F     1 <1>  -0.1900 
  2 C       -2.2280     0.0500     0.4030 C.ar  1 <1>   0.1900 
  3 C       -2.4120     1.4370     0.4230 C.ar  1 <1>   0.0830 
  4 C       -3.2950    -0.8190     0.2920 C.ar  1 <1>  -0.1500 
  5 O       -1.4450     2.3930     0.5290 O.3   1 <1>  -0.3630 
  6 C       -3.7100     1.9130     0.3270 C.ar  1 <1>  -0.1500 
  7 C       -4.5770    -0.3090     0.1990 C.ar  1 <1>  -0.1500 
  8 C       -0.0680     2.0910     0.5900 C.3   1 <1>   0.0400 
  9 C       -4.8160     1.0680     0.2120 C.ar  1 <1>   0.0530 
 10 C       -6.1510     1.6140     0.1170 C.2   1 <1>   0.0870 
 11 O       -6.4060     2.8130     0.5760 O.3   1 <1>  -0.0190 
 12 C       -7.3220     1.1280    -0.3730 C.2   1 <1>  -0.0860 
 13 N       -7.6560     3.1630     0.4270 N.2   1 <1>  -0.4100 
 14 C       -8.2310     2.1680    -0.1530 C.2   1 <1>   0.3720 
 15 C       -7.6090    -0.1330    -0.9790 C.2   1 <1>   0.7160 
 16 N       -9.5870     2.1560    -0.5170 N.pl3 1 <1>  -0.8210 
 17 O       -7.0690    -0.4360    -2.0270 O.2   1 <1>  -0.5700 
 18 N       -8.4430    -1.0470    -0.3830 N.am  1 <1>  -0.6600 
 19 C      -10.4520     3.1490     0.1810 C.3   1 <1>   0.1290 
 20 C       -9.8300     2.1420    -1.9860 C.3   1 <1>   0.1290 
 21 C       -8.7400    -2.3770    -0.9550 C.3   1 <1>   0.1400 
 22 C       -9.1740    -0.8330     0.8820 C.3   1 <1>   0.1400 
 23 C       -9.8450    -2.9530    -0.0670 C.3   1 <1>  -0.0800 
 24 C       -9.6770    -2.2190     1.2650 C.3   1 <1>  -0.1600 
 25 C       -9.7690    -4.4880     0.0500 C.3   1 <1>  -0.1600 
 26 C      -10.8270    -5.1180     0.9760 C.3   1 <1>  -0.0800 
 27 C      -10.5920    -6.6300     1.0710 C.3   1 <1>  -0.2400 
 28 C      -12.2580    -4.8560     0.4870 C.3   1 <1>  -0.2400 
 29 H       -3.1230    -1.8800     0.2780 H     1 <1>   0.1500 
 30 H       -3.8580     2.9780     0.3390 H     1 <1>   0.1500 
 31 H       -5.3980    -0.9980     0.1180 H     1 <1>   0.1500 
 32 H        0.4740     3.0170     0.6440 H     1 <1>   0.0800 
 33 H        0.2130     1.5550    -0.2990 H     1 <1>   0.0800 
 34 H        0.1230     1.5050     1.4720 H     1 <1>   0.0800 
 35 H      -10.2700     3.1090     1.2420 H     1 <1>   0.0800 
 36 H      -11.4890     2.9260     0.0010 H     1 <1>   0.0800 
 37 H      -10.2330     4.1420    -0.1710 H     1 <1>   0.0800 
 38 H       -9.2140     1.4020    -2.4650 H     1 <1>   0.0800 
 39 H       -9.5990     3.1070    -2.4050 H     1 <1>   0.0800 
 40 H      -10.8610     1.9070    -2.1840 H     1 <1>   0.0800 
 41 H       -7.8500    -2.9810    -0.9080 H     1 <1>   0.0800 
 42 H       -9.0600    -2.2890    -1.9790 H     1 <1>   0.0800 
 43 H      -10.0040    -0.1720     0.7020 H     1 <1>   0.0800 
 44 H       -8.5340    -0.4160     1.6410 H     1 <1>   0.0800 
 45 H      -10.7840    -2.6670    -0.5080 H     1 <1>   0.0800 
 46 H      -10.5960    -2.1640     1.8210 H     1 <1>   0.0800 
 47 H       -8.9300    -2.7040     1.8690 H     1 <1>   0.0800 
 48 H       -8.7920    -4.7550     0.4160 H     1 <1>   0.0800 
 49 H       -9.8670    -4.9140    -0.9340 H     1 <1>   0.0800 
 50 H      -10.7220    -4.7070     1.9660 H     1 <1>   0.0800 
 51 H      -10.6960    -7.0920     0.1050 H     1 <1>   0.0800 
 52 H      -11.3040    -7.0780     1.7430 H     1 <1>   0.0800 
 53 H       -9.6050    -6.8340     1.4460 H     1 <1>   0.0800 
 54 H      -12.3840    -5.2060    -0.5220 H     1 <1>   0.0800 
 55 H      -12.4890    -3.8070     0.5220 H     1 <1>   0.0800 
 56 H      -12.9650    -5.3670     1.1160 H     1 <1>   0.0800 
@<TRIPOS>BOND
  1   1   2  1   
  2   2   3  ar  
  3   2   4  ar  
  4   3   5  1   
  5   3   6  ar  
  6   4   7  ar  
  7   4  29  1   
  8   5   8  1   
  9   6   9  ar  
 10   6  30  1   
 11   7   9  ar  
 12   7  31  1   
 13   8  32  1   
 14   8  33  1   
 15   8  34  1   
 16   9  10  1   
 17  10  11  1   
 18  10  12  2   
 19  11  13  1   
 20  12  14  1   
 21  12  15  1   
 22  13  14  2   
 23  14  16  1   
 24  15  17  2   
 25  15  18  am  
 26  16  19  1   
 27  16  20  1   
 28  18  21  1   
 29  18  22  1   
 30  19  35  1   
 31  19  36  1   
 32  19  37  1   
 33  20  38  1   
 34  20  39  1   
 35  20  40  1   
 36  21  23  1   
 37  21  41  1   
 38  21  42  1   
 39  22  24  1   
 40  22  43  1   
 41  22  44  1   
 42  23  24  1   
 43  23  25  1   
 44  23  45  1   
 45  24  46  1   
 46  24  47  1   
 47  25  26  1   
 48  25  48  1   
 49  25  49  1   
 50  26  27  1   
 51  26  28  1   
 52  26  50  1   
 53  27  51  1   
 54  27  52  1   
 55  27  53  1   
 56  28  54  1   
 57  28  55  1   
 58  28  56  1   
@<TRIPOS>SUBSTRUCTURE
  1 ****  15 GROUP 4 **** **** 0

# MOE 2024.06 (io_trps.svl 2023.06)
