@<TRIPOS>MOLECULE
NONAME
49 51 1 0 0 
SMALL
USER_CHARGES


@<TRIPOS>ATOM
  1 F       -1.5050     2.5880     2.1430 F     1 <1>  -0.1900 
  2 C       -1.0860     2.5900     0.9050 C.ar  1 <1>   0.1900 
  3 C       -1.8860     2.0360    -0.0900 C.ar  1 <1>  -0.1440 
  4 C        0.1470     3.1550     0.6450 C.ar  1 <1>  -0.1500 
  5 C       -1.4180     2.0580    -1.3990 C.ar  1 <1>  -0.1500 
  6 C       -3.2440     1.4180     0.2220 C.3   1 <1>  -0.0160 
  7 C        0.5740     3.1550    -0.6670 C.ar  1 <1>   0.1900 
  8 C       -0.1840     2.6190    -1.6930 C.ar  1 <1>  -0.1500 
  9 C       -4.3250     2.5060     0.3220 C.3   1 <1>  -0.0990 
 10 F        1.7340     3.6820    -0.9510 F     1 <1>  -0.1900 
 11 C       -5.7230     1.9650     0.5880 C.2   1 <1>   0.5690 
 12 O       -5.8830     0.7660     0.5860 O.2   1 <1>  -0.5700 
 13 N       -6.7640     2.8320     0.8070 N.am  1 <1>  -0.6600 
 14 C       -8.1470     2.3290     1.0820 C.3   1 <1>   0.1400 
 15 C       -6.6900     4.3180     0.7430 C.3   1 <1>   0.1400 
 16 C       -9.1310     2.7910    -0.0210 C.3   1 <1>   0.0000 
 17 C       -7.6270     4.8300    -0.3570 C.3   1 <1>  -0.1600 
 18 C      -10.5630     2.3090     0.2700 C.3   1 <1>   0.2000 
 19 C       -9.0680     4.3290    -0.1560 C.3   1 <1>  -0.1600 
 20 C       -8.8270     2.0730    -1.3480 C.3   1 <1>  -0.1600 
 21 O      -10.8760     2.4250     1.6260 O.3   1 <1>  -0.5600 
 22 C      -10.6130     0.8500    -0.1960 C.3   1 <1>  -0.1600 
 23 C       -9.4890     0.6970    -1.2300 C.3   1 <1>  -0.1600 
 24 C      -12.2290     2.2960     1.9300 C.3   1 <1>   0.0400 
 25 H        0.7480     3.5760     1.4300 H     1 <1>   0.1500 
 26 H       -2.0120     1.6380    -2.1940 H     1 <1>   0.1500 
 27 H       -3.5100     0.7170    -0.5500 H     1 <1>   0.0800 
 28 H       -3.1950     0.8710     1.1480 H     1 <1>   0.0800 
 29 H        0.1890     2.6410    -2.7020 H     1 <1>   0.1500 
 30 H       -4.3480     3.0590    -0.5980 H     1 <1>   0.0800 
 31 H       -4.0630     3.1750     1.1200 H     1 <1>   0.0800 
 32 H       -8.1530     1.2560     1.1580 H     1 <1>   0.0800 
 33 H       -8.4630     2.7160     2.0350 H     1 <1>   0.0800 
 34 H       -6.9950     4.7200     1.6940 H     1 <1>   0.0800 
 35 H       -5.6900     4.6560     0.5450 H     1 <1>   0.0800 
 36 H       -7.6200     5.9050    -0.3550 H     1 <1>   0.0800 
 37 H       -7.2550     4.5040    -1.3120 H     1 <1>   0.0800 
 38 H      -11.2580     2.9010    -0.3030 H     1 <1>   0.0800 
 39 H       -9.6830     4.6580    -0.9760 H     1 <1>   0.0800 
 40 H       -9.4650     4.7680     0.7440 H     1 <1>   0.0800 
 41 H       -9.2830     2.6080    -2.1630 H     1 <1>   0.0800 
 42 H       -7.7730     1.9860    -1.5440 H     1 <1>   0.0800 
 43 H      -10.4300     0.1880     0.6330 H     1 <1>   0.0800 
 44 H      -11.5690     0.6270    -0.6340 H     1 <1>   0.0800 
 45 H       -8.7670    -0.0200    -0.8730 H     1 <1>   0.0800 
 46 H       -9.8640     0.3650    -2.1820 H     1 <1>   0.0800 
 47 H      -12.3450     2.4240     2.9920 H     1 <1>   0.0800 
 48 H      -12.5690     1.3150     1.6470 H     1 <1>   0.0800 
 49 H      -12.7850     3.0560     1.4100 H     1 <1>   0.0800 
@<TRIPOS>BOND
  1   1   2  1   
  2   2   3  ar  
  3   2   4  ar  
  4   3   5  ar  
  5   3   6  1   
  6   4   7  ar  
  7   4  25  1   
  8   5   8  ar  
  9   5  26  1   
 10   6   9  1   
 11   6  27  1   
 12   6  28  1   
 13   7   8  ar  
 14   7  10  1   
 15   8  29  1   
 16   9  11  1   
 17   9  30  1   
 18   9  31  1   
 19  11  12  2   
 20  11  13  am  
 21  13  14  1   
 22  13  15  1   
 23  14  16  1   
 24  14  32  1   
 25  14  33  1   
 26  15  17  1   
 27  15  34  1   
 28  15  35  1   
 29  16  18  1   
 30  16  19  1   
 31  16  20  1   
 32  17  19  1   
 33  17  36  1   
 34  17  37  1   
 35  18  21  1   
 36  18  22  1   
 37  18  38  1   
 38  19  39  1   
 39  19  40  1   
 40  20  23  1   
 41  20  41  1   
 42  20  42  1   
 43  21  24  1   
 44  22  23  1   
 45  22  43  1   
 46  22  44  1   
 47  23  45  1   
 48  23  46  1   
 49  24  47  1   
 50  24  48  1   
 51  24  49  1   
@<TRIPOS>SUBSTRUCTURE
  1 ****  11 GROUP 4 **** **** 0

# MOE 2024.06 (io_trps.svl 2023.06)
