@<TRIPOS>MOLECULE
NONAME
33 34 1 0 0 
SMALL
USER_CHARGES


@<TRIPOS>ATOM
  1 F        0.1600    -1.6530    -1.7710 F     1 <1>  -0.2320 
  2 C        0.0870    -1.8360    -0.4620 C.3   1 <1>   0.4630 
  3 F        0.1100    -0.6510     0.1280 F     1 <1>  -0.2320 
  4 C       -0.7560    -2.9280     0.1090 C.3   1 <1>  -0.1950 
  5 C        0.7340    -3.0290     0.1730 C.3   1 <1>  -0.2000 
  6 C       -1.5710    -3.8690    -0.7950 C.3   1 <1>  -0.0040 
  7 C       -1.8440    -5.2060    -0.1190 C.2   1 <1>   0.5690 
  8 O       -1.1510    -6.1440    -0.4430 O.2   1 <1>  -0.5700 
  9 N       -2.8450    -5.3570     0.8060 N.am  1 <1>  -0.6600 
 10 C       -3.0140    -6.6650     1.5070 C.3   1 <1>   0.3200 
 11 C       -3.9180    -4.3540     1.0760 C.3   1 <1>   0.1400 
 12 C       -3.8150    -7.6230     0.6440 C.2   1 <1>   0.0060 
 13 C       -5.1030    -4.5560     0.1240 C.3   1 <1>   0.1200 
 14 N       -4.9980    -8.0710     0.9230 N.2   1 <1>  -0.5650 
 15 N       -3.3230    -8.0820    -0.5260 N.pl3 1 <1>   0.0330 
 16 O       -6.0190    -3.5340     0.3210 O.3   1 <1>  -0.6800 
 17 C       -5.2910    -8.8690    -0.1220 C.2   1 <1>   0.0770 
 18 C       -4.2810    -8.8870    -1.0190 C.2   1 <1>  -0.3020 
 19 H       -1.2520    -2.7120     1.0380 H     1 <1>   0.1000 
 20 H        1.2150    -2.9050     1.1260 H     1 <1>   0.1000 
 21 H        1.2310    -3.7410    -0.4620 H     1 <1>   0.1000 
 22 H       -1.0280    -4.0590    -1.7040 H     1 <1>   0.0800 
 23 H       -2.4960    -3.4010    -1.0750 H     1 <1>   0.0800 
 24 H       -3.5190    -6.5210     2.4460 H     1 <1>   0.0800 
 25 H       -2.0500    -7.0950     1.7160 H     1 <1>   0.0800 
 26 H       -3.5320    -3.3580     0.9530 H     1 <1>   0.0800 
 27 H       -4.2550    -4.4530     2.0930 H     1 <1>   0.0800 
 28 H       -5.5980    -5.4960     0.2990 H     1 <1>   0.0800 
 29 H       -4.7750    -4.5060    -0.9000 H     1 <1>   0.0800 
 30 H       -2.4100    -7.8200    -0.9240 H     1 <1>   0.2700 
 31 H       -6.5950    -3.7310     1.0870 H     1 <1>   0.4000 
 32 H       -6.2300    -9.3960    -0.1760 H     1 <1>   0.1500 
 33 H       -4.1920    -9.4120    -1.9520 H     1 <1>   0.1500 
@<TRIPOS>BOND
  1   1   2  1   
  2   2   3  1   
  3   2   4  1   
  4   2   5  1   
  5   4   5  1   
  6   4   6  1   
  7   4  19  1   
  8   5  20  1   
  9   5  21  1   
 10   6   7  1   
 11   6  22  1   
 12   6  23  1   
 13   7   8  2   
 14   7   9  am  
 15   9  10  1   
 16   9  11  1   
 17  10  12  1   
 18  10  24  1   
 19  10  25  1   
 20  11  13  1   
 21  11  26  1   
 22  11  27  1   
 23  12  14  2   
 24  12  15  1   
 25  13  16  1   
 26  13  28  1   
 27  13  29  1   
 28  14  17  1   
 29  15  18  1   
 30  15  30  1   
 31  16  31  1   
 32  17  18  2   
 33  17  32  1   
 34  18  33  1   
@<TRIPOS>SUBSTRUCTURE
  1 ****   7 GROUP 4 **** **** 0

# MOE 2024.06 (io_trps.svl 2023.06)
