@<TRIPOS>MOLECULE
NONAME
40 42 1 0 0 
SMALL
USER_CHARGES


@<TRIPOS>ATOM
  1 CL      -1.1410     0.1060    -1.7290 Cl    1 <1>  -0.1400 
  2 C       -2.0610    -0.8490    -0.5840 C.2   1 <1>   0.1540 
  3 C       -2.7480    -0.1740     0.4730 C.2   1 <1>   0.6160 
  4 C       -2.1080    -2.2010    -0.7160 C.2   1 <1>  -0.1500 
  5 O       -2.7630     1.0330     0.6550 O.2   1 <1>  -0.5700 
  6 N       -3.4480    -0.9610     1.3500 N.am  1 <1>  -0.5390 
  7 C       -2.8590    -2.9930     0.2100 C.2   1 <1>   0.0140 
  8 C       -3.4980    -2.3280     1.2300 C.2   1 <1>  -0.0410 
  9 C       -2.9000    -4.4290     0.0510 C.2   1 <1>   0.6160 
 10 O       -1.9060    -5.0190    -0.3330 O.2   1 <1>  -0.5700 
 11 N       -4.0380    -5.1620     0.3080 N.am  1 <1>  -0.6600 
 12 C       -5.4210    -4.6370     0.1630 C.3   1 <1>   0.1400 
 13 C       -4.0450    -6.6470     0.2240 C.3   1 <1>   0.1400 
 14 C       -6.2480    -5.8330    -0.3030 C.3   1 <1>   0.2000 
 15 C       -5.5190    -7.0550     0.2450 C.3   1 <1>  -0.0800 
 16 O       -7.5420    -5.7800     0.1890 O.3   1 <1>  -0.6800 
 17 C       -5.8120    -8.3410    -0.5410 C.3   1 <1>   0.0210 
 18 C       -4.9910    -9.4990    -0.0070 C.2   1 <1>   0.1080 
 19 N       -5.1170    -9.9500     1.2020 N.2   1 <1>  -0.7070 
 20 C       -4.0220   -10.1870    -0.7280 C.2   1 <1>  -0.1500 
 21 N       -4.2230   -10.9540     1.2850 N.pl3 1 <1>   0.3000 
 22 C       -3.5450   -11.1150     0.1290 C.2   1 <1>  -0.3320 
 23 C       -2.4680   -12.1610    -0.0900 C.3   1 <1>  -0.0600 
 24 H       -1.5830    -2.7040    -1.5100 H     1 <1>   0.1500 
 25 H       -3.9080    -0.4420     2.1020 H     1 <1>   0.3700 
 26 H       -4.0540    -2.8710     1.9780 H     1 <1>   0.1500 
 27 H       -5.7710    -4.2910     1.1200 H     1 <1>   0.0800 
 28 H       -5.4600    -3.8420    -0.5610 H     1 <1>   0.0800 
 29 H       -3.5750    -6.9530    -0.6960 H     1 <1>   0.0800 
 30 H       -3.5090    -7.0800     1.0530 H     1 <1>   0.0800 
 31 H       -6.2920    -5.8470    -1.3790 H     1 <1>   0.0800 
 32 H       -5.7880    -7.2050     1.2760 H     1 <1>   0.0800 
 33 H       -7.5550    -6.0100     1.1380 H     1 <1>   0.4000 
 34 H       -5.5930    -8.1990    -1.5830 H     1 <1>   0.0800 
 35 H       -6.8550    -8.5890    -0.4490 H     1 <1>   0.0800 
 36 H       -3.7320   -10.0000    -1.7460 H     1 <1>   0.1500 
 37 H       -4.1000   -11.5070     2.1410 H     1 <1>   0.2700 
 38 H       -2.0790   -12.0880    -1.0900 H     1 <1>   0.0800 
 39 H       -2.8730   -13.1480     0.0490 H     1 <1>   0.0800 
 40 H       -1.6580   -12.0110     0.6030 H     1 <1>   0.0800 
@<TRIPOS>BOND
  1   1   2  1   
  2   2   3  1   
  3   2   4  2   
  4   3   5  2   
  5   3   6  am  
  6   4   7  1   
  7   4  24  1   
  8   6   8  1   
  9   6  25  1   
 10   7   8  2   
 11   7   9  1   
 12   8  26  1   
 13   9  10  2   
 14   9  11  am  
 15  11  12  1   
 16  11  13  1   
 17  12  14  1   
 18  12  27  1   
 19  12  28  1   
 20  13  15  1   
 21  13  29  1   
 22  13  30  1   
 23  14  15  1   
 24  14  16  1   
 25  14  31  1   
 26  15  17  1   
 27  15  32  1   
 28  16  33  1   
 29  17  18  1   
 30  17  34  1   
 31  17  35  1   
 32  18  19  2   
 33  18  20  1   
 34  19  21  1   
 35  20  22  2   
 36  20  36  1   
 37  21  22  1   
 38  21  37  1   
 39  22  23  1   
 40  23  38  1   
 41  23  39  1   
 42  23  40  1   
@<TRIPOS>SUBSTRUCTURE
  1 ****  11 GROUP 4 **** **** 0

# MOE 2024.06 (io_trps.svl 2023.06)
