@<TRIPOS>MOLECULE
NONAME
46 49 1 0 0 
SMALL
USER_CHARGES


@<TRIPOS>ATOM
  1 N        0.3500     2.4060     3.4710 N.1   1 <1>  -0.5570 
  2 C        0.9670     3.0420     2.7470 C.1   1 <1>   0.5380 
  3 C        1.7900     3.7990     1.8380 C.2   1 <1>   0.3080 
  4 N        1.4400     4.9060     1.2300 N.2   1 <1>  -0.7070 
  5 C        3.0900     3.4320     1.4810 C.2   1 <1>  -0.1500 
  6 N        2.5000     5.2580     0.4870 N.pl3 1 <1>   0.3140 
  7 C        3.5110     4.3800     0.6160 C.2   1 <1>  -0.3320 
  8 C        2.5270     6.4720    -0.3430 C.3   1 <1>   0.0960 
  9 C        4.8240     4.5340    -0.1310 C.3   1 <1>   0.3890 
 10 C        3.6490     6.3540    -1.3740 C.3   1 <1>   0.2090 
 11 N        4.9180     5.9110    -0.7060 N.pl3 1 <1>  -0.8380 
 12 C        5.9700     6.7510    -0.5120 C.ar  1 <1>   0.4100 
 13 N        5.7290     8.0480    -0.5410 N.ar  1 <1>  -0.6200 
 14 C        7.2730     6.2610    -0.2910 C.ar  1 <1>  -0.1500 
 15 C        6.7310     8.8930    -0.3370 C.ar  1 <1>   0.7710 
 16 C        8.2850     7.1350    -0.0760 C.ar  1 <1>   0.2180 
 17 N        7.9780     8.4520    -0.0980 N.ar  1 <1>  -0.1790 
 18 N        6.5020    10.2340    -0.3600 N.pl3 1 <1>  -0.8380 
 19 C        9.7230     6.7170     0.1790 C.3   1 <1>  -0.0970 
 20 C        5.1110    10.7970    -0.4020 C.3   1 <1>   0.2090 
 21 C        7.5230    11.3280    -0.3280 C.3   1 <1>   0.2090 
 22 C        4.8680    11.6250     0.8640 C.3   1 <1>  -0.1600 
 23 C        7.3390    12.1490     0.9510 C.3   1 <1>  -0.1600 
 24 C        5.9200    12.7300     1.0390 C.3   1 <1>  -0.1600 
 25 H        3.6100     2.5610     1.8410 H     1 <1>   0.1500 
 26 H        2.7040     7.3170     0.2950 H     1 <1>   0.0800 
 27 H        1.5760     6.5900    -0.8270 H     1 <1>   0.0800 
 28 H        4.8690     3.8140    -0.9310 H     1 <1>   0.0800 
 29 H        5.6330     4.3420     0.5510 H     1 <1>   0.0800 
 30 H        3.7810     7.2980    -1.8760 H     1 <1>   0.0800 
 31 H        3.3710     5.6310    -2.1220 H     1 <1>   0.0800 
 32 H        7.4440     5.2020    -0.3080 H     1 <1>   0.1500 
 33 H        8.6640     9.1710     0.0830 H     1 <1>   0.4570 
 34 H        9.8120     5.6440     0.1640 H     1 <1>   0.0800 
 35 H       10.0520     7.0660     1.1420 H     1 <1>   0.0800 
 36 H       10.3720     7.1170    -0.5800 H     1 <1>   0.0800 
 37 H        4.3610    10.0280    -0.4660 H     1 <1>   0.0800 
 38 H        5.0060    11.4230    -1.2730 H     1 <1>   0.0800 
 39 H        7.3780    11.9680    -1.1840 H     1 <1>   0.0800 
 40 H        8.5270    10.9490    -0.3780 H     1 <1>   0.0800 
 41 H        4.8820    10.9690     1.7160 H     1 <1>   0.0800 
 42 H        3.8880    12.0680     0.8140 H     1 <1>   0.0800 
 43 H        8.0520    12.9550     0.9650 H     1 <1>   0.0800 
 44 H        7.5290    11.5270     1.8080 H     1 <1>   0.0800 
 45 H        5.7820    13.2180     1.9890 H     1 <1>   0.0800 
 46 H        5.7890    13.4700     0.2670 H     1 <1>   0.0800 
@<TRIPOS>BOND
  1   1   2  3   
  2   2   3  1   
  3   3   4  2   
  4   3   5  1   
  5   4   6  1   
  6   5   7  2   
  7   5  25  1   
  8   6   7  1   
  9   6   8  1   
 10   7   9  1   
 11   8  10  1   
 12   8  26  1   
 13   8  27  1   
 14   9  11  1   
 15   9  28  1   
 16   9  29  1   
 17  10  11  1   
 18  10  30  1   
 19  10  31  1   
 20  11  12  1   
 21  12  13  ar  
 22  12  14  ar  
 23  13  15  ar  
 24  14  16  ar  
 25  14  32  1   
 26  15  17  ar  
 27  15  18  1   
 28  16  17  ar  
 29  16  19  1   
 30  17  33  1   
 31  18  20  1   
 32  18  21  1   
 33  19  34  1   
 34  19  35  1   
 35  19  36  1   
 36  20  22  1   
 37  20  37  1   
 38  20  38  1   
 39  21  23  1   
 40  21  39  1   
 41  21  40  1   
 42  22  24  1   
 43  22  41  1   
 44  22  42  1   
 45  23  24  1   
 46  23  43  1   
 47  23  44  1   
 48  24  45  1   
 49  24  46  1   
@<TRIPOS>SUBSTRUCTURE
  1 ****  12 GROUP 4 **** **** 0

# MOE 2024.06 (io_trps.svl 2023.06)
