@<TRIPOS>MOLECULE
NONAME
55 58 1 0 0 
SMALL
USER_CHARGES


@<TRIPOS>ATOM
  1 O       -1.0750     5.1690     2.3860 O.2   1 <1>  -0.5700 
  2 C       -0.7250     4.4400     1.4760 C.2   1 <1>   0.5440 
  3 N       -1.6650     3.6490     0.8460 N.am  1 <1>  -0.6600 
  4 C        0.6630     4.4470     1.0540 C.ar  1 <1>   0.0860 
  5 C       -3.0640     3.5300     1.3810 C.3   1 <1>   0.1400 
  6 C       -1.4480     3.1680    -0.5530 C.3   1 <1>   0.1400 
  7 C        1.4190     3.2790     1.0020 C.ar  1 <1>  -0.1500 
  8 C        1.2950     5.6290     0.6850 C.ar  1 <1>  -0.1500 
  9 C       -4.0740     4.0690     0.3510 C.3   1 <1>   0.1440 
 10 C       -2.6840     2.4550    -1.1200 C.3   1 <1>  -0.1600 
 11 C        2.7360     3.2880     0.5790 C.ar  1 <1>  -0.1500 
 12 C        2.6110     5.6400     0.2620 C.ar  1 <1>  -0.1500 
 13 C       -5.4930     4.0070     0.8890 C.ar  1 <1>   0.1670 
 14 C       -3.9780     3.2820    -0.9850 C.3   1 <1>  -0.1600 
 15 C       -3.8800     5.5940     0.1280 C.3   1 <1>  -0.1600 
 16 C        3.3610     4.4710     0.1950 C.ar  1 <1>  -0.1430 
 17 N       -6.0470     2.9620     1.4580 N.ar  1 <1>  -0.6200 
 18 C       -6.1520     5.1880     0.7030 C.ar  1 <1>  -0.1430 
 19 C       -5.2830     6.2150     0.0220 C.3   1 <1>  -0.0170 
 20 C        4.8270     4.5340    -0.2870 C.3   1 <1>   0.1430 
 21 C       -7.3030     3.1550     1.8290 C.ar  1 <1>   0.7200 
 22 C       -7.4520     5.2710     1.1410 C.ar  1 <1>   0.1600 
 23 C        5.6370     5.4410     0.6510 C.3   1 <1>  -0.2400 
 24 C        5.5160     3.1590    -0.3110 C.3   1 <1>  -0.2400 
 25 C        4.8760     5.1010    -1.7140 C.3   1 <1>  -0.2400 
 26 N       -8.0440     4.2490     1.7160 N.ar  1 <1>  -0.6200 
 27 N       -7.8960     2.1170     2.4190 N.pl3 1 <1>  -0.9000 
 28 H       -3.1720     4.0670     2.3070 H     1 <1>   0.0800 
 29 H       -3.2770     2.4950     1.5860 H     1 <1>   0.0800 
 30 H       -0.6130     2.4900    -0.5770 H     1 <1>   0.0800 
 31 H       -1.2110     4.0150    -1.1750 H     1 <1>   0.0800 
 32 H        0.9630     2.3530     1.3030 H     1 <1>   0.1500 
 33 H        0.7400     6.5500     0.7360 H     1 <1>   0.1500 
 34 H       -2.8040     1.5230    -0.5940 H     1 <1>   0.0800 
 35 H       -2.5170     2.2140    -2.1540 H     1 <1>   0.0800 
 36 H        3.2580     2.3490     0.5620 H     1 <1>   0.1500 
 37 H        3.0500     6.5820    -0.0150 H     1 <1>   0.1500 
 38 H       -4.0590     3.9600    -1.8160 H     1 <1>   0.0800 
 39 H       -4.8090     2.6010    -1.0610 H     1 <1>   0.0800 
 40 H       -3.2690     5.8170    -0.7280 H     1 <1>   0.0800 
 41 H       -3.3980     6.0180     0.9930 H     1 <1>   0.0800 
 42 H       -5.5790     6.3140    -1.0080 H     1 <1>   0.0800 
 43 H       -5.3300     7.1710     0.5140 H     1 <1>   0.0800 
 44 H       -8.0100     6.1840     1.0190 H     1 <1>   0.1500 
 45 H        5.5800     5.0710     1.6590 H     1 <1>   0.0800 
 46 H        5.2590     6.4470     0.6400 H     1 <1>   0.0800 
 47 H        6.6700     5.4700     0.3540 H     1 <1>   0.0800 
 48 H        5.5380     2.7300     0.6750 H     1 <1>   0.0800 
 49 H        6.5310     3.2500    -0.6550 H     1 <1>   0.0800 
 50 H        5.0000     2.4890    -0.9750 H     1 <1>   0.0800 
 51 H        4.4920     6.1040    -1.7470 H     1 <1>   0.0800 
 52 H        4.2830     4.4910    -2.3720 H     1 <1>   0.0800 
 53 H        5.8860     5.1190    -2.0810 H     1 <1>   0.0800 
 54 H       -8.7140     2.3500     2.9730 H     1 <1>   0.4000 
 55 H       -7.2630     1.4200     2.8010 H     1 <1>   0.4000 
@<TRIPOS>BOND
  1   1   2  2   
  2   2   3  am  
  3   2   4  1   
  4   3   5  1   
  5   3   6  1   
  6   4   7  ar  
  7   4   8  ar  
  8   5   9  1   
  9   5  28  1   
 10   5  29  1   
 11   6  10  1   
 12   6  30  1   
 13   6  31  1   
 14   7  11  ar  
 15   7  32  1   
 16   8  12  ar  
 17   8  33  1   
 18   9  13  1   
 19   9  14  1   
 20   9  15  1   
 21  10  14  1   
 22  10  34  1   
 23  10  35  1   
 24  11  16  ar  
 25  11  36  1   
 26  12  16  ar  
 27  12  37  1   
 28  13  17  ar  
 29  13  18  ar  
 30  14  38  1   
 31  14  39  1   
 32  15  19  1   
 33  15  40  1   
 34  15  41  1   
 35  16  20  1   
 36  17  21  ar  
 37  18  19  1   
 38  18  22  ar  
 39  19  42  1   
 40  19  43  1   
 41  20  23  1   
 42  20  24  1   
 43  20  25  1   
 44  21  26  ar  
 45  21  27  1   
 46  22  26  ar  
 47  22  44  1   
 48  23  45  1   
 49  23  46  1   
 50  23  47  1   
 51  24  48  1   
 52  24  49  1   
 53  24  50  1   
 54  25  51  1   
 55  25  52  1   
 56  25  53  1   
 57  27  54  1   
 58  27  55  1   
@<TRIPOS>SUBSTRUCTURE
  1 ****   3 GROUP 4 **** **** 0

# MOE 2024.06 (io_trps.svl 2023.06)
