@<TRIPOS>MOLECULE
NONAME
48 51 1 0 0 
SMALL
USER_CHARGES


@<TRIPOS>ATOM
  1 O       -0.6440     0.2080    -0.8100 O.2   1 <1>  -0.5700 
  2 C       -1.6720     0.8630    -0.7760 C.2   1 <1>   0.7160 
  3 N       -2.8710     0.1810    -0.8880 N.am  1 <1>  -0.6600 
  4 C       -1.5820     2.3120    -0.6090 C.2   1 <1>   0.1410 
  5 C       -4.2020     0.7420    -0.4990 C.3   1 <1>   0.1400 
  6 C       -2.9460    -1.2260    -1.3910 C.3   1 <1>   0.1400 
  7 N       -2.4820     3.2200    -1.1110 N.2   1 <1>  -0.5650 
  8 C       -0.6160     3.0230     0.0240 C.2   1 <1>  -0.0400 
  9 C       -4.9650    -0.2160     0.4370 C.3   1 <1>   0.1900 
 10 C       -3.7370    -2.1230    -0.4260 C.3   1 <1>   0.1100 
 11 C       -2.0030     4.3550    -0.7610 C.2   1 <1>   0.3280 
 12 O       -0.8910     4.2890    -0.0760 O.3   1 <1>  -0.2800 
 13 C        0.6400     2.6080     0.7750 C.3   1 <1>   0.0200 
 14 N       -5.0820    -1.5700    -0.1590 N.3   1 <1>  -0.8100 
 15 C       -6.3590     0.3540     0.7650 C.3   1 <1>   0.1200 
 16 C        1.8960     2.9820    -0.0150 C.3   1 <1>  -0.2400 
 17 C       -5.8740    -2.4480     0.7360 C.3   1 <1>   0.3330 
 18 O       -7.0520    -0.5070     1.6220 O.3   1 <1>  -0.5600 
 19 C       -6.1250    -3.8100     0.0900 C.ar  1 <1>  -0.1430 
 20 C       -7.2270    -1.7930     1.0870 C.3   1 <1>   0.1200 
 21 C       -6.5710    -3.9060    -1.2210 C.ar  1 <1>  -0.1500 
 22 C       -5.9110    -4.9740     0.8150 C.ar  1 <1>  -0.1500 
 23 C       -6.8010    -5.1420    -1.7980 C.ar  1 <1>  -0.1500 
 24 C       -6.1410    -6.2120     0.2400 C.ar  1 <1>  -0.1500 
 25 C       -6.5860    -6.2970    -1.0670 C.ar  1 <1>  -0.1500 
 26 H       -4.0830     1.6790     0.0120 H     1 <1>   0.0800 
 27 H       -4.7830     0.9150    -1.3890 H     1 <1>   0.0800 
 28 H       -3.4360    -1.2290    -2.3480 H     1 <1>   0.0800 
 29 H       -1.9620    -1.6390    -1.5270 H     1 <1>   0.0800 
 30 H       -4.4130    -0.2790     1.3600 H     1 <1>   0.0800 
 31 H       -3.1870    -2.2240     0.4940 H     1 <1>   0.0800 
 32 H       -3.8250    -3.1000    -0.8700 H     1 <1>   0.0800 
 33 H       -2.4210     5.3240    -0.9730 H     1 <1>   0.1500 
 34 H        0.6540     3.0970     1.7330 H     1 <1>   0.0800 
 35 H        0.6340     1.5470     0.9490 H     1 <1>   0.0800 
 36 H       -6.9370     0.4850    -0.1330 H     1 <1>   0.0800 
 37 H       -6.2680     1.3030     1.2630 H     1 <1>   0.0800 
 38 H        1.9310     4.0450    -0.1780 H     1 <1>   0.0800 
 39 H        1.8900     2.4850    -0.9700 H     1 <1>   0.0800 
 40 H        2.7760     2.6840     0.5250 H     1 <1>   0.0800 
 41 H       -5.3310    -2.5920     1.6540 H     1 <1>   0.0800 
 42 H       -7.7430    -2.3870     1.8200 H     1 <1>   0.0800 
 43 H       -7.8440    -1.7180     0.2090 H     1 <1>   0.0800 
 44 H       -6.7330    -3.0090    -1.7950 H     1 <1>   0.1500 
 45 H       -5.5650    -4.9250     1.8330 H     1 <1>   0.1500 
 46 H       -7.1470    -5.2040    -2.8150 H     1 <1>   0.1500 
 47 H       -5.9730    -7.1100     0.8090 H     1 <1>   0.1500 
 48 H       -6.7650    -7.2590    -1.5150 H     1 <1>   0.1500 
@<TRIPOS>BOND
  1   1   2  2   
  2   2   3  am  
  3   2   4  1   
  4   3   5  1   
  5   3   6  1   
  6   4   7  1   
  7   4   8  2   
  8   5   9  1   
  9   5  26  1   
 10   5  27  1   
 11   6  10  1   
 12   6  28  1   
 13   6  29  1   
 14   7  11  2   
 15   8  12  1   
 16   8  13  1   
 17   9  14  1   
 18   9  15  1   
 19   9  30  1   
 20  10  14  1   
 21  10  31  1   
 22  10  32  1   
 23  11  12  1   
 24  11  33  1   
 25  13  16  1   
 26  13  34  1   
 27  13  35  1   
 28  14  17  1   
 29  15  18  1   
 30  15  36  1   
 31  15  37  1   
 32  16  38  1   
 33  16  39  1   
 34  16  40  1   
 35  17  19  1   
 36  17  20  1   
 37  17  41  1   
 38  18  20  1   
 39  19  21  ar  
 40  19  22  ar  
 41  20  42  1   
 42  20  43  1   
 43  21  23  ar  
 44  21  44  1   
 45  22  24  ar  
 46  22  45  1   
 47  23  25  ar  
 48  23  46  1   
 49  24  25  ar  
 50  24  47  1   
 51  25  48  1   
@<TRIPOS>SUBSTRUCTURE
  1 ****   9 GROUP 4 **** **** 0

# MOE 2024.06 (io_trps.svl 2023.06)
