@<TRIPOS>MOLECULE
NONAME
43 45 1 0 0 
SMALL
USER_CHARGES


@<TRIPOS>ATOM
  1 N       -0.6010     0.9080    -1.3730 N.2   1 <1>  -0.6210 
  2 C       -1.3120    -0.1180    -1.0330 C.2   1 <1>   0.9190 
  3 C       -0.8700     2.0860    -0.8100 C.2   1 <1>   0.2710 
  4 N       -2.3180    -0.0580    -0.1330 N.pl3 1 <1>  -0.6690 
  5 N       -1.0300    -1.2870    -1.6030 N.pl3 1 <1>  -0.8500 
  6 N       -0.0640     3.0790    -1.2450 N.pl3 1 <1>  -0.8690 
  7 C       -1.8760     2.2370     0.1140 C.2   1 <1>  -0.1410 
  8 C       -2.5990     1.1120     0.4360 C.cat 1 <1>   0.7910 
  9 C       -3.2100    -0.9550     0.3980 C.2   1 <1>   0.5030 
 10 C        0.0170     4.5020    -0.8560 C.3   1 <1>   0.2090 
 11 N       -3.6250     0.8890     1.2730 N.pl3 1 <1>  -0.3930 
 12 N       -4.0050    -0.4170     1.2440 N.2   1 <1>  -0.2600 
 13 C        1.4430     4.7830    -0.3750 C.3   1 <1>  -0.1600 
 14 C        1.6760     6.2370     0.0810 C.3   1 <1>  -0.0800 
 15 C        1.5340     7.2410    -1.0790 C.3   1 <1>  -0.1600 
 16 C        3.0760     6.3640     0.7070 C.3   1 <1>  -0.1600 
 17 C        1.9080     8.6650    -0.6610 C.3   1 <1>   0.3430 
 18 C        3.4100     7.8050     1.0930 C.3   1 <1>   0.3430 
 19 N        3.2920     8.6820    -0.1060 N.4   1 <1>  -0.9590 
 20 C        3.7290    10.0770     0.2050 C.3   1 <1>   0.2630 
 21 H       -0.2650    -1.3050    -2.2790 H     1 <1>   0.4000 
 22 H       -1.4960    -2.1730    -1.4360 H     1 <1>   0.4000 
 23 H        0.6160     2.7980    -1.9630 H     1 <1>   0.4000 
 24 H       -2.0980     3.1800     0.5670 H     1 <1>   0.1500 
 25 H       -3.2210    -1.9980     0.1200 H     1 <1>   0.1500 
 26 H       -0.6860     4.7240    -0.0730 H     1 <1>   0.0800 
 27 H       -0.2210     5.1070    -1.7140 H     1 <1>   0.0800 
 28 H       -4.0810     1.5920     1.8670 H     1 <1>   0.4500 
 29 H        2.1320     4.5410    -1.1670 H     1 <1>   0.0800 
 30 H        1.6460     4.1220     0.4510 H     1 <1>   0.0800 
 31 H        0.9460     6.4780     0.8380 H     1 <1>   0.0800 
 32 H        0.5170     7.2550    -1.4300 H     1 <1>   0.0800 
 33 H        2.1540     6.9430    -1.9060 H     1 <1>   0.0800 
 34 H        3.8240     6.0010     0.0230 H     1 <1>   0.0800 
 35 H        3.1280     5.7520     1.5910 H     1 <1>   0.0800 
 36 H        1.2130     9.0170     0.0840 H     1 <1>   0.0800 
 37 H        1.8460     9.3180    -1.5180 H     1 <1>   0.0800 
 38 H        4.4140     7.8470     1.4860 H     1 <1>   0.0800 
 39 H        2.7310     8.1400     1.8610 H     1 <1>   0.0800 
 40 H        3.9140     8.2930    -0.8290 H     1 <1>   0.4500 
 41 H        3.0940    10.5090     0.9610 H     1 <1>   0.0800 
 42 H        3.6790    10.6910    -0.6800 H     1 <1>   0.0800 
 43 H        4.7450    10.0790     0.5660 H     1 <1>   0.0800 
@<TRIPOS>BOND
  1   1   2  2   
  2   1   3  1   
  3   2   4  1   
  4   2   5  1   
  5   3   6  1   
  6   3   7  2   
  7   4   8  ar  
  8   4   9  1   
  9   5  21  1   
 10   5  22  1   
 11   6  10  1   
 12   6  23  1   
 13   7   8  1   
 14   7  24  1   
 15   8  11  ar  
 16   9  12  2   
 17   9  25  1   
 18  10  13  1   
 19  10  26  1   
 20  10  27  1   
 21  11  12  1   
 22  11  28  1   
 23  13  14  1   
 24  13  29  1   
 25  13  30  1   
 26  14  15  1   
 27  14  16  1   
 28  14  31  1   
 29  15  17  1   
 30  15  32  1   
 31  15  33  1   
 32  16  18  1   
 33  16  34  1   
 34  16  35  1   
 35  17  19  1   
 36  17  36  1   
 37  17  37  1   
 38  18  19  1   
 39  18  38  1   
 40  18  39  1   
 41  19  20  1   
 42  19  40  1   
 43  20  41  1   
 44  20  42  1   
 45  20  43  1   
@<TRIPOS>SUBSTRUCTURE
  1 ****  10 GROUP 4 **** **** 0

# MOE 2024.06 (io_trps.svl 2023.06)
