@<TRIPOS>MOLECULE
NONAME
54 57 1 0 0 
SMALL
USER_CHARGES


@<TRIPOS>ATOM
  1 S       -3.0580    -1.1200     0.6300 S.3   1 <1>  -0.3320 
  2 C       -1.9310    -2.4850     0.2970 C.ar  1 <1>   0.1020 
  3 C       -2.4130     0.3530    -0.2790 C.3   1 <1>  -0.0100 
  4 C       -2.2070    -3.6930     0.8720 C.ar  1 <1>  -0.1500 
  5 C       -0.8080    -2.3240    -0.5210 C.ar  1 <1>  -0.1500 
  6 C       -1.3810    -4.8060     0.6590 C.ar  1 <1>   0.3100 
  7 C        0.0180    -3.3940    -0.7420 C.ar  1 <1>  -0.1500 
  8 N       -1.7300    -5.9740     1.2520 N.ar  1 <1>  -0.6200 
  9 C       -0.2360    -4.6570    -0.1650 C.ar  1 <1>   0.0000 
 10 C       -0.9540    -6.9880     1.0430 C.ar  1 <1>   0.4100 
 11 C        0.5860    -5.7920    -0.3560 C.ar  1 <1>  -0.1430 
 12 N       -1.3600    -8.1420     1.6360 N.pl3 1 <1>  -0.8690 
 13 C        0.2110    -6.9450     0.2600 C.ar  1 <1>  -0.1500 
 14 C        1.8480    -5.7330    -1.2050 C.3   1 <1>  -0.0970 
 15 C       -1.8810    -9.2160     0.7940 C.3   1 <1>   0.2890 
 16 C       -3.3830    -9.0150     0.6130 C.3   1 <1>  -0.1600 
 17 C       -1.5850   -10.5490     1.4720 C.3   1 <1>  -0.1600 
 18 C       -3.9940   -10.1820    -0.1530 C.3   1 <1>   0.3430 
 19 C       -2.2190   -11.6990     0.6970 C.3   1 <1>   0.3430 
 20 N       -3.6850   -11.4660     0.5500 N.4   1 <1>  -0.9590 
 21 C       -4.3540   -12.6270    -0.1030 C.3   1 <1>   0.4860 
 22 C       -5.8570   -12.4390    -0.0190 C.ar  1 <1>  -0.1430 
 23 C       -6.6100   -12.0960    -1.1270 C.ar  1 <1>  -0.1500 
 24 C       -6.5500   -12.5990     1.1670 C.ar  1 <1>  -0.1500 
 25 C       -7.9770   -11.9190    -0.9960 C.ar  1 <1>   0.1600 
 26 C       -7.9200   -12.3980     1.1890 C.ar  1 <1>   0.1600 
 27 N       -8.6420   -12.0540     0.1380 N.ar  1 <1>  -0.6200 
 28 H       -3.0820     1.1720    -0.0840 H     1 <1>   0.0800 
 29 H       -2.3980     0.1150    -1.3270 H     1 <1>   0.0800 
 30 H       -1.4280     0.5680     0.0940 H     1 <1>   0.0800 
 31 H       -3.0690    -3.8130     1.5010 H     1 <1>   0.1500 
 32 H       -0.5920    -1.3760    -0.9710 H     1 <1>   0.1500 
 33 H        0.8810    -3.2670    -1.3700 H     1 <1>   0.1500 
 34 H       -2.0010    -7.9010     2.3960 H     1 <1>   0.4000 
 35 H        0.7890    -7.8450     0.1780 H     1 <1>   0.1500 
 36 H        2.5290    -5.0040    -0.8030 H     1 <1>   0.0800 
 37 H        1.6000    -5.4660    -2.2170 H     1 <1>   0.0800 
 38 H        2.3460    -6.6860    -1.2190 H     1 <1>   0.0800 
 39 H       -1.3940    -9.1840    -0.1690 H     1 <1>   0.0800 
 40 H       -3.5540    -8.1060     0.0620 H     1 <1>   0.0800 
 41 H       -3.8690    -8.9190     1.5680 H     1 <1>   0.0800 
 42 H       -1.9570   -10.5450     2.4810 H     1 <1>   0.0800 
 43 H       -0.5200   -10.6940     1.5100 H     1 <1>   0.0800 
 44 H       -3.5940   -10.2040    -1.1540 H     1 <1>   0.0800 
 45 H       -5.0620   -10.0400    -0.2190 H     1 <1>   0.0800 
 46 H       -2.0400   -12.6240     1.2230 H     1 <1>   0.0800 
 47 H       -1.7600   -11.7710    -0.2770 H     1 <1>   0.0800 
 48 H       -4.0940   -11.3890     1.4900 H     1 <1>   0.4500 
 49 H       -4.0850   -13.5420     0.4000 H     1 <1>   0.0800 
 50 H       -4.0500   -12.7030    -1.1340 H     1 <1>   0.0800 
 51 H       -6.1620   -11.9640    -2.0960 H     1 <1>   0.1500 
 52 H       -6.0550   -12.8830     2.0780 H     1 <1>   0.1500 
 53 H       -8.5560   -11.6520    -1.8660 H     1 <1>   0.1500 
 54 H       -8.4530   -12.5250     2.1180 H     1 <1>   0.1500 
@<TRIPOS>BOND
  1   1   2  1   
  2   1   3  1   
  3   2   4  ar  
  4   2   5  ar  
  5   3  28  1   
  6   3  29  1   
  7   3  30  1   
  8   4   6  ar  
  9   4  31  1   
 10   5   7  ar  
 11   5  32  1   
 12   6   8  ar  
 13   6   9  ar  
 14   7   9  ar  
 15   7  33  1   
 16   8  10  ar  
 17   9  11  ar  
 18  10  12  1   
 19  10  13  ar  
 20  11  13  ar  
 21  11  14  1   
 22  12  15  1   
 23  12  34  1   
 24  13  35  1   
 25  14  36  1   
 26  14  37  1   
 27  14  38  1   
 28  15  16  1   
 29  15  17  1   
 30  15  39  1   
 31  16  18  1   
 32  16  40  1   
 33  16  41  1   
 34  17  19  1   
 35  17  42  1   
 36  17  43  1   
 37  18  20  1   
 38  18  44  1   
 39  18  45  1   
 40  19  20  1   
 41  19  46  1   
 42  19  47  1   
 43  20  21  1   
 44  20  48  1   
 45  21  22  1   
 46  21  49  1   
 47  21  50  1   
 48  22  23  ar  
 49  22  24  ar  
 50  23  25  ar  
 51  23  51  1   
 52  24  26  ar  
 53  24  52  1   
 54  25  27  ar  
 55  25  53  1   
 56  26  27  ar  
 57  26  54  1   
@<TRIPOS>SUBSTRUCTURE
  1 ****  16 GROUP 4 **** **** 0

# MOE 2024.06 (io_trps.svl 2023.06)
