@<TRIPOS>MOLECULE
NONAME
46 48 1 0 0 
SMALL
USER_CHARGES


@<TRIPOS>ATOM
  1 CL       2.4600     0.0850     0.6830 Cl    1 <1>  -0.1770 
  2 C        3.5910     1.4150     0.5720 C.ar  1 <1>   0.1770 
  3 C        3.1640     2.7350     0.6550 C.ar  1 <1>  -0.1440 
  4 C        4.9230     1.0890     0.4000 C.ar  1 <1>  -0.1500 
  5 C        4.1130     3.7620     0.5700 C.ar  1 <1>   0.0860 
  6 C        1.6900     3.0940     0.8480 C.3   1 <1>  -0.0970 
  7 C        5.8630     2.0980     0.3130 C.ar  1 <1>  -0.1500 
  8 C        3.7450     5.1640     0.6530 C.2   1 <1>   0.5440 
  9 C        5.4550     3.4150     0.4020 C.ar  1 <1>  -0.1500 
 10 O        3.4840     5.6410     1.7420 O.2   1 <1>  -0.5700 
 11 N        3.6720     5.9710    -0.4670 N.am  1 <1>  -0.6600 
 12 C        4.0490     5.4980    -1.8410 C.3   1 <1>   0.1400 
 13 C        3.3150     7.4120    -0.3410 C.3   1 <1>   0.1400 
 14 C        4.9930     6.4590    -2.5840 C.3   1 <1>   0.1400 
 15 C        4.5540     8.2440     0.0210 C.3   1 <1>  -0.1600 
 16 N        6.0010     7.0640    -1.6630 N.am  1 <1>  -0.6600 
 17 C        5.6080     8.3800    -1.0890 C.3   1 <1>   0.1400 
 18 C        7.1380     6.3700    -1.3130 C.2   1 <1>   0.5440 
 19 O        7.3840     5.3190    -1.8720 O.2   1 <1>  -0.5700 
 20 C        8.0480     6.8530    -0.3020 C.ar  1 <1>   0.0860 
 21 C        9.2990     7.3430    -0.6680 C.ar  1 <1>   0.1600 
 22 C        7.7300     6.8470     1.0480 C.ar  1 <1>  -0.1500 
 23 N       10.2150     7.8330     0.1580 N.ar  1 <1>  -0.6200 
 24 C        8.6660     7.3440     1.9280 C.ar  1 <1>   0.0830 
 25 C        9.8770     7.8210     1.4390 C.ar  1 <1>   0.1600 
 26 O        8.3770     7.3520     3.2420 O.3   1 <1>  -0.5330 
 27 H        5.2170     0.0570     0.3370 H     1 <1>   0.1500 
 28 H        1.0370     2.2580     0.6820 H     1 <1>   0.0800 
 29 H        1.4010     3.8700     0.1610 H     1 <1>   0.0800 
 30 H        1.5350     3.4530     1.8500 H     1 <1>   0.0800 
 31 H        6.9050     1.8630     0.1780 H     1 <1>   0.1500 
 32 H        6.1900     4.1980     0.3350 H     1 <1>   0.1500 
 33 H        3.1550     5.3630    -2.4230 H     1 <1>   0.0800 
 34 H        4.5390     4.5430    -1.7890 H     1 <1>   0.0800 
 35 H        2.5790     7.5230     0.4380 H     1 <1>   0.0800 
 36 H        2.8730     7.7660    -1.2550 H     1 <1>   0.0800 
 37 H        4.4160     7.2370    -3.0510 H     1 <1>   0.0800 
 38 H        5.4950     5.9210    -3.3700 H     1 <1>   0.0800 
 39 H        5.0030     7.8340     0.9050 H     1 <1>   0.0800 
 40 H        4.2240     9.2330     0.2790 H     1 <1>   0.0800 
 41 H        6.4740     8.8850    -0.6950 H     1 <1>   0.0800 
 42 H        5.2160     8.9980    -1.8780 H     1 <1>   0.0800 
 43 H        9.5500     7.3260    -1.7150 H     1 <1>   0.1500 
 44 H        6.7890     6.4660     1.4020 H     1 <1>   0.1500 
 45 H       10.6020     8.2090     2.1320 H     1 <1>   0.1500 
 46 H        9.0900     7.6920     3.8130 H     1 <1>   0.4500 
@<TRIPOS>BOND
  1   1   2  1   
  2   2   3  ar  
  3   2   4  ar  
  4   3   5  ar  
  5   3   6  1   
  6   4   7  ar  
  7   4  27  1   
  8   5   8  1   
  9   5   9  ar  
 10   6  28  1   
 11   6  29  1   
 12   6  30  1   
 13   7   9  ar  
 14   7  31  1   
 15   8  10  2   
 16   8  11  am  
 17   9  32  1   
 18  11  12  1   
 19  11  13  1   
 20  12  14  1   
 21  12  33  1   
 22  12  34  1   
 23  13  15  1   
 24  13  35  1   
 25  13  36  1   
 26  14  16  1   
 27  14  37  1   
 28  14  38  1   
 29  15  17  1   
 30  15  39  1   
 31  15  40  1   
 32  16  17  1   
 33  16  18  am  
 34  17  41  1   
 35  17  42  1   
 36  18  19  2   
 37  18  20  1   
 38  20  21  ar  
 39  20  22  ar  
 40  21  23  ar  
 41  21  43  1   
 42  22  24  ar  
 43  22  44  1   
 44  23  25  ar  
 45  24  25  ar  
 46  24  26  1   
 47  25  45  1   
 48  26  46  1   
@<TRIPOS>SUBSTRUCTURE
  1 ****   8 GROUP 4 **** **** 0

# MOE 2024.06 (io_trps.svl 2023.06)
