@<TRIPOS>MOLECULE
NONAME
45 47 1 0 0 
SMALL
USER_CHARGES


@<TRIPOS>ATOM
  1 O        1.2630     1.3990     2.7160 O.3   1 <1>  -0.5320 
  2 C        0.8450     2.1550     1.6900 C.ar  1 <1>   0.0830 
  3 C        1.6470     3.1880     1.2390 C.ar  1 <1>  -0.1500 
  4 C       -0.3780     1.9000     1.0920 C.ar  1 <1>  -0.1500 
  5 C        1.2370     3.9840     0.1780 C.ar  1 <1>  -0.1430 
  6 C       -0.7930     2.6900     0.0350 C.ar  1 <1>  -0.1500 
  7 C        0.0100     3.7240    -0.4180 C.ar  1 <1>  -0.1500 
  8 C        2.1080     5.1280    -0.3360 C.3   1 <1>   0.0630 
  9 C        3.4570     4.6130    -0.8540 C.3   1 <1>  -0.1600 
 10 C        2.3270     6.1920     0.7490 C.3   1 <1>  -0.1600 
 11 C        4.3350     5.7610    -1.3550 C.3   1 <1>   0.2090 
 12 C        3.2060     7.3360     0.2410 C.3   1 <1>   0.2090 
 13 N        4.4880     6.7930    -0.2890 N.pl3 1 <1>  -0.8380 
 14 C        5.6590     6.9470     0.3750 C.ar  1 <1>   0.4100 
 15 N        6.2030     5.8420     0.8490 N.ar  1 <1>  -0.6200 
 16 C        6.2590     8.2220     0.5510 C.ar  1 <1>  -0.1430 
 17 C        7.3020     5.9560     1.5540 C.ar  1 <1>   0.7710 
 18 C        7.3990     8.2810     1.2900 C.ar  1 <1>   0.2110 
 19 C        5.6360     9.4620    -0.1030 C.3   1 <1>  -0.0170 
 20 N        7.9040     7.1300     1.7950 N.ar  1 <1>  -0.1790 
 21 N        7.8110     4.8260     2.0370 N.pl3 1 <1>  -0.9000 
 22 C        6.5750    10.6690    -0.2270 C.3   1 <1>  -0.2400 
 23 H        0.6290     0.7020     2.9580 H     1 <1>   0.4500 
 24 H        2.5890     3.3570     1.7270 H     1 <1>   0.1500 
 25 H       -1.0030     1.0990     1.4410 H     1 <1>   0.1500 
 26 H       -1.7410     2.5010    -0.4380 H     1 <1>   0.1500 
 27 H       -0.3310     4.3260    -1.2420 H     1 <1>   0.1500 
 28 H        1.6000     5.6000    -1.1600 H     1 <1>   0.0800 
 29 H        3.2920     3.9150    -1.6550 H     1 <1>   0.0800 
 30 H        3.9840     4.0970    -0.0730 H     1 <1>   0.0800 
 31 H        2.8010     5.7520     1.6070 H     1 <1>   0.0800 
 32 H        1.3770     6.5830     1.0630 H     1 <1>   0.0800 
 33 H        3.8850     6.2150    -2.2210 H     1 <1>   0.0800 
 34 H        5.3000     5.3800    -1.6420 H     1 <1>   0.0800 
 35 H        3.3970     8.0160     1.0530 H     1 <1>   0.0800 
 36 H        2.6980     7.8740    -0.5420 H     1 <1>   0.0800 
 37 H        7.9280     9.1980     1.4900 H     1 <1>   0.1500 
 38 H        4.7650     9.7610     0.4530 H     1 <1>   0.0800 
 39 H        5.3090     9.2000    -1.0960 H     1 <1>   0.0800 
 40 H        8.7510     7.1090     2.3540 H     1 <1>   0.4570 
 41 H        8.6460     4.6820     2.6070 H     1 <1>   0.4000 
 42 H        7.2990     3.9620     1.8270 H     1 <1>   0.4000 
 43 H        6.8340    11.0630     0.7390 H     1 <1>   0.0800 
 44 H        6.0800    11.4520    -0.7770 H     1 <1>   0.0800 
 45 H        7.4700    10.4030    -0.7630 H     1 <1>   0.0800 
@<TRIPOS>BOND
  1   1   2  1   
  2   1  23  1   
  3   2   3  ar  
  4   2   4  ar  
  5   3   5  ar  
  6   3  24  1   
  7   4   6  ar  
  8   4  25  1   
  9   5   7  ar  
 10   5   8  1   
 11   6   7  ar  
 12   6  26  1   
 13   7  27  1   
 14   8   9  1   
 15   8  10  1   
 16   8  28  1   
 17   9  11  1   
 18   9  29  1   
 19   9  30  1   
 20  10  12  1   
 21  10  31  1   
 22  10  32  1   
 23  11  13  1   
 24  11  33  1   
 25  11  34  1   
 26  12  13  1   
 27  12  35  1   
 28  12  36  1   
 29  13  14  1   
 30  14  15  ar  
 31  14  16  ar  
 32  15  17  ar  
 33  16  18  ar  
 34  16  19  1   
 35  17  20  ar  
 36  17  21  1   
 37  18  20  ar  
 38  18  37  1   
 39  19  22  1   
 40  19  38  1   
 41  19  39  1   
 42  20  40  1   
 43  21  41  1   
 44  21  42  1   
 45  22  43  1   
 46  22  44  1   
 47  22  45  1   
@<TRIPOS>SUBSTRUCTURE
  1 ****  13 GROUP 4 **** **** 0

# MOE 2024.06 (io_trps.svl 2023.06)
