@<TRIPOS>MOLECULE
NONAME
49 51 1 0 0 
SMALL
USER_CHARGES


@<TRIPOS>ATOM
  1 O       -2.6720     1.1430    -1.6980 O.2   1 <1>  -0.5700 
  2 C       -2.2560     1.0610    -0.5680 C.2   1 <1>   0.5690 
  3 N       -2.1440    -0.1380     0.0550 N.am  1 <1>  -0.7300 
  4 C       -1.8560     2.3240     0.1910 C.3   1 <1>  -0.0190 
  5 C       -2.5020    -1.4360    -0.5580 C.3   1 <1>   0.2200 
  6 C       -3.0000     3.3560     0.2160 C.3   1 <1>  -0.1600 
  7 C       -0.5870     2.9560    -0.4100 C.3   1 <1>  -0.1600 
  8 C       -3.8710    -1.8610    -0.0540 C.3   1 <1>  -0.0800 
  9 C       -1.6110    -2.5330     0.0080 C.3   1 <1>   0.1200 
 10 C       -2.5860     4.6380     0.9430 C.3   1 <1>   0.1400 
 11 C       -0.1960     4.2450     0.3200 C.3   1 <1>   0.1400 
 12 C       -3.5370    -2.5690     1.2660 C.3   1 <1>   0.1200 
 13 C       -4.5760    -2.7930    -1.0580 C.3   1 <1>  -0.0170 
 14 O       -2.1710    -2.8750     1.2390 O.3   1 <1>  -0.5600 
 15 N       -1.3490     5.1870     0.3220 N.am  1 <1>  -0.6600 
 16 C       -5.9640    -3.1810    -0.5730 C.ar  1 <1>  -0.1440 
 17 C       -1.2330     6.4400    -0.2280 C.2   1 <1>   0.5690 
 18 C       -7.0190    -2.2920    -0.6150 C.ar  1 <1>  -0.1500 
 19 C       -6.2450    -4.4360    -0.0700 C.ar  1 <1>  -0.1500 
 20 O       -0.1900     6.8540    -0.6740 O.2   1 <1>  -0.5700 
 21 C       -2.4240     7.3670    -0.2960 C.3   1 <1>  -0.1790 
 22 C       -8.2660    -2.6860    -0.1600 C.ar  1 <1>   0.1600 
 23 C       -7.5280    -4.7290     0.3590 C.ar  1 <1>   0.1600 
 24 N       -8.5460    -3.8840     0.3280 N.ar  1 <1>  -0.6200 
 25 H       -1.8290    -0.2070     1.0250 H     1 <1>   0.3700 
 26 H       -1.6380     2.0480     1.2070 H     1 <1>   0.0800 
 27 H       -2.4420    -1.3720    -1.6320 H     1 <1>   0.0800 
 28 H       -3.8590     2.9310     0.7020 H     1 <1>   0.0800 
 29 H       -3.2850     3.6060    -0.7920 H     1 <1>   0.0800 
 30 H       -0.7520     3.1860    -1.4490 H     1 <1>   0.0800 
 31 H        0.2280     2.2570    -0.3570 H     1 <1>   0.0800 
 32 H       -4.5020    -1.0060     0.1180 H     1 <1>   0.0800 
 33 H       -0.5930    -2.2140     0.1470 H     1 <1>   0.0800 
 34 H       -1.6360    -3.4070    -0.6180 H     1 <1>   0.0800 
 35 H       -2.3870     4.4220     1.9790 H     1 <1>   0.0800 
 36 H       -3.3940     5.3460     0.9040 H     1 <1>   0.0800 
 37 H        0.6570     4.6850    -0.1670 H     1 <1>   0.0800 
 38 H        0.0800     4.0260     1.3370 H     1 <1>   0.0800 
 39 H       -4.0920    -3.4800     1.4060 H     1 <1>   0.0800 
 40 H       -3.7070    -1.9160     2.1040 H     1 <1>   0.0800 
 41 H       -3.9880    -3.6800    -1.2220 H     1 <1>   0.0800 
 42 H       -4.6720    -2.2880    -2.0040 H     1 <1>   0.0800 
 43 H       -6.8830    -1.2970    -0.9980 H     1 <1>   0.1500 
 44 H       -5.4800    -5.1880    -0.0070 H     1 <1>   0.1500 
 45 H       -3.2150     6.9020    -0.8520 H     1 <1>   0.0800 
 46 H       -2.1440     8.2780    -0.7930 H     1 <1>   0.0800 
 47 H       -2.7590     7.6040     0.6950 H     1 <1>   0.0800 
 48 H       -9.0770    -1.9790    -0.2010 H     1 <1>   0.1500 
 49 H       -7.7290    -5.7130     0.7500 H     1 <1>   0.1500 
@<TRIPOS>BOND
  1   1   2  2   
  2   2   3  am  
  3   2   4  1   
  4   3   5  1   
  5   3  25  1   
  6   4   6  1   
  7   4   7  1   
  8   4  26  1   
  9   5   8  1   
 10   5   9  1   
 11   5  27  1   
 12   6  10  1   
 13   6  28  1   
 14   6  29  1   
 15   7  11  1   
 16   7  30  1   
 17   7  31  1   
 18   8  12  1   
 19   8  13  1   
 20   8  32  1   
 21   9  14  1   
 22   9  33  1   
 23   9  34  1   
 24  10  15  1   
 25  10  35  1   
 26  10  36  1   
 27  11  15  1   
 28  11  37  1   
 29  11  38  1   
 30  12  14  1   
 31  12  39  1   
 32  12  40  1   
 33  13  16  1   
 34  13  41  1   
 35  13  42  1   
 36  15  17  am  
 37  16  18  ar  
 38  16  19  ar  
 39  17  20  2   
 40  17  21  1   
 41  18  22  ar  
 42  18  43  1   
 43  19  23  ar  
 44  19  44  1   
 45  21  45  1   
 46  21  46  1   
 47  21  47  1   
 48  22  24  ar  
 49  22  48  1   
 50  23  24  ar  
 51  23  49  1   
@<TRIPOS>SUBSTRUCTURE
  1 ****   3 GROUP 4 **** **** 0

# MOE 2024.06 (io_trps.svl 2023.06)
