@<TRIPOS>MOLECULE
NONAME
49 51 1 0 0 
SMALL
USER_CHARGES


@<TRIPOS>ATOM
  1 O       -1.0090    -0.3950    -2.4810 O.2   1 <1>  -0.5700 
  2 C       -1.7940     0.4170    -2.0530 C.2   1 <1>   0.5690 
  3 N       -3.0090     0.0410    -1.5380 N.am  1 <1>  -0.6600 
  4 C       -1.3610     1.8750    -2.0930 C.3   1 <1>  -0.0990 
  5 C       -3.4080    -1.3950    -1.5290 C.3   1 <1>   0.3200 
  6 C       -3.9990     0.9780    -0.9210 C.3   1 <1>   0.1400 
  7 C       -0.6700     2.2960    -0.7850 C.3   1 <1>  -0.1600 
  8 C       -3.4930    -1.8910    -0.0990 C.2   1 <1>  -0.3320 
  9 C       -5.0890     1.3520    -1.9300 C.3   1 <1>   0.1200 
 10 C       -0.2530     3.7710    -0.8120 C.3   1 <1>   0.0210 
 11 N       -2.4370    -2.0370     0.7260 N.pl3 1 <1>   0.0480 
 12 C       -4.5850    -2.2690     0.6030 C.2   1 <1>   0.0770 
 13 O       -5.9410     2.2860    -1.3610 O.3   1 <1>  -0.6800 
 14 C        0.4050     4.2100     0.4860 C.2   1 <1>  -0.1810 
 15 C       -2.9700    -2.4890     1.8840 C.2   1 <1>   0.0360 
 16 C       -1.0130    -1.7780     0.4440 C.3   1 <1>   0.0160 
 17 N       -4.2550    -2.6390     1.8520 N.2   1 <1>  -0.5650 
 18 C        0.8660     5.5290     0.7070 C.ar  1 <1>   0.0000 
 19 C        0.6640     3.4970     1.6100 C.2   1 <1>  -0.3020 
 20 C        1.3990     5.5530     1.9920 C.ar  1 <1>  -0.1520 
 21 C        0.8800     6.6960    -0.0640 C.ar  1 <1>  -0.1500 
 22 N        1.2690     4.3010     2.5340 N.pl3 1 <1>   0.0330 
 23 C        1.9450     6.7230     2.5240 C.ar  1 <1>  -0.1500 
 24 C        1.4180     7.8500     0.4590 C.ar  1 <1>  -0.1500 
 25 C        1.9510     7.8630     1.7540 C.ar  1 <1>  -0.1500 
 26 H       -2.2060     2.5050    -2.2980 H     1 <1>   0.0800 
 27 H       -0.6720     1.9940    -2.9090 H     1 <1>   0.0800 
 28 H       -2.7050    -1.9990    -2.0780 H     1 <1>   0.0800 
 29 H       -4.3650    -1.5000    -2.0090 H     1 <1>   0.0800 
 30 H       -3.5090     1.8730    -0.5860 H     1 <1>   0.0800 
 31 H       -4.4480     0.5140    -0.0600 H     1 <1>   0.0800 
 32 H        0.2050     1.6860    -0.6380 H     1 <1>   0.0800 
 33 H       -1.3320     2.1330     0.0460 H     1 <1>   0.0800 
 34 H       -5.6710     0.4930    -2.2140 H     1 <1>   0.0800 
 35 H       -4.6510     1.8000    -2.8050 H     1 <1>   0.0800 
 36 H       -1.1180     4.3880    -0.9800 H     1 <1>   0.0800 
 37 H        0.4390     3.9360    -1.6200 H     1 <1>   0.0800 
 38 H       -5.6100    -2.2950     0.2740 H     1 <1>   0.1500 
 39 H       -6.4540     1.8960    -0.6260 H     1 <1>   0.4000 
 40 H       -2.3620    -2.7010     2.7450 H     1 <1>   0.1500 
 41 H       -0.8450    -0.7180     0.4140 H     1 <1>   0.0800 
 42 H       -0.7530    -2.2070    -0.5070 H     1 <1>   0.0800 
 43 H       -0.4040    -2.2180     1.2120 H     1 <1>   0.0800 
 44 H        0.4580     2.4620     1.8160 H     1 <1>   0.1500 
 45 H        0.4690     6.6750    -1.0560 H     1 <1>   0.1500 
 46 H        1.5760     4.0300     3.4720 H     1 <1>   0.2700 
 47 H        2.3520     6.7240     3.5190 H     1 <1>   0.1500 
 48 H        1.4350     8.7540    -0.1230 H     1 <1>   0.1500 
 49 H        2.3650     8.7780     2.1400 H     1 <1>   0.1500 
@<TRIPOS>BOND
  1   1   2  2   
  2   2   3  am  
  3   2   4  1   
  4   3   5  1   
  5   3   6  1   
  6   4   7  1   
  7   4  26  1   
  8   4  27  1   
  9   5   8  1   
 10   5  28  1   
 11   5  29  1   
 12   6   9  1   
 13   6  30  1   
 14   6  31  1   
 15   7  10  1   
 16   7  32  1   
 17   7  33  1   
 18   8  11  1   
 19   8  12  2   
 20   9  13  1   
 21   9  34  1   
 22   9  35  1   
 23  10  14  1   
 24  10  36  1   
 25  10  37  1   
 26  11  15  1   
 27  11  16  1   
 28  12  17  1   
 29  12  38  1   
 30  13  39  1   
 31  14  18  1   
 32  14  19  2   
 33  15  17  2   
 34  15  40  1   
 35  16  41  1   
 36  16  42  1   
 37  16  43  1   
 38  18  20  ar  
 39  18  21  ar  
 40  19  22  1   
 41  19  44  1   
 42  20  22  1   
 43  20  23  ar  
 44  21  24  ar  
 45  21  45  1   
 46  22  46  1   
 47  23  25  ar  
 48  23  47  1   
 49  24  25  ar  
 50  24  48  1   
 51  25  49  1   
@<TRIPOS>SUBSTRUCTURE
  1 ****   7 GROUP 4 **** **** 0

# MOE 2024.06 (io_trps.svl 2023.06)
