@<TRIPOS>MOLECULE
NONAME
47 49 1 0 0 
SMALL
USER_CHARGES


@<TRIPOS>ATOM
  1 O       -1.8730     0.4840    -2.7240 O.2   1 <1>  -0.5700 
  2 C       -2.3380     0.9740    -1.7110 C.2   1 <1>   0.5440 
  3 N       -3.3050     0.2860    -1.0020 N.am  1 <1>  -0.6600 
  4 C       -1.8960     2.2910    -1.3090 C.ar  1 <1>   0.0860 
  5 C       -3.5550    -1.1760    -1.2090 C.3   1 <1>   0.1400 
  6 C       -4.0960     0.8720     0.1240 C.3   1 <1>   0.1400 
  7 C       -1.1400     2.4960    -0.1530 C.ar  1 <1>   0.0820 
  8 C       -2.2320     3.4090    -2.0760 C.ar  1 <1>  -0.1500 
  9 C       -3.0850    -2.0230     0.0120 C.3   1 <1>  -0.1060 
 10 C       -4.2480    -0.1270     1.2820 C.3   1 <1>  -0.1600 
 11 O       -0.7870     1.4320     0.6090 O.3   1 <1>  -0.3630 
 12 C       -0.7570     3.7850     0.2270 C.ar  1 <1>   0.0820 
 13 C       -1.8540     4.6850    -1.7000 C.ar  1 <1>  -0.1500 
 14 C       -4.0670    -3.2030     0.1680 C.2   1 <1>   0.9060 
 15 C       -3.0750    -1.1050     1.2730 C.3   1 <1>   0.2000 
 16 C       -1.6290    -2.5310    -0.2010 C.3   1 <1>  -0.1600 
 17 C       -0.3350     1.6700     1.9250 C.3   1 <1>   0.1200 
 18 O       -0.0240     4.0000     1.3500 O.3   1 <1>  -0.3630 
 19 C       -1.1190     4.8750    -0.5420 C.ar  1 <1>  -0.1500 
 20 O       -4.1930    -3.7590     1.2710 O.co2 1 <1>  -0.9000 
 21 O       -4.7230    -3.5950    -0.8050 O.co2 1 <1>  -0.9000 
 22 O       -3.0800    -1.8170     2.4540 O.3   1 <1>  -0.6800 
 23 C       -1.4520    -3.5870    -1.3080 C.3   1 <1>  -0.1600 
 24 C        0.6080     2.8780     1.9370 C.3   1 <1>   0.1200 
 25 C        0.0150    -4.0080    -1.4320 C.3   1 <1>  -0.2400 
 26 H       -4.6160    -1.2920    -1.3490 H     1 <1>   0.0800 
 27 H       -3.0920    -1.5180    -2.1160 H     1 <1>   0.0800 
 28 H       -3.6110     1.7550     0.4970 H     1 <1>   0.0800 
 29 H       -5.0690     1.1550    -0.2370 H     1 <1>   0.0800 
 30 H       -2.7990     3.2580    -2.9780 H     1 <1>   0.1500 
 31 H       -5.1680    -0.6720     1.1710 H     1 <1>   0.0800 
 32 H       -4.2790     0.4090     2.2120 H     1 <1>   0.0800 
 33 H       -2.1290     5.5320    -2.3060 H     1 <1>   0.1500 
 34 H       -2.1670    -0.5310     1.2800 H     1 <1>   0.0800 
 35 H       -0.9970    -1.6870    -0.4190 H     1 <1>   0.0800 
 36 H       -1.2870    -2.9640     0.7240 H     1 <1>   0.0800 
 37 H       -1.1930     1.8520     2.5470 H     1 <1>   0.0800 
 38 H        0.1670     0.7830     2.2680 H     1 <1>   0.0800 
 39 H       -0.8200     5.8610    -0.2360 H     1 <1>   0.1500 
 40 H       -3.5490    -2.6870     2.2420 H     1 <1>   0.4000 
 41 H       -2.0480    -4.4560    -1.0810 H     1 <1>   0.0800 
 42 H       -1.7840    -3.2010    -2.2540 H     1 <1>   0.0800 
 43 H        1.4980     2.6620     1.3720 H     1 <1>   0.0800 
 44 H        0.8830     3.1400     2.9430 H     1 <1>   0.0800 
 45 H        0.3620    -4.4250    -0.5030 H     1 <1>   0.0800 
 46 H        0.6250    -3.1590    -1.6850 H     1 <1>   0.0800 
 47 H        0.1180    -4.7500    -2.2030 H     1 <1>   0.0800 
@<TRIPOS>BOND
  1   1   2  2   
  2   2   3  am  
  3   2   4  1   
  4   3   5  1   
  5   3   6  1   
  6   4   7  ar  
  7   4   8  ar  
  8   5   9  1   
  9   5  26  1   
 10   5  27  1   
 11   6  10  1   
 12   6  28  1   
 13   6  29  1   
 14   7  11  1   
 15   7  12  ar  
 16   8  13  ar  
 17   8  30  1   
 18   9  14  1   
 19   9  15  1   
 20   9  16  1   
 21  10  15  1   
 22  10  31  1   
 23  10  32  1   
 24  11  17  1   
 25  12  18  1   
 26  12  19  ar  
 27  13  19  ar  
 28  13  33  1   
 29  14  20  ar  
 30  14  21  ar  
 31  15  22  1   
 32  15  34  1   
 33  16  23  1   
 34  16  35  1   
 35  16  36  1   
 36  17  24  1   
 37  17  37  1   
 38  17  38  1   
 39  18  24  1   
 40  19  39  1   
 41  22  40  1   
 42  23  25  1   
 43  23  41  1   
 44  23  42  1   
 45  24  43  1   
 46  24  44  1   
 47  25  45  1   
 48  25  46  1   
 49  25  47  1   
@<TRIPOS>SUBSTRUCTURE
  1 ****   3 GROUP 4 **** **** 0

# MOE 2024.06 (io_trps.svl 2023.06)
