@<TRIPOS>MOLECULE
NONAME
47 49 1 0 0 
SMALL
USER_CHARGES


@<TRIPOS>ATOM
  1 O       -0.5430    -0.3120     0.1680 O.3   1 <1>  -0.3630 
  2 C       -0.4980    -1.6470     0.3950 C.ar  1 <1>   0.0830 
  3 C       -1.7370     0.2030    -0.3750 C.3   1 <1>   0.1200 
  4 C       -1.3600    -2.2760     1.2930 C.ar  1 <1>   0.0820 
  5 C        0.4460    -2.3890    -0.2900 C.ar  1 <1>  -0.1500 
  6 C       -2.8020     0.3720     0.7120 C.3   1 <1>  -0.1600 
  7 O       -2.2860    -1.5940     2.0090 O.3   1 <1>  -0.3630 
  8 C       -1.2770    -3.6430     1.4790 C.ar  1 <1>  -0.1500 
  9 C        0.5200    -3.7690    -0.1140 C.ar  1 <1>   0.0830 
 10 C       -3.3040    -0.9610     1.2720 C.3   1 <1>   0.1200 
 11 C       -0.3560    -4.3980     0.7680 C.ar  1 <1>  -0.1430 
 12 O        1.4200    -4.5470    -0.7800 O.3   1 <1>  -0.3630 
 13 C       -0.3510    -5.9060     0.9700 C.3   1 <1>   0.2530 
 14 C        2.3570    -3.9810    -1.6690 C.3   1 <1>   0.0400 
 15 N       -1.6190    -6.4820     0.4830 N.3   1 <1>  -0.8100 
 16 C       -1.8260    -7.8360     1.0460 C.3   1 <1>   0.2900 
 17 C       -1.7440    -6.4030    -0.9940 C.3   1 <1>   0.1100 
 18 C       -3.1820    -8.4500     0.7100 C.2   1 <1>   0.0070 
 19 C       -3.1110    -5.8280    -1.3940 C.3   1 <1>   0.1200 
 20 N       -4.2320    -8.3570     1.4640 N.2   1 <1>  -0.5650 
 21 N       -3.3960    -9.1790    -0.4090 N.pl3 1 <1>   0.0330 
 22 O       -3.2480    -4.5840    -0.8110 O.3   1 <1>  -0.6800 
 23 C       -5.1780    -9.0450     0.7980 C.2   1 <1>   0.0770 
 24 C       -4.6850    -9.5570    -0.3500 C.2   1 <1>  -0.3020 
 25 H       -2.0730    -0.4600    -1.1540 H     1 <1>   0.0800 
 26 H       -1.4990     1.1580    -0.8080 H     1 <1>   0.0800 
 27 H        1.1010    -1.8640    -0.9560 H     1 <1>   0.1500 
 28 H       -3.6400     0.8840     0.2760 H     1 <1>   0.0800 
 29 H       -2.4230     0.9880     1.5080 H     1 <1>   0.0800 
 30 H       -1.9490    -4.1170     2.1730 H     1 <1>   0.1500 
 31 H       -3.6280    -1.6260     0.4890 H     1 <1>   0.0800 
 32 H       -4.1240    -0.7930     1.9470 H     1 <1>   0.0800 
 33 H       -0.2490    -6.0950     2.0250 H     1 <1>   0.0800 
 34 H        0.4810    -6.3720     0.4710 H     1 <1>   0.0800 
 35 H        2.9670    -4.7740    -2.0630 H     1 <1>   0.0800 
 36 H        2.9720    -3.2810    -1.1310 H     1 <1>   0.0800 
 37 H        1.8290    -3.4940    -2.4700 H     1 <1>   0.0800 
 38 H       -1.7650    -7.7740     2.1190 H     1 <1>   0.0800 
 39 H       -1.0420    -8.4930     0.7100 H     1 <1>   0.0800 
 40 H       -1.6070    -7.3720    -1.4380 H     1 <1>   0.0800 
 41 H       -0.9860    -5.7590    -1.4070 H     1 <1>   0.0800 
 42 H       -3.9100    -6.4540    -1.0380 H     1 <1>   0.0800 
 43 H       -3.1920    -5.7120    -2.4600 H     1 <1>   0.0800 
 44 H       -2.7170    -9.3960    -1.1430 H     1 <1>   0.2700 
 45 H       -2.8140    -4.6480     0.0720 H     1 <1>   0.4000 
 46 H       -6.1780    -9.1360     1.1880 H     1 <1>   0.1500 
 47 H       -5.1690   -10.1510    -1.1030 H     1 <1>   0.1500 
@<TRIPOS>BOND
  1   1   2  1   
  2   1   3  1   
  3   2   4  ar  
  4   2   5  ar  
  5   3   6  1   
  6   3  25  1   
  7   3  26  1   
  8   4   7  1   
  9   4   8  ar  
 10   5   9  ar  
 11   5  27  1   
 12   6  10  1   
 13   6  28  1   
 14   6  29  1   
 15   7  10  1   
 16   8  11  ar  
 17   8  30  1   
 18   9  11  ar  
 19   9  12  1   
 20  10  31  1   
 21  10  32  1   
 22  11  13  1   
 23  12  14  1   
 24  13  15  1   
 25  13  33  1   
 26  13  34  1   
 27  14  35  1   
 28  14  36  1   
 29  14  37  1   
 30  15  16  1   
 31  15  17  1   
 32  16  18  1   
 33  16  38  1   
 34  16  39  1   
 35  17  19  1   
 36  17  40  1   
 37  17  41  1   
 38  18  20  2   
 39  18  21  1   
 40  19  22  1   
 41  19  42  1   
 42  19  43  1   
 43  20  23  1   
 44  21  24  1   
 45  21  44  1   
 46  22  45  1   
 47  23  24  2   
 48  23  46  1   
 49  24  47  1   
@<TRIPOS>SUBSTRUCTURE
  1 ****  11 GROUP 4 **** **** 0

# MOE 2024.06 (io_trps.svl 2023.06)
