@<TRIPOS>MOLECULE
NONAME
47 48 1 0 0 
SMALL
USER_CHARGES


@<TRIPOS>ATOM
  1 O       -0.5910     0.2090     1.7500 O.2   1 <1>  -0.5700 
  2 C       -1.4200     0.5630     0.9380 C.2   1 <1>   0.7160 
  3 N       -2.0550    -0.3810     0.1560 N.am  1 <1>  -0.6600 
  4 C       -1.7800     1.9560     0.8370 C.2   1 <1>  -0.0860 
  5 C       -1.8500    -1.8380     0.4110 C.3   1 <1>   0.3200 
  6 C       -3.0930    -0.0080    -0.8570 C.3   1 <1>   0.1400 
  7 C       -1.5350     2.8660    -0.1460 C.2   1 <1>  -0.0400 
  8 C       -2.5160     2.6760     1.7990 C.2   1 <1>  -0.1500 
  9 C       -3.2050    -2.4640     0.6680 C.2   1 <1>  -0.3320 
 10 C       -4.4460     0.2810    -0.1730 C.3   1 <1>   0.3430 
 11 O       -2.1020     4.0150     0.1280 O.3   1 <1>  -0.2800 
 12 C       -0.7240     2.7510    -1.4210 C.3   1 <1>  -0.0600 
 13 C       -2.6750     3.9200     1.3070 C.2   1 <1>  -0.0400 
 14 N       -3.7940    -3.3870    -0.1180 N.pl3 1 <1>   0.0330 
 15 C       -4.0710    -2.2140     1.6740 C.2   1 <1>   0.0770 
 16 N       -5.3400     1.1930    -0.9600 N.4   1 <1>  -0.9590 
 17 C       -3.3490     5.1440     1.8900 C.3   1 <1>  -0.0600 
 18 C       -5.0060    -3.5990     0.4370 C.2   1 <1>   0.0060 
 19 N       -5.2160    -2.8960     1.5010 N.2   1 <1>  -0.5650 
 20 C       -4.8360     2.6060    -0.9490 C.3   1 <1>   0.2630 
 21 C       -6.7210     1.1350    -0.3860 C.3   1 <1>   0.2630 
 22 C       -6.0100    -4.5800    -0.1310 C.3   1 <1>  -0.0600 
 23 H       -1.2170    -2.0030     1.2680 H     1 <1>   0.0800 
 24 H       -1.3740    -2.2890    -0.4430 H     1 <1>   0.0800 
 25 H       -3.2110    -0.8100    -1.5640 H     1 <1>   0.0800 
 26 H       -2.7570     0.8560    -1.3980 H     1 <1>   0.0800 
 27 H       -2.8460     2.2760     2.7430 H     1 <1>   0.1500 
 28 H       -4.2580     0.7240     0.7920 H     1 <1>   0.0800 
 29 H       -4.9500    -0.6580    -0.0110 H     1 <1>   0.0800 
 30 H       -0.2970     1.7690    -1.5130 H     1 <1>   0.0800 
 31 H        0.0760     3.4700    -1.4000 H     1 <1>   0.0800 
 32 H       -1.3430     2.9520    -2.2760 H     1 <1>   0.0800 
 33 H       -3.4140    -3.8590    -0.9450 H     1 <1>   0.2700 
 34 H       -3.9350    -1.5540     2.5170 H     1 <1>   0.1500 
 35 H       -5.3870     0.8570    -1.9340 H     1 <1>   0.4500 
 36 H       -3.7620     4.9190     2.8560 H     1 <1>   0.0800 
 37 H       -4.1350     5.4800     1.2390 H     1 <1>   0.0800 
 38 H       -2.6270     5.9340     1.9970 H     1 <1>   0.0800 
 39 H       -4.7720     2.9740     0.0620 H     1 <1>   0.0800 
 40 H       -5.5000     3.2470    -1.5060 H     1 <1>   0.0800 
 41 H       -3.8550     2.6660    -1.3910 H     1 <1>   0.0800 
 42 H       -6.7170     1.4830     0.6350 H     1 <1>   0.0800 
 43 H       -7.0900     0.1220    -0.4000 H     1 <1>   0.0800 
 44 H       -7.3920     1.7540    -0.9590 H     1 <1>   0.0800 
 45 H       -6.2710    -4.3110    -1.1380 H     1 <1>   0.0800 
 46 H       -6.9030    -4.5770     0.4700 H     1 <1>   0.0800 
 47 H       -5.6000    -5.5740    -0.1230 H     1 <1>   0.0800 
@<TRIPOS>BOND
  1   1   2  2   
  2   2   3  am  
  3   2   4  1   
  4   3   5  1   
  5   3   6  1   
  6   4   7  2   
  7   4   8  1   
  8   5   9  1   
  9   5  23  1   
 10   5  24  1   
 11   6  10  1   
 12   6  25  1   
 13   6  26  1   
 14   7  11  1   
 15   7  12  1   
 16   8  13  2   
 17   8  27  1   
 18   9  14  1   
 19   9  15  2   
 20  10  16  1   
 21  10  28  1   
 22  10  29  1   
 23  11  13  1   
 24  12  30  1   
 25  12  31  1   
 26  12  32  1   
 27  13  17  1   
 28  14  18  1   
 29  14  33  1   
 30  15  19  1   
 31  15  34  1   
 32  16  20  1   
 33  16  21  1   
 34  16  35  1   
 35  17  36  1   
 36  17  37  1   
 37  17  38  1   
 38  18  19  2   
 39  18  22  1   
 40  20  39  1   
 41  20  40  1   
 42  20  41  1   
 43  21  42  1   
 44  21  43  1   
 45  21  44  1   
 46  22  45  1   
 47  22  46  1   
 48  22  47  1   
@<TRIPOS>SUBSTRUCTURE
  1 ****  10 GROUP 4 **** **** 0

# MOE 2024.06 (io_trps.svl 2023.06)
