@<TRIPOS>MOLECULE
NONAME
52 54 1 0 0 
SMALL
USER_CHARGES


@<TRIPOS>ATOM
  1 F        0.4350    -4.0660     0.1870 F     1 <1>  -0.3400 
  2 C       -0.1920    -3.0990     0.8500 C.3   1 <1>   1.3000 
  3 F       -0.2200    -2.0160     0.0840 F     1 <1>  -0.3400 
  4 F        0.5210    -2.8190     1.9290 F     1 <1>  -0.3400 
  5 O       -1.4960    -3.5060     1.2220 O.3   1 <1>  -0.3630 
  6 C       -2.3380    -3.8810     0.2360 C.ar  1 <1>   0.0820 
  7 C       -2.4630    -5.2250    -0.0830 C.ar  1 <1>  -0.1500 
  8 C       -3.0860    -2.9290    -0.4380 C.ar  1 <1>  -0.1500 
  9 C       -3.3300    -5.6230    -1.0910 C.ar  1 <1>  -0.1440 
 10 C       -3.9430    -3.3220    -1.4490 C.ar  1 <1>  -0.1500 
 11 C       -4.0610    -4.6620    -1.7780 C.ar  1 <1>  -0.1500 
 12 C       -3.4790    -7.0910    -1.4440 C.3   1 <1>   0.4870 
 13 N       -4.3460    -7.7480    -0.4190 N.4   1 <1>  -0.9590 
 14 C       -4.3260    -9.2510    -0.5730 C.3   1 <1>   0.3430 
 15 C       -5.7340    -7.1950    -0.4900 C.3   1 <1>   0.3430 
 16 C       -5.2800   -10.0070     0.4100 C.3   1 <1>   0.4230 
 17 C       -6.6200    -7.8670     0.5640 C.3   1 <1>  -0.1600 
 18 N       -5.2570   -11.5340     0.3100 N.4   1 <1>  -0.9590 
 19 C       -6.7180    -9.4110     0.4210 C.3   1 <1>   0.0000 
 20 C       -6.4120   -12.2040     1.0040 C.3   1 <1>   0.3430 
 21 C       -5.1520   -12.0800    -1.0870 C.3   1 <1>   0.2630 
 22 C       -7.4690    -9.9660     1.6640 C.3   1 <1>  -0.1600 
 23 C       -7.5530    -9.7590    -0.8460 C.3   1 <1>   0.1200 
 24 C       -6.9520   -11.3390     2.1440 C.3   1 <1>  -0.1600 
 25 O       -6.8400    -9.5250    -2.0140 O.3   1 <1>  -0.6800 
 26 H       -1.8680    -5.9370     0.4620 H     1 <1>   0.1500 
 27 H       -2.9960    -1.8880    -0.1780 H     1 <1>   0.1500 
 28 H       -4.5150    -2.5800    -1.9820 H     1 <1>   0.1500 
 29 H       -4.7290    -4.9360    -2.5780 H     1 <1>   0.1500 
 30 H       -2.5030    -7.5470    -1.4580 H     1 <1>   0.0800 
 31 H       -3.9160    -7.1910    -2.4250 H     1 <1>   0.0800 
 32 H       -3.9550    -7.4610     0.4900 H     1 <1>   0.4500 
 33 H       -4.6140    -9.4930    -1.5820 H     1 <1>   0.0800 
 34 H       -3.3210    -9.6060    -0.4190 H     1 <1>   0.0800 
 35 H       -5.7170    -6.1300    -0.3110 H     1 <1>   0.0800 
 36 H       -6.1480    -7.3580    -1.4730 H     1 <1>   0.0800 
 37 H       -4.8900    -9.7800     1.3880 H     1 <1>   0.0800 
 38 H       -6.2350    -7.6010     1.5330 H     1 <1>   0.0800 
 39 H       -7.6060    -7.4380     0.4980 H     1 <1>   0.0800 
 40 H       -4.4180   -11.8530     0.8200 H     1 <1>   0.4500 
 41 H       -7.2100   -12.3780     0.3010 H     1 <1>   0.0800 
 42 H       -6.1020   -13.1630     1.3890 H     1 <1>   0.0800 
 43 H       -6.0040   -11.7810    -1.6760 H     1 <1>   0.0800 
 44 H       -5.1180   -13.1580    -1.0640 H     1 <1>   0.0800 
 45 H       -4.2570   -11.7270    -1.5710 H     1 <1>   0.0800 
 46 H       -7.3890    -9.2900     2.4990 H     1 <1>   0.0800 
 47 H       -8.5240   -10.0410     1.4490 H     1 <1>   0.0800 
 48 H       -8.4500    -9.1600    -0.8790 H     1 <1>   0.0800 
 49 H       -7.8510   -10.7930    -0.8510 H     1 <1>   0.0800 
 50 H       -7.7550   -11.8650     2.6330 H     1 <1>   0.0800 
 51 H       -6.1770   -11.2070     2.8790 H     1 <1>   0.0800 
 52 H       -7.4380    -9.5950    -2.7950 H     1 <1>   0.4000 
@<TRIPOS>BOND
  1   1   2  1   
  2   2   3  1   
  3   2   4  1   
  4   2   5  1   
  5   5   6  1   
  6   6   7  ar  
  7   6   8  ar  
  8   7   9  ar  
  9   7  26  1   
 10   8  10  ar  
 11   8  27  1   
 12   9  11  ar  
 13   9  12  1   
 14  10  11  ar  
 15  10  28  1   
 16  11  29  1   
 17  12  13  1   
 18  12  30  1   
 19  12  31  1   
 20  13  14  1   
 21  13  15  1   
 22  13  32  1   
 23  14  16  1   
 24  14  33  1   
 25  14  34  1   
 26  15  17  1   
 27  15  35  1   
 28  15  36  1   
 29  16  18  1   
 30  16  19  1   
 31  16  37  1   
 32  17  19  1   
 33  17  38  1   
 34  17  39  1   
 35  18  20  1   
 36  18  21  1   
 37  18  40  1   
 38  19  22  1   
 39  19  23  1   
 40  20  24  1   
 41  20  41  1   
 42  20  42  1   
 43  21  43  1   
 44  21  44  1   
 45  21  45  1   
 46  22  24  1   
 47  22  46  1   
 48  22  47  1   
 49  23  25  1   
 50  23  48  1   
 51  23  49  1   
 52  24  50  1   
 53  24  51  1   
 54  25  52  1   
@<TRIPOS>SUBSTRUCTURE
  1 ****  13 GROUP 4 **** **** 0

# MOE 2024.06 (io_trps.svl 2023.06)
