@<TRIPOS>MOLECULE
NONAME
51 53 1 0 0 
SMALL
USER_CHARGES


@<TRIPOS>ATOM
  1 O       -2.0490     0.4630     2.3560 O.2   1 <1>  -0.5700 
  2 C       -2.6100     1.0240     1.4320 C.2   1 <1>   0.5440 
  3 N       -3.7080     0.4240     0.8590 N.am  1 <1>  -0.6600 
  4 C       -2.1190     2.2940     0.9580 C.ar  1 <1>   0.0860 
  5 C       -4.3270     0.8740    -0.4180 C.3   1 <1>   0.1400 
  6 C       -4.0840    -0.9850     1.1360 C.3   1 <1>   0.1400 
  7 C       -1.3150     2.3990    -0.1810 C.ar  1 <1>   0.0820 
  8 C       -2.4480     3.4720     1.6220 C.ar  1 <1>  -0.1500 
  9 C       -5.2080    -0.2950    -0.8660 C.3   1 <1>   0.2000 
 10 C       -4.5740    -1.5250    -0.2120 C.3   1 <1>  -0.0800 
 11 O       -0.9560     1.3010    -0.8790 O.3   1 <1>  -0.3630 
 12 C       -0.8800     3.6290    -0.6430 C.ar  1 <1>  -0.1500 
 13 C       -2.0240     4.7090     1.1750 C.ar  1 <1>   0.0820 
 14 O       -6.4760    -0.1250    -0.3310 O.3   1 <1>  -0.6800 
 15 C       -3.4070    -2.0570    -1.0690 C.3   1 <1>  -0.0170 
 16 C        0.1240     0.5520    -0.3640 C.3   1 <1>   0.0400 
 17 C       -1.2170     4.8000     0.0280 C.ar  1 <1>   0.0820 
 18 O       -2.4410     5.7700     1.9230 O.3   1 <1>  -0.3630 
 19 C       -2.7720    -3.2960    -0.4570 C.ar  1 <1>  -0.1430 
 20 O       -0.7690     6.0140    -0.3930 O.3   1 <1>  -0.3620 
 21 C       -2.8290     6.9740     1.2980 C.3   1 <1>   0.0400 
 22 C       -3.3040    -4.5550    -0.6480 C.ar  1 <1>  -0.1500 
 23 C       -1.6340    -3.2270     0.3210 C.ar  1 <1>  -0.1500 
 24 C        0.1510     6.1580    -1.4540 C.3   1 <1>   0.0400 
 25 C       -2.6880    -5.6530    -0.0700 C.ar  1 <1>   0.1600 
 26 C       -1.0980    -4.3870     0.8550 C.ar  1 <1>   0.1600 
 27 N       -1.5970    -5.6000     0.6770 N.ar  1 <1>  -0.6200 
 28 H       -4.8970     1.7770    -0.2830 H     1 <1>   0.0800 
 29 H       -3.5560     1.0420    -1.1490 H     1 <1>   0.0800 
 30 H       -3.2590    -1.5460     1.5360 H     1 <1>   0.0800 
 31 H       -4.8840    -0.9950     1.8560 H     1 <1>   0.0800 
 32 H       -3.0530     3.4180     2.5090 H     1 <1>   0.1500 
 33 H       -5.3020    -0.3690    -1.9360 H     1 <1>   0.0800 
 34 H       -5.2950    -2.3130    -0.0780 H     1 <1>   0.0800 
 35 H       -0.2760     3.6400    -1.5280 H     1 <1>   0.1500 
 36 H       -6.3950     0.0860     0.6210 H     1 <1>   0.4000 
 37 H       -2.6540    -1.2960    -1.1890 H     1 <1>   0.0800 
 38 H       -3.7700    -2.3060    -2.0510 H     1 <1>   0.0800 
 39 H        0.3130    -0.2700    -1.0300 H     1 <1>   0.0800 
 40 H       -0.1320     0.1810     0.6130 H     1 <1>   0.0800 
 41 H        0.9910     1.1860    -0.3040 H     1 <1>   0.0800 
 42 H       -3.4830     7.5030     1.9670 H     1 <1>   0.0800 
 43 H       -3.3420     6.7470     0.3800 H     1 <1>   0.0800 
 44 H       -1.9510     7.5650     1.1080 H     1 <1>   0.0800 
 45 H       -4.1890    -4.6930    -1.2410 H     1 <1>   0.1500 
 46 H       -1.1620    -2.2820     0.5220 H     1 <1>   0.1500 
 47 H        0.3850     7.2020    -1.5540 H     1 <1>   0.0800 
 48 H       -0.3000     5.7970    -2.3610 H     1 <1>   0.0800 
 49 H        1.0440     5.6060    -1.2190 H     1 <1>   0.0800 
 50 H       -3.1160    -6.6280    -0.2310 H     1 <1>   0.1500 
 51 H       -0.2120    -4.3130     1.4620 H     1 <1>   0.1500 
@<TRIPOS>BOND
  1   1   2  2   
  2   2   3  am  
  3   2   4  1   
  4   3   5  1   
  5   3   6  1   
  6   4   7  ar  
  7   4   8  ar  
  8   5   9  1   
  9   5  28  1   
 10   5  29  1   
 11   6  10  1   
 12   6  30  1   
 13   6  31  1   
 14   7  11  1   
 15   7  12  ar  
 16   8  13  ar  
 17   8  32  1   
 18   9  10  1   
 19   9  14  1   
 20   9  33  1   
 21  10  15  1   
 22  10  34  1   
 23  11  16  1   
 24  12  17  ar  
 25  12  35  1   
 26  13  17  ar  
 27  13  18  1   
 28  14  36  1   
 29  15  19  1   
 30  15  37  1   
 31  15  38  1   
 32  16  39  1   
 33  16  40  1   
 34  16  41  1   
 35  17  20  1   
 36  18  21  1   
 37  19  22  ar  
 38  19  23  ar  
 39  20  24  1   
 40  21  42  1   
 41  21  43  1   
 42  21  44  1   
 43  22  25  ar  
 44  22  45  1   
 45  23  26  ar  
 46  23  46  1   
 47  24  47  1   
 48  24  48  1   
 49  24  49  1   
 50  25  27  ar  
 51  25  50  1   
 52  26  27  ar  
 53  26  51  1   
@<TRIPOS>SUBSTRUCTURE
  1 ****   2 GROUP 4 **** **** 0

# MOE 2024.06 (io_trps.svl 2023.06)
