@<TRIPOS>MOLECULE
NONAME
57 61 1 0 0 
SMALL
USER_CHARGES


@<TRIPOS>ATOM
  1 O       -3.7120     3.9520     0.5570 O.2   1 <1>  -0.5700 
  2 C       -3.2840     3.1680    -0.2620 C.2   1 <1>   0.5690 
  3 N       -4.0970     2.1820    -0.7790 N.am  1 <1>  -0.6600 
  4 C       -1.8190     3.2960    -0.6850 C.3   1 <1>   0.2370 
  5 C       -3.6940     1.1620    -1.7910 C.3   1 <1>   0.1400 
  6 C       -5.4270     1.8870    -0.1830 C.3   1 <1>   0.1400 
  7 N       -1.0540     2.1300    -0.1720 N.pl3 1 <1>   0.3140 
  8 C       -1.1300     4.6210    -0.2910 C.3   1 <1>  -0.2400 
  9 C       -3.5730    -0.1960    -1.0990 C.3   1 <1>  -0.1600 
 10 C       -5.3280     0.5560     0.5640 C.3   1 <1>  -0.1600 
 11 N       -0.3330     1.3800    -1.0350 N.2   1 <1>  -0.7070 
 12 C       -0.9530     1.6340     1.0910 C.2   1 <1>  -0.3320 
 13 C       -4.8610    -0.5770    -0.3620 C.3   1 <1>   0.4600 
 14 C        0.2040     0.4490    -0.3150 C.2   1 <1>   0.1080 
 15 C       -0.1450     0.5550     1.0240 C.2   1 <1>  -0.1500 
 16 C       -1.6230     2.1920     2.3380 C.3   1 <1>  -0.0600 
 17 O       -5.8380    -0.7910    -1.3580 O.3   1 <1>  -0.5600 
 18 C       -4.6450    -1.8660     0.4190 C.2   1 <1>  -0.3320 
 19 C        1.1000    -0.6130    -0.9050 C.3   1 <1>  -0.0590 
 20 C       -6.9590    -1.5770    -1.0290 C.3   1 <1>   0.1200 
 21 N       -3.6710    -2.0900     1.3520 N.pl3 1 <1>   0.0330 
 22 C       -5.3970    -2.9750     0.2830 C.2   1 <1>  -0.1810 
 23 C       -6.5520    -3.0210    -0.6860 C.3   1 <1>   0.0210 
 24 C       -3.8160    -3.3760     1.8140 C.ar  1 <1>  -0.1520 
 25 C       -4.8960    -3.9620     1.1570 C.ar  1 <1>   0.0000 
 26 C       -3.0840    -4.0910     2.7650 C.ar  1 <1>  -0.1500 
 27 C       -5.2510    -5.2820     1.4510 C.ar  1 <1>  -0.1500 
 28 C       -3.4450    -5.3890     3.0460 C.ar  1 <1>  -0.1500 
 29 C       -4.5290    -5.9840     2.3880 C.ar  1 <1>  -0.1500 
 30 H       -1.7930     3.2440    -1.7560 H     1 <1>   0.0800 
 31 H       -2.7620     1.4110    -2.2640 H     1 <1>   0.0800 
 32 H       -4.4470     1.1100    -2.5590 H     1 <1>   0.0800 
 33 H       -6.1640     1.8220    -0.9650 H     1 <1>   0.0800 
 34 H       -5.7280     2.6670     0.4960 H     1 <1>   0.0800 
 35 H       -1.1300     4.7530     0.7740 H     1 <1>   0.0800 
 36 H       -1.6590     5.4470    -0.7310 H     1 <1>   0.0800 
 37 H       -0.1170     4.6300    -0.6520 H     1 <1>   0.0800 
 38 H       -2.7570    -0.1530    -0.4040 H     1 <1>   0.0800 
 39 H       -3.3400    -0.9570    -1.8210 H     1 <1>   0.0800 
 40 H       -6.2720     0.3080     1.0080 H     1 <1>   0.0800 
 41 H       -4.6230     0.6710     1.3650 H     1 <1>   0.0800 
 42 H        0.1780    -0.0980     1.8140 H     1 <1>   0.1500 
 43 H       -1.3560     3.2220     2.4850 H     1 <1>   0.0800 
 44 H       -1.3100     1.6380     3.2050 H     1 <1>   0.0800 
 45 H       -2.6930     2.1170     2.2590 H     1 <1>   0.0800 
 46 H        1.9360    -0.1460    -1.3920 H     1 <1>   0.0800 
 47 H        0.5490    -1.1850    -1.6290 H     1 <1>   0.0800 
 48 H        1.4620    -1.2700    -0.1360 H     1 <1>   0.0800 
 49 H       -7.6240    -1.5710    -1.8740 H     1 <1>   0.0800 
 50 H       -7.4610    -1.1250    -0.1930 H     1 <1>   0.0800 
 51 H       -2.9400    -1.4320     1.6410 H     1 <1>   0.2700 
 52 H       -6.2550    -3.5400    -1.5790 H     1 <1>   0.0800 
 53 H       -7.3850    -3.5380    -0.2470 H     1 <1>   0.0800 
 54 H       -2.2530    -3.6260     3.2650 H     1 <1>   0.1500 
 55 H       -6.0840    -5.7260     0.9380 H     1 <1>   0.1500 
 56 H       -2.8970    -5.9600     3.7740 H     1 <1>   0.1500 
 57 H       -4.7910    -7.0010     2.6250 H     1 <1>   0.1500 
@<TRIPOS>BOND
  1   1   2  2   
  2   2   3  am  
  3   2   4  1   
  4   3   5  1   
  5   3   6  1   
  6   4   7  1   
  7   4   8  1   
  8   4  30  1   
  9   5   9  1   
 10   5  31  1   
 11   5  32  1   
 12   6  10  1   
 13   6  33  1   
 14   6  34  1   
 15   7  11  1   
 16   7  12  1   
 17   8  35  1   
 18   8  36  1   
 19   8  37  1   
 20   9  13  1   
 21   9  38  1   
 22   9  39  1   
 23  10  13  1   
 24  10  40  1   
 25  10  41  1   
 26  11  14  2   
 27  12  15  2   
 28  12  16  1   
 29  13  17  1   
 30  13  18  1   
 31  14  15  1   
 32  14  19  1   
 33  15  42  1   
 34  16  43  1   
 35  16  44  1   
 36  16  45  1   
 37  17  20  1   
 38  18  21  1   
 39  18  22  2   
 40  19  46  1   
 41  19  47  1   
 42  19  48  1   
 43  20  23  1   
 44  20  49  1   
 45  20  50  1   
 46  21  24  1   
 47  21  51  1   
 48  22  23  1   
 49  22  25  1   
 50  23  52  1   
 51  23  53  1   
 52  24  25  ar  
 53  24  26  ar  
 54  25  27  ar  
 55  26  28  ar  
 56  26  54  1   
 57  27  29  ar  
 58  27  55  1   
 59  28  29  ar  
 60  28  56  1   
 61  29  57  1   
@<TRIPOS>SUBSTRUCTURE
  1 ****   9 GROUP 4 **** **** 0

# MOE 2024.06 (io_trps.svl 2023.06)
