@<TRIPOS>MOLECULE
NONAME
46 48 1 0 0 
SMALL
USER_CHARGES


@<TRIPOS>ATOM
  1 CL      -1.5910    -0.2430    -2.2020 Cl    1 <1>  -0.1770 
  2 C       -2.4460     0.7410    -1.0370 C.ar  1 <1>   0.1770 
  3 C       -3.1480     0.1210    -0.0020 C.ar  1 <1>  -0.1440 
  4 C       -2.4110     2.1190    -1.1850 C.ar  1 <1>  -0.1500 
  5 C       -3.8380     0.9050     0.9190 C.ar  1 <1>  -0.1500 
  6 C       -3.1610    -1.3890     0.1260 C.3   1 <1>   0.4870 
  7 C       -3.1080     2.8660    -0.2580 C.ar  1 <1>   0.0830 
  8 C       -3.8000     2.2770     0.7600 C.ar  1 <1>   0.0830 
  9 N       -3.9700    -1.9770    -0.9800 N.4   1 <1>  -0.9590 
 10 O       -3.2300     4.1940    -0.1870 O.3   1 <1>  -0.3630 
 11 O       -4.3890     3.2080     1.5150 O.3   1 <1>  -0.3620 
 12 C       -5.4050    -1.5540    -0.8980 C.3   1 <1>   0.3430 
 13 C       -3.9550    -3.4680    -0.8890 C.3   1 <1>   0.3430 
 14 C       -4.0410     4.4730     0.9540 C.3   1 <1>   0.4000 
 15 C       -6.1180    -2.6750    -0.1380 C.3   1 <1>   0.2000 
 16 C       -5.4060    -3.9240    -0.6550 C.3   1 <1>  -0.0800 
 17 O       -5.8600    -2.5200     1.2220 O.3   1 <1>  -0.6800 
 18 C       -5.5210    -5.1770     0.2440 C.3   1 <1>  -0.0550 
 19 S       -4.6060    -6.5690    -0.4160 S.o2  1 <1>   1.3330 
 20 O       -3.2130    -6.1960    -0.3220 O.2   1 <1>  -0.6500 
 21 O       -5.1730    -6.8860    -1.7050 O.2   1 <1>  -0.6500 
 22 N       -4.9400    -7.8160     0.6810 N.am  1 <1>  -0.8490 
 23 C       -3.8110    -8.7400     0.8420 C.3   1 <1>   0.1160 
 24 C       -6.1540    -8.5730     0.3540 C.3   1 <1>   0.1160 
 25 H       -1.8680     2.5910    -1.9830 H     1 <1>   0.1500 
 26 H       -4.3930     0.4820     1.7400 H     1 <1>   0.1500 
 27 H       -3.5800    -1.6700     1.0790 H     1 <1>   0.0800 
 28 H       -2.1490    -1.7590     0.0780 H     1 <1>   0.0800 
 29 H       -3.5480    -1.6600    -1.8650 H     1 <1>   0.4500 
 30 H       -5.5310    -0.6050    -0.4040 H     1 <1>   0.0800 
 31 H       -5.8150    -1.4890    -1.8920 H     1 <1>   0.0800 
 32 H       -3.5610    -3.9110    -1.7910 H     1 <1>   0.0800 
 33 H       -3.3390    -3.7810    -0.0600 H     1 <1>   0.0800 
 34 H       -3.4740     5.0430     1.6690 H     1 <1>   0.0800 
 35 H       -4.9320     4.9930     0.6480 H     1 <1>   0.0800 
 36 H       -7.1840    -2.6730    -0.3000 H     1 <1>   0.0800 
 37 H       -5.8190    -4.1680    -1.6190 H     1 <1>   0.0800 
 38 H       -6.5440    -2.9620     1.7690 H     1 <1>   0.4000 
 39 H       -6.5540    -5.4490     0.3370 H     1 <1>   0.0800 
 40 H       -5.1460    -4.9630     1.2260 H     1 <1>   0.0800 
 41 H       -4.0510    -9.5010     1.5640 H     1 <1>   0.0800 
 42 H       -2.9430    -8.2070     1.1950 H     1 <1>   0.0800 
 43 H       -3.5700    -9.2070    -0.0990 H     1 <1>   0.0800 
 44 H       -6.3620    -9.2920     1.1280 H     1 <1>   0.0800 
 45 H       -6.0340    -9.0930    -0.5830 H     1 <1>   0.0800 
 46 H       -6.9980    -7.9090     0.2730 H     1 <1>   0.0800 
@<TRIPOS>BOND
  1   1   2  1   
  2   2   3  ar  
  3   2   4  ar  
  4   3   5  ar  
  5   3   6  1   
  6   4   7  ar  
  7   4  25  1   
  8   5   8  ar  
  9   5  26  1   
 10   6   9  1   
 11   6  27  1   
 12   6  28  1   
 13   7   8  ar  
 14   7  10  1   
 15   8  11  1   
 16   9  12  1   
 17   9  13  1   
 18   9  29  1   
 19  10  14  1   
 20  11  14  1   
 21  12  15  1   
 22  12  30  1   
 23  12  31  1   
 24  13  16  1   
 25  13  32  1   
 26  13  33  1   
 27  14  34  1   
 28  14  35  1   
 29  15  16  1   
 30  15  17  1   
 31  15  36  1   
 32  16  18  1   
 33  16  37  1   
 34  17  38  1   
 35  18  19  1   
 36  18  39  1   
 37  18  40  1   
 38  19  20  2   
 39  19  21  2   
 40  19  22  am  
 41  22  23  1   
 42  22  24  1   
 43  23  41  1   
 44  23  42  1   
 45  23  43  1   
 46  24  44  1   
 47  24  45  1   
 48  24  46  1   
@<TRIPOS>SUBSTRUCTURE
  1 ****   9 GROUP 4 **** **** 0

# MOE 2024.06 (io_trps.svl 2023.06)
