@<TRIPOS>MOLECULE
NONAME
47 49 1 0 0 
SMALL
USER_CHARGES


@<TRIPOS>ATOM
  1 S       -0.5250     0.7430     0.5960 S.3   1 <1>  -0.0800 
  2 C        1.1150     0.1990     0.3220 C.2   1 <1>   0.1980 
  3 C        0.0160     1.5870     2.0150 C.2   1 <1>  -0.1100 
  4 N        1.9600     0.6270     1.1780 N.2   1 <1>  -0.5650 
  5 C        1.3530    -0.6990    -0.8790 C.3   1 <1>   0.0200 
  6 C        1.3380     1.4050     2.1570 C.2   1 <1>   0.0460 
  7 C        0.8350    -2.1220    -0.6280 C.3   1 <1>  -0.1600 
  8 C        2.1750     1.9550     3.3110 C.3   1 <1>   0.3900 
  9 C        1.1000    -3.0390    -1.8270 C.3   1 <1>  -0.2400 
 10 N        2.9570     3.1700     2.9390 N.pl3 1 <1>  -0.8690 
 11 C        3.7560     3.4580     1.9080 C.ar  1 <1>   0.7710 
 12 N        4.3790     4.6160     1.9740 N.ar  1 <1>  -0.6200 
 13 N        3.9090     2.6080     0.8810 N.ar  1 <1>  -0.1790 
 14 C        5.2030     4.9360     0.9920 C.ar  1 <1>   0.4100 
 15 C        4.7220     2.9020    -0.1580 C.ar  1 <1>   0.2110 
 16 N        5.8680     6.1180     1.0840 N.pl3 1 <1>  -0.8380 
 17 C        5.3840     4.0820    -0.1160 C.ar  1 <1>  -0.1500 
 18 C        7.2280     6.3770     0.5080 C.3   1 <1>   0.2090 
 19 C        5.3360     7.2840     1.8560 C.3   1 <1>   0.2090 
 20 C        7.1880     7.6020    -0.4210 C.3   1 <1>   0.2000 
 21 C        5.2750     8.5170     0.9440 C.3   1 <1>  -0.1600 
 22 O        8.4650     7.8910    -0.8680 O.3   1 <1>  -0.6800 
 23 C        6.6340     8.8370     0.2970 C.3   1 <1>  -0.1600 
 24 H       -0.7220     2.1180     2.5900 H     1 <1>   0.1500 
 25 H        2.4080    -0.7380    -1.0820 H     1 <1>   0.0800 
 26 H        0.8620    -0.2770    -1.7380 H     1 <1>   0.0800 
 27 H       -0.2250    -2.0930    -0.4350 H     1 <1>   0.0800 
 28 H        1.3170    -2.5300     0.2440 H     1 <1>   0.0800 
 29 H        2.8410     1.1890     3.6710 H     1 <1>   0.0800 
 30 H        1.5110     2.2130     4.1180 H     1 <1>   0.0800 
 31 H        0.6060    -2.6650    -2.7070 H     1 <1>   0.0800 
 32 H        0.7240    -4.0260    -1.6230 H     1 <1>   0.0800 
 33 H        2.1550    -3.1130    -2.0240 H     1 <1>   0.0800 
 34 H        2.9390     3.9060     3.6530 H     1 <1>   0.4000 
 35 H        3.3330     1.7600     0.9220 H     1 <1>   0.4570 
 36 H        4.8080     2.2030    -0.9750 H     1 <1>   0.1500 
 37 H        6.0290     4.3860    -0.9180 H     1 <1>   0.1500 
 38 H        7.5950     5.5250    -0.0320 H     1 <1>   0.0800 
 39 H        7.9070     6.5720     1.3200 H     1 <1>   0.0800 
 40 H        5.9820     7.4760     2.6970 H     1 <1>   0.0800 
 41 H        4.3490     7.0790     2.2340 H     1 <1>   0.0800 
 42 H        6.5890     7.3700    -1.2850 H     1 <1>   0.0800 
 43 H        4.9430     9.3640     1.5190 H     1 <1>   0.0800 
 44 H        4.5420     8.3390     0.1770 H     1 <1>   0.0800 
 45 H        8.9830     8.3280    -0.1650 H     1 <1>   0.4000 
 46 H        6.5140     9.6410    -0.4090 H     1 <1>   0.0800 
 47 H        7.3180     9.1490     1.0670 H     1 <1>   0.0800 
@<TRIPOS>BOND
  1   1   2  1   
  2   1   3  1   
  3   2   4  2   
  4   2   5  1   
  5   3   6  2   
  6   3  24  1   
  7   4   6  1   
  8   5   7  1   
  9   5  25  1   
 10   5  26  1   
 11   6   8  1   
 12   7   9  1   
 13   7  27  1   
 14   7  28  1   
 15   8  10  1   
 16   8  29  1   
 17   8  30  1   
 18   9  31  1   
 19   9  32  1   
 20   9  33  1   
 21  10  11  1   
 22  10  34  1   
 23  11  12  ar  
 24  11  13  ar  
 25  12  14  ar  
 26  13  15  ar  
 27  13  35  1   
 28  14  16  1   
 29  14  17  ar  
 30  15  17  ar  
 31  15  36  1   
 32  16  18  1   
 33  16  19  1   
 34  17  37  1   
 35  18  20  1   
 36  18  38  1   
 37  18  39  1   
 38  19  21  1   
 39  19  40  1   
 40  19  41  1   
 41  20  22  1   
 42  20  23  1   
 43  20  42  1   
 44  21  23  1   
 45  21  43  1   
 46  21  44  1   
 47  22  45  1   
 48  23  46  1   
 49  23  47  1   
@<TRIPOS>SUBSTRUCTURE
  1 ****  13 GROUP 4 **** **** 0

# MOE 2024.06 (io_trps.svl 2023.06)
