@<TRIPOS>MOLECULE
NONAME
51 53 1 0 0 
SMALL
USER_CHARGES


@<TRIPOS>ATOM
  1 S        0.1810     0.6960    -0.1480 S.o2  1 <1>   1.3330 
  2 O       -0.1170    -0.2820    -1.1690 O.2   1 <1>  -0.6500 
  3 O        0.1050     0.3330     1.2490 O.2   1 <1>  -0.6500 
  4 N       -0.8090     2.0510    -0.3980 N.am  1 <1>  -0.8490 
  5 C        1.8220     1.3560    -0.4250 C.3   1 <1>  -0.0550 
  6 C       -1.1080     2.2970    -1.8140 C.3   1 <1>   0.1160 
  7 C       -2.0610     1.9690     0.3610 C.3   1 <1>   0.1160 
  8 C        2.9320     0.2870    -0.3690 C.3   1 <1>  -0.0800 
  9 C        4.3380     0.8040    -0.6480 C.3   1 <1>   0.2200 
 10 C        3.0930    -0.4230     0.9850 C.3   1 <1>   0.1200 
 11 N        4.5890     2.0650     0.0950 N.am  1 <1>  -0.7300 
 12 C        5.1560    -0.2910     0.0200 C.3   1 <1>   0.1200 
 13 O        4.4710    -0.5320     1.2090 O.3   1 <1>  -0.5600 
 14 C        4.5510     3.3300    -0.4220 C.2   1 <1>   0.7030 
 15 O        4.2450     3.4450    -1.5930 O.2   1 <1>  -0.5700 
 16 C        4.8580     4.5010     0.3870 C.2   1 <1>   0.2770 
 17 N        5.4180     5.6900    -0.1010 N.pl3 1 <1>  -0.6290 
 18 C        4.6830     4.6940     1.7260 C.2   1 <1>   0.1820 
 19 C        5.5760     6.5370     0.9370 C.cat 1 <1>   0.7910 
 20 C        5.7810     6.0810    -1.3720 C.2   1 <1>   0.2290 
 21 N        5.1370     5.9340     2.0520 N.pl3 1 <1>  -0.7000 
 22 C        4.0870     3.8030     2.8050 C.3   1 <1>  -0.0720 
 23 C        6.1210     7.8160     0.7500 C.2   1 <1>  -0.1410 
 24 C        6.3120     7.3230    -1.5770 C.2   1 <1>  -0.1500 
 25 C        6.4940     8.2190    -0.5050 C.2   1 <1>  -0.1380 
 26 C        7.0900     9.5900    -0.7770 C.3   1 <1>  -0.1020 
 27 H        1.8520     1.8240    -1.3900 H     1 <1>   0.0800 
 28 H        2.0060     2.1130     0.3100 H     1 <1>   0.0800 
 29 H       -1.6700     3.2100    -1.9200 H     1 <1>   0.0800 
 30 H       -1.6830     1.4830    -2.2250 H     1 <1>   0.0800 
 31 H       -0.1960     2.3940    -2.3780 H     1 <1>   0.0800 
 32 H       -2.6570     2.8500     0.1960 H     1 <1>   0.0800 
 33 H       -1.8500     1.9000     1.4160 H     1 <1>   0.0800 
 34 H       -2.6230     1.0990     0.0640 H     1 <1>   0.0800 
 35 H        2.7020    -0.4680    -1.1020 H     1 <1>   0.0800 
 36 H        4.5560     0.9100    -1.6990 H     1 <1>   0.0800 
 37 H        2.6620    -1.4100     0.9720 H     1 <1>   0.0800 
 38 H        2.6730     0.1430     1.7990 H     1 <1>   0.0800 
 39 H        4.8730     1.8800     1.0620 H     1 <1>   0.3700 
 40 H        6.1690     0.0030     0.2320 H     1 <1>   0.0800 
 41 H        5.1490    -1.1970    -0.5630 H     1 <1>   0.0800 
 42 H        5.6350     5.3910    -2.1900 H     1 <1>   0.1500 
 43 H        5.1410     6.3710     2.9770 H     1 <1>   0.4500 
 44 H        3.5870     2.9500     2.3860 H     1 <1>   0.0800 
 45 H        3.3620     4.3570     3.3760 H     1 <1>   0.0800 
 46 H        4.8590     3.4610     3.4710 H     1 <1>   0.0800 
 47 H        6.2340     8.4550     1.6050 H     1 <1>   0.1500 
 48 H        6.5980     7.6320    -2.5690 H     1 <1>   0.1500 
 49 H        6.4700    10.1320    -1.4690 H     1 <1>   0.0800 
 50 H        8.0730     9.4890    -1.2030 H     1 <1>   0.0800 
 51 H        7.1710    10.1650     0.1290 H     1 <1>   0.0800 
@<TRIPOS>BOND
  1   1   2  2   
  2   1   3  2   
  3   1   4  am  
  4   1   5  1   
  5   4   6  1   
  6   4   7  1   
  7   5   8  1   
  8   5  27  1   
  9   5  28  1   
 10   6  29  1   
 11   6  30  1   
 12   6  31  1   
 13   7  32  1   
 14   7  33  1   
 15   7  34  1   
 16   8   9  1   
 17   8  10  1   
 18   8  35  1   
 19   9  11  1   
 20   9  12  1   
 21   9  36  1   
 22  10  13  1   
 23  10  37  1   
 24  10  38  1   
 25  11  14  am  
 26  11  39  1   
 27  12  13  1   
 28  12  40  1   
 29  12  41  1   
 30  14  15  2   
 31  14  16  1   
 32  16  17  1   
 33  16  18  2   
 34  17  19  ar  
 35  17  20  1   
 36  18  21  1   
 37  18  22  1   
 38  19  21  ar  
 39  19  23  1   
 40  20  24  2   
 41  20  42  1   
 42  21  43  1   
 43  22  44  1   
 44  22  45  1   
 45  22  46  1   
 46  23  25  2   
 47  23  47  1   
 48  24  25  1   
 49  24  48  1   
 50  25  26  1   
 51  26  49  1   
 52  26  50  1   
 53  26  51  1   
@<TRIPOS>SUBSTRUCTURE
  1 ****  14 GROUP 4 **** **** 0

# MOE 2024.06 (io_trps.svl 2023.06)
