@<TRIPOS>MOLECULE
NONAME
40 41 1 0 0 
SMALL
USER_CHARGES


@<TRIPOS>ATOM
  1 S       -0.2960    -0.3590     0.6610 S.o2  1 <1>   1.0900 
  2 O        0.9240    -0.1840    -0.0930 O.2   1 <1>  -0.6500 
  3 O       -0.4080     0.1950     1.9890 O.2   1 <1>  -0.6500 
  4 C       -0.6420    -2.1090     0.7580 C.3   1 <1>  -0.0550 
  5 C       -1.6480     0.2850    -0.3090 C.3   1 <1>  -0.1350 
  6 C       -0.3470    -2.8130    -0.5660 C.3   1 <1>   0.1400 
  7 N       -1.0220    -4.1310    -0.6020 N.am  1 <1>  -0.7300 
  8 C       -2.3490    -4.3000    -0.8590 C.2   1 <1>   0.5690 
  9 O       -3.0880    -3.3460    -0.9130 O.2   1 <1>  -0.5700 
 10 C       -2.8990    -5.7120    -1.0930 C.3   1 <1>   0.2610 
 11 O       -1.8470    -6.6010    -1.4510 O.3   1 <1>  -0.5600 
 12 C       -3.6390    -6.2170     0.1730 C.3   1 <1>   0.3640 
 13 C       -2.2770    -7.9050    -1.7850 C.3   1 <1>   0.1810 
 14 N       -3.8140    -7.6900     0.1580 N.am  1 <1>  -0.7300 
 15 C       -5.0120    -5.5720     0.3290 C.ar  1 <1>  -0.1430 
 16 C       -3.2130    -8.5100    -0.7330 C.2   1 <1>   0.5690 
 17 C       -5.2080    -4.5860     1.2860 C.ar  1 <1>  -0.1500 
 18 C       -6.0790    -5.9510    -0.4750 C.ar  1 <1>  -0.1500 
 19 O       -3.4250    -9.6950    -0.7210 O.2   1 <1>  -0.5700 
 20 C       -6.4480    -3.9900     1.4370 C.ar  1 <1>  -0.1500 
 21 C       -7.3190    -5.3550    -0.3250 C.ar  1 <1>  -0.1500 
 22 C       -7.5040    -4.3740     0.6320 C.ar  1 <1>  -0.1500 
 23 H       -0.0320    -2.5510     1.5210 H     1 <1>   0.0800 
 24 H       -1.6710    -2.2480     1.0260 H     1 <1>   0.0800 
 25 H       -1.6550    -0.1440    -1.2920 H     1 <1>   0.0800 
 26 H       -1.5520     1.3490    -0.4080 H     1 <1>   0.0800 
 27 H       -2.5860     0.0740     0.1650 H     1 <1>   0.0800 
 28 H        0.7160    -2.9360    -0.6920 H     1 <1>   0.0800 
 29 H       -0.7130    -2.2230    -1.3900 H     1 <1>   0.0800 
 30 H       -0.4230    -4.9600    -0.6950 H     1 <1>   0.3700 
 31 H       -3.5870    -5.6650    -1.9180 H     1 <1>   0.0800 
 32 H       -3.0400    -5.9680     1.0320 H     1 <1>   0.0800 
 33 H       -2.7830    -7.8660    -2.7330 H     1 <1>   0.0800 
 34 H       -1.4050    -8.5260    -1.8830 H     1 <1>   0.0800 
 35 H       -4.4750    -8.0900     0.8270 H     1 <1>   0.3700 
 36 H       -4.3980    -4.2690     1.9200 H     1 <1>   0.1500 
 37 H       -5.9570    -6.7160    -1.2240 H     1 <1>   0.1500 
 38 H       -6.5910    -3.2250     2.1800 H     1 <1>   0.1500 
 39 H       -8.1400    -5.6540    -0.9530 H     1 <1>   0.1500 
 40 H       -8.4680    -3.9100     0.7480 H     1 <1>   0.1500 
@<TRIPOS>BOND
  1   1   2  2   
  2   1   3  2   
  3   1   4  1   
  4   1   5  1   
  5   4   6  1   
  6   4  23  1   
  7   4  24  1   
  8   5  25  1   
  9   5  26  1   
 10   5  27  1   
 11   6   7  1   
 12   6  28  1   
 13   6  29  1   
 14   7   8  am  
 15   7  30  1   
 16   8   9  2   
 17   8  10  1   
 18  10  11  1   
 19  10  12  1   
 20  10  31  1   
 21  11  13  1   
 22  12  14  1   
 23  12  15  1   
 24  12  32  1   
 25  13  16  1   
 26  13  33  1   
 27  13  34  1   
 28  14  16  am  
 29  14  35  1   
 30  15  17  ar  
 31  15  18  ar  
 32  16  19  2   
 33  17  20  ar  
 34  17  36  1   
 35  18  21  ar  
 36  18  37  1   
 37  20  22  ar  
 38  20  38  1   
 39  21  22  ar  
 40  21  39  1   
 41  22  40  1   
@<TRIPOS>SUBSTRUCTURE
  1 ****   8 GROUP 4 **** **** 0

# MOE 2024.06 (io_trps.svl 2023.06)
