@<TRIPOS>MOLECULE
NONAME
44 47 1 0 0 
SMALL
USER_CHARGES


@<TRIPOS>ATOM
  1 S       -0.4660     0.2500     0.5820 S.3   1 <1>  -0.0800 
  2 C       -0.3590     1.9520     0.1840 C.2   1 <1>  -0.1400 
  3 C        1.1970     0.2590     1.1490 C.2   1 <1>  -0.1100 
  4 C        0.8530     2.4540     0.4530 C.2   1 <1>  -0.1810 
  5 C       -1.5180     2.7280    -0.3820 C.3   1 <1>   0.0200 
  6 C        1.7470     1.4820     1.0160 C.2   1 <1>  -0.1500 
  7 C        1.1750     3.9250     0.1700 C.3   1 <1>   0.4610 
  8 C       -1.2010     4.2190    -0.1860 C.3   1 <1>   0.1200 
  9 O        0.1210     4.5090    -0.5730 O.3   1 <1>  -0.5600 
 10 C        2.4090     4.0320    -0.7360 C.3   1 <1>  -0.1600 
 11 C        1.3300     4.7290     1.4760 C.3   1 <1>  -0.1600 
 12 C        3.0000     5.4380    -0.6820 C.3   1 <1>   0.1400 
 13 C        2.7930     5.0140     1.8200 C.3   1 <1>   0.1400 
 14 N        3.4650     5.7510     0.7060 N.am  1 <1>  -0.6600 
 15 C        4.4530     6.6630     0.9990 C.2   1 <1>   0.5690 
 16 O        4.8440     6.8070     2.1350 O.2   1 <1>  -0.5700 
 17 C        5.0890     7.5260    -0.1050 C.3   1 <1>  -0.0190 
 18 C        6.3160     8.3410     0.3160 C.3   1 <1>  -0.1600 
 19 C        4.1500     8.5970    -0.6740 C.3   1 <1>  -0.1600 
 20 C        6.4710     9.3980    -0.7760 C.3   1 <1>  -0.1600 
 21 C        5.0560     9.6620    -1.3020 C.3   1 <1>  -0.1600 
 22 H        1.5930    -0.6670     1.5270 H     1 <1>   0.1500 
 23 H       -2.4270     2.4760     0.1330 H     1 <1>   0.0800 
 24 H       -1.6350     2.5050    -1.4270 H     1 <1>   0.0800 
 25 H        2.7530     1.7390     1.2950 H     1 <1>   0.1500 
 26 H       -1.3210     4.4950     0.8480 H     1 <1>   0.0800 
 27 H       -1.8600     4.8220    -0.7840 H     1 <1>   0.0800 
 28 H        2.1320     3.7790    -1.7430 H     1 <1>   0.0800 
 29 H        3.1670     3.3380    -0.4280 H     1 <1>   0.0800 
 30 H        0.8780     4.1910     2.2890 H     1 <1>   0.0800 
 31 H        0.8280     5.6760     1.3870 H     1 <1>   0.0800 
 32 H        2.2510     6.1550    -0.9750 H     1 <1>   0.0800 
 33 H        3.8200     5.4950    -1.3740 H     1 <1>   0.0800 
 34 H        3.3190     4.0920     1.9980 H     1 <1>   0.0800 
 35 H        2.8330     5.5970     2.7250 H     1 <1>   0.0800 
 36 H        5.4070     6.8820    -0.9040 H     1 <1>   0.0800 
 37 H        7.1930     7.7260     0.4190 H     1 <1>   0.0800 
 38 H        6.1220     8.8340     1.2550 H     1 <1>   0.0800 
 39 H        3.5920     9.0390     0.1340 H     1 <1>   0.0800 
 40 H        3.4600     8.1920    -1.3930 H     1 <1>   0.0800 
 41 H        7.0810     9.0040    -1.5710 H     1 <1>   0.0800 
 42 H        6.9300    10.2930    -0.3940 H     1 <1>   0.0800 
 43 H        4.7210    10.6460    -1.0210 H     1 <1>   0.0800 
 44 H        5.0440     9.5850    -2.3760 H     1 <1>   0.0800 
@<TRIPOS>BOND
  1   1   2  1   
  2   1   3  1   
  3   2   4  2   
  4   2   5  1   
  5   3   6  2   
  6   3  22  1   
  7   4   6  1   
  8   4   7  1   
  9   5   8  1   
 10   5  23  1   
 11   5  24  1   
 12   6  25  1   
 13   7   9  1   
 14   7  10  1   
 15   7  11  1   
 16   8   9  1   
 17   8  26  1   
 18   8  27  1   
 19  10  12  1   
 20  10  28  1   
 21  10  29  1   
 22  11  13  1   
 23  11  30  1   
 24  11  31  1   
 25  12  14  1   
 26  12  32  1   
 27  12  33  1   
 28  13  14  1   
 29  13  34  1   
 30  13  35  1   
 31  14  15  am  
 32  15  16  2   
 33  15  17  1   
 34  17  18  1   
 35  17  19  1   
 36  17  36  1   
 37  18  20  1   
 38  18  37  1   
 39  18  38  1   
 40  19  21  1   
 41  19  39  1   
 42  19  40  1   
 43  20  21  1   
 44  20  41  1   
 45  20  42  1   
 46  21  43  1   
 47  21  44  1   
@<TRIPOS>SUBSTRUCTURE
  1 ****  12 GROUP 4 **** **** 0

# MOE 2024.06 (io_trps.svl 2023.06)
