@<TRIPOS>MOLECULE
NONAME
39 42 1 0 0 
SMALL
USER_CHARGES


@<TRIPOS>ATOM
  1 O       -0.2960     0.1280    -1.1550 O.2   1 <1>  -0.5700 
  2 C        0.7240    -0.4970    -1.0120 C.2   1 <1>   0.5690 
  3 N        1.9130     0.1170    -0.8380 N.am  1 <1>  -0.7300 
  4 C        0.6700    -2.0060    -1.0070 C.3   1 <1>  -0.0990 
  5 C        2.0850     1.5920    -0.7710 C.3   1 <1>   0.3210 
  6 C       -0.0120    -2.5170     0.2680 C.3   1 <1>   0.0200 
  7 C        3.4740     1.9770    -0.2640 C.2   1 <1>   0.3350 
  8 C       -0.0150    -4.0310     0.3180 C.2   1 <1>   0.2980 
  9 N        4.4180     1.1590     0.0050 N.2   1 <1>  -0.4100 
 10 N        3.8050     3.2460    -0.0640 N.2   1 <1>  -0.5650 
 11 O        1.1220    -4.6530     0.4960 O.3   1 <1>  -0.0190 
 12 N       -1.0330    -4.7750     0.1970 N.2   1 <1>  -0.5650 
 13 O        5.4330     1.8660     0.4030 O.3   1 <1>  -0.0190 
 14 C        5.0050     3.1020     0.3380 C.2   1 <1>   0.3930 
 15 N        0.7990    -5.9080     0.4850 N.2   1 <1>  -0.4100 
 16 C       -0.4740    -5.9860     0.3100 C.2   1 <1>   0.5150 
 17 C        5.9570     4.2180     0.7420 C.3   1 <1>  -0.0150 
 18 C       -1.2630    -7.1970     0.2330 C.2   1 <1>   0.1410 
 19 C        5.8520     5.5940     0.1550 C.3   1 <1>  -0.2000 
 20 C        7.0020     4.7060    -0.2150 C.3   1 <1>  -0.2000 
 21 O       -0.6990    -8.3970     0.3450 O.3   1 <1>  -0.2800 
 22 C       -2.6010    -7.3640     0.0510 C.2   1 <1>  -0.1500 
 23 C       -1.6370    -9.3150     0.2380 C.2   1 <1>  -0.0100 
 24 C       -2.8430    -8.7400     0.0540 C.2   1 <1>  -0.1500 
 25 H        2.7820    -0.4050    -0.6920 H     1 <1>   0.3700 
 26 H        1.6650    -2.4050    -1.0790 H     1 <1>   0.0800 
 27 H        0.1140    -2.3320    -1.8670 H     1 <1>   0.0800 
 28 H        1.3410     2.0080    -0.1140 H     1 <1>   0.0800 
 29 H        1.9410     2.0100    -1.7510 H     1 <1>   0.0800 
 30 H       -1.0280    -2.1620     0.2980 H     1 <1>   0.0800 
 31 H        0.4980    -2.1400     1.1370 H     1 <1>   0.0800 
 32 H        6.2300     4.1490     1.7790 H     1 <1>   0.1000 
 33 H        6.0300     6.4410     0.7940 H     1 <1>   0.1000 
 34 H        5.0850     5.7830    -0.5770 H     1 <1>   0.1000 
 35 H        7.0310     4.2910    -1.2080 H     1 <1>   0.1000 
 36 H        7.9820     4.9380     0.1650 H     1 <1>   0.1000 
 37 H       -3.3410    -6.5940    -0.0740 H     1 <1>   0.1500 
 38 H       -1.3590   -10.3530     0.3060 H     1 <1>   0.1500 
 39 H       -3.8030    -9.2110    -0.0670 H     1 <1>   0.1500 
@<TRIPOS>BOND
  1   1   2  2   
  2   2   3  am  
  3   2   4  1   
  4   3   5  1   
  5   3  25  1   
  6   4   6  1   
  7   4  26  1   
  8   4  27  1   
  9   5   7  1   
 10   5  28  1   
 11   5  29  1   
 12   6   8  1   
 13   6  30  1   
 14   6  31  1   
 15   7   9  2   
 16   7  10  1   
 17   8  11  1   
 18   8  12  2   
 19   9  13  1   
 20  10  14  2   
 21  11  15  1   
 22  12  16  1   
 23  13  14  1   
 24  14  17  1   
 25  15  16  2   
 26  16  18  1   
 27  17  19  1   
 28  17  20  1   
 29  17  32  1   
 30  18  21  1   
 31  18  22  2   
 32  19  20  1   
 33  19  33  1   
 34  19  34  1   
 35  20  35  1   
 36  20  36  1   
 37  21  23  1   
 38  22  24  1   
 39  22  37  1   
 40  23  24  2   
 41  23  38  1   
 42  24  39  1   
@<TRIPOS>SUBSTRUCTURE
  1 ****   4 GROUP 4 **** **** 0

# MOE 2024.06 (io_trps.svl 2023.06)
