@<TRIPOS>MOLECULE
NONAME
51 53 1 0 0 
SMALL
USER_CHARGES


@<TRIPOS>ATOM
  1 O       -1.8570     0.4250    -1.9880 O.2   1 <1>  -0.5700 
  2 C       -1.5710     0.1880    -0.8390 C.2   1 <1>   0.5690 
  3 N       -1.7570    -1.0520    -0.3210 N.am  1 <1>  -0.7300 
  4 C       -0.9910     1.3340     0.0250 C.3   1 <1>   0.0610 
  5 C       -2.2350    -2.2350    -1.0770 C.3   1 <1>   0.2200 
  6 C       -1.9940     2.5130     0.0300 C.3   1 <1>  -0.1600 
  7 C        0.3360     1.8050    -0.6140 C.3   1 <1>  -0.1600 
  8 C       -0.7250     0.8870     1.4850 C.3   1 <1>  -0.2400 
  9 C       -3.6630    -2.6000    -0.6890 C.3   1 <1>  -0.0800 
 10 C       -1.4910    -3.4610    -0.5700 C.3   1 <1>   0.1200 
 11 C       -1.4130     3.8010     0.6100 C.3   1 <1>   0.3430 
 12 C        0.8680     3.1080    -0.0200 C.3   1 <1>   0.3430 
 13 C       -3.4730    -3.4630     0.5650 C.3   1 <1>   0.1200 
 14 C       -4.6350    -1.4200    -0.5070 C.3   1 <1>  -0.0170 
 15 O       -2.1110    -3.7730     0.6380 O.3   1 <1>  -0.5600 
 16 N       -0.1740     4.1660    -0.1330 N.4   1 <1>  -0.9590 
 17 C       -6.0460    -1.9170    -0.2360 C.ar  1 <1>  -0.1440 
 18 C        0.3520     5.4910     0.3140 C.3   1 <1>   0.2630 
 19 C       -6.5650    -1.9980     1.0400 C.ar  1 <1>  -0.1500 
 20 C       -6.8810    -2.3160    -1.2600 C.ar  1 <1>  -0.1500 
 21 C       -7.8560    -2.4670     1.2260 C.ar  1 <1>   0.1600 
 22 C       -8.1570    -2.7690    -0.9660 C.ar  1 <1>   0.1600 
 23 N       -8.6630    -2.8570     0.2530 N.ar  1 <1>  -0.6200 
 24 H       -1.5360    -1.2640     0.6550 H     1 <1>   0.3700 
 25 H       -2.1150    -2.0890    -2.1380 H     1 <1>   0.0800 
 26 H       -2.8700     2.2370     0.5910 H     1 <1>   0.0800 
 27 H       -2.3230     2.7190    -0.9740 H     1 <1>   0.0800 
 28 H        0.2020     1.9510    -1.6720 H     1 <1>   0.0800 
 29 H        1.0820     1.0370    -0.5020 H     1 <1>   0.0800 
 30 H       -0.3250     1.6810     2.0880 H     1 <1>   0.0800 
 31 H       -0.0190     0.0730     1.5070 H     1 <1>   0.0800 
 32 H       -1.6370     0.5500     1.9480 H     1 <1>   0.0800 
 33 H       -4.0560    -3.2390    -1.4590 H     1 <1>   0.0800 
 34 H       -0.4430    -3.2810    -0.4090 H     1 <1>   0.0800 
 35 H       -1.6230    -4.2950    -1.2380 H     1 <1>   0.0800 
 36 H       -1.1870     3.6630     1.6550 H     1 <1>   0.0800 
 37 H       -2.1420     4.5910     0.5240 H     1 <1>   0.0800 
 38 H        1.7570     3.4060    -0.5530 H     1 <1>   0.0800 
 39 H        1.1290     2.9580     1.0160 H     1 <1>   0.0800 
 40 H       -4.0370    -4.3790     0.5050 H     1 <1>   0.0800 
 41 H       -3.7360    -2.9340     1.4640 H     1 <1>   0.0800 
 42 H       -4.6350    -0.8190    -1.4010 H     1 <1>   0.0800 
 43 H       -4.3170    -0.7910     0.3050 H     1 <1>   0.0800 
 44 H       -0.4290     4.2330    -1.1300 H     1 <1>   0.4500 
 45 H        0.6280     5.4540     1.3560 H     1 <1>   0.0800 
 46 H       -0.3970     6.2550     0.1830 H     1 <1>   0.0800 
 47 H        1.2210     5.7630    -0.2640 H     1 <1>   0.0800 
 48 H       -5.9830    -1.7030     1.8930 H     1 <1>   0.1500 
 49 H       -6.5540    -2.2790    -2.2820 H     1 <1>   0.1500 
 50 H       -8.2440    -2.5240     2.2280 H     1 <1>   0.1500 
 51 H       -8.7940    -3.0760    -1.7780 H     1 <1>   0.1500 
@<TRIPOS>BOND
  1   1   2  2   
  2   2   3  am  
  3   2   4  1   
  4   3   5  1   
  5   3  24  1   
  6   4   6  1   
  7   4   7  1   
  8   4   8  1   
  9   5   9  1   
 10   5  10  1   
 11   5  25  1   
 12   6  11  1   
 13   6  26  1   
 14   6  27  1   
 15   7  12  1   
 16   7  28  1   
 17   7  29  1   
 18   8  30  1   
 19   8  31  1   
 20   8  32  1   
 21   9  13  1   
 22   9  14  1   
 23   9  33  1   
 24  10  15  1   
 25  10  34  1   
 26  10  35  1   
 27  11  16  1   
 28  11  36  1   
 29  11  37  1   
 30  12  16  1   
 31  12  38  1   
 32  12  39  1   
 33  13  15  1   
 34  13  40  1   
 35  13  41  1   
 36  14  17  1   
 37  14  42  1   
 38  14  43  1   
 39  16  18  1   
 40  16  44  1   
 41  17  19  ar  
 42  17  20  ar  
 43  18  45  1   
 44  18  46  1   
 45  18  47  1   
 46  19  21  ar  
 47  19  48  1   
 48  20  22  ar  
 49  20  49  1   
 50  21  23  ar  
 51  21  50  1   
 52  22  23  ar  
 53  22  51  1   
@<TRIPOS>SUBSTRUCTURE
  1 ****   3 GROUP 4 **** **** 0

# MOE 2024.06 (io_trps.svl 2023.06)
