@<TRIPOS>MOLECULE
NONAME
44 47 1 0 0 
SMALL
USER_CHARGES


@<TRIPOS>ATOM
  1 S        0.9080    -0.0820     1.3790 S.3   1 <1>  -0.0800 
  2 C        1.6540     1.2360     0.4990 C.ar  1 <1>   0.0400 
  3 C        1.3150    -1.1690     0.0570 C.2   1 <1>   0.2280 
  4 C        2.1320     0.7320    -0.6960 C.ar  1 <1>   0.2270 
  5 C        1.7740     2.5590     0.8720 C.ar  1 <1>  -0.1500 
  6 N        1.9280    -0.6260    -0.9160 N.2   1 <1>  -0.5650 
  7 C        2.7620     1.6120    -1.5640 C.ar  1 <1>  -0.1500 
  8 C        2.4150     3.4480     0.0100 C.ar  1 <1>   0.0860 
  9 C        2.8950     2.9450    -1.2110 C.ar  1 <1>  -0.1500 
 10 C        2.5620     4.8480     0.3680 C.2   1 <1>   0.5440 
 11 O        1.6050     5.4390     0.8320 O.2   1 <1>  -0.5700 
 12 N        3.7510     5.5320     0.2080 N.am  1 <1>  -0.6600 
 13 C        5.0700     4.8230     0.1710 C.3   1 <1>   0.1400 
 14 C        3.7320     7.0230     0.2180 C.3   1 <1>   0.1400 
 15 C        6.1570     5.4790     1.0350 C.3   1 <1>   0.1100 
 16 C        4.8620     7.6590    -0.5970 C.3   1 <1>  -0.1600 
 17 N        6.8990     6.5140     0.2890 N.3   1 <1>  -0.8100 
 18 C        6.1720     7.7890     0.1820 C.3   1 <1>   0.1100 
 19 C        8.2440     6.7280     0.8870 C.3   1 <1>   0.2900 
 20 C        9.1560     7.6250     0.0550 C.2   1 <1>   0.2980 
 21 O        9.4930     7.2360    -1.1500 O.3   1 <1>  -0.0190 
 22 N        9.6410     8.7450     0.4250 N.2   1 <1>  -0.5650 
 23 N       10.2590     8.1900    -1.5850 N.2   1 <1>  -0.4100 
 24 C       10.3330     9.0590    -0.6590 C.2   1 <1>   0.3350 
 25 C       11.1210    10.3440    -0.7340 C.3   1 <1>  -0.0590 
 26 H        1.0190    -2.1970     0.1700 H     1 <1>   0.1500 
 27 H        1.3760     2.9040     1.8110 H     1 <1>   0.1500 
 28 H        3.1340     1.2390    -2.5010 H     1 <1>   0.1500 
 29 H        3.3730     3.6260    -1.8940 H     1 <1>   0.1500 
 30 H        5.4170     4.7570    -0.8450 H     1 <1>   0.0800 
 31 H        4.9330     3.8210     0.5370 H     1 <1>   0.0800 
 32 H        3.7650     7.3700     1.2360 H     1 <1>   0.0800 
 33 H        2.7940     7.3510    -0.2010 H     1 <1>   0.0800 
 34 H        6.8430     4.6970     1.3090 H     1 <1>   0.0800 
 35 H        5.7340     5.8770     1.9420 H     1 <1>   0.0800 
 36 H        4.5470     8.6570    -0.8410 H     1 <1>   0.0800 
 37 H        5.0140     7.1410    -1.5270 H     1 <1>   0.0800 
 38 H        5.9820     8.1920     1.1630 H     1 <1>   0.0800 
 39 H        6.7860     8.4980    -0.3480 H     1 <1>   0.0800 
 40 H        8.7410     5.7800     0.9920 H     1 <1>   0.0800 
 41 H        8.1380     7.1580     1.8680 H     1 <1>   0.0800 
 42 H       11.8600    10.3590     0.0460 H     1 <1>   0.0800 
 43 H       10.4590    11.1800    -0.6100 H     1 <1>   0.0800 
 44 H       11.6120    10.4200    -1.6860 H     1 <1>   0.0800 
@<TRIPOS>BOND
  1   1   2  1   
  2   1   3  1   
  3   2   4  ar  
  4   2   5  ar  
  5   3   6  2   
  6   3  26  1   
  7   4   6  1   
  8   4   7  ar  
  9   5   8  ar  
 10   5  27  1   
 11   7   9  ar  
 12   7  28  1   
 13   8   9  ar  
 14   8  10  1   
 15   9  29  1   
 16  10  11  2   
 17  10  12  am  
 18  12  13  1   
 19  12  14  1   
 20  13  15  1   
 21  13  30  1   
 22  13  31  1   
 23  14  16  1   
 24  14  32  1   
 25  14  33  1   
 26  15  17  1   
 27  15  34  1   
 28  15  35  1   
 29  16  18  1   
 30  16  36  1   
 31  16  37  1   
 32  17  18  1   
 33  17  19  1   
 34  18  38  1   
 35  18  39  1   
 36  19  20  1   
 37  19  40  1   
 38  19  41  1   
 39  20  21  1   
 40  20  22  2   
 41  21  23  1   
 42  22  24  1   
 43  23  24  2   
 44  24  25  1   
 45  25  42  1   
 46  25  43  1   
 47  25  44  1   
@<TRIPOS>SUBSTRUCTURE
  1 ****  13 GROUP 4 **** **** 0

# MOE 2024.06 (io_trps.svl 2023.06)
