@<TRIPOS>MOLECULE
NONAME
55 56 1 0 0 
SMALL
USER_CHARGES


@<TRIPOS>ATOM
  1 O        0.0950    -0.1920     0.5510 O.2   1 <1>  -0.5700 
  2 C        1.1700    -0.5960     0.1820 C.2   1 <1>   0.5690 
  3 N        2.2140     0.2160    -0.1600 N.am  1 <1>  -0.4940 
  4 C        1.3970    -2.1000     0.0990 C.3   1 <1>  -0.0990 
  5 C        2.3440     1.6270    -0.1570 C.2   1 <1>  -0.0880 
  6 C        0.0910    -2.9170     0.2340 C.3   1 <1>  -0.1600 
  7 N        1.3850     2.5680    -0.3970 N.pl3 1 <1>   0.3140 
  8 C        3.4950     2.3090     0.0620 C.2   1 <1>  -0.1810 
  9 C        0.2810    -4.4310     0.0730 C.3   1 <1>   0.4230 
 10 N        1.8980     3.8160    -0.3420 N.2   1 <1>  -0.7070 
 11 C       -0.0220     2.3870    -0.7760 C.3   1 <1>   0.0160 
 12 C        3.1500     3.6520    -0.0660 C.2   1 <1>   0.1080 
 13 C        4.8710     1.7530     0.3860 C.3   1 <1>   0.0210 
 14 N       -1.0510    -5.0710    -0.0570 N.4   1 <1>  -0.9590 
 15 C        1.0630    -5.0490     1.2360 C.3   1 <1>  -0.2400 
 16 C        4.0880     4.8270     0.0910 C.3   1 <1>  -0.0590 
 17 C        5.6630     1.4970    -0.8980 C.3   1 <1>  -0.2400 
 18 C       -1.9550    -5.0050     1.1440 C.3   1 <1>   0.3430 
 19 C       -1.0130    -6.4700    -0.6030 C.3   1 <1>   0.3430 
 20 C       -3.3740    -5.5210     0.7960 C.3   1 <1>   0.1100 
 21 C       -2.4410    -6.9850    -0.9130 C.3   1 <1>   0.1100 
 22 N       -3.4780    -5.9710    -0.6120 N.3   1 <1>  -0.8100 
 23 C       -4.8250    -6.4750    -0.9140 C.3   1 <1>   0.0300 
 24 H        3.0900    -0.2600    -0.3650 H     1 <1>   0.3700 
 25 H        2.0800    -2.3650     0.8850 H     1 <1>   0.0800 
 26 H        1.8610    -2.3200    -0.8450 H     1 <1>   0.0800 
 27 H       -0.5910    -2.5700    -0.5240 H     1 <1>   0.0800 
 28 H       -0.3440    -2.7020     1.1950 H     1 <1>   0.0800 
 29 H        0.8290    -4.6030    -0.8400 H     1 <1>   0.0800 
 30 H       -0.1120     1.5350    -1.4210 H     1 <1>   0.0800 
 31 H       -0.3650     3.2660    -1.2880 H     1 <1>   0.0800 
 32 H       -0.6050     2.2380     0.1130 H     1 <1>   0.0800 
 33 H        4.7670     0.8360     0.9380 H     1 <1>   0.0800 
 34 H        5.4040     2.4480     1.0110 H     1 <1>   0.0800 
 35 H       -1.5980    -4.5670    -0.7730 H     1 <1>   0.4500 
 36 H        0.6150    -4.8080     2.1830 H     1 <1>   0.0800 
 37 H        2.0680    -4.6680     1.2420 H     1 <1>   0.0800 
 38 H        1.1310    -6.1160     1.1340 H     1 <1>   0.0800 
 39 H        5.0010     4.6480    -0.4430 H     1 <1>   0.0800 
 40 H        4.3040     4.9790     1.1320 H     1 <1>   0.0800 
 41 H        3.6260     5.7150    -0.3010 H     1 <1>   0.0800 
 42 H        5.1420     0.7950    -1.5250 H     1 <1>   0.0800 
 43 H        6.6350     1.1010    -0.6630 H     1 <1>   0.0800 
 44 H        5.7870     2.4150    -1.4450 H     1 <1>   0.0800 
 45 H       -2.0350    -3.9890     1.4930 H     1 <1>   0.0800 
 46 H       -1.5490    -5.5970     1.9470 H     1 <1>   0.0800 
 47 H       -0.5460    -7.1320     0.1060 H     1 <1>   0.0800 
 48 H       -0.4310    -6.4940    -1.5090 H     1 <1>   0.0800 
 49 H       -4.0830    -4.7290     0.9690 H     1 <1>   0.0800 
 50 H       -3.6270    -6.3300     1.4610 H     1 <1>   0.0800 
 51 H       -2.6260    -7.8800    -0.3430 H     1 <1>   0.0800 
 52 H       -2.4960    -7.2500    -1.9560 H     1 <1>   0.0800 
 53 H       -5.5560    -5.7070    -0.7270 H     1 <1>   0.0800 
 54 H       -5.0570    -7.3340    -0.3070 H     1 <1>   0.0800 
 55 H       -4.8890    -6.7540    -1.9530 H     1 <1>   0.0800 
@<TRIPOS>BOND
  1   1   2  2   
  2   2   3  am  
  3   2   4  1   
  4   3   5  1   
  5   3  24  1   
  6   4   6  1   
  7   4  25  1   
  8   4  26  1   
  9   5   7  1   
 10   5   8  2   
 11   6   9  1   
 12   6  27  1   
 13   6  28  1   
 14   7  10  1   
 15   7  11  1   
 16   8  12  1   
 17   8  13  1   
 18   9  14  1   
 19   9  15  1   
 20   9  29  1   
 21  10  12  2   
 22  11  30  1   
 23  11  31  1   
 24  11  32  1   
 25  12  16  1   
 26  13  17  1   
 27  13  33  1   
 28  13  34  1   
 29  14  18  1   
 30  14  19  1   
 31  14  35  1   
 32  15  36  1   
 33  15  37  1   
 34  15  38  1   
 35  16  39  1   
 36  16  40  1   
 37  16  41  1   
 38  17  42  1   
 39  17  43  1   
 40  17  44  1   
 41  18  20  1   
 42  18  45  1   
 43  18  46  1   
 44  19  21  1   
 45  19  47  1   
 46  19  48  1   
 47  20  22  1   
 48  20  49  1   
 49  20  50  1   
 50  21  22  1   
 51  21  51  1   
 52  21  52  1   
 53  22  23  1   
 54  23  53  1   
 55  23  54  1   
 56  23  55  1   
@<TRIPOS>SUBSTRUCTURE
  1 ****   2 GROUP 4 **** **** 0

# MOE 2024.06 (io_trps.svl 2023.06)
