@<TRIPOS>MOLECULE
NONAME
54 57 1 0 0 
SMALL
USER_CHARGES


@<TRIPOS>ATOM
  1 O       -5.0510     2.1310     1.7320 O.2   1 <1>  -0.5700 
  2 C       -4.9450     2.7260     0.6850 C.2   1 <1>   0.5690 
  3 N       -5.5520     2.2380    -0.4360 N.am  1 <1>  -0.6600 
  4 C       -4.0600     3.9560     0.6100 C.3   1 <1>  -0.0990 
  5 C       -6.8240     1.4600    -0.2680 C.3   1 <1>   0.1400 
  6 C       -4.6870     1.6290    -1.4880 C.3   1 <1>   0.1400 
  7 C       -2.5690     3.6050     0.7570 C.3   1 <1>  -0.1600 
  8 C       -6.5460    -0.0260     0.0900 C.3   1 <1>   0.4230 
  9 C       -4.3570     0.1540    -1.1360 C.3   1 <1>   0.3430 
 10 C       -1.6860     4.8500     0.6870 C.3   1 <1>   0.1200 
 11 N       -5.0650    -0.3260     0.1120 N.4   1 <1>  -0.9590 
 12 C       -7.2880    -1.0030    -0.8480 C.3   1 <1>   0.1200 
 13 O       -0.3460     4.4200     0.7010 O.3   1 <1>  -0.3630 
 14 C       -4.8350    -1.7620     0.4580 C.3   1 <1>   0.5180 
 15 O       -7.0080    -2.3290    -0.4920 O.3   1 <1>  -0.5600 
 16 C        0.6790     5.3060     0.6330 C.ar  1 <1>   0.0820 
 17 C       -3.3190    -2.0430     0.4820 C.3   1 <1>  -0.1950 
 18 C       -5.6490    -2.6830    -0.4860 C.3   1 <1>   0.1200 
 19 C        0.5090     6.6860     0.5590 C.ar  1 <1>  -0.1500 
 20 C        1.9600     4.7770     0.6390 C.ar  1 <1>  -0.1500 
 21 C       -2.4980    -2.4390    -0.7120 C.3   1 <1>  -0.2000 
 22 C       -2.7450    -3.4250     0.3940 C.3   1 <1>  -0.2000 
 23 C        1.6150     7.5170     0.4900 C.ar  1 <1>  -0.1500 
 24 C        3.0640     5.6080     0.5700 C.ar  1 <1>  -0.1500 
 25 C        2.8910     6.9800     0.4950 C.ar  1 <1>  -0.1500 
 26 H       -4.2310     4.4590    -0.3250 H     1 <1>   0.0800 
 27 H       -4.3510     4.6220     1.4010 H     1 <1>   0.0800 
 28 H       -7.4120     1.9020     0.5180 H     1 <1>   0.0800 
 29 H       -7.4040     1.5300    -1.1720 H     1 <1>   0.0800 
 30 H       -5.1970     1.6690    -2.4360 H     1 <1>   0.0800 
 31 H       -3.7750     2.1880    -1.5960 H     1 <1>   0.0800 
 32 H       -2.2750     2.9300    -0.0250 H     1 <1>   0.0800 
 33 H       -2.4100     3.1210     1.7060 H     1 <1>   0.0800 
 34 H       -6.9410    -0.1860     1.0800 H     1 <1>   0.0800 
 35 H       -3.2920     0.0690    -0.9990 H     1 <1>   0.0800 
 36 H       -4.6220    -0.4710    -1.9720 H     1 <1>   0.0800 
 37 H       -1.8500     5.4880     1.5380 H     1 <1>   0.0800 
 38 H       -1.8550     5.3920    -0.2280 H     1 <1>   0.0800 
 39 H       -4.7130     0.2650     0.8890 H     1 <1>   0.4500 
 40 H       -7.0060    -0.8550    -1.8760 H     1 <1>   0.0800 
 41 H       -8.3520    -0.8650    -0.7620 H     1 <1>   0.0800 
 42 H       -5.2060    -1.9350     1.4560 H     1 <1>   0.0800 
 43 H       -2.8390    -1.4160     1.2150 H     1 <1>   0.1000 
 44 H       -5.5880    -3.7020    -0.1470 H     1 <1>   0.0800 
 45 H       -5.2800    -2.6380    -1.4940 H     1 <1>   0.0800 
 46 H       -0.4670     7.1310     0.5550 H     1 <1>   0.1500 
 47 H        2.0860     3.7110     0.6980 H     1 <1>   0.1500 
 48 H       -2.9470    -2.6570    -1.6660 H     1 <1>   0.1000 
 49 H       -1.4990    -2.0480    -0.8170 H     1 <1>   0.1000 
 50 H       -1.9200    -3.6850     1.0380 H     1 <1>   0.1000 
 51 H       -3.3640    -4.2790     0.1770 H     1 <1>   0.1000 
 52 H        1.4850     8.5840     0.4330 H     1 <1>   0.1500 
 53 H        4.0550     5.1890     0.5750 H     1 <1>   0.1500 
 54 H        3.7490     7.6280     0.4410 H     1 <1>   0.1500 
@<TRIPOS>BOND
  1   1   2  2   
  2   2   3  am  
  3   2   4  1   
  4   3   5  1   
  5   3   6  1   
  6   4   7  1   
  7   4  26  1   
  8   4  27  1   
  9   5   8  1   
 10   5  28  1   
 11   5  29  1   
 12   6   9  1   
 13   6  30  1   
 14   6  31  1   
 15   7  10  1   
 16   7  32  1   
 17   7  33  1   
 18   8  11  1   
 19   8  12  1   
 20   8  34  1   
 21   9  11  1   
 22   9  35  1   
 23   9  36  1   
 24  10  13  1   
 25  10  37  1   
 26  10  38  1   
 27  11  14  1   
 28  11  39  1   
 29  12  15  1   
 30  12  40  1   
 31  12  41  1   
 32  13  16  1   
 33  14  17  1   
 34  14  18  1   
 35  14  42  1   
 36  15  18  1   
 37  16  19  ar  
 38  16  20  ar  
 39  17  21  1   
 40  17  22  1   
 41  17  43  1   
 42  18  44  1   
 43  18  45  1   
 44  19  23  ar  
 45  19  46  1   
 46  20  24  ar  
 47  20  47  1   
 48  21  22  1   
 49  21  48  1   
 50  21  49  1   
 51  22  50  1   
 52  22  51  1   
 53  23  25  ar  
 54  23  52  1   
 55  24  25  ar  
 56  24  53  1   
 57  25  54  1   
@<TRIPOS>SUBSTRUCTURE
  1 ****   7 GROUP 4 **** **** 0

# MOE 2024.06 (io_trps.svl 2023.06)
