@<TRIPOS>MOLECULE
NONAME
41 42 1 0 0 
SMALL
USER_CHARGES


@<TRIPOS>ATOM
  1 S        0.4980     0.2200    -1.5570 S.o2  1 <1>   1.3330 
  2 O       -0.3970     1.0930    -2.2820 O.2   1 <1>  -0.6500 
  3 O        0.8480    -1.0690    -2.1110 O.2   1 <1>  -0.6500 
  4 N       -0.1920    -0.0430    -0.0260 N.am  1 <1>  -0.8490 
  5 C        2.0180     1.1010    -1.1930 C.3   1 <1>  -0.0550 
  6 C       -1.0490    -1.2320    -0.0040 C.3   1 <1>   0.1160 
  7 C       -0.9400     1.1140     0.4790 C.3   1 <1>   0.1160 
  8 C        3.0900     0.2480    -0.4800 C.3   1 <1>  -0.0800 
  9 C        4.4430     0.9250    -0.3190 C.3   1 <1>   0.2200 
 10 C        2.7500    -0.1700     0.9570 C.3   1 <1>   0.1200 
 11 N        4.2820     2.3310     0.1250 N.am  1 <1>  -0.7300 
 12 C        5.0180     0.1160     0.8340 C.3   1 <1>   0.1200 
 13 O        3.9390    -0.0930     1.6920 O.3   1 <1>  -0.5600 
 14 C        4.3960     3.4330    -0.6740 C.2   1 <1>   0.5440 
 15 O        4.5520     3.2510    -1.8650 O.2   1 <1>  -0.5700 
 16 C        4.3250     4.7780    -0.1240 C.ar  1 <1>   0.0860 
 17 C        3.7960     5.0370     1.1480 C.ar  1 <1>  -0.1500 
 18 C        4.7890     5.8720    -0.8650 C.ar  1 <1>  -0.1500 
 19 C        3.7390     6.3220     1.6620 C.ar  1 <1>  -0.1500 
 20 C        4.7390     7.1630    -0.3680 C.ar  1 <1>  -0.1500 
 21 C        4.2140     7.3660     0.8930 C.ar  1 <1>   0.1900 
 22 F        4.1640     8.5770     1.3710 F     1 <1>  -0.1900 
 23 H        2.4350     1.4460    -2.1200 H     1 <1>   0.0800 
 24 H        1.7920     1.9690    -0.6060 H     1 <1>   0.0800 
 25 H       -1.4630    -1.3770     0.9800 H     1 <1>   0.0800 
 26 H       -0.4740    -2.1070    -0.2570 H     1 <1>   0.0800 
 27 H       -1.8510    -1.1280    -0.7160 H     1 <1>   0.0800 
 28 H       -1.2750     0.9270     1.4850 H     1 <1>   0.0800 
 29 H       -1.7970     1.3110    -0.1440 H     1 <1>   0.0800 
 30 H       -0.3120     1.9880     0.4880 H     1 <1>   0.0800 
 31 H        3.2410    -0.6510    -1.0520 H     1 <1>   0.0800 
 32 H        5.0500     0.8680    -1.2080 H     1 <1>   0.0800 
 33 H        2.3740    -1.1790     1.0000 H     1 <1>   0.0800 
 34 H        2.0430     0.5000     1.4140 H     1 <1>   0.0800 
 35 H        4.1680     2.4240     1.1360 H     1 <1>   0.3700 
 36 H        5.8070     0.6290     1.3550 H     1 <1>   0.0800 
 37 H        5.3640    -0.8450     0.4940 H     1 <1>   0.0800 
 38 H        3.4180     4.2290     1.7470 H     1 <1>   0.1500 
 39 H        5.1950     5.7010    -1.8480 H     1 <1>   0.1500 
 40 H        3.3350     6.5180     2.6390 H     1 <1>   0.1500 
 41 H        5.0990     7.9980    -0.9430 H     1 <1>   0.1500 
@<TRIPOS>BOND
  1   1   2  2   
  2   1   3  2   
  3   1   4  am  
  4   1   5  1   
  5   4   6  1   
  6   4   7  1   
  7   5   8  1   
  8   5  23  1   
  9   5  24  1   
 10   6  25  1   
 11   6  26  1   
 12   6  27  1   
 13   7  28  1   
 14   7  29  1   
 15   7  30  1   
 16   8   9  1   
 17   8  10  1   
 18   8  31  1   
 19   9  11  1   
 20   9  12  1   
 21   9  32  1   
 22  10  13  1   
 23  10  33  1   
 24  10  34  1   
 25  11  14  am  
 26  11  35  1   
 27  12  13  1   
 28  12  36  1   
 29  12  37  1   
 30  14  15  2   
 31  14  16  1   
 32  16  17  ar  
 33  16  18  ar  
 34  17  19  ar  
 35  17  38  1   
 36  18  20  ar  
 37  18  39  1   
 38  19  21  ar  
 39  19  40  1   
 40  20  21  ar  
 41  20  41  1   
 42  21  22  1   
@<TRIPOS>SUBSTRUCTURE
  1 ****  11 GROUP 4 **** **** 0

# MOE 2024.06 (io_trps.svl 2023.06)
