@<TRIPOS>MOLECULE
NONAME
58 60 1 0 0 
SMALL
USER_CHARGES


@<TRIPOS>ATOM
  1 O        0.7180     1.1000    -2.5100 O.2   1 <1>  -0.5700 
  2 C        0.6000     2.0860    -1.8030 C.2   1 <1>   0.5440 
  3 N       -0.6480     2.6510    -1.6380 N.am  1 <1>  -0.6600 
  4 C        1.7800     2.6300    -1.1700 C.ar  1 <1>   0.0860 
  5 C       -0.9120     3.8670    -0.8270 C.3   1 <1>   0.1400 
  6 C       -1.8810     2.0460    -2.2030 C.3   1 <1>   0.1400 
  7 C        2.0330     2.4550     0.1950 C.ar  1 <1>   0.0820 
  8 C        2.7210     3.3370    -1.9170 C.ar  1 <1>  -0.1500 
  9 C       -1.8350     3.5010     0.3380 C.3   1 <1>  -0.1600 
 10 C       -2.8110     1.6480    -1.0540 C.3   1 <1>  -0.1600 
 11 O        1.1560     1.7800     0.9650 O.3   1 <1>  -0.3620 
 12 C        3.1710     2.9860     0.7850 C.ar  1 <1>  -0.1500 
 13 C        3.8590     3.8630    -1.3330 C.ar  1 <1>  -0.1500 
 14 C       -3.1400     2.8350    -0.1280 C.3   1 <1>   0.2800 
 15 C        1.4990     0.4670     1.3680 C.3   1 <1>   0.1200 
 16 C        4.0850     3.6890     0.0220 C.ar  1 <1>  -0.1500 
 17 O       -3.8200     3.7920    -0.9050 O.3   1 <1>  -0.5600 
 18 C       -3.9620     2.3930     1.1050 C.3   1 <1>  -0.1600 
 19 C        1.3170    -0.4990     0.1980 C.3   1 <1>   0.1200 
 20 C       -5.1640     4.0850    -0.6600 C.3   1 <1>   0.1200 
 21 C       -5.4350     2.0610     0.8020 C.3   1 <1>   0.2800 
 22 O        1.5510    -1.7940     0.6540 O.3   1 <1>  -0.5600 
 23 C       -5.9470     2.7920    -0.4430 C.3   1 <1>  -0.1600 
 24 O       -6.1710     2.5200     1.8700 O.3   1 <1>  -0.6800 
 25 C       -5.7120     0.5590     0.7310 C.3   1 <1>  -0.2400 
 26 C        1.4310    -2.7540    -0.3400 C.3   1 <1>   0.1200 
 27 C        1.7170    -4.1100     0.2930 C.3   1 <1>  -0.2400 
 28 H       -1.3880     4.6060    -1.4490 H     1 <1>   0.0800 
 29 H        0.0010     4.2900    -0.4480 H     1 <1>   0.0800 
 30 H       -1.6470     1.1800    -2.7980 H     1 <1>   0.0800 
 31 H       -2.3670     2.7660    -2.8390 H     1 <1>   0.0800 
 32 H        2.5490     3.4680    -2.9720 H     1 <1>   0.1500 
 33 H       -2.0630     4.3890     0.8990 H     1 <1>   0.0800 
 34 H       -1.3050     2.8330     0.9930 H     1 <1>   0.0800 
 35 H       -2.3290     0.8720    -0.4880 H     1 <1>   0.0800 
 36 H       -3.7080     1.2370    -1.4690 H     1 <1>   0.0800 
 37 H        3.3360     2.8500     1.8380 H     1 <1>   0.1500 
 38 H        4.5700     4.4070    -1.9310 H     1 <1>   0.1500 
 39 H        0.8380     0.1950     2.1720 H     1 <1>   0.0800 
 40 H        2.5160     0.4600     1.7150 H     1 <1>   0.0800 
 41 H        4.9690     4.0990     0.4790 H     1 <1>   0.1500 
 42 H       -3.9160     3.1930     1.8230 H     1 <1>   0.0800 
 43 H       -3.4830     1.5470     1.5630 H     1 <1>   0.0800 
 44 H        2.0220    -0.2790    -0.5850 H     1 <1>   0.0800 
 45 H        0.3100    -0.4430    -0.1790 H     1 <1>   0.0800 
 46 H       -5.5410     4.6180    -1.5150 H     1 <1>   0.0800 
 47 H       -5.2190     4.7270     0.2020 H     1 <1>   0.0800 
 48 H       -5.8200     2.1800    -1.3170 H     1 <1>   0.0800 
 49 H       -6.9990     2.9980    -0.3530 H     1 <1>   0.0800 
 50 H       -6.0420     3.4800     1.9710 H     1 <1>   0.4000 
 51 H       -5.1600     0.1070    -0.0700 H     1 <1>   0.0800 
 52 H       -6.7590     0.3840     0.5610 H     1 <1>   0.0800 
 53 H       -5.4250     0.0830     1.6520 H     1 <1>   0.0800 
 54 H        2.1440    -2.5400    -1.1200 H     1 <1>   0.0800 
 55 H        0.4310    -2.7210    -0.7380 H     1 <1>   0.0800 
 56 H        2.7130    -4.1250     0.6970 H     1 <1>   0.0800 
 57 H        1.6330    -4.8830    -0.4480 H     1 <1>   0.0800 
 58 H        1.0080    -4.3060     1.0780 H     1 <1>   0.0800 
@<TRIPOS>BOND
  1   1   2  2   
  2   2   3  am  
  3   2   4  1   
  4   3   5  1   
  5   3   6  1   
  6   4   7  ar  
  7   4   8  ar  
  8   5   9  1   
  9   5  28  1   
 10   5  29  1   
 11   6  10  1   
 12   6  30  1   
 13   6  31  1   
 14   7  11  1   
 15   7  12  ar  
 16   8  13  ar  
 17   8  32  1   
 18   9  14  1   
 19   9  33  1   
 20   9  34  1   
 21  10  14  1   
 22  10  35  1   
 23  10  36  1   
 24  11  15  1   
 25  12  16  ar  
 26  12  37  1   
 27  13  16  ar  
 28  13  38  1   
 29  14  17  1   
 30  14  18  1   
 31  15  19  1   
 32  15  39  1   
 33  15  40  1   
 34  16  41  1   
 35  17  20  1   
 36  18  21  1   
 37  18  42  1   
 38  18  43  1   
 39  19  22  1   
 40  19  44  1   
 41  19  45  1   
 42  20  23  1   
 43  20  46  1   
 44  20  47  1   
 45  21  23  1   
 46  21  24  1   
 47  21  25  1   
 48  22  26  1   
 49  23  48  1   
 50  23  49  1   
 51  24  50  1   
 52  25  51  1   
 53  25  52  1   
 54  25  53  1   
 55  26  27  1   
 56  26  54  1   
 57  26  55  1   
 58  27  56  1   
 59  27  57  1   
 60  27  58  1   
@<TRIPOS>SUBSTRUCTURE
  1 ****   3 GROUP 4 **** **** 0

# MOE 2024.06 (io_trps.svl 2023.06)
