@<TRIPOS>MOLECULE
NONAME
48 50 1 0 0 
SMALL
USER_CHARGES


@<TRIPOS>ATOM
  1 O       -0.1090     0.3550     0.0280 O.3   1 <1>  -0.2800 
  2 C        0.9250     1.0780    -0.2470 C.2   1 <1>   0.5620 
  3 C       -1.1180     1.0220    -0.4710 C.2   1 <1>   0.4250 
  4 N        0.6150     2.1420    -0.8990 N.2   1 <1>  -0.3380 
  5 N        2.1890     0.6800     0.1420 N.pl3 1 <1>  -0.8220 
  6 N       -0.7060     2.1030    -1.0470 N.2   1 <1>  -0.3380 
  7 C       -2.4540     0.4890    -0.3510 C.ar  1 <1>   0.0530 
  8 C        3.3860     1.3640    -0.3790 C.3   1 <1>   0.2090 
  9 C        2.4900    -0.6950     0.5670 C.3   1 <1>   0.2090 
 10 C       -3.5680     1.2930    -0.0620 C.ar  1 <1>   0.0830 
 11 C       -2.6700    -0.8800    -0.5260 C.ar  1 <1>  -0.1500 
 12 C        4.5400     0.3530    -0.2390 C.3   1 <1>   0.4230 
 13 C        4.0070    -0.7100     0.7260 C.3   1 <1>  -0.1600 
 14 O       -3.3550     2.6170     0.1420 O.3   1 <1>  -0.3630 
 15 C       -4.8390     0.7300     0.0250 C.ar  1 <1>  -0.1500 
 16 C       -3.9310    -1.4340    -0.4340 C.ar  1 <1>  -0.1500 
 17 N        5.8190     0.9550     0.2780 N.4   1 <1>  -0.9590 
 18 C       -4.4050     3.5470     0.2700 C.3   1 <1>   0.1200 
 19 C       -5.0200    -0.6280    -0.1610 C.ar  1 <1>  -0.1500 
 20 C        6.3090     2.0750    -0.5910 C.3   1 <1>   0.2630 
 21 C        6.9030    -0.0690     0.4360 C.3   1 <1>   0.2630 
 22 C       -3.7920     4.9440     0.3660 C.3   1 <1>  -0.1600 
 23 C       -4.8730     6.0220     0.5010 C.3   1 <1>  -0.2400 
 24 H        3.5580     2.2460     0.2130 H     1 <1>   0.0800 
 25 H        3.2400     1.6380    -1.4110 H     1 <1>   0.0800 
 26 H        2.1730    -1.3840    -0.2000 H     1 <1>   0.0800 
 27 H        1.9860    -0.9280     1.4910 H     1 <1>   0.0800 
 28 H       -1.8320    -1.5190    -0.7430 H     1 <1>   0.1500 
 29 H        4.7070    -0.0960    -1.2040 H     1 <1>   0.0800 
 30 H        4.3970    -1.6880     0.5110 H     1 <1>   0.0800 
 31 H        4.2300    -0.4480     1.7450 H     1 <1>   0.0800 
 32 H       -5.7010     1.3300     0.2430 H     1 <1>   0.1500 
 33 H       -4.0700    -2.4930    -0.5770 H     1 <1>   0.1500 
 34 H        5.6070     1.3430     1.2110 H     1 <1>   0.4500 
 35 H       -4.9600     3.3130     1.1620 H     1 <1>   0.0800 
 36 H       -5.0360     3.4680    -0.5980 H     1 <1>   0.0800 
 37 H       -6.0040    -1.0570    -0.0910 H     1 <1>   0.1500 
 38 H        6.5160     1.7150    -1.5870 H     1 <1>   0.0800 
 39 H        7.2140     2.4950    -0.1840 H     1 <1>   0.0800 
 40 H        5.5710     2.8580    -0.6540 H     1 <1>   0.0800 
 41 H        7.1350    -0.5190    -0.5160 H     1 <1>   0.0800 
 42 H        6.5940    -0.8440     1.1180 H     1 <1>   0.0800 
 43 H        7.7970     0.3900     0.8260 H     1 <1>   0.0800 
 44 H       -3.2090     5.1320    -0.5200 H     1 <1>   0.0800 
 45 H       -3.1380     4.9840     1.2200 H     1 <1>   0.0800 
 46 H       -5.5260     6.0100    -0.3540 H     1 <1>   0.0800 
 47 H       -4.4130     6.9930     0.5650 H     1 <1>   0.0800 
 48 H       -5.4570     5.8610     1.3900 H     1 <1>   0.0800 
@<TRIPOS>BOND
  1   1   2  1   
  2   1   3  1   
  3   2   4  2   
  4   2   5  1   
  5   3   6  2   
  6   3   7  1   
  7   4   6  1   
  8   5   8  1   
  9   5   9  1   
 10   7  10  ar  
 11   7  11  ar  
 12   8  12  1   
 13   8  24  1   
 14   8  25  1   
 15   9  13  1   
 16   9  26  1   
 17   9  27  1   
 18  10  14  1   
 19  10  15  ar  
 20  11  16  ar  
 21  11  28  1   
 22  12  13  1   
 23  12  17  1   
 24  12  29  1   
 25  13  30  1   
 26  13  31  1   
 27  14  18  1   
 28  15  19  ar  
 29  15  32  1   
 30  16  19  ar  
 31  16  33  1   
 32  17  20  1   
 33  17  21  1   
 34  17  34  1   
 35  18  22  1   
 36  18  35  1   
 37  18  36  1   
 38  19  37  1   
 39  20  38  1   
 40  20  39  1   
 41  20  40  1   
 42  21  41  1   
 43  21  42  1   
 44  21  43  1   
 45  22  23  1   
 46  22  44  1   
 47  22  45  1   
 48  23  46  1   
 49  23  47  1   
 50  23  48  1   
@<TRIPOS>SUBSTRUCTURE
  1 ****   1 GROUP 4 **** **** 0

# MOE 2024.06 (io_trps.svl 2023.06)
