@<TRIPOS>MOLECULE
NONAME
43 44 1 0 0 
SMALL
USER_CHARGES


@<TRIPOS>ATOM
  1 O        2.3560    -0.0660    -1.1330 O.2   1 <1>  -0.5700 
  2 C        2.5950    -0.8120    -0.2060 C.2   1 <1>   0.7150 
  3 N        3.4650    -0.4150     0.7630 N.am  1 <1>  -0.4930 
  4 C        1.9930    -2.1080    -0.0940 C.2   1 <1>  -0.2370 
  5 C        4.2240     0.7520     0.9500 C.2   1 <1>   0.3520 
  6 N        0.9280    -2.5570    -0.8170 N.pl3 1 <1>   0.3140 
  7 C        2.3300    -3.1470     0.7240 C.2   1 <1>  -0.1500 
  8 N        5.0140     0.8180     1.9480 N.2   1 <1>  -0.4100 
  9 C        4.3160     1.9610     0.2370 C.2   1 <1>   0.3520 
 10 N        0.5920    -3.8130    -0.4830 N.2   1 <1>  -0.7070 
 11 C        0.1320    -1.8520    -1.8530 C.3   1 <1>   0.0960 
 12 C        1.4370    -4.1600     0.4360 C.2   1 <1>   0.1080 
 13 O        5.5560     1.9940     1.8460 O.3   1 <1>   0.2420 
 14 N        5.1630     2.7070     0.8360 N.2   1 <1>  -0.4100 
 15 N        3.6210     2.3340    -0.9290 N.am  1 <1>  -0.4930 
 16 C       -0.8710    -0.8770    -1.2220 C.3   1 <1>  -0.2400 
 17 C        1.4170    -5.5290     1.0950 C.3   1 <1>   0.0210 
 18 C        3.5870     3.4730    -1.6620 C.2   1 <1>   0.5690 
 19 C        2.6770    -6.3600     0.7820 C.3   1 <1>  -0.0800 
 20 O        2.8830     3.5290    -2.6380 O.2   1 <1>  -0.5700 
 21 C        4.4020     4.6930    -1.3000 C.3   1 <1>  -0.1790 
 22 C        2.8070    -6.6450    -0.7210 C.3   1 <1>  -0.2400 
 23 C        2.6490    -7.6840     1.5570 C.3   1 <1>  -0.2400 
 24 H        3.6030    -1.0950     1.5060 H     1 <1>   0.3700 
 25 H        3.1180    -3.2150     1.4510 H     1 <1>   0.1500 
 26 H       -0.4000    -2.5920    -2.4220 H     1 <1>   0.0800 
 27 H        0.7960    -1.3370    -2.5220 H     1 <1>   0.0800 
 28 H        3.0100     1.6000    -1.3100 H     1 <1>   0.3700 
 29 H       -1.5370    -1.4070    -0.5630 H     1 <1>   0.0800 
 30 H       -1.4550    -0.4090    -1.9940 H     1 <1>   0.0800 
 31 H       -0.3600    -0.1080    -0.6720 H     1 <1>   0.0800 
 32 H        0.5420    -6.0590     0.7630 H     1 <1>   0.0800 
 33 H        1.3290    -5.3890     2.1570 H     1 <1>   0.0800 
 34 H        3.5430    -5.8040     1.0980 H     1 <1>   0.0800 
 35 H        4.1330     5.0350    -0.3190 H     1 <1>   0.0800 
 36 H        4.2120     5.4810    -2.0050 H     1 <1>   0.0800 
 37 H        5.4490     4.4530    -1.3240 H     1 <1>   0.0800 
 38 H        1.9490    -7.1870    -1.0790 H     1 <1>   0.0800 
 39 H        3.6890    -7.2280    -0.9190 H     1 <1>   0.0800 
 40 H        2.8810    -5.7260    -1.2760 H     1 <1>   0.0800 
 41 H        1.7980    -8.2750     1.2650 H     1 <1>   0.0800 
 42 H        2.5940    -7.5000     2.6150 H     1 <1>   0.0800 
 43 H        3.5420    -8.2500     1.3600 H     1 <1>   0.0800 
@<TRIPOS>BOND
  1   1   2  2   
  2   2   3  am  
  3   2   4  1   
  4   3   5  1   
  5   3  24  1   
  6   4   6  1   
  7   4   7  2   
  8   5   8  2   
  9   5   9  1   
 10   6  10  1   
 11   6  11  1   
 12   7  12  1   
 13   7  25  1   
 14   8  13  1   
 15   9  14  2   
 16   9  15  1   
 17  10  12  2   
 18  11  16  1   
 19  11  26  1   
 20  11  27  1   
 21  12  17  1   
 22  13  14  1   
 23  15  18  am  
 24  15  28  1   
 25  16  29  1   
 26  16  30  1   
 27  16  31  1   
 28  17  19  1   
 29  17  32  1   
 30  17  33  1   
 31  18  20  2   
 32  18  21  1   
 33  19  22  1   
 34  19  23  1   
 35  19  34  1   
 36  21  35  1   
 37  21  36  1   
 38  21  37  1   
 39  22  38  1   
 40  22  39  1   
 41  22  40  1   
 42  23  41  1   
 43  23  42  1   
 44  23  43  1   
@<TRIPOS>SUBSTRUCTURE
  1 ****   2 GROUP 4 **** **** 0

# MOE 2024.06 (io_trps.svl 2023.06)
