@<TRIPOS>MOLECULE
NONAME
34 36 1 0 0 
SMALL
USER_CHARGES


@<TRIPOS>ATOM
  1 F        1.4700     0.0990     1.3010 F     1 <1>  -0.1900 
  2 C        2.3550     0.9490     0.8380 C.ar  1 <1>   0.1900 
  3 C        3.0520     0.6760    -0.3110 C.ar  1 <1>   0.1600 
  4 C        2.6010     2.1280     1.4950 C.ar  1 <1>   0.1600 
  5 N        3.9420     1.5230    -0.7810 N.ar  1 <1>  -0.6200 
  6 N        3.4870     2.9870     1.0380 N.ar  1 <1>  -0.6200 
  7 C        4.1220     2.6540    -0.0920 C.ar  1 <1>   0.7200 
  8 N        5.0610     3.5490    -0.5760 N.pl3 1 <1>  -0.8380 
  9 C        5.3010     4.8890     0.0570 C.3   1 <1>   0.2090 
 10 C        5.9910     3.2190    -1.7010 C.3   1 <1>   0.2090 
 11 C        6.6640     5.0030     0.7760 C.3   1 <1>   0.2200 
 12 C        7.4410     3.0310    -1.2360 C.3   1 <1>  -0.0190 
 13 N        7.7610     5.2940    -0.2020 N.am  1 <1>  -0.6600 
 14 C        6.9720     3.7830     1.6830 C.3   1 <1>   0.1200 
 15 C        8.1410     4.3750    -1.1450 C.2   1 <1>   0.5690 
 16 C        7.5880     2.1670     0.0340 C.3   1 <1>   0.1200 
 17 C        8.4850     6.5810    -0.0160 C.3   1 <1>   0.0600 
 18 O        7.9400     2.9090     1.1660 O.3   1 <1>  -0.5600 
 19 O        9.0050     4.6110    -1.9590 O.2   1 <1>  -0.5700 
 20 H        2.8750    -0.2430    -0.8410 H     1 <1>   0.1500 
 21 H        2.0660     2.3610     2.3990 H     1 <1>   0.1500 
 22 H        5.2420     5.6510    -0.7010 H     1 <1>   0.0800 
 23 H        4.5290     5.1140     0.7690 H     1 <1>   0.0800 
 24 H        5.6800     2.3200    -2.2030 H     1 <1>   0.0800 
 25 H        5.9490     4.0070    -2.4330 H     1 <1>   0.0800 
 26 H        6.5730     5.8540     1.4270 H     1 <1>   0.0800 
 27 H        7.9250     2.4910    -2.0280 H     1 <1>   0.0800 
 28 H        6.0810     3.2220     1.9040 H     1 <1>   0.0800 
 29 H        7.3620     4.1450     2.6160 H     1 <1>   0.0800 
 30 H        8.3870     1.4630    -0.1190 H     1 <1>   0.0800 
 31 H        6.6930     1.6090     0.2470 H     1 <1>   0.0800 
 32 H        7.8000     7.4040    -0.1130 H     1 <1>   0.0800 
 33 H        9.2610     6.6920    -0.7540 H     1 <1>   0.0800 
 34 H        8.9380     6.6030     0.9590 H     1 <1>   0.0800 
@<TRIPOS>BOND
  1   1   2  1   
  2   2   3  ar  
  3   2   4  ar  
  4   3   5  ar  
  5   3  20  1   
  6   4   6  ar  
  7   4  21  1   
  8   5   7  ar  
  9   6   7  ar  
 10   7   8  1   
 11   8   9  1   
 12   8  10  1   
 13   9  11  1   
 14   9  22  1   
 15   9  23  1   
 16  10  12  1   
 17  10  24  1   
 18  10  25  1   
 19  11  13  1   
 20  11  14  1   
 21  11  26  1   
 22  12  15  1   
 23  12  16  1   
 24  12  27  1   
 25  13  15  am  
 26  13  17  1   
 27  14  18  1   
 28  14  28  1   
 29  14  29  1   
 30  15  19  2   
 31  16  18  1   
 32  16  30  1   
 33  16  31  1   
 34  17  32  1   
 35  17  33  1   
 36  17  34  1   
@<TRIPOS>SUBSTRUCTURE
  1 ****   8 GROUP 4 **** **** 0

# MOE 2024.06 (io_trps.svl 2023.06)
