@<TRIPOS>MOLECULE
NONAME
56 58 1 0 0 
SMALL
USER_CHARGES


@<TRIPOS>ATOM
  1 O        1.8930     1.0840    -2.4890 O.2   1 <1>  -0.5700 
  2 C        2.0470     1.3630    -1.3100 C.2   1 <1>   0.5440 
  3 N        1.7380     2.6410    -0.9000 N.am  1 <1>  -0.6600 
  4 C        2.5270     0.3600    -0.3860 C.ar  1 <1>   0.0860 
  5 C        1.3920     3.0230     0.4890 C.3   1 <1>   0.1400 
  6 C        1.3060     3.6900    -1.8530 C.3   1 <1>   0.1400 
  7 C        2.0130    -0.9520    -0.4030 C.ar  1 <1>   0.4100 
  8 C        3.5150     0.6480     0.5470 C.ar  1 <1>  -0.1500 
  9 C        0.4550     4.2160     0.3430 C.3   1 <1>  -0.1600 
 10 C        0.8590     4.8580    -0.9810 C.3   1 <1>  -0.1600 
 11 N        2.3790    -1.9090     0.4480 N.ar  1 <1>  -0.6200 
 12 N        1.0620    -1.3250    -1.3250 N.pl3 1 <1>  -0.8690 
 13 C        3.9060    -0.3450     1.4150 C.ar  1 <1>  -0.1500 
 14 C        3.3080    -1.5890     1.3270 C.ar  1 <1>   0.1600 
 15 C        0.9160    -2.7050    -1.8590 C.3   1 <1>   0.2090 
 16 C       -0.1990    -3.4610    -1.1130 C.3   1 <1>   0.2000 
 17 O        0.1040    -3.5100     0.2490 O.3   1 <1>  -0.6800 
 18 C       -0.3810    -4.9040    -1.6260 C.3   1 <1>   0.3430 
 19 N       -1.0000    -5.7530    -0.5620 N.4   1 <1>  -0.9590 
 20 C       -0.5420    -7.1660    -0.6300 C.3   1 <1>   0.3430 
 21 C       -2.4710    -5.5500    -0.4780 C.3   1 <1>   0.3430 
 22 C       -0.4910    -7.7580     0.7770 C.3   1 <1>  -0.1600 
 23 C       -3.0670    -6.1510     0.7970 C.3   1 <1>  -0.1600 
 24 C       -1.8150    -8.3550     1.2840 C.3   1 <1>  -0.1600 
 25 C       -3.1030    -7.6860     0.7830 C.3   1 <1>  -0.1600 
 26 H        2.2870     3.3200     1.0080 H     1 <1>   0.0800 
 27 H        0.9150     2.2110     1.0130 H     1 <1>   0.0800 
 28 H        0.4820     3.3180    -2.4380 H     1 <1>   0.0800 
 29 H        2.1150     3.9660    -2.5080 H     1 <1>   0.0800 
 30 H        3.9650     1.6250     0.5820 H     1 <1>   0.1500 
 31 H        0.5370     4.8950     1.1720 H     1 <1>   0.0800 
 32 H       -0.5590     3.8590     0.2810 H     1 <1>   0.0800 
 33 H        0.0530     5.4080    -1.4340 H     1 <1>   0.0800 
 34 H        1.6930     5.5200    -0.8290 H     1 <1>   0.0800 
 35 H        0.9430    -0.5980    -2.0550 H     1 <1>   0.4000 
 36 H        4.6650    -0.1630     2.1550 H     1 <1>   0.1500 
 37 H        3.6180    -2.3570     2.0170 H     1 <1>   0.1500 
 38 H        1.8500    -3.2340    -1.7670 H     1 <1>   0.0800 
 39 H        0.6740    -2.6430    -2.9060 H     1 <1>   0.0800 
 40 H       -1.1190    -2.9150    -1.2220 H     1 <1>   0.0800 
 41 H        0.7620    -2.7780     0.4290 H     1 <1>   0.4000 
 42 H        0.5950    -5.2920    -1.8660 H     1 <1>   0.0800 
 43 H       -0.9740    -4.9150    -2.5250 H     1 <1>   0.0800 
 44 H       -0.6060    -5.3290     0.3030 H     1 <1>   0.4500 
 45 H        0.4550    -7.1930    -1.0390 H     1 <1>   0.0800 
 46 H       -1.1860    -7.7500    -1.2670 H     1 <1>   0.0800 
 47 H       -2.9520    -5.9840    -1.3390 H     1 <1>   0.0800 
 48 H       -2.6790    -4.4920    -0.4770 H     1 <1>   0.0800 
 49 H       -0.1370    -7.0130     1.4680 H     1 <1>   0.0800 
 50 H        0.2400    -8.5480     0.7800 H     1 <1>   0.0800 
 51 H       -4.0840    -5.8040     0.8580 H     1 <1>   0.0800 
 52 H       -2.5580    -5.7800     1.6700 H     1 <1>   0.0800 
 53 H       -1.8040    -8.3260     2.3610 H     1 <1>   0.0800 
 54 H       -1.8570    -9.3950     1.0060 H     1 <1>   0.0800 
 55 H       -3.3360    -8.0360    -0.2080 H     1 <1>   0.0800 
 56 H       -3.9070    -8.0150     1.4210 H     1 <1>   0.0800 
@<TRIPOS>BOND
  1   1   2  2   
  2   2   3  am  
  3   2   4  1   
  4   3   5  1   
  5   3   6  1   
  6   4   7  ar  
  7   4   8  ar  
  8   5   9  1   
  9   5  26  1   
 10   5  27  1   
 11   6  10  1   
 12   6  28  1   
 13   6  29  1   
 14   7  11  ar  
 15   7  12  1   
 16   8  13  ar  
 17   8  30  1   
 18   9  10  1   
 19   9  31  1   
 20   9  32  1   
 21  10  33  1   
 22  10  34  1   
 23  11  14  ar  
 24  12  15  1   
 25  12  35  1   
 26  13  14  ar  
 27  13  36  1   
 28  14  37  1   
 29  15  16  1   
 30  15  38  1   
 31  15  39  1   
 32  16  17  1   
 33  16  18  1   
 34  16  40  1   
 35  17  41  1   
 36  18  19  1   
 37  18  42  1   
 38  18  43  1   
 39  19  20  1   
 40  19  21  1   
 41  19  44  1   
 42  20  22  1   
 43  20  45  1   
 44  20  46  1   
 45  21  23  1   
 46  21  47  1   
 47  21  48  1   
 48  22  24  1   
 49  22  49  1   
 50  22  50  1   
 51  23  25  1   
 52  23  51  1   
 53  23  52  1   
 54  24  25  1   
 55  24  53  1   
 56  24  54  1   
 57  25  55  1   
 58  25  56  1   
@<TRIPOS>SUBSTRUCTURE
  1 ****  12 GROUP 4 **** **** 0

# MOE 2024.06 (io_trps.svl 2023.06)
