@<TRIPOS>MOLECULE
NONAME
39 41 1 0 0 
SMALL
USER_CHARGES


@<TRIPOS>ATOM
  1 S        0.3870     0.1420    -0.5560 S.3   1 <1>  -0.0800 
  2 C       -1.3360     0.2590    -0.2930 C.2   1 <1>  -0.1400 
  3 C        0.5870     1.8290    -0.1400 C.2   1 <1>  -0.1100 
  4 C       -1.6930     1.5020     0.0640 C.2   1 <1>  -0.1810 
  5 C       -2.2200    -0.9550    -0.4770 C.3   1 <1>   0.0200 
  6 C       -0.5920     2.4340     0.1670 C.2   1 <1>  -0.0860 
  7 C       -3.1530     1.8470     0.3340 C.3   1 <1>   0.0210 
  8 C       -3.6040    -0.6670     0.1300 C.3   1 <1>  -0.1600 
  9 C       -0.7350     3.8270     0.5450 C.2   1 <1>   0.7160 
 10 C       -4.0970     0.7540    -0.2080 C.3   1 <1>  -0.1600 
 11 O       -1.6220     4.2000     1.2880 O.2   1 <1>  -0.5700 
 12 N        0.1760     4.7270     0.0500 N.am  1 <1>  -0.4940 
 13 C        0.2510     6.1310     0.2170 C.2   1 <1>  -0.0880 
 14 N        1.3990     6.8120     0.4830 N.pl3 1 <1>   0.3140 
 15 C       -0.7300     7.0630     0.1420 C.2   1 <1>  -0.1810 
 16 N        1.1800     8.1420     0.5750 N.2   1 <1>  -0.7070 
 17 C        2.7410     6.2440     0.7260 C.3   1 <1>   0.0960 
 18 C       -0.0940     8.2770     0.3750 C.2   1 <1>   0.1390 
 19 C       -2.2120     6.8840    -0.1340 C.3   1 <1>  -0.0590 
 20 C        3.4880     5.9950    -0.5910 C.3   1 <1>  -0.2400 
 21 H        1.5930     2.2050    -0.1590 H     1 <1>   0.1500 
 22 H       -1.7790    -1.8100     0.0050 H     1 <1>   0.0800 
 23 H       -2.3110    -1.1620    -1.5280 H     1 <1>   0.0800 
 24 H       -3.4010     2.7860    -0.1290 H     1 <1>   0.0800 
 25 H       -3.2900     1.9530     1.3960 H     1 <1>   0.0800 
 26 H       -3.5400    -0.7630     1.2010 H     1 <1>   0.0800 
 27 H       -4.3100    -1.3970    -0.2250 H     1 <1>   0.0800 
 28 H       -4.1620     0.8520    -1.2790 H     1 <1>   0.0800 
 29 H       -5.0830     0.9050     0.1960 H     1 <1>   0.0800 
 30 H        0.8720     4.3110    -0.5640 H     1 <1>   0.3700 
 31 H        2.6300     5.3290     1.2790 H     1 <1>   0.0800 
 32 H        3.2910     6.9410     1.3320 H     1 <1>   0.0800 
 33 H       -0.5930     9.2310     0.3880 H     1 <1>   0.1500 
 34 H       -2.3820     5.9760    -0.6820 H     1 <1>   0.0800 
 35 H       -2.5850     7.7100    -0.7120 H     1 <1>   0.0800 
 36 H       -2.7480     6.8320     0.7960 H     1 <1>   0.0800 
 37 H        2.9540     5.2950    -1.2070 H     1 <1>   0.0800 
 38 H        4.4660     5.5980    -0.3850 H     1 <1>   0.0800 
 39 H        3.6030     6.9220    -1.1250 H     1 <1>   0.0800 
@<TRIPOS>BOND
  1   1   2  1   
  2   1   3  1   
  3   2   4  2   
  4   2   5  1   
  5   3   6  2   
  6   3  21  1   
  7   4   6  1   
  8   4   7  1   
  9   5   8  1   
 10   5  22  1   
 11   5  23  1   
 12   6   9  1   
 13   7  10  1   
 14   7  24  1   
 15   7  25  1   
 16   8  10  1   
 17   8  26  1   
 18   8  27  1   
 19   9  11  2   
 20   9  12  am  
 21  10  28  1   
 22  10  29  1   
 23  12  13  1   
 24  12  30  1   
 25  13  14  1   
 26  13  15  2   
 27  14  16  1   
 28  14  17  1   
 29  15  18  1   
 30  15  19  1   
 31  16  18  2   
 32  17  20  1   
 33  17  31  1   
 34  17  32  1   
 35  18  33  1   
 36  19  34  1   
 37  19  35  1   
 38  19  36  1   
 39  20  37  1   
 40  20  38  1   
 41  20  39  1   
@<TRIPOS>SUBSTRUCTURE
  1 ****   9 GROUP 4 **** **** 0

# MOE 2024.06 (io_trps.svl 2023.06)
