@<TRIPOS>MOLECULE
NONAME
46 48 1 0 0 
SMALL
USER_CHARGES


@<TRIPOS>ATOM
  1 CL      -2.4330     0.1060    -2.4770 Cl    1 <1>  -0.1770 
  2 C       -2.8010    -1.0490    -1.2090 C.ar  1 <1>   0.1770 
  3 C       -2.9050    -0.7170     0.1490 C.ar  1 <1>   0.0820 
  4 C       -2.9880    -2.3500    -1.6340 C.ar  1 <1>  -0.1500 
  5 O       -2.7510     0.5020     0.7280 O.3   1 <1>  -0.3630 
  6 C       -3.2020    -1.7380     1.0390 C.ar  1 <1>  -0.1500 
  7 C       -3.2840    -3.3820    -0.7440 C.ar  1 <1>   0.0860 
  8 C       -2.4590     1.6930     0.0390 C.3   1 <1>   0.1200 
  9 C       -3.3890    -3.0380     0.6060 C.ar  1 <1>  -0.1500 
 10 C       -3.4740    -4.7430    -1.2190 C.2   1 <1>   0.5440 
 11 C       -2.3820     2.8210     1.0630 C.3   1 <1>  -0.2400 
 12 O       -3.6950    -4.9680    -2.3930 O.2   1 <1>  -0.5700 
 13 N       -3.4180    -5.8070    -0.3660 N.am  1 <1>  -0.7300 
 14 C       -3.5790    -7.2290    -0.7530 C.3   1 <1>   0.2200 
 15 C       -4.9550    -7.7540    -0.3650 C.3   1 <1>  -0.0800 
 16 C       -2.6950    -8.0800     0.1460 C.3   1 <1>   0.1200 
 17 C       -4.7720    -8.1500     1.1050 C.3   1 <1>   0.1200 
 18 C       -6.1380    -6.8020    -0.6250 C.3   1 <1>  -0.0170 
 19 O       -3.3950    -8.1750     1.3490 O.3   1 <1>  -0.5600 
 20 C       -7.4590    -7.4700    -0.2780 C.ar  1 <1>  -0.1430 
 21 C       -8.1080    -7.2360     0.9180 C.ar  1 <1>  -0.1500 
 22 C       -8.0770    -8.3470    -1.1450 C.ar  1 <1>  -0.1500 
 23 C       -9.3060    -7.8790     1.1830 C.ar  1 <1>   0.1600 
 24 C       -9.2760    -8.9370    -0.7830 C.ar  1 <1>   0.1600 
 25 N       -9.9050    -8.7260     0.3620 N.ar  1 <1>  -0.6200 
 26 H       -2.9030    -2.5710    -2.6840 H     1 <1>   0.1500 
 27 H       -3.2880    -1.5000     2.0850 H     1 <1>   0.1500 
 28 H       -1.5140     1.5760    -0.4630 H     1 <1>   0.0800 
 29 H       -3.2460     1.8810    -0.6700 H     1 <1>   0.0800 
 30 H       -3.6270    -3.7910     1.3350 H     1 <1>   0.1500 
 31 H       -1.6050     2.6190     1.7780 H     1 <1>   0.0800 
 32 H       -3.3230     2.9220     1.5730 H     1 <1>   0.0800 
 33 H       -2.1590     3.7480     0.5670 H     1 <1>   0.0800 
 34 H       -3.2090    -5.6780     0.6260 H     1 <1>   0.3700 
 35 H       -3.3580    -7.3700    -1.7980 H     1 <1>   0.0800 
 36 H       -5.1280    -8.6590    -0.9200 H     1 <1>   0.0800 
 37 H       -1.7270    -7.6430     0.3180 H     1 <1>   0.0800 
 38 H       -2.5850    -9.0740    -0.2530 H     1 <1>   0.0800 
 39 H       -5.1830    -9.1240     1.3090 H     1 <1>   0.0800 
 40 H       -5.2070    -7.4260     1.7720 H     1 <1>   0.0800 
 41 H       -6.1430    -6.5160    -1.6630 H     1 <1>   0.0800 
 42 H       -6.0320    -5.9020    -0.0460 H     1 <1>   0.0800 
 43 H       -7.6970    -6.5610     1.6450 H     1 <1>   0.1500 
 44 H       -7.6370    -8.5770    -2.0990 H     1 <1>   0.1500 
 45 H       -9.7990    -7.6850     2.1200 H     1 <1>   0.1500 
 46 H       -9.7440    -9.6190    -1.4730 H     1 <1>   0.1500 
@<TRIPOS>BOND
  1   1   2  1   
  2   2   3  ar  
  3   2   4  ar  
  4   3   5  1   
  5   3   6  ar  
  6   4   7  ar  
  7   4  26  1   
  8   5   8  1   
  9   6   9  ar  
 10   6  27  1   
 11   7   9  ar  
 12   7  10  1   
 13   8  11  1   
 14   8  28  1   
 15   8  29  1   
 16   9  30  1   
 17  10  12  2   
 18  10  13  am  
 19  11  31  1   
 20  11  32  1   
 21  11  33  1   
 22  13  14  1   
 23  13  34  1   
 24  14  15  1   
 25  14  16  1   
 26  14  35  1   
 27  15  17  1   
 28  15  18  1   
 29  15  36  1   
 30  16  19  1   
 31  16  37  1   
 32  16  38  1   
 33  17  19  1   
 34  17  39  1   
 35  17  40  1   
 36  18  20  1   
 37  18  41  1   
 38  18  42  1   
 39  20  21  ar  
 40  20  22  ar  
 41  21  23  ar  
 42  21  43  1   
 43  22  24  ar  
 44  22  44  1   
 45  23  25  ar  
 46  23  45  1   
 47  24  25  ar  
 48  24  46  1   
@<TRIPOS>SUBSTRUCTURE
  1 ****  10 GROUP 4 **** **** 0

# MOE 2024.06 (io_trps.svl 2023.06)
