@<TRIPOS>MOLECULE
NONAME
56 59 1 0 0 
SMALL
USER_CHARGES


@<TRIPOS>ATOM
  1 S        3.1880     0.1270     1.6120 S.3   1 <1>  -0.0800 
  2 C        2.1160     1.4780     1.3140 C.2   1 <1>  -0.1400 
  3 C        4.4770     0.9320     0.7280 C.2   1 <1>  -0.1100 
  4 C        2.7070     2.4380     0.5920 C.2   1 <1>  -0.1810 
  5 C        0.7040     1.5220     1.8310 C.3   1 <1>   0.0200 
  6 C        4.0690     2.1280     0.2600 C.2   1 <1>  -0.1500 
  7 C        1.9480     3.7060     0.1980 C.3   1 <1>   0.4610 
  8 C        0.2500     2.9900     1.7820 C.3   1 <1>   0.1200 
  9 O        0.5820     3.5890     0.5500 O.3   1 <1>  -0.5600 
 10 C        2.5320     4.9430     0.8950 C.3   1 <1>  -0.1600 
 11 C        1.9710     3.8920    -1.3240 C.3   1 <1>  -0.1600 
 12 C        1.8260     6.2220     0.4420 C.3   1 <1>   0.1400 
 13 C        1.2790     5.1890    -1.7490 C.3   1 <1>   0.1400 
 14 N        1.9230     6.3370    -1.0440 N.am  1 <1>  -0.6600 
 15 C        2.5670     7.3380    -1.7380 C.2   1 <1>   0.5690 
 16 O        2.5320     7.3830    -2.9500 O.2   1 <1>  -0.5700 
 17 C        3.3550     8.4750    -1.0240 C.3   1 <1>   0.6270 
 18 N        3.8550     9.5620    -1.9670 N.4   1 <1>  -0.9590 
 19 C        4.5150     7.9440    -0.1760 C.ar  1 <1>  -0.1430 
 20 C        5.0230     9.1160    -2.7930 C.3   1 <1>   0.2630 
 21 C        4.1650    10.8380    -1.2590 C.3   1 <1>   0.2630 
 22 C        5.3050     6.8840    -0.6070 C.ar  1 <1>  -0.1500 
 23 C        4.7770     8.5150     1.0630 C.ar  1 <1>  -0.1500 
 24 C        6.3390     6.4130     0.1810 C.ar  1 <1>  -0.1500 
 25 C        5.8120     8.0410     1.8490 C.ar  1 <1>  -0.1500 
 26 C        6.5980     6.9900     1.4120 C.ar  1 <1>  -0.1430 
 27 C        7.7310     6.4650     2.2770 C.3   1 <1>  -0.0970 
 28 H        5.4180     0.4150     0.6530 H     1 <1>   0.1500 
 29 H        0.6610     1.1600     2.8420 H     1 <1>   0.0800 
 30 H        0.0670     0.9130     1.2150 H     1 <1>   0.0800 
 31 H        4.6770     2.8080    -0.3090 H     1 <1>   0.1500 
 32 H        0.7180     3.5510     2.5720 H     1 <1>   0.0800 
 33 H       -0.8170     3.0530     1.9010 H     1 <1>   0.0800 
 34 H        3.5780     5.0180     0.6650 H     1 <1>   0.0800 
 35 H        2.4550     4.8340     1.9600 H     1 <1>   0.0800 
 36 H        1.4860     3.0510    -1.7860 H     1 <1>   0.0800 
 37 H        2.9850     3.9130    -1.6760 H     1 <1>   0.0800 
 38 H        2.2610     7.0700     0.9380 H     1 <1>   0.0800 
 39 H        0.7860     6.1760     0.7220 H     1 <1>   0.0800 
 40 H        0.2340     5.1510    -1.4890 H     1 <1>   0.0800 
 41 H        1.3490     5.3000    -2.8180 H     1 <1>   0.0800 
 42 H        2.6480     8.9270    -0.3510 H     1 <1>   0.0800 
 43 H        3.0750     9.6980    -2.6310 H     1 <1>   0.4500 
 44 H        5.8790     8.9280    -2.1640 H     1 <1>   0.0800 
 45 H        5.2840     9.8740    -3.5130 H     1 <1>   0.0800 
 46 H        4.7790     8.2100    -3.3250 H     1 <1>   0.0800 
 47 H        4.9820    10.6920    -0.5700 H     1 <1>   0.0800 
 48 H        3.3040    11.1850    -0.7100 H     1 <1>   0.0800 
 49 H        4.4470    11.5990    -1.9690 H     1 <1>   0.0800 
 50 H        5.1270     6.4030    -1.5550 H     1 <1>   0.1500 
 51 H        4.1820     9.3290     1.4400 H     1 <1>   0.1500 
 52 H        6.9430     5.5900    -0.1630 H     1 <1>   0.1500 
 53 H        6.0050     8.4900     2.8090 H     1 <1>   0.1500 
 54 H        8.5420     6.1130     1.6650 H     1 <1>   0.0800 
 55 H        7.3780     5.6510     2.8850 H     1 <1>   0.0800 
 56 H        8.1070     7.2400     2.9210 H     1 <1>   0.0800 
@<TRIPOS>BOND
  1   1   2  1   
  2   1   3  1   
  3   2   4  2   
  4   2   5  1   
  5   3   6  2   
  6   3  28  1   
  7   4   6  1   
  8   4   7  1   
  9   5   8  1   
 10   5  29  1   
 11   5  30  1   
 12   6  31  1   
 13   7   9  1   
 14   7  10  1   
 15   7  11  1   
 16   8   9  1   
 17   8  32  1   
 18   8  33  1   
 19  10  12  1   
 20  10  34  1   
 21  10  35  1   
 22  11  13  1   
 23  11  36  1   
 24  11  37  1   
 25  12  14  1   
 26  12  38  1   
 27  12  39  1   
 28  13  14  1   
 29  13  40  1   
 30  13  41  1   
 31  14  15  am  
 32  15  16  2   
 33  15  17  1   
 34  17  18  1   
 35  17  19  1   
 36  17  42  1   
 37  18  20  1   
 38  18  21  1   
 39  18  43  1   
 40  19  22  ar  
 41  19  23  ar  
 42  20  44  1   
 43  20  45  1   
 44  20  46  1   
 45  21  47  1   
 46  21  48  1   
 47  21  49  1   
 48  22  24  ar  
 49  22  50  1   
 50  23  25  ar  
 51  23  51  1   
 52  24  26  ar  
 53  24  52  1   
 54  25  26  ar  
 55  25  53  1   
 56  26  27  1   
 57  27  54  1   
 58  27  55  1   
 59  27  56  1   
@<TRIPOS>SUBSTRUCTURE
  1 ****  10 GROUP 4 **** **** 0

# MOE 2024.06 (io_trps.svl 2023.06)
