@<TRIPOS>MOLECULE
NONAME
51 53 1 0 0 
SMALL
USER_CHARGES


@<TRIPOS>ATOM
  1 O       -0.0500     0.6890    -0.7200 O.3   1 <1>  -0.5600 
  2 C        0.8760    -0.3680    -0.6780 C.3   1 <1>   0.2000 
  3 C       -0.0520     1.5390     0.3840 C.3   1 <1>   0.1200 
  4 C        2.2530     0.0960    -1.1970 C.3   1 <1>   0.3430 
  5 C        0.3350    -1.5390    -1.5230 C.3   1 <1>   0.1100 
  6 C        0.8290     2.7590     0.1000 C.3   1 <1>  -0.1600 
  7 N        2.7720     1.3560    -0.5580 N.4   1 <1>  -0.9590 
  8 N       -0.4850    -2.4680    -0.7220 N.3   1 <1>  -0.8100 
  9 C        1.9370     2.5350    -0.9280 C.3   1 <1>   0.3430 
 10 C        4.2060     1.5830    -0.8850 C.3   1 <1>   0.4860 
 11 C       -0.7120    -3.7510    -1.4450 C.3   1 <1>   0.2900 
 12 C       -1.7780    -1.8720    -0.3310 C.3   1 <1>   0.0300 
 13 C        4.7350     2.6650     0.0340 C.ar  1 <1>  -0.1440 
 14 C       -1.3480    -4.8360    -0.5810 C.2   1 <1>   0.2980 
 15 C        4.9960     3.9360    -0.4580 C.ar  1 <1>  -0.1500 
 16 C        4.9590     2.3940     1.3780 C.ar  1 <1>  -0.1500 
 17 O       -0.7320    -5.2900     0.4640 O.3   1 <1>  -0.2800 
 18 N       -2.4800    -5.4050    -0.7620 N.2   1 <1>  -0.3380 
 19 C        5.4600     4.9290     0.3870 C.ar  1 <1>  -0.1500 
 20 C        5.4230     3.3880     2.2210 C.ar  1 <1>  -0.1500 
 21 C       -1.5490    -6.1720     0.9370 C.2   1 <1>   0.2980 
 22 N       -2.6110    -6.2810     0.2360 N.2   1 <1>  -0.3380 
 23 C        5.6710     4.6560     1.7260 C.ar  1 <1>  -0.1500 
 24 C       -1.1890    -6.9370     2.1890 C.3   1 <1>  -0.0600 
 25 H        0.9790    -0.7200     0.3350 H     1 <1>   0.0800 
 26 H        0.2760     1.0060     1.2610 H     1 <1>   0.0800 
 27 H       -1.0700     1.8530     0.5500 H     1 <1>   0.0800 
 28 H        2.1800     0.2400    -2.2620 H     1 <1>   0.0800 
 29 H        2.9530    -0.7050    -1.0280 H     1 <1>   0.0800 
 30 H        1.1750    -2.0940    -1.9040 H     1 <1>   0.0800 
 31 H       -0.2250    -1.1650    -2.3640 H     1 <1>   0.0800 
 32 H        1.2500     3.1210     1.0210 H     1 <1>   0.0800 
 33 H        0.1950     3.5450    -0.2710 H     1 <1>   0.0800 
 34 H        2.7220     1.2710     0.4640 H     1 <1>   0.4500 
 35 H        2.5410     3.4260    -0.9740 H     1 <1>   0.0800 
 36 H        1.4950     2.3800    -1.9000 H     1 <1>   0.0800 
 37 H        4.3150     1.8820    -1.9150 H     1 <1>   0.0800 
 38 H        4.7730     0.6800    -0.7270 H     1 <1>   0.0800 
 39 H        0.2290    -4.1340    -1.7970 H     1 <1>   0.0800 
 40 H       -1.3420    -3.5780    -2.3010 H     1 <1>   0.0800 
 41 H       -1.6230    -1.0020     0.2810 H     1 <1>   0.0800 
 42 H       -2.3570    -2.5720     0.2460 H     1 <1>   0.0800 
 43 H       -2.3450    -1.5890    -1.2020 H     1 <1>   0.0800 
 44 H        4.8450     4.1720    -1.4980 H     1 <1>   0.1500 
 45 H        4.7830     1.4130     1.7870 H     1 <1>   0.1500 
 46 H        5.6620     5.9160     0.0050 H     1 <1>   0.1500 
 47 H        5.5980     3.1800     3.2630 H     1 <1>   0.1500 
 48 H        6.0340     5.4290     2.3820 H     1 <1>   0.1500 
 49 H       -0.2800    -7.4850     2.0280 H     1 <1>   0.0800 
 50 H       -1.9770    -7.6250     2.4350 H     1 <1>   0.0800 
 51 H       -1.0520    -6.2510     3.0040 H     1 <1>   0.0800 
@<TRIPOS>BOND
  1   1   2  1   
  2   1   3  1   
  3   2   4  1   
  4   2   5  1   
  5   2  25  1   
  6   3   6  1   
  7   3  26  1   
  8   3  27  1   
  9   4   7  1   
 10   4  28  1   
 11   4  29  1   
 12   5   8  1   
 13   5  30  1   
 14   5  31  1   
 15   6   9  1   
 16   6  32  1   
 17   6  33  1   
 18   7   9  1   
 19   7  10  1   
 20   7  34  1   
 21   8  11  1   
 22   8  12  1   
 23   9  35  1   
 24   9  36  1   
 25  10  13  1   
 26  10  37  1   
 27  10  38  1   
 28  11  14  1   
 29  11  39  1   
 30  11  40  1   
 31  12  41  1   
 32  12  42  1   
 33  12  43  1   
 34  13  15  ar  
 35  13  16  ar  
 36  14  17  1   
 37  14  18  2   
 38  15  19  ar  
 39  15  44  1   
 40  16  20  ar  
 41  16  45  1   
 42  17  21  1   
 43  18  22  1   
 44  19  23  ar  
 45  19  46  1   
 46  20  23  ar  
 47  20  47  1   
 48  21  22  2   
 49  21  24  1   
 50  23  48  1   
 51  24  49  1   
 52  24  50  1   
 53  24  51  1   
@<TRIPOS>SUBSTRUCTURE
  1 ****   2 GROUP 4 **** **** 0

# MOE 2024.06 (io_trps.svl 2023.06)
