@<TRIPOS>MOLECULE
NONAME
41 43 1 0 0 
SMALL
USER_CHARGES


@<TRIPOS>ATOM
  1 F        0.4520    -0.2560     0.8060 F     1 <1>  -0.1900 
  2 C        1.3380    -0.9060     0.0800 C.ar  1 <1>   0.1900 
  3 C        1.1480    -2.2520    -0.2460 C.ar  1 <1>   0.4100 
  4 C        2.4690    -0.2530    -0.3500 C.ar  1 <1>   0.1660 
  5 N        2.0750    -2.8770    -0.9560 N.ar  1 <1>  -0.6200 
  6 N        0.0430    -3.0120     0.1290 N.pl3 1 <1>  -0.8380 
  7 N        3.3830    -0.8890    -1.0660 N.ar  1 <1>  -0.6200 
  8 C        2.7450     1.2120    -0.0360 C.3   1 <1>  -0.0170 
  9 C        3.1250    -2.1620    -1.3180 C.ar  1 <1>   0.4700 
 10 C       -1.3230    -2.4410     0.2740 C.3   1 <1>   0.2090 
 11 C       -0.0510    -4.4670    -0.1750 C.3   1 <1>   0.2090 
 12 C        3.6950     1.3600     1.1590 C.3   1 <1>  -0.2400 
 13 C       -2.2840    -3.6080     0.0310 C.3   1 <1>   0.2000 
 14 C       -1.4590    -4.8720     0.2550 C.3   1 <1>  -0.0800 
 15 O       -3.3600    -3.5850     0.9080 O.3   1 <1>  -0.6800 
 16 C       -2.0210    -6.0910    -0.4960 C.3   1 <1>  -0.0170 
 17 C       -1.1930    -7.3380    -0.2380 C.ar  1 <1>   0.1670 
 18 N       -0.1260    -7.5050    -1.0030 N.ar  1 <1>  -0.6200 
 19 C       -1.5770    -8.2210     0.7610 C.ar  1 <1>  -0.1500 
 20 C        0.5890    -8.5930    -0.7630 C.ar  1 <1>   0.1600 
 21 C       -0.8230    -9.3500     1.0000 C.ar  1 <1>  -0.1500 
 22 C        0.2910    -9.5320     0.2090 C.ar  1 <1>  -0.1500 
 23 H        3.1860     1.6760    -0.9010 H     1 <1>   0.0800 
 24 H        1.8260     1.7300     0.1730 H     1 <1>   0.0800 
 25 H        3.8690    -2.6860    -1.8950 H     1 <1>   0.1500 
 26 H       -1.4380    -2.0510     1.2700 H     1 <1>   0.0800 
 27 H       -1.4840    -1.6620    -0.4510 H     1 <1>   0.0800 
 28 H        0.0830    -4.6220    -1.2330 H     1 <1>   0.0800 
 29 H        0.7020    -5.0210     0.3600 H     1 <1>   0.0800 
 30 H        4.6310     0.8710     0.9490 H     1 <1>   0.0800 
 31 H        3.2620     0.9130     2.0360 H     1 <1>   0.0800 
 32 H        3.8850     2.3990     1.3560 H     1 <1>   0.0800 
 33 H       -2.6630    -3.5610    -0.9760 H     1 <1>   0.0800 
 34 H       -1.4140    -5.0900     1.3080 H     1 <1>   0.0800 
 35 H       -3.0400    -3.6270     1.8300 H     1 <1>   0.4000 
 36 H       -2.0400    -5.8960    -1.5540 H     1 <1>   0.0800 
 37 H       -3.0350    -6.2630    -0.1820 H     1 <1>   0.0800 
 38 H       -2.4560    -8.0290     1.3490 H     1 <1>   0.1500 
 39 H        1.4610    -8.7440    -1.3770 H     1 <1>   0.1500 
 40 H       -1.0910   -10.0560     1.7680 H     1 <1>   0.1500 
 41 H        0.9230   -10.3910     0.3420 H     1 <1>   0.1500 
@<TRIPOS>BOND
  1   1   2  1   
  2   2   3  ar  
  3   2   4  ar  
  4   3   5  ar  
  5   3   6  1   
  6   4   7  ar  
  7   4   8  1   
  8   5   9  ar  
  9   6  10  1   
 10   6  11  1   
 11   7   9  ar  
 12   8  12  1   
 13   8  23  1   
 14   8  24  1   
 15   9  25  1   
 16  10  13  1   
 17  10  26  1   
 18  10  27  1   
 19  11  14  1   
 20  11  28  1   
 21  11  29  1   
 22  12  30  1   
 23  12  31  1   
 24  12  32  1   
 25  13  14  1   
 26  13  15  1   
 27  13  33  1   
 28  14  16  1   
 29  14  34  1   
 30  15  35  1   
 31  16  17  1   
 32  16  36  1   
 33  16  37  1   
 34  17  18  ar  
 35  17  19  ar  
 36  18  20  ar  
 37  19  21  ar  
 38  19  38  1   
 39  20  22  ar  
 40  20  39  1   
 41  21  22  ar  
 42  21  40  1   
 43  22  41  1   
@<TRIPOS>SUBSTRUCTURE
  1 ****  11 GROUP 4 **** **** 0

# MOE 2024.06 (io_trps.svl 2023.06)
