@<TRIPOS>MOLECULE
NONAME
48 50 1 0 0 
SMALL
USER_CHARGES


@<TRIPOS>ATOM
  1 CL      -0.8370     3.6780    -2.2260 Cl    1 <1>  -0.1770 
  2 C       -1.7230     2.6170    -1.1580 C.ar  1 <1>   0.1770 
  3 C       -1.3060     2.4400     0.1590 C.ar  1 <1>   0.0860 
  4 C       -2.8340     1.9710    -1.6680 C.ar  1 <1>  -0.1500 
  5 C       -0.1570     3.1300     0.6950 C.2   1 <1>   0.5440 
  6 C       -2.0480     1.5640     0.9520 C.ar  1 <1>  -0.1500 
  7 C       -3.5590     1.1150    -0.8580 C.ar  1 <1>  -0.1500 
  8 O        0.8630     2.4980     0.8960 O.2   1 <1>  -0.5700 
  9 N       -0.1960     4.4710     1.0230 N.am  1 <1>  -0.6600 
 10 C       -3.1620     0.9110     0.4530 C.ar  1 <1>  -0.1500 
 11 C        1.0380     5.2140     1.4000 C.3   1 <1>   0.1400 
 12 C       -1.4500     5.2760     1.0660 C.3   1 <1>   0.1400 
 13 C        1.1840     6.4600     0.5210 C.3   1 <1>  -0.1600 
 14 C       -1.3020     6.5250     0.1950 C.3   1 <1>  -0.1600 
 15 C       -0.0660     7.3600     0.5930 C.3   1 <1>  -0.0190 
 16 C        0.1060     8.6320    -0.2580 C.2   1 <1>   0.5690 
 17 O       -0.5340     8.7110    -1.2810 O.2   1 <1>  -0.5700 
 18 N        0.9480     9.6570     0.1250 N.am  1 <1>  -0.6600 
 19 C        1.1280    10.8400    -0.8090 C.3   1 <1>   0.2200 
 20 C        1.6400     9.7360     1.4520 C.3   1 <1>   0.0600 
 21 C        2.5790    11.2750    -1.0030 C.3   1 <1>   0.2000 
 22 C        0.4740    12.1080    -0.2500 C.3   1 <1>   0.1200 
 23 O        2.7330    11.8480    -2.2630 O.3   1 <1>  -0.6800 
 24 C        2.7550    12.3810     0.0350 C.3   1 <1>   0.1200 
 25 O        1.4930    12.9530     0.2210 O.3   1 <1>  -0.5600 
 26 H       -3.1240     2.1370    -2.6900 H     1 <1>   0.1500 
 27 H       -1.7370     1.3980     1.9690 H     1 <1>   0.1500 
 28 H       -4.4260     0.6060    -1.2460 H     1 <1>   0.1500 
 29 H       -3.7200     0.2400     1.0840 H     1 <1>   0.1500 
 30 H        0.9730     5.4950     2.4370 H     1 <1>   0.0800 
 31 H        1.9080     4.5930     1.2780 H     1 <1>   0.0800 
 32 H       -2.2930     4.7010     0.7260 H     1 <1>   0.0800 
 33 H       -1.6390     5.5660     2.0860 H     1 <1>   0.0800 
 34 H        2.0560     7.0040     0.8330 H     1 <1>   0.0800 
 35 H        1.3450     6.1490    -0.4970 H     1 <1>   0.0800 
 36 H       -1.2230     6.2240    -0.8350 H     1 <1>   0.0800 
 37 H       -2.1880     7.1280     0.2870 H     1 <1>   0.0800 
 38 H       -0.2240     7.6630     1.6100 H     1 <1>   0.0800 
 39 H        0.7030    10.6080    -1.7700 H     1 <1>   0.0800 
 40 H        1.4080    10.6710     1.9310 H     1 <1>   0.0800 
 41 H        2.7050     9.6660     1.3120 H     1 <1>   0.0800 
 42 H        1.3410     8.9480     2.1150 H     1 <1>   0.0800 
 43 H        3.2850    10.4680    -0.9110 H     1 <1>   0.0800 
 44 H       -0.2090    11.8920     0.5520 H     1 <1>   0.0800 
 45 H       -0.0450    12.6340    -1.0320 H     1 <1>   0.0800 
 46 H        2.2200    12.6800    -2.3060 H     1 <1>   0.4000 
 47 H        3.4500    13.1380    -0.2830 H     1 <1>   0.0800 
 48 H        3.0750    11.9800     0.9780 H     1 <1>   0.0800 
@<TRIPOS>BOND
  1   1   2  1   
  2   2   3  ar  
  3   2   4  ar  
  4   3   5  1   
  5   3   6  ar  
  6   4   7  ar  
  7   4  26  1   
  8   5   8  2   
  9   5   9  am  
 10   6  10  ar  
 11   6  27  1   
 12   7  10  ar  
 13   7  28  1   
 14   9  11  1   
 15   9  12  1   
 16  10  29  1   
 17  11  13  1   
 18  11  30  1   
 19  11  31  1   
 20  12  14  1   
 21  12  32  1   
 22  12  33  1   
 23  13  15  1   
 24  13  34  1   
 25  13  35  1   
 26  14  15  1   
 27  14  36  1   
 28  14  37  1   
 29  15  16  1   
 30  15  38  1   
 31  16  17  2   
 32  16  18  am  
 33  18  19  1   
 34  18  20  1   
 35  19  21  1   
 36  19  22  1   
 37  19  39  1   
 38  20  40  1   
 39  20  41  1   
 40  20  42  1   
 41  21  23  1   
 42  21  24  1   
 43  21  43  1   
 44  22  25  1   
 45  22  44  1   
 46  22  45  1   
 47  23  46  1   
 48  24  25  1   
 49  24  47  1   
 50  24  48  1   
@<TRIPOS>SUBSTRUCTURE
  1 ****  15 GROUP 4 **** **** 0

# MOE 2024.06 (io_trps.svl 2023.06)
