@<TRIPOS>MOLECULE
NONAME
38 39 1 0 0 
SMALL
USER_CHARGES


@<TRIPOS>ATOM
  1 S       -0.6450     0.2040    -0.3900 S.3   1 <1>  -0.2860 
  2 C       -1.6240     1.4290     0.4870 C.2   1 <1>   0.2420 
  3 C       -0.5760    -1.2570     0.7590 C.3   1 <1>   0.1310 
  4 N       -2.2070     1.2000     1.6170 N.2   1 <1>  -0.5650 
  5 N       -1.7960     2.6710    -0.0180 N.pl3 1 <1>   0.0480 
  6 C       -1.0050    -2.5250     0.0340 C.2   1 <1>   0.5690 
  7 C       -2.8060     2.3800     1.8800 C.2   1 <1>   0.0770 
  8 C       -2.5700     3.2830     0.9000 C.2   1 <1>  -0.3020 
  9 C       -1.2590     3.2350    -1.2690 C.3   1 <1>   0.0160 
 10 O       -0.1340    -3.3210    -0.2320 O.2   1 <1>  -0.5700 
 11 N       -2.3210    -2.7710    -0.2860 N.am  1 <1>  -0.6600 
 12 C       -2.7230    -4.0170    -1.0090 C.3   1 <1>   0.1400 
 13 C       -3.4590    -1.8610     0.0220 C.3   1 <1>   0.1400 
 14 C       -3.7880    -4.7800    -0.2080 C.3   1 <1>   0.2000 
 15 C       -4.5040    -2.6050     0.8590 C.3   1 <1>  -0.1600 
 16 O       -4.2310    -5.8640    -0.9530 O.3   1 <1>  -0.6800 
 17 C       -4.9940    -3.8950     0.1630 C.3   1 <1>  -0.0800 
 18 C       -5.9880    -4.6830     1.0330 C.3   1 <1>   0.1200 
 19 O       -7.0860    -3.8910     1.3300 O.3   1 <1>  -0.6800 
 20 H        0.4440    -1.3440     1.0840 H     1 <1>   0.0800 
 21 H       -1.2030    -1.0720     1.6080 H     1 <1>   0.0800 
 22 H       -3.3860     2.5220     2.7770 H     1 <1>   0.1500 
 23 H       -2.9000     4.3020     0.8130 H     1 <1>   0.1500 
 24 H       -1.6010     4.2470    -1.3860 H     1 <1>   0.0800 
 25 H       -1.5970     2.6420    -2.1000 H     1 <1>   0.0800 
 26 H       -0.1850     3.2190    -1.2320 H     1 <1>   0.0800 
 27 H       -3.1150    -3.7400    -1.9720 H     1 <1>   0.0800 
 28 H       -1.8720    -4.6590    -1.1590 H     1 <1>   0.0800 
 29 H       -3.1330    -0.9920     0.5610 H     1 <1>   0.0800 
 30 H       -3.8990    -1.5260    -0.9020 H     1 <1>   0.0800 
 31 H       -3.3290    -5.1740     0.6840 H     1 <1>   0.0800 
 32 H       -4.0740    -2.8430     1.8170 H     1 <1>   0.0800 
 33 H       -5.3320    -1.9400     1.0260 H     1 <1>   0.0800 
 34 H       -4.6970    -5.5610    -1.7560 H     1 <1>   0.4000 
 35 H       -5.4930    -3.6130    -0.7490 H     1 <1>   0.0800 
 36 H       -5.5340    -4.9960     1.9580 H     1 <1>   0.0800 
 37 H       -6.3480    -5.5530     0.5100 H     1 <1>   0.0800 
 38 H       -6.8240    -3.1410     1.8960 H     1 <1>   0.4000 
@<TRIPOS>BOND
  1   1   2  1   
  2   1   3  1   
  3   2   4  2   
  4   2   5  1   
  5   3   6  1   
  6   3  20  1   
  7   3  21  1   
  8   4   7  1   
  9   5   8  1   
 10   5   9  1   
 11   6  10  2   
 12   6  11  am  
 13   7   8  2   
 14   7  22  1   
 15   8  23  1   
 16   9  24  1   
 17   9  25  1   
 18   9  26  1   
 19  11  12  1   
 20  11  13  1   
 21  12  14  1   
 22  12  27  1   
 23  12  28  1   
 24  13  15  1   
 25  13  29  1   
 26  13  30  1   
 27  14  16  1   
 28  14  17  1   
 29  14  31  1   
 30  15  17  1   
 31  15  32  1   
 32  15  33  1   
 33  16  34  1   
 34  17  18  1   
 35  17  35  1   
 36  18  19  1   
 37  18  36  1   
 38  18  37  1   
 39  19  38  1   
@<TRIPOS>SUBSTRUCTURE
  1 ****  13 GROUP 4 **** **** 0

# MOE 2024.06 (io_trps.svl 2023.06)
