@<TRIPOS>MOLECULE
NONAME
59 62 1 0 0 
SMALL
USER_CHARGES


@<TRIPOS>ATOM
  1 S       -2.8000     3.2350    -1.6490 S.3   1 <1>  -0.0800 
  2 C       -2.9770     3.4660     0.0860 C.2   1 <1>  -0.1400 
  3 C       -1.9890     4.7810    -1.8190 C.2   1 <1>  -0.1400 
  4 C       -2.4360     4.6410     0.4600 C.2   1 <1>  -0.1500 
  5 C       -3.6730     2.3720     0.8700 C.3   1 <1>   0.5230 
  6 C       -1.8750     5.3880    -0.6240 C.2   1 <1>  -0.1500 
  7 C       -1.5440     5.1820    -3.2100 C.3   1 <1>  -0.0600 
  8 N       -4.9890     2.0610     0.2450 N.4   1 <1>  -0.9590 
  9 C       -5.8240     3.2990     0.0890 C.3   1 <1>   0.3430 
 10 C       -5.6860     0.9220     0.9340 C.3   1 <1>   0.3430 
 11 C       -7.2860     2.9080    -0.0380 C.3   1 <1>  -0.1600 
 12 C       -6.6750     1.4610     1.9630 C.3   1 <1>  -0.1600 
 13 C       -7.7970     2.2710     1.2790 C.3   1 <1>   0.2800 
 14 O       -8.7390     1.3120     0.8890 O.3   1 <1>  -0.5600 
 15 C       -8.3520     3.3020     2.3040 C.3   1 <1>   0.1400 
 16 C      -10.1100     1.5190     1.0970 C.3   1 <1>   0.1200 
 17 N       -9.2550     4.3390     1.7190 N.am  1 <1>  -0.6600 
 18 C      -10.6340     2.7210     0.3110 C.3   1 <1>  -0.0990 
 19 C      -10.2550     4.1050     0.8100 C.2   1 <1>   0.5690 
 20 C       -8.8630     5.7500     2.0540 C.3   1 <1>   0.2840 
 21 O      -10.8720     5.0210     0.3240 O.2   1 <1>  -0.5700 
 22 C       -7.5360     6.1180     1.3890 C.ar  1 <1>   0.1670 
 23 N       -6.4400     6.0920     2.1450 N.ar  1 <1>  -0.6200 
 24 C       -7.5290     6.4400     0.0430 C.ar  1 <1>  -0.1500 
 25 C       -5.3170     6.4610     1.5480 C.ar  1 <1>   0.1600 
 26 C       -6.3410     6.7590    -0.5800 C.ar  1 <1>   0.0830 
 27 C       -5.2070     6.7890     0.2110 C.ar  1 <1>  -0.1500 
 28 O       -6.3590     7.0100    -1.9050 O.3   1 <1>  -0.3620 
 29 C       -5.1960     7.4040    -2.6000 C.3   1 <1>   0.0400 
 30 H       -2.3940     5.0320     1.4630 H     1 <1>   0.1500 
 31 H       -3.8140     2.6950     1.8890 H     1 <1>   0.0800 
 32 H       -3.0510     1.4920     0.8730 H     1 <1>   0.0800 
 33 H       -1.4060     6.3430    -0.4540 H     1 <1>   0.1500 
 34 H       -2.3920     5.2350    -3.8690 H     1 <1>   0.0800 
 35 H       -0.8490     4.4580    -3.5960 H     1 <1>   0.0800 
 36 H       -1.0630     6.1430    -3.1850 H     1 <1>   0.0800 
 37 H       -4.7620     1.7530    -0.7110 H     1 <1>   0.4500 
 38 H       -5.5110     3.8540    -0.7810 H     1 <1>   0.0800 
 39 H       -5.7100     3.9370     0.9510 H     1 <1>   0.0800 
 40 H       -4.9700     0.2690     1.4060 H     1 <1>   0.0800 
 41 H       -6.2380     0.3450     0.2080 H     1 <1>   0.0800 
 42 H       -7.3870     2.2170    -0.8560 H     1 <1>   0.0800 
 43 H       -7.8480     3.7780    -0.3090 H     1 <1>   0.0800 
 44 H       -6.1320     2.0670     2.6660 H     1 <1>   0.0800 
 45 H       -7.1070     0.6460     2.5170 H     1 <1>   0.0800 
 46 H       -7.5140     3.8040     2.7510 H     1 <1>   0.0800 
 47 H       -8.8540     2.7980     3.1100 H     1 <1>   0.0800 
 48 H      -10.3170     1.6060     2.1490 H     1 <1>   0.0800 
 49 H      -10.6080     0.6320     0.7440 H     1 <1>   0.0800 
 50 H      -11.7070     2.6740     0.3270 H     1 <1>   0.0800 
 51 H      -10.3350     2.6300    -0.7170 H     1 <1>   0.0800 
 52 H       -8.7710     5.8510     3.1210 H     1 <1>   0.0800 
 53 H       -9.6200     6.4450     1.7350 H     1 <1>   0.0800 
 54 H       -8.4430     6.4360    -0.5260 H     1 <1>   0.1500 
 55 H       -4.4330     6.5010     2.1620 H     1 <1>   0.1500 
 56 H       -4.2490     7.0630    -0.1880 H     1 <1>   0.1500 
 57 H       -5.4590     7.5570    -3.6310 H     1 <1>   0.0800 
 58 H       -4.4590     6.6250    -2.5220 H     1 <1>   0.0800 
 59 H       -4.8310     8.3240    -2.1770 H     1 <1>   0.0800 
@<TRIPOS>BOND
  1   1   2  1   
  2   1   3  1   
  3   2   4  2   
  4   2   5  1   
  5   3   6  2   
  6   3   7  1   
  7   4   6  1   
  8   4  30  1   
  9   5   8  1   
 10   5  31  1   
 11   5  32  1   
 12   6  33  1   
 13   7  34  1   
 14   7  35  1   
 15   7  36  1   
 16   8   9  1   
 17   8  10  1   
 18   8  37  1   
 19   9  11  1   
 20   9  38  1   
 21   9  39  1   
 22  10  12  1   
 23  10  40  1   
 24  10  41  1   
 25  11  13  1   
 26  11  42  1   
 27  11  43  1   
 28  12  13  1   
 29  12  44  1   
 30  12  45  1   
 31  13  14  1   
 32  13  15  1   
 33  14  16  1   
 34  15  17  1   
 35  15  46  1   
 36  15  47  1   
 37  16  18  1   
 38  16  48  1   
 39  16  49  1   
 40  17  19  am  
 41  17  20  1   
 42  18  19  1   
 43  18  50  1   
 44  18  51  1   
 45  19  21  2   
 46  20  22  1   
 47  20  52  1   
 48  20  53  1   
 49  22  23  ar  
 50  22  24  ar  
 51  23  25  ar  
 52  24  26  ar  
 53  24  54  1   
 54  25  27  ar  
 55  25  55  1   
 56  26  27  ar  
 57  26  28  1   
 58  27  56  1   
 59  28  29  1   
 60  29  57  1   
 61  29  58  1   
 62  29  59  1   
@<TRIPOS>SUBSTRUCTURE
  1 ****   9 GROUP 4 **** **** 0

# MOE 2024.06 (io_trps.svl 2023.06)
