@<TRIPOS>MOLECULE
NONAME
50 53 1 0 0 
SMALL
USER_CHARGES


@<TRIPOS>ATOM
  1 O        0.3850    -0.1940     0.4230 O.2   1 <1>  -0.5700 
  2 C        1.4540    -0.7700     0.5120 C.2   1 <1>   0.5440 
  3 N        2.6120    -0.0150     0.5120 N.am  1 <1>  -0.6600 
  4 C        1.4720    -2.2180     0.6000 C.ar  1 <1>   0.0860 
  5 C        3.9340    -0.5930     0.1100 C.3   1 <1>   0.1400 
  6 C        2.5150     1.4470     0.7800 C.3   1 <1>   0.1400 
  7 C        0.7130    -2.9950    -0.2770 C.ar  1 <1>  -0.1500 
  8 C        2.2360    -2.8870     1.5580 C.ar  1 <1>  -0.1500 
  9 C        4.6640     0.2410    -0.9510 C.3   1 <1>   0.1100 
 10 C        3.8160     2.0790     1.2820 C.3   1 <1>  -0.1600 
 11 C        0.7220    -4.3770    -0.2220 C.ar  1 <1>  -0.1430 
 12 C        2.2550    -4.2670     1.6260 C.ar  1 <1>  -0.1500 
 13 N        5.5350     1.2730    -0.3530 N.3   1 <1>  -0.8100 
 14 C        4.7940     2.4370     0.1600 C.3   1 <1>   0.1100 
 15 C        1.5000    -5.0170     0.7400 C.ar  1 <1>   0.0830 
 16 C       -0.1120    -5.1860    -1.2010 C.3   1 <1>  -0.0170 
 17 C        6.5900     1.6770    -1.3250 C.3   1 <1>   0.2900 
 18 O        1.5530    -6.3640     0.8400 O.3   1 <1>  -0.3630 
 19 C        0.3930    -6.6300    -1.2630 C.3   1 <1>  -0.1600 
 20 C        7.6990     2.5610    -0.7550 C.2   1 <1>   0.2980 
 21 C        0.6100    -7.1650     0.1550 C.3   1 <1>   0.1200 
 22 O        7.4960     3.8550    -0.6880 O.3   1 <1>  -0.0190 
 23 N        8.8450     2.1690    -0.3560 N.2   1 <1>  -0.5650 
 24 N        8.5990     4.3220    -0.1890 N.2   1 <1>  -0.4100 
 25 C        9.3710     3.3290     0.0000 C.2   1 <1>   0.3350 
 26 C       10.7650     3.4060     0.5740 C.3   1 <1>  -0.0590 
 27 H        3.7760    -1.5710    -0.3080 H     1 <1>   0.0800 
 28 H        4.5630    -0.7050     0.9760 H     1 <1>   0.0800 
 29 H        1.7570     1.5990     1.5310 H     1 <1>   0.0800 
 30 H        2.1820     1.9450    -0.1140 H     1 <1>   0.0800 
 31 H        0.1070    -2.4890    -1.0080 H     1 <1>   0.1500 
 32 H        2.8170    -2.3110     2.2570 H     1 <1>   0.1500 
 33 H        3.9600     0.6760    -1.6400 H     1 <1>   0.0800 
 34 H        5.2820    -0.4470    -1.5040 H     1 <1>   0.0800 
 35 H        4.2890     1.4650     2.0280 H     1 <1>   0.0800 
 36 H        3.5470     3.0020     1.7620 H     1 <1>   0.0800 
 37 H        2.8480    -4.7740     2.3650 H     1 <1>   0.1500 
 38 H        5.4950     3.1380     0.5780 H     1 <1>   0.0800 
 39 H        4.2730     2.9300    -0.6440 H     1 <1>   0.0800 
 40 H       -0.0700    -4.7440    -2.1810 H     1 <1>   0.0800 
 41 H       -1.1360    -5.1760    -0.8680 H     1 <1>   0.0800 
 42 H        6.1390     2.1820    -2.1600 H     1 <1>   0.0800 
 43 H        7.0700     0.7900    -1.6990 H     1 <1>   0.0800 
 44 H        1.3260    -6.6700    -1.7980 H     1 <1>   0.0800 
 45 H       -0.3190    -7.2450    -1.7820 H     1 <1>   0.0800 
 46 H       -0.3070    -7.1440     0.7170 H     1 <1>   0.0800 
 47 H        0.9900    -8.1710     0.1330 H     1 <1>   0.0800 
 48 H       10.8160     2.8190     1.4720 H     1 <1>   0.0800 
 49 H       11.0140     4.4250     0.8030 H     1 <1>   0.0800 
 50 H       11.4690     3.0210    -0.1400 H     1 <1>   0.0800 
@<TRIPOS>BOND
  1   1   2  2   
  2   2   3  am  
  3   2   4  1   
  4   3   5  1   
  5   3   6  1   
  6   4   7  ar  
  7   4   8  ar  
  8   5   9  1   
  9   5  27  1   
 10   5  28  1   
 11   6  10  1   
 12   6  29  1   
 13   6  30  1   
 14   7  11  ar  
 15   7  31  1   
 16   8  12  ar  
 17   8  32  1   
 18   9  13  1   
 19   9  33  1   
 20   9  34  1   
 21  10  14  1   
 22  10  35  1   
 23  10  36  1   
 24  11  15  ar  
 25  11  16  1   
 26  12  15  ar  
 27  12  37  1   
 28  13  14  1   
 29  13  17  1   
 30  14  38  1   
 31  14  39  1   
 32  15  18  1   
 33  16  19  1   
 34  16  40  1   
 35  16  41  1   
 36  17  20  1   
 37  17  42  1   
 38  17  43  1   
 39  18  21  1   
 40  19  21  1   
 41  19  44  1   
 42  19  45  1   
 43  20  22  1   
 44  20  23  2   
 45  21  46  1   
 46  21  47  1   
 47  22  24  1   
 48  23  25  1   
 49  24  25  2   
 50  25  26  1   
 51  26  48  1   
 52  26  49  1   
 53  26  50  1   
@<TRIPOS>SUBSTRUCTURE
  1 ****   5 GROUP 4 **** **** 0

# MOE 2024.06 (io_trps.svl 2023.06)
