@<TRIPOS>MOLECULE
NONAME
33 35 1 0 0 
SMALL
USER_CHARGES


@<TRIPOS>ATOM
  1 CL       0.3900     0.4750     0.0820 Cl    1 <1>  -0.1770 
  2 C       -1.2110     1.1820    -0.0790 C.ar  1 <1>   0.1770 
  3 C       -1.3220     2.5820    -0.2660 C.ar  1 <1>   0.4100 
  4 C       -2.3370     0.4200    -0.0270 C.ar  1 <1>   0.2170 
  5 N       -2.4960     3.1740    -0.3950 N.ar  1 <1>  -0.6200 
  6 N       -0.2270     3.3670    -0.3200 N.pl3 1 <1>  -0.8690 
  7 N       -3.5210     1.0760    -0.1640 N.ar  1 <1>  -0.1790 
  8 C       -2.3770    -1.0920     0.1680 C.3   1 <1>  -0.0970 
  9 C       -3.5690     2.4110    -0.3410 C.ar  1 <1>   0.7710 
 10 C       -0.1900     4.8580    -0.4260 C.3   1 <1>   0.3900 
 11 N       -4.7390     3.0280    -0.4710 N.pl3 1 <1>  -0.9000 
 12 C        1.1720     5.4290    -0.0260 C.2   1 <1>   0.3350 
 13 N        2.2110     4.7400     0.2520 N.2   1 <1>  -0.4100 
 14 N        1.3700     6.7380     0.0610 N.2   1 <1>  -0.5650 
 15 O        3.1590     5.5790     0.5410 O.3   1 <1>  -0.0190 
 16 C        2.5960     6.7540     0.4090 C.2   1 <1>   0.3930 
 17 C        3.4370     7.9920     0.6790 C.3   1 <1>  -0.0150 
 18 C        3.1650     9.2970    -0.0080 C.3   1 <1>  -0.2000 
 19 C        4.3880     8.5040    -0.3590 C.3   1 <1>  -0.2000 
 20 H        0.7170     2.9730    -0.1920 H     1 <1>   0.4000 
 21 H       -4.4100     0.5840    -0.1370 H     1 <1>   0.4570 
 22 H       -1.3870    -1.5020     0.2650 H     1 <1>   0.0800 
 23 H       -2.8480    -1.5680    -0.6740 H     1 <1>   0.0800 
 24 H       -2.9230    -1.3410     1.0610 H     1 <1>   0.0800 
 25 H       -0.9430     5.2850     0.2120 H     1 <1>   0.0800 
 26 H       -0.4010     5.1470    -1.4410 H     1 <1>   0.0800 
 27 H       -5.6820     2.6370    -0.4590 H     1 <1>   0.4000 
 28 H       -4.7230     4.0460    -0.6050 H     1 <1>   0.4000 
 29 H        3.7540     8.0370     1.7060 H     1 <1>   0.1000 
 30 H        3.2760    10.2070     0.5550 H     1 <1>   0.1000 
 31 H        2.3560     9.3460    -0.7180 H     1 <1>   0.1000 
 32 H        4.4240     8.0120    -1.3160 H     1 <1>   0.1000 
 33 H        5.3520     8.8650    -0.0440 H     1 <1>   0.1000 
@<TRIPOS>BOND
  1   1   2  1   
  2   2   3  ar  
  3   2   4  ar  
  4   3   5  ar  
  5   3   6  1   
  6   4   7  ar  
  7   4   8  1   
  8   5   9  ar  
  9   6  10  1   
 10   6  20  1   
 11   7   9  ar  
 12   7  21  1   
 13   8  22  1   
 14   8  23  1   
 15   8  24  1   
 16   9  11  1   
 17  10  12  1   
 18  10  25  1   
 19  10  26  1   
 20  11  27  1   
 21  11  28  1   
 22  12  13  2   
 23  12  14  1   
 24  13  15  1   
 25  14  16  2   
 26  15  16  1   
 27  16  17  1   
 28  17  18  1   
 29  17  19  1   
 30  17  29  1   
 31  18  19  1   
 32  18  30  1   
 33  18  31  1   
 34  19  32  1   
 35  19  33  1   
@<TRIPOS>SUBSTRUCTURE
  1 ****   6 GROUP 4 **** **** 0

# MOE 2024.06 (io_trps.svl 2023.06)
