@<TRIPOS>MOLECULE
NONAME
38 40 1 0 0 
SMALL
USER_CHARGES


@<TRIPOS>ATOM
  1 CL      -1.9930    -0.4630    -1.9700 Cl    1 <1>  -0.1770 
  2 C       -2.4510     0.6190    -0.6760 C.ar  1 <1>   0.1770 
  3 C       -2.8570     0.1250     0.5550 C.ar  1 <1>   0.0860 
  4 C       -2.3930     1.9820    -0.9030 C.ar  1 <1>   0.1600 
  5 C       -2.9530    -1.2830     0.8610 C.2   1 <1>   0.5440 
  6 C       -3.1610     1.0970     1.4990 C.ar  1 <1>  -0.1500 
  7 N       -2.7030     2.9060    -0.0050 N.ar  1 <1>  -0.6200 
  8 O       -2.2670    -1.7470     1.7490 O.2   1 <1>  -0.5700 
  9 N       -3.8330    -2.1120     0.2100 N.am  1 <1>  -0.6600 
 10 C       -3.0730     2.4390     1.1780 C.ar  1 <1>   0.1600 
 11 C       -4.9350    -1.6910    -0.6920 C.3   1 <1>   0.1400 
 12 C       -3.9200    -3.5680     0.4860 C.3   1 <1>   0.1400 
 13 C       -5.9620    -2.8160    -0.5740 C.3   1 <1>   0.2000 
 14 C       -5.1020    -4.0670    -0.3560 C.3   1 <1>  -0.0800 
 15 O       -6.7300    -2.5780     0.5570 O.3   1 <1>  -0.6800 
 16 C       -5.8460    -5.2670     0.2590 C.3   1 <1>   0.0200 
 17 C       -5.0000    -6.5280     0.3190 C.2   1 <1>  -0.0400 
 18 O       -5.4810    -7.5750     0.9340 O.3   1 <1>  -0.0190 
 19 C       -3.7830    -6.8530    -0.1480 C.2   1 <1>  -0.1500 
 20 N       -4.6540    -8.5800     0.9080 N.2   1 <1>  -0.4100 
 21 C       -3.6210    -8.1730     0.2630 C.2   1 <1>   0.1080 
 22 C       -2.3980    -9.0210    -0.0080 C.3   1 <1>  -0.0590 
 23 H       -2.0750     2.3260    -1.8720 H     1 <1>   0.1500 
 24 H       -3.4630     0.7970     2.4860 H     1 <1>   0.1500 
 25 H       -3.3180     3.1700     1.9320 H     1 <1>   0.1500 
 26 H       -5.3520    -0.7390    -0.4120 H     1 <1>   0.0800 
 27 H       -4.5650    -1.6440    -1.7010 H     1 <1>   0.0800 
 28 H       -2.9990    -4.0560     0.2150 H     1 <1>   0.0800 
 29 H       -4.1010    -3.7170     1.5370 H     1 <1>   0.0800 
 30 H       -6.6160    -2.8850    -1.4260 H     1 <1>   0.0800 
 31 H       -4.7180    -4.3620    -1.3170 H     1 <1>   0.0800 
 32 H       -6.1320    -2.4030     1.3120 H     1 <1>   0.4000 
 33 H       -6.7270    -5.4770    -0.3220 H     1 <1>   0.0800 
 34 H       -6.1680    -5.0280     1.2580 H     1 <1>   0.0800 
 35 H       -3.0710    -6.2770    -0.7070 H     1 <1>   0.1500 
 36 H       -1.5310    -8.5600     0.4260 H     1 <1>   0.0800 
 37 H       -2.2540    -9.1260    -1.0670 H     1 <1>   0.0800 
 38 H       -2.5270    -9.9970     0.4250 H     1 <1>   0.0800 
@<TRIPOS>BOND
  1   1   2  1   
  2   2   3  ar  
  3   2   4  ar  
  4   3   5  1   
  5   3   6  ar  
  6   4   7  ar  
  7   4  23  1   
  8   5   8  2   
  9   5   9  am  
 10   6  10  ar  
 11   6  24  1   
 12   7  10  ar  
 13   9  11  1   
 14   9  12  1   
 15  10  25  1   
 16  11  13  1   
 17  11  26  1   
 18  11  27  1   
 19  12  14  1   
 20  12  28  1   
 21  12  29  1   
 22  13  14  1   
 23  13  15  1   
 24  13  30  1   
 25  14  16  1   
 26  14  31  1   
 27  15  32  1   
 28  16  17  1   
 29  16  33  1   
 30  16  34  1   
 31  17  18  1   
 32  17  19  2   
 33  18  20  1   
 34  19  21  1   
 35  19  35  1   
 36  20  21  2   
 37  21  22  1   
 38  22  36  1   
 39  22  37  1   
 40  22  38  1   
@<TRIPOS>SUBSTRUCTURE
  1 ****  12 GROUP 4 **** **** 0

# MOE 2024.06 (io_trps.svl 2023.06)
