@<TRIPOS>MOLECULE
NONAME
55 58 1 0 0 
SMALL
USER_CHARGES


@<TRIPOS>ATOM
  1 O       -1.0420     0.6550     2.2070 O.2   1 <1>  -0.5700 
  2 C       -1.3460     0.6100     1.0310 C.2   1 <1>   0.7160 
  3 N       -1.7400    -0.6040     0.5100 N.am  1 <1>  -0.6600 
  4 C       -1.4250     1.8090     0.2620 C.2   1 <1>  -0.0860 
  5 C       -2.0710    -0.8090    -0.9250 C.3   1 <1>   0.1400 
  6 C       -2.6260    -1.4870     1.3030 C.3   1 <1>   0.1400 
  7 C       -2.6270     2.4060    -0.1290 C.2   1 <1>   0.3720 
  8 C       -0.4750     2.6010    -0.2990 C.2   1 <1>   0.0870 
  9 C       -3.5380    -1.2590    -0.9390 C.3   1 <1>   0.2000 
 10 C       -3.9540    -1.4200     0.5410 C.3   1 <1>   0.4230 
 11 N       -2.4130     3.4340    -0.8680 N.2   1 <1>  -0.4100 
 12 N       -3.9050     1.9360     0.2200 N.pl3 1 <1>  -0.8210 
 13 O       -1.1120     3.5400    -0.9550 O.3   1 <1>  -0.0190 
 14 C        0.9650     2.5470    -0.3070 C.ar  1 <1>   0.0530 
 15 O       -4.3290    -0.2840    -1.5250 O.3   1 <1>  -0.6800 
 16 N       -4.9480    -2.5210     0.8330 N.4   1 <1>  -0.9590 
 17 C       -4.1940     2.0350     1.6950 C.3   1 <1>   0.2090 
 18 C       -5.0570     2.5240    -0.5460 C.3   1 <1>   0.2090 
 19 C        1.6870     2.9950    -1.4140 C.ar  1 <1>  -0.1500 
 20 C        1.6920     2.0480     0.7740 C.ar  1 <1>  -0.1500 
 21 C       -4.4980    -3.8930     0.4350 C.3   1 <1>   0.2630 
 22 C       -6.2510    -2.1750     0.1750 C.3   1 <1>   0.2630 
 23 C       -5.6770     1.7510     2.0270 C.3   1 <1>   0.1200 
 24 C       -6.3760     1.7840    -0.2090 C.3   1 <1>   0.1200 
 25 C        3.0680     2.9380    -1.4470 C.ar  1 <1>  -0.1500 
 26 C        3.0730     1.9860     0.7470 C.ar  1 <1>  -0.1500 
 27 O       -6.2880     1.0370     0.9860 O.3   1 <1>  -0.5600 
 28 C        3.7650     2.4300    -0.3650 C.ar  1 <1>  -0.1500 
 29 H       -1.9180     0.0750    -1.5210 H     1 <1>   0.0800 
 30 H       -1.4440    -1.5940    -1.3110 H     1 <1>   0.0800 
 31 H       -2.2140    -2.4810     1.3060 H     1 <1>   0.0800 
 32 H       -2.7380    -1.1310     2.3130 H     1 <1>   0.0800 
 33 H       -3.6410    -2.1630    -1.5100 H     1 <1>   0.0800 
 34 H       -4.4070    -0.4860     0.8310 H     1 <1>   0.0800 
 35 H       -4.2000     0.5740    -1.0340 H     1 <1>   0.4000 
 36 H       -5.1190    -2.5120     1.8490 H     1 <1>   0.4500 
 37 H       -3.5880     1.3290     2.2320 H     1 <1>   0.0800 
 38 H       -3.9290     3.0160     2.0550 H     1 <1>   0.0800 
 39 H       -5.1590     3.5670    -0.2930 H     1 <1>   0.0800 
 40 H       -4.8710     2.4720    -1.6060 H     1 <1>   0.0800 
 41 H        1.1580     3.3930    -2.2620 H     1 <1>   0.1500 
 42 H        1.1790     1.7090     1.6560 H     1 <1>   0.1500 
 43 H       -4.3510    -3.9480    -0.6320 H     1 <1>   0.0800 
 44 H       -5.2410    -4.6220     0.7130 H     1 <1>   0.0800 
 45 H       -3.5720    -4.1450     0.9260 H     1 <1>   0.0800 
 46 H       -6.1300    -2.1190    -0.8950 H     1 <1>   0.0800 
 47 H       -6.6030    -1.2180     0.5250 H     1 <1>   0.0800 
 48 H       -6.9980    -2.9180     0.4020 H     1 <1>   0.0800 
 49 H       -6.2140     2.6740     2.1700 H     1 <1>   0.0800 
 50 H       -5.7550     1.1730     2.9300 H     1 <1>   0.0800 
 51 H       -6.6240     1.1000    -1.0020 H     1 <1>   0.0800 
 52 H       -7.1830     2.4890    -0.1140 H     1 <1>   0.0800 
 53 H        3.6020     3.2880    -2.3130 H     1 <1>   0.1500 
 54 H        3.6110     1.5950     1.5930 H     1 <1>   0.1500 
 55 H        4.8400     2.3830    -0.3880 H     1 <1>   0.1500 
@<TRIPOS>BOND
  1   1   2  2   
  2   2   3  am  
  3   2   4  1   
  4   3   5  1   
  5   3   6  1   
  6   4   7  1   
  7   4   8  2   
  8   5   9  1   
  9   5  29  1   
 10   5  30  1   
 11   6  10  1   
 12   6  31  1   
 13   6  32  1   
 14   7  11  2   
 15   7  12  1   
 16   8  13  1   
 17   8  14  1   
 18   9  10  1   
 19   9  15  1   
 20   9  33  1   
 21  10  16  1   
 22  10  34  1   
 23  11  13  1   
 24  12  17  1   
 25  12  18  1   
 26  14  19  ar  
 27  14  20  ar  
 28  15  35  1   
 29  16  21  1   
 30  16  22  1   
 31  16  36  1   
 32  17  23  1   
 33  17  37  1   
 34  17  38  1   
 35  18  24  1   
 36  18  39  1   
 37  18  40  1   
 38  19  25  ar  
 39  19  41  1   
 40  20  26  ar  
 41  20  42  1   
 42  21  43  1   
 43  21  44  1   
 44  21  45  1   
 45  22  46  1   
 46  22  47  1   
 47  22  48  1   
 48  23  27  1   
 49  23  49  1   
 50  23  50  1   
 51  24  27  1   
 52  24  51  1   
 53  24  52  1   
 54  25  28  ar  
 55  25  53  1   
 56  26  28  ar  
 57  26  54  1   
 58  28  55  1   
@<TRIPOS>SUBSTRUCTURE
  1 ****   4 GROUP 4 **** **** 0

# MOE 2024.06 (io_trps.svl 2023.06)
