@<TRIPOS>MOLECULE
NONAME
47 49 1 0 0 
SMALL
USER_CHARGES


@<TRIPOS>ATOM
  1 F        2.0180     1.8040     1.9870 F     1 <1>  -0.1900 
  2 C        2.1050     0.6530     1.3750 C.ar  1 <1>   0.1900 
  3 C        2.4130     0.6020     0.0210 C.ar  1 <1>  -0.1440 
  4 C        1.8770    -0.4810     2.1320 C.ar  1 <1>  -0.1500 
  5 C        2.4900    -0.6540    -0.5680 C.ar  1 <1>  -0.1500 
  6 C        2.6600     1.8590    -0.8260 C.3   1 <1>   0.3400 
  7 C        1.9590    -1.7210     1.5240 C.ar  1 <1>  -0.1500 
  8 C        2.2650    -1.8030     0.1750 C.ar  1 <1>  -0.1500 
  9 C        3.8550     2.6450    -0.2800 C.2   1 <1>  -0.1240 
 10 C        1.3650     2.6800    -0.9190 C.2   1 <1>  -0.1240 
 11 C        5.1210     1.9950    -0.3050 C.2   1 <1>   0.4950 
 12 C        3.6750     3.9000     0.1980 C.2   1 <1>  -0.0380 
 13 C        1.3370     3.9470    -0.4150 C.2   1 <1>  -0.0380 
 14 C        0.3010     1.9560    -1.5450 C.2   1 <1>   0.7060 
 15 O        5.3440     0.9470    -0.8630 O.2   1 <1>  -0.5700 
 16 C        6.2790     2.6740     0.4060 C.3   1 <1>  -0.0990 
 17 N        2.4470     4.5150     0.1720 N.pl3 1 <1>  -0.6000 
 18 C        4.8230     4.7050     0.7930 C.3   1 <1>  -0.0220 
 19 C        0.1390     4.8820    -0.4420 C.3   1 <1>  -0.1020 
 20 O        0.4810     1.1430    -2.4340 O.2   1 <1>  -0.5700 
 21 O       -0.9550     2.1630    -1.1260 O.3   1 <1>  -0.4300 
 22 C        6.2070     4.2130     0.3100 C.3   1 <1>   0.0000 
 23 C       -2.0450     1.4390    -1.6610 C.3   1 <1>   0.0400 
 24 C        7.3090     4.8310     1.1850 C.3   1 <1>  -0.2400 
 25 C        6.4430     4.6580    -1.1460 C.3   1 <1>  -0.2400 
 26 H        1.6410    -0.3900     3.1770 H     1 <1>   0.1500 
 27 H        2.7280    -0.7460    -1.6150 H     1 <1>   0.1500 
 28 H        2.9250     1.5610    -1.8260 H     1 <1>   0.0800 
 29 H        1.7860    -2.6170     2.0940 H     1 <1>   0.1500 
 30 H        2.3320    -2.7650    -0.3020 H     1 <1>   0.1500 
 31 H        7.2030     2.3210    -0.0160 H     1 <1>   0.0800 
 32 H        6.2510     2.3670     1.4350 H     1 <1>   0.0800 
 33 H        2.3530     5.4490     0.5840 H     1 <1>   0.4000 
 34 H        4.7580     4.6220     1.8640 H     1 <1>   0.0800 
 35 H        4.7080     5.7440     0.5390 H     1 <1>   0.0800 
 36 H        0.4540     5.8810    -0.6850 H     1 <1>   0.0800 
 37 H       -0.3350     4.8910     0.5230 H     1 <1>   0.0800 
 38 H       -0.5830     4.5880    -1.1800 H     1 <1>   0.0800 
 39 H       -2.9440     1.7670    -1.1710 H     1 <1>   0.0800 
 40 H       -1.8860     0.3900    -1.4810 H     1 <1>   0.0800 
 41 H       -2.1060     1.6310    -2.7180 H     1 <1>   0.0800 
 42 H        7.1890     4.5390     2.2130 H     1 <1>   0.0800 
 43 H        7.2770     5.9050     1.1330 H     1 <1>   0.0800 
 44 H        8.2810     4.5060     0.8540 H     1 <1>   0.0800 
 45 H        5.6800     4.2760    -1.8010 H     1 <1>   0.0800 
 46 H        7.3960     4.3050    -1.5000 H     1 <1>   0.0800 
 47 H        6.4350     5.7310    -1.2190 H     1 <1>   0.0800 
@<TRIPOS>BOND
  1   1   2  1   
  2   2   3  ar  
  3   2   4  ar  
  4   3   5  ar  
  5   3   6  1   
  6   4   7  ar  
  7   4  26  1   
  8   5   8  ar  
  9   5  27  1   
 10   6   9  1   
 11   6  10  1   
 12   6  28  1   
 13   7   8  ar  
 14   7  29  1   
 15   8  30  1   
 16   9  11  1   
 17   9  12  2   
 18  10  13  2   
 19  10  14  1   
 20  11  15  2   
 21  11  16  1   
 22  12  17  1   
 23  12  18  1   
 24  13  17  1   
 25  13  19  1   
 26  14  20  2   
 27  14  21  1   
 28  16  22  1   
 29  16  31  1   
 30  16  32  1   
 31  17  33  1   
 32  18  22  1   
 33  18  34  1   
 34  18  35  1   
 35  19  36  1   
 36  19  37  1   
 37  19  38  1   
 38  21  23  1   
 39  22  24  1   
 40  22  25  1   
 41  23  39  1   
 42  23  40  1   
 43  23  41  1   
 44  24  42  1   
 45  24  43  1   
 46  24  44  1   
 47  25  45  1   
 48  25  46  1   
 49  25  47  1   
@<TRIPOS>SUBSTRUCTURE
  1 ****   6 GROUP 4 **** **** 0

# MOE 2024.06 (io_trps.svl 2023.06)
