@<TRIPOS>MOLECULE
NONAME
63 65 1 0 0 
SMALL
USER_CHARGES


@<TRIPOS>ATOM
  1 O       -0.6710     0.3970    -1.7940 O.2   1 <1>  -0.5700 
  2 C       -1.5340     0.8840    -1.0860 C.2   1 <1>   0.5440 
  3 N       -2.5070     0.0440    -0.5790 N.am  1 <1>  -0.6600 
  4 C       -1.4940     2.3030    -0.7940 C.ar  1 <1>   0.0860 
  5 C       -3.9860     0.1830    -0.7790 C.3   1 <1>   0.2200 
  6 C       -2.1020    -1.3370    -0.1940 C.3   1 <1>   0.0600 
  7 C       -1.1320     3.2310    -1.7730 C.ar  1 <1>  -0.1500 
  8 C       -1.8020     2.8050     0.4710 C.ar  1 <1>  -0.1500 
  9 C       -4.4350     1.1510    -1.8840 C.3   1 <1>  -0.1600 
 10 C       -4.6770     0.6070     0.5190 C.3   1 <1>  -0.1600 
 11 C       -1.1380     4.5900    -1.5200 C.ar  1 <1>  -0.1500 
 12 C       -1.8170     4.1630     0.7270 C.ar  1 <1>  -0.1500 
 13 C       -5.3820     2.1850    -1.2550 C.3   1 <1>  -0.0800 
 14 C       -5.5760     1.8150     0.2120 C.3   1 <1>  -0.0800 
 15 C       -1.5070     5.0770    -0.2730 C.ar  1 <1>   0.1170 
 16 C       -4.8450     3.6180    -1.2810 C.3   1 <1>  -0.1600 
 17 C       -5.2520     3.0660     1.0410 C.3   1 <1>  -0.1600 
 18 N       -1.5430     6.4490    -0.0420 N.am  1 <1>  -0.5470 
 19 C       -5.1430     4.2560     0.0790 C.3   1 <1>   0.4230 
 20 C       -2.4600     7.2280     0.6030 C.2   1 <1>   0.5690 
 21 N       -6.3950     5.0740     0.0640 N.4   1 <1>  -0.9590 
 22 O       -3.5320     6.8130     0.9860 O.2   1 <1>  -0.5700 
 23 C       -2.0990     8.7050     0.7890 C.3   1 <1>   0.1710 
 24 C       -6.3010     6.1970    -0.9210 C.3   1 <1>   0.2630 
 25 C       -6.6410     5.6960     1.4050 C.3   1 <1>   0.2630 
 26 N       -0.6680     9.0120     0.4870 N.3   1 <1>  -0.8100 
 27 C       -0.4940    10.4340     0.1660 C.3   1 <1>   0.0300 
 28 C        0.2090     8.6470     1.6120 C.3   1 <1>   0.0300 
 29 H       -4.3690    -0.7870    -1.0510 H     1 <1>   0.0800 
 30 H       -2.6480    -1.6550     0.6760 H     1 <1>   0.0800 
 31 H       -1.0480    -1.3660     0.0290 H     1 <1>   0.0800 
 32 H       -2.2970    -2.0130    -1.0090 H     1 <1>   0.0800 
 33 H       -0.8450     2.8660    -2.7450 H     1 <1>   0.1500 
 34 H       -2.0260     2.1080     1.2580 H     1 <1>   0.1500 
 35 H       -3.6180     1.6040    -2.4120 H     1 <1>   0.0800 
 36 H       -4.9920     0.5840    -2.6080 H     1 <1>   0.0800 
 37 H       -5.2890    -0.2070     0.8660 H     1 <1>   0.0800 
 38 H       -3.9540     0.8150     1.2850 H     1 <1>   0.0800 
 39 H       -0.8590     5.2800    -2.2970 H     1 <1>   0.1500 
 40 H       -2.0620     4.5260     1.7100 H     1 <1>   0.1500 
 41 H       -6.3350     2.1560    -1.7560 H     1 <1>   0.0800 
 42 H       -6.6070     1.5380     0.3660 H     1 <1>   0.0800 
 43 H       -5.2190     4.1550    -2.1300 H     1 <1>   0.0800 
 44 H       -3.7810     3.5930    -1.3780 H     1 <1>   0.0800 
 45 H       -4.2960     2.9570     1.5140 H     1 <1>   0.0800 
 46 H       -5.9730     3.1920     1.8250 H     1 <1>   0.0800 
 47 H       -0.7320     7.0040    -0.3510 H     1 <1>   0.3700 
 48 H       -4.3160     4.8790     0.3680 H     1 <1>   0.0800 
 49 H       -7.1730     4.4500    -0.1850 H     1 <1>   0.4500 
 50 H       -2.3370     9.0040     1.7950 H     1 <1>   0.0800 
 51 H       -2.7290     9.2660     0.1230 H     1 <1>   0.0800 
 52 H       -5.4170     6.7840    -0.7260 H     1 <1>   0.0800 
 53 H       -7.1640     6.8370    -0.8410 H     1 <1>   0.0800 
 54 H       -6.2530     5.8230    -1.9290 H     1 <1>   0.0800 
 55 H       -5.7820     6.2750     1.7070 H     1 <1>   0.0800 
 56 H       -6.8270     4.9440     2.1520 H     1 <1>   0.0800 
 57 H       -7.4980     6.3480     1.3630 H     1 <1>   0.0800 
 58 H        0.5380    10.6340    -0.0680 H     1 <1>   0.0800 
 59 H       -0.7900    11.0510     0.9980 H     1 <1>   0.0800 
 60 H       -1.0880    10.6950    -0.6940 H     1 <1>   0.0800 
 61 H        1.2370     8.8330     1.3500 H     1 <1>   0.0800 
 62 H        0.1060     7.6020     1.8490 H     1 <1>   0.0800 
 63 H       -0.0350     9.2280     2.4870 H     1 <1>   0.0800 
@<TRIPOS>BOND
  1   1   2  2   
  2   2   3  am  
  3   2   4  1   
  4   3   5  1   
  5   3   6  1   
  6   4   7  ar  
  7   4   8  ar  
  8   5   9  1   
  9   5  10  1   
 10   5  29  1   
 11   6  30  1   
 12   6  31  1   
 13   6  32  1   
 14   7  11  ar  
 15   7  33  1   
 16   8  12  ar  
 17   8  34  1   
 18   9  13  1   
 19   9  35  1   
 20   9  36  1   
 21  10  14  1   
 22  10  37  1   
 23  10  38  1   
 24  11  15  ar  
 25  11  39  1   
 26  12  15  ar  
 27  12  40  1   
 28  13  14  1   
 29  13  16  1   
 30  13  41  1   
 31  14  17  1   
 32  14  42  1   
 33  15  18  1   
 34  16  19  1   
 35  16  43  1   
 36  16  44  1   
 37  17  19  1   
 38  17  45  1   
 39  17  46  1   
 40  18  20  am  
 41  18  47  1   
 42  19  21  1   
 43  19  48  1   
 44  20  22  2   
 45  20  23  1   
 46  21  24  1   
 47  21  25  1   
 48  21  49  1   
 49  23  26  1   
 50  23  50  1   
 51  23  51  1   
 52  24  52  1   
 53  24  53  1   
 54  24  54  1   
 55  25  55  1   
 56  25  56  1   
 57  25  57  1   
 58  26  27  1   
 59  26  28  1   
 60  27  58  1   
 61  27  59  1   
 62  27  60  1   
 63  28  61  1   
 64  28  62  1   
 65  28  63  1   
@<TRIPOS>SUBSTRUCTURE
  1 ****  12 GROUP 4 **** **** 0

# MOE 2024.06 (io_trps.svl 2023.06)
