@<TRIPOS>MOLECULE
NONAME
46 48 1 0 0 
SMALL
USER_CHARGES


@<TRIPOS>ATOM
  1 S       -0.0500    -0.0650     1.7260 S.3   1 <1>  -0.0800 
  2 C        0.7600    -1.2270     0.7060 C.2   1 <1>  -0.0450 
  3 C        0.6570     1.2340     0.8000 C.2   1 <1>   0.1980 
  4 C        1.4830    -0.5300    -0.2000 C.2   1 <1>   0.0460 
  5 C        0.5540    -2.6300     0.9370 C.2   1 <1>   0.7150 
  6 N        1.4090     0.8440    -0.1520 N.2   1 <1>  -0.5650 
  7 C        0.2970     2.6480     1.2280 C.3   1 <1>   0.0200 
  8 C        2.3850    -1.1190    -1.2660 C.3   1 <1>  -0.0590 
  9 O        0.8850    -3.1290     1.9960 O.2   1 <1>  -0.5700 
 10 N       -0.0200    -3.4130    -0.0380 N.am  1 <1>  -0.6600 
 11 C        0.9270     3.7260     0.3360 C.3   1 <1>  -0.2400 
 12 C        0.0650    -4.9080     0.0680 C.3   1 <1>   0.3640 
 13 C       -0.9200    -2.8040    -1.0660 C.3   1 <1>   0.1400 
 14 C        1.4200    -5.3590    -0.4840 C.ar  1 <1>  -0.1440 
 15 C       -1.0860    -5.6970    -0.6280 C.3   1 <1>   0.2000 
 16 C       -1.6790    -3.8340    -1.9120 C.3   1 <1>   0.1200 
 17 C        2.2600    -6.1220     0.3140 C.ar  1 <1>  -0.1500 
 18 C        1.8350    -5.0260    -1.7680 C.ar  1 <1>  -0.1500 
 19 O       -2.1200    -4.8760    -1.1050 O.3   1 <1>  -0.5600 
 20 C       -1.7290    -6.7270     0.3100 C.3   1 <1>   0.1200 
 21 C        3.4880    -6.5490    -0.1600 C.ar  1 <1>  -0.1500 
 22 C        3.0630    -5.4520    -2.2450 C.ar  1 <1>  -0.1500 
 23 O       -0.7850    -7.6480     0.7580 O.3   1 <1>  -0.6800 
 24 C        3.8900    -6.2150    -1.4410 C.ar  1 <1>  -0.1500 
 25 H       -0.7730     2.7510     1.2060 H     1 <1>   0.0800 
 26 H        0.6260     2.7910     2.2420 H     1 <1>   0.0800 
 27 H        2.4180    -2.1900    -1.1930 H     1 <1>   0.0800 
 28 H        3.3810    -0.7360    -1.1400 H     1 <1>   0.0800 
 29 H        2.0270    -0.8400    -2.2400 H     1 <1>   0.0800 
 30 H        0.5990     3.6010    -0.6810 H     1 <1>   0.0800 
 31 H        2.0000     3.6450     0.3610 H     1 <1>   0.0800 
 32 H        0.6430     4.7050     0.6760 H     1 <1>   0.0800 
 33 H        0.0360    -5.1690     1.1120 H     1 <1>   0.0800 
 34 H       -1.6430    -2.1850    -0.5630 H     1 <1>   0.0800 
 35 H       -0.3470    -2.1690    -1.7180 H     1 <1>   0.0800 
 36 H       -0.6940    -6.2240    -1.4800 H     1 <1>   0.0800 
 37 H       -1.0580    -4.2340    -2.6950 H     1 <1>   0.0800 
 38 H       -2.5410    -3.3750    -2.3620 H     1 <1>   0.0800 
 39 H        1.9600    -6.3870     1.3150 H     1 <1>   0.1500 
 40 H        1.2090    -4.4290    -2.4030 H     1 <1>   0.1500 
 41 H       -2.5080    -7.2670    -0.2000 H     1 <1>   0.0800 
 42 H       -2.1410    -6.2340     1.1740 H     1 <1>   0.0800 
 43 H        4.1300    -7.1390     0.4700 H     1 <1>   0.1500 
 44 H        3.3760    -5.1900    -3.2400 H     1 <1>   0.1500 
 45 H       -0.4520    -8.2000     0.0220 H     1 <1>   0.4000 
 46 H        4.8450    -6.5470    -1.8090 H     1 <1>   0.1500 
@<TRIPOS>BOND
  1   1   2  1   
  2   1   3  1   
  3   2   4  2   
  4   2   5  1   
  5   3   6  2   
  6   3   7  1   
  7   4   6  1   
  8   4   8  1   
  9   5   9  2   
 10   5  10  am  
 11   7  11  1   
 12   7  25  1   
 13   7  26  1   
 14   8  27  1   
 15   8  28  1   
 16   8  29  1   
 17  10  12  1   
 18  10  13  1   
 19  11  30  1   
 20  11  31  1   
 21  11  32  1   
 22  12  14  1   
 23  12  15  1   
 24  12  33  1   
 25  13  16  1   
 26  13  34  1   
 27  13  35  1   
 28  14  17  ar  
 29  14  18  ar  
 30  15  19  1   
 31  15  20  1   
 32  15  36  1   
 33  16  19  1   
 34  16  37  1   
 35  16  38  1   
 36  17  21  ar  
 37  17  39  1   
 38  18  22  ar  
 39  18  40  1   
 40  20  23  1   
 41  20  41  1   
 42  20  42  1   
 43  21  24  ar  
 44  21  43  1   
 45  22  24  ar  
 46  22  44  1   
 47  23  45  1   
 48  24  46  1   
@<TRIPOS>SUBSTRUCTURE
  1 ****  10 GROUP 4 **** **** 0

# MOE 2024.06 (io_trps.svl 2023.06)
