@<TRIPOS>MOLECULE
NONAME
59 61 1 0 0 
SMALL
USER_CHARGES


@<TRIPOS>ATOM
  1 O        0.0020     0.6300    -1.1810 O.2   1 <1>  -0.5700 
  2 C       -0.1080     1.7890    -0.8510 C.2   1 <1>   0.5690 
  3 N       -1.3050     2.4550    -0.9370 N.am  1 <1>  -0.6600 
  4 C        1.1280     2.5050    -0.3240 C.3   1 <1>  -0.0990 
  5 C       -2.5340     1.7810    -1.4450 C.3   1 <1>   0.1400 
  6 C       -1.5360     3.8760    -0.5500 C.3   1 <1>   0.1400 
  7 C        2.3980     1.6280    -0.2840 C.3   1 <1>  -0.0990 
  8 C       -3.6160     1.8190    -0.3630 C.3   1 <1>  -0.1600 
  9 C       -2.5960     3.9270     0.5510 C.3   1 <1>  -0.1600 
 10 C        3.6360     2.3470     0.2460 C.2   1 <1>   0.4230 
 11 C       -3.9000     3.2490     0.1080 C.3   1 <1>   0.4180 
 12 O        3.5050     3.4900     0.6130 O.2   1 <1>  -0.5700 
 13 C        4.9080     1.6520     0.2950 C.ar  1 <1>   0.0860 
 14 O       -4.4260     3.9320    -1.0050 O.3   1 <1>  -0.5600 
 15 C       -4.9170     3.2220     1.2460 C.2   1 <1>  -0.2880 
 16 C        5.0740     0.3190    -0.0980 C.ar  1 <1>  -0.1500 
 17 C        6.0500     2.3140     0.7520 C.ar  1 <1>  -0.1500 
 18 C       -5.1620     5.0980    -0.7600 C.3   1 <1>   0.1200 
 19 C       -6.0700     3.8970     1.2380 C.2   1 <1>  -0.2760 
 20 C        6.3000    -0.3200    -0.0420 C.ar  1 <1>  -0.1430 
 21 C        7.2820     1.6930     0.8150 C.ar  1 <1>  -0.1500 
 22 C       -6.4220     4.7820     0.0570 C.3   1 <1>  -0.0220 
 23 C       -7.1060     3.8450     2.3470 C.3   1 <1>  -0.1020 
 24 C        7.4200     0.3670     0.4170 C.ar  1 <1>   0.0830 
 25 C        6.4210    -1.7730    -0.4830 C.3   1 <1>  -0.0970 
 26 O        8.6000    -0.2960     0.4560 O.3   1 <1>  -0.3630 
 27 C        9.7900     0.3070     0.9050 C.3   1 <1>   0.1200 
 28 C       10.9070    -0.7270     0.8100 C.3   1 <1>  -0.2400 
 29 H        0.9180     2.8530     0.6710 H     1 <1>   0.0800 
 30 H        1.3180     3.3580    -0.9490 H     1 <1>   0.0800 
 31 H       -2.3290     0.7590    -1.7140 H     1 <1>   0.0800 
 32 H       -2.8780     2.2940    -2.3270 H     1 <1>   0.0800 
 33 H       -1.8800     4.4210    -1.4140 H     1 <1>   0.0800 
 34 H       -0.6340     4.3440    -0.2020 H     1 <1>   0.0800 
 35 H        2.6040     1.2810    -1.2810 H     1 <1>   0.0800 
 36 H        2.2060     0.7730     0.3390 H     1 <1>   0.0800 
 37 H       -3.2890     1.2220     0.4680 H     1 <1>   0.0800 
 38 H       -4.5240     1.3850    -0.7400 H     1 <1>   0.0800 
 39 H       -2.7860     4.9440     0.8350 H     1 <1>   0.0800 
 40 H       -2.2140     3.4220     1.4180 H     1 <1>   0.0800 
 41 H       -4.6120     2.5910     2.0610 H     1 <1>   0.1500 
 42 H        4.2290    -0.2390    -0.4570 H     1 <1>   0.1500 
 43 H        5.9650     3.3410     1.0640 H     1 <1>   0.1500 
 44 H       -5.4310     5.5230    -1.7110 H     1 <1>   0.0800 
 45 H       -4.5370     5.7960    -0.2330 H     1 <1>   0.0800 
 46 H        8.1220     2.2560     1.1750 H     1 <1>   0.1500 
 47 H       -7.1450     4.2870    -0.5670 H     1 <1>   0.0800 
 48 H       -6.8490     5.7070     0.3980 H     1 <1>   0.0800 
 49 H       -8.0420     3.4830     1.9610 H     1 <1>   0.0800 
 50 H       -7.2550     4.8250     2.7640 H     1 <1>   0.0800 
 51 H       -6.7830     3.1850     3.1330 H     1 <1>   0.0800 
 52 H        5.4760    -2.1650    -0.8110 H     1 <1>   0.0800 
 53 H        6.7770    -2.3720     0.3350 H     1 <1>   0.0800 
 54 H        7.1240    -1.8490    -1.2940 H     1 <1>   0.0800 
 55 H        9.6480     0.6230     1.9240 H     1 <1>   0.0800 
 56 H       10.0010     1.1540     0.2750 H     1 <1>   0.0800 
 57 H       10.6770    -1.5760     1.4290 H     1 <1>   0.0800 
 58 H       11.8320    -0.2970     1.1470 H     1 <1>   0.0800 
 59 H       11.0280    -1.0480    -0.2090 H     1 <1>   0.0800 
@<TRIPOS>BOND
  1   1   2  2   
  2   2   3  am  
  3   2   4  1   
  4   3   5  1   
  5   3   6  1   
  6   4   7  1   
  7   4  29  1   
  8   4  30  1   
  9   5   8  1   
 10   5  31  1   
 11   5  32  1   
 12   6   9  1   
 13   6  33  1   
 14   6  34  1   
 15   7  10  1   
 16   7  35  1   
 17   7  36  1   
 18   8  11  1   
 19   8  37  1   
 20   8  38  1   
 21   9  11  1   
 22   9  39  1   
 23   9  40  1   
 24  10  12  2   
 25  10  13  1   
 26  11  14  1   
 27  11  15  1   
 28  13  16  ar  
 29  13  17  ar  
 30  14  18  1   
 31  15  19  2   
 32  15  41  1   
 33  16  20  ar  
 34  16  42  1   
 35  17  21  ar  
 36  17  43  1   
 37  18  22  1   
 38  18  44  1   
 39  18  45  1   
 40  19  22  1   
 41  19  23  1   
 42  20  24  ar  
 43  20  25  1   
 44  21  24  ar  
 45  21  46  1   
 46  22  47  1   
 47  22  48  1   
 48  23  49  1   
 49  23  50  1   
 50  23  51  1   
 51  24  26  1   
 52  25  52  1   
 53  25  53  1   
 54  25  54  1   
 55  26  27  1   
 56  27  28  1   
 57  27  55  1   
 58  27  56  1   
 59  28  57  1   
 60  28  58  1   
 61  28  59  1   
@<TRIPOS>SUBSTRUCTURE
  1 ****   4 GROUP 4 **** **** 0

# MOE 2024.06 (io_trps.svl 2023.06)
