@<TRIPOS>MOLECULE
NONAME
54 57 1 0 0 
SMALL
USER_CHARGES


@<TRIPOS>ATOM
  1 O       -0.1970    -1.6540    -2.3650 O.2   1 <1>  -0.5700 
  2 C        0.1640    -2.2720    -1.3770 C.2   1 <1>   0.5440 
  3 N       -0.1080    -1.7050    -0.1450 N.am  1 <1>  -0.6600 
  4 C        0.8690    -3.5420    -1.5560 C.ar  1 <1>   0.3960 
  5 C        0.3460    -2.2130     1.1690 C.3   1 <1>   0.1400 
  6 C       -0.8320    -0.4230     0.0050 C.3   1 <1>   0.1400 
  7 N        0.7280    -4.5470    -0.6720 N.ar  1 <1>  -0.6200 
  8 C        1.6790    -3.6790    -2.6890 C.ar  1 <1>   0.1600 
  9 C        0.1190    -1.0550     2.1330 C.3   1 <1>  -0.1600 
 10 C       -1.0200    -0.2530     1.5080 C.3   1 <1>  -0.1600 
 11 C        1.4110    -5.6250    -0.9890 C.ar  1 <1>   0.4100 
 12 N        2.3850    -4.7550    -3.0130 N.ar  1 <1>  -0.6200 
 13 N        1.2420    -6.6570    -0.1060 N.pl3 1 <1>  -0.8690 
 14 C        2.2280    -5.7160    -2.1260 C.ar  1 <1>   0.1600 
 15 C        0.6080    -7.9080    -0.5640 C.3   1 <1>   0.2090 
 16 C       -0.8930    -7.8130    -0.2980 C.3   1 <1>  -0.1600 
 17 C       -1.6450    -9.0200    -0.8730 C.3   1 <1>   0.0200 
 18 C       -3.1190    -8.9630    -0.5180 C.2   1 <1>   0.0060 
 19 N       -3.6960    -9.8100     0.2580 N.2   1 <1>  -0.5650 
 20 N       -3.9520    -8.0040    -0.9940 N.pl3 1 <1>   0.0330 
 21 C       -5.0000    -9.4010     0.3120 C.ar  1 <1>   0.2270 
 22 C       -5.1710    -8.2730    -0.4680 C.ar  1 <1>  -0.1520 
 23 C       -6.0860    -9.9500     1.0070 C.ar  1 <1>  -0.1430 
 24 C       -6.4130    -7.6520    -0.5850 C.ar  1 <1>  -0.1500 
 25 C       -7.3280    -9.3450     0.8860 C.ar  1 <1>  -0.1430 
 26 C       -5.8460   -11.1930     1.8580 C.3   1 <1>  -0.0970 
 27 C       -7.4780    -8.1970     0.0930 C.ar  1 <1>  -0.1500 
 28 C       -8.5620    -9.8890     1.5920 C.3   1 <1>  -0.0970 
 29 H        1.3820    -2.5060     1.1390 H     1 <1>   0.0800 
 30 H       -0.2630    -3.0570     1.4470 H     1 <1>   0.0800 
 31 H       -1.7740    -0.4530    -0.5160 H     1 <1>   0.0800 
 32 H       -0.2240     0.3710    -0.3950 H     1 <1>   0.0800 
 33 H        1.7440    -2.8420    -3.3640 H     1 <1>   0.1500 
 34 H        1.0100    -0.4530     2.1720 H     1 <1>   0.0800 
 35 H       -0.1160    -1.3990     3.1240 H     1 <1>   0.0800 
 36 H       -1.9660    -0.6800     1.7910 H     1 <1>   0.0800 
 37 H       -1.0020     0.7830     1.7980 H     1 <1>   0.0800 
 38 H        0.7970    -6.3130     0.7510 H     1 <1>   0.4000 
 39 H        2.7630    -6.6340    -2.2810 H     1 <1>   0.1500 
 40 H        1.0300    -8.7410    -0.0260 H     1 <1>   0.0800 
 41 H        0.7910    -8.0510    -1.6160 H     1 <1>   0.0800 
 42 H       -1.2780    -6.9120    -0.7440 H     1 <1>   0.0800 
 43 H       -1.0640    -7.7710     0.7640 H     1 <1>   0.0800 
 44 H       -1.2330    -9.9280    -0.4680 H     1 <1>   0.0800 
 45 H       -1.5390    -9.0550    -1.9420 H     1 <1>   0.0800 
 46 H       -3.7170    -7.2270    -1.6150 H     1 <1>   0.2700 
 47 H       -6.5290    -6.7720    -1.1930 H     1 <1>   0.1500 
 48 H       -4.8410   -11.1920     2.2410 H     1 <1>   0.0800 
 49 H       -5.9810   -12.0730     1.2570 H     1 <1>   0.0800 
 50 H       -6.5150   -11.2310     2.6970 H     1 <1>   0.0800 
 51 H       -8.4450    -7.7340     0.0140 H     1 <1>   0.1500 
 52 H       -8.6290   -10.9540     1.4570 H     1 <1>   0.0800 
 53 H       -9.4590    -9.4480     1.1980 H     1 <1>   0.0800 
 54 H       -8.5050    -9.6700     2.6430 H     1 <1>   0.0800 
@<TRIPOS>BOND
  1   1   2  2   
  2   2   3  am  
  3   2   4  1   
  4   3   5  1   
  5   3   6  1   
  6   4   7  ar  
  7   4   8  ar  
  8   5   9  1   
  9   5  29  1   
 10   5  30  1   
 11   6  10  1   
 12   6  31  1   
 13   6  32  1   
 14   7  11  ar  
 15   8  12  ar  
 16   8  33  1   
 17   9  10  1   
 18   9  34  1   
 19   9  35  1   
 20  10  36  1   
 21  10  37  1   
 22  11  13  1   
 23  11  14  ar  
 24  12  14  ar  
 25  13  15  1   
 26  13  38  1   
 27  14  39  1   
 28  15  16  1   
 29  15  40  1   
 30  15  41  1   
 31  16  17  1   
 32  16  42  1   
 33  16  43  1   
 34  17  18  1   
 35  17  44  1   
 36  17  45  1   
 37  18  19  2   
 38  18  20  1   
 39  19  21  1   
 40  20  22  1   
 41  20  46  1   
 42  21  22  ar  
 43  21  23  ar  
 44  22  24  ar  
 45  23  25  ar  
 46  23  26  1   
 47  24  27  ar  
 48  24  47  1   
 49  25  27  ar  
 50  25  28  1   
 51  26  48  1   
 52  26  49  1   
 53  26  50  1   
 54  27  51  1   
 55  28  52  1   
 56  28  53  1   
 57  28  54  1   
@<TRIPOS>SUBSTRUCTURE
  1 ****  16 GROUP 4 **** **** 0

# MOE 2024.06 (io_trps.svl 2023.06)
