@<TRIPOS>MOLECULE
NONAME
48 51 1 0 0 
SMALL
USER_CHARGES


@<TRIPOS>ATOM
  1 O        3.0650    -0.9260    -0.3160 O.3   1 <1>  -0.2800 
  2 C        2.0930    -0.0320    -0.3800 C.2   1 <1>   0.4250 
  3 C        2.5130    -2.0610    -0.0030 C.2   1 <1>  -0.0100 
  4 N        0.9260    -0.5500    -0.1260 N.2   1 <1>  -0.5650 
  5 C        2.3940     1.3470    -0.7120 C.ar  1 <1>   0.0530 
  6 C        1.1960    -1.8480     0.1200 C.2   1 <1>   0.0460 
  7 C        3.6810     1.7510    -1.0740 C.ar  1 <1>  -0.1500 
  8 C        1.4010     2.3290    -0.6850 C.ar  1 <1>  -0.1500 
  9 C        0.0730    -2.8150     0.4550 C.3   1 <1>   0.5240 
 10 C        3.9620     3.0660    -1.3960 C.ar  1 <1>  -0.1500 
 11 C        1.6760     3.6450    -1.0050 C.ar  1 <1>  -0.1500 
 12 N       -1.0780    -2.4860    -0.4370 N.4   1 <1>  -0.9590 
 13 C        2.9590     4.0170    -1.3620 C.ar  1 <1>  -0.1500 
 14 C       -2.4020    -2.8560     0.1270 C.3   1 <1>   0.4230 
 15 C       -0.8460    -3.0010    -1.8230 C.3   1 <1>   0.2630 
 16 C       -3.5460    -2.3690    -0.7600 C.3   1 <1>  -0.1600 
 17 C       -2.6620    -2.1700     1.4670 C.3   1 <1>  -0.1600 
 18 C       -4.7530    -2.2330     0.1750 C.3   1 <1>  -0.0800 
 19 C       -4.1880    -2.1030     1.5980 C.3   1 <1>  -0.0800 
 20 C       -5.6730    -3.4630     0.1840 C.3   1 <1>  -0.1600 
 21 C       -4.7920    -3.2580     2.4110 C.3   1 <1>  -0.1600 
 22 C       -6.0470    -3.6460     1.6460 C.3   1 <1>   0.2000 
 23 O       -6.3770    -4.9580     1.8970 O.3   1 <1>  -0.6800 
 24 H        3.1310    -2.9360     0.1060 H     1 <1>   0.1500 
 25 H        4.4770     1.0280    -1.1060 H     1 <1>   0.1500 
 26 H        0.3980     2.0580    -0.4070 H     1 <1>   0.1500 
 27 H       -0.2000    -2.6650     1.4860 H     1 <1>   0.0800 
 28 H        0.3890    -3.8360     0.3220 H     1 <1>   0.0800 
 29 H        4.9620     3.3520    -1.6720 H     1 <1>   0.1500 
 30 H        0.8930     4.3840    -0.9760 H     1 <1>   0.1500 
 31 H       -1.0290    -1.4520    -0.4860 H     1 <1>   0.4500 
 32 H        3.1760     5.0410    -1.6120 H     1 <1>   0.1500 
 33 H       -2.4820    -3.9240     0.2520 H     1 <1>   0.0800 
 34 H       -0.8540    -4.0790    -1.8320 H     1 <1>   0.0800 
 35 H        0.1070    -2.6570    -2.1940 H     1 <1>   0.0800 
 36 H       -1.6140    -2.6450    -2.4900 H     1 <1>   0.0800 
 37 H       -3.3150    -1.3940    -1.1530 H     1 <1>   0.0800 
 38 H       -3.7480    -3.0430    -1.5730 H     1 <1>   0.0800 
 39 H       -2.2190    -2.6970     2.2940 H     1 <1>   0.0800 
 40 H       -2.2830    -1.1620     1.4430 H     1 <1>   0.0800 
 41 H       -5.3310    -1.3570    -0.0740 H     1 <1>   0.0800 
 42 H       -4.4930    -1.1640     2.0320 H     1 <1>   0.0800 
 43 H       -5.1480    -4.3340    -0.1680 H     1 <1>   0.0800 
 44 H       -6.5490    -3.3030    -0.4210 H     1 <1>   0.0800 
 45 H       -5.0340    -2.9490     3.4140 H     1 <1>   0.0800 
 46 H       -4.1160    -4.0940     2.4460 H     1 <1>   0.0800 
 47 H       -6.8790    -3.0160     1.9170 H     1 <1>   0.0800 
 48 H       -5.6460    -5.5540     1.6550 H     1 <1>   0.4000 
@<TRIPOS>BOND
  1   1   2  1   
  2   1   3  1   
  3   2   4  2   
  4   2   5  1   
  5   3   6  2   
  6   3  24  1   
  7   4   6  1   
  8   5   7  ar  
  9   5   8  ar  
 10   6   9  1   
 11   7  10  ar  
 12   7  25  1   
 13   8  11  ar  
 14   8  26  1   
 15   9  12  1   
 16   9  27  1   
 17   9  28  1   
 18  10  13  ar  
 19  10  29  1   
 20  11  13  ar  
 21  11  30  1   
 22  12  14  1   
 23  12  15  1   
 24  12  31  1   
 25  13  32  1   
 26  14  16  1   
 27  14  17  1   
 28  14  33  1   
 29  15  34  1   
 30  15  35  1   
 31  15  36  1   
 32  16  18  1   
 33  16  37  1   
 34  16  38  1   
 35  17  19  1   
 36  17  39  1   
 37  17  40  1   
 38  18  19  1   
 39  18  20  1   
 40  18  41  1   
 41  19  21  1   
 42  19  42  1   
 43  20  22  1   
 44  20  43  1   
 45  20  44  1   
 46  21  22  1   
 47  21  45  1   
 48  21  46  1   
 49  22  23  1   
 50  22  47  1   
 51  23  48  1   
@<TRIPOS>SUBSTRUCTURE
  1 ****  12 GROUP 4 **** **** 0

# MOE 2024.06 (io_trps.svl 2023.06)
