@<TRIPOS>MOLECULE
NONAME
52 56 1 0 0 
SMALL
USER_CHARGES


@<TRIPOS>ATOM
  1 O       -0.2040     1.7080    -1.4820 O.2   1 <1>  -0.5700 
  2 C        0.0020     2.2870    -0.4320 C.2   1 <1>   0.5440 
  3 N       -1.0250     2.4240     0.4790 N.am  1 <1>  -0.6600 
  4 C        1.3100     2.8480    -0.1850 C.ar  1 <1>   0.0860 
  5 C       -2.3520     1.7780     0.2620 C.3   1 <1>   0.1400 
  6 C       -0.9750     3.4000     1.6100 C.3   1 <1>   0.1400 
  7 C        2.1280     2.4260     0.8920 C.ar  1 <1>   0.0000 
  8 C        1.8110     3.8370    -0.9890 C.ar  1 <1>  -0.1500 
  9 C       -3.4170     2.8370    -0.1220 C.3   1 <1>   0.0000 
 10 C       -2.3750     3.9330     1.9600 C.3   1 <1>  -0.1600 
 11 C        3.3540     3.0980     1.0920 C.ar  1 <1>   0.3100 
 12 C        1.7940     1.3690     1.7670 C.ar  1 <1>  -0.1500 
 13 C        3.0480     4.4250    -0.7210 C.ar  1 <1>   0.2780 
 14 C       -4.8520     2.3060     0.0810 C.3   1 <1>   0.2000 
 15 C       -3.2180     4.1540     0.6940 C.3   1 <1>  -0.1600 
 16 C       -3.3910     3.1470    -1.6320 C.3   1 <1>  -0.1600 
 17 N        3.7930     4.0930     0.2860 N.ar  1 <1>  -0.6200 
 18 C        4.1660     2.7160     2.1720 C.ar  1 <1>  -0.1500 
 19 C        2.6100     1.0160     2.8080 C.ar  1 <1>  -0.1500 
 20 C        3.5510     5.5250    -1.6430 C.3   1 <1>  -0.0680 
 21 O       -4.9400     0.9870    -0.3310 O.3   1 <1>  -0.6800 
 22 C       -5.7260     3.1320    -0.8640 C.3   1 <1>  -0.1600 
 23 C       -4.8080     3.6050    -2.0010 C.3   1 <1>  -0.1600 
 24 C        3.8090     1.7000     3.0180 C.ar  1 <1>  -0.1500 
 25 C        3.5360     5.3610    -3.1350 C.3   1 <1>  -0.2000 
 26 C        4.8360     5.3430    -2.3950 C.3   1 <1>  -0.2000 
 27 H       -2.2860     1.0150    -0.4930 H     1 <1>   0.0800 
 28 H       -2.6450     1.2890     1.1750 H     1 <1>   0.0800 
 29 H       -0.5390     2.9300     2.4740 H     1 <1>   0.0800 
 30 H       -0.3520     4.2320     1.3290 H     1 <1>   0.0800 
 31 H        1.2450     4.1750    -1.8380 H     1 <1>   0.1500 
 32 H       -2.8720     3.2340     2.6110 H     1 <1>   0.0800 
 33 H       -2.2740     4.8570     2.5010 H     1 <1>   0.0800 
 34 H        0.8770     0.8270     1.6090 H     1 <1>   0.1500 
 35 H       -5.1770     2.3570     1.1060 H     1 <1>   0.0800 
 36 H       -2.7030     4.8820     0.0920 H     1 <1>   0.0800 
 37 H       -4.1630     4.5900     0.9660 H     1 <1>   0.0800 
 38 H       -2.6440     3.8750    -1.8960 H     1 <1>   0.0800 
 39 H       -3.1670     2.2470    -2.1790 H     1 <1>   0.0800 
 40 H        5.0880     3.2510     2.3110 H     1 <1>   0.1500 
 41 H        2.3420     0.2110     3.4710 H     1 <1>   0.1500 
 42 H        3.3630     6.5030    -1.2380 H     1 <1>   0.1000 
 43 H       -4.7450     0.9410    -1.2870 H     1 <1>   0.4000 
 44 H       -6.5720     2.5720    -1.2240 H     1 <1>   0.0800 
 45 H       -6.0950     3.9920    -0.3350 H     1 <1>   0.0800 
 46 H       -5.1080     3.1830    -2.9450 H     1 <1>   0.0800 
 47 H       -4.8430     4.6780    -2.0750 H     1 <1>   0.0800 
 48 H        4.4430     1.4170     3.8410 H     1 <1>   0.1500 
 49 H        3.1890     4.4370    -3.5660 H     1 <1>   0.1000 
 50 H        3.3000     6.2150    -3.7450 H     1 <1>   0.1000 
 51 H        5.5010     6.1840    -2.4770 H     1 <1>   0.1000 
 52 H        5.3610     4.4110    -2.2770 H     1 <1>   0.1000 
@<TRIPOS>BOND
  1   1   2  2   
  2   2   3  am  
  3   2   4  1   
  4   3   5  1   
  5   3   6  1   
  6   4   7  ar  
  7   4   8  ar  
  8   5   9  1   
  9   5  27  1   
 10   5  28  1   
 11   6  10  1   
 12   6  29  1   
 13   6  30  1   
 14   7  11  ar  
 15   7  12  ar  
 16   8  13  ar  
 17   8  31  1   
 18   9  14  1   
 19   9  15  1   
 20   9  16  1   
 21  10  15  1   
 22  10  32  1   
 23  10  33  1   
 24  11  17  ar  
 25  11  18  ar  
 26  12  19  ar  
 27  12  34  1   
 28  13  17  ar  
 29  13  20  1   
 30  14  21  1   
 31  14  22  1   
 32  14  35  1   
 33  15  36  1   
 34  15  37  1   
 35  16  23  1   
 36  16  38  1   
 37  16  39  1   
 38  18  24  ar  
 39  18  40  1   
 40  19  24  ar  
 41  19  41  1   
 42  20  25  1   
 43  20  26  1   
 44  20  42  1   
 45  21  43  1   
 46  22  23  1   
 47  22  44  1   
 48  22  45  1   
 49  23  46  1   
 50  23  47  1   
 51  24  48  1   
 52  25  26  1   
 53  25  49  1   
 54  25  50  1   
 55  26  51  1   
 56  26  52  1   
@<TRIPOS>SUBSTRUCTURE
  1 ****   2 GROUP 4 **** **** 0

# MOE 2024.06 (io_trps.svl 2023.06)
