@<TRIPOS>MOLECULE
NONAME
45 48 1 0 0 
SMALL
USER_CHARGES


@<TRIPOS>ATOM
  1 S        0.3460     0.3640    -0.5650 S.3   1 <1>  -0.0800 
  2 C        1.0540    -1.1210     0.0990 C.ar  1 <1>   0.0400 
  3 C        1.7560     1.3050    -0.0790 C.2   1 <1>  -0.1100 
  4 C        0.5510    -2.4110     0.1260 C.ar  1 <1>   0.4100 
  5 C        2.2830    -0.8550     0.6410 C.ar  1 <1>   0.2560 
  6 C        2.6640     0.5220     0.5320 C.2   1 <1>  -0.1500 
  7 N        1.2600    -3.3810     0.6810 N.ar  1 <1>  -0.6200 
  8 N       -0.6910    -2.7420    -0.3800 N.pl3 1 <1>  -0.8380 
  9 N        3.0040    -1.8210     1.1990 N.ar  1 <1>  -0.5660 
 10 C        2.4430    -3.0140     1.1790 C.ar  1 <1>   0.4700 
 11 C       -0.8280    -4.0600    -1.0700 C.3   1 <1>   0.2090 
 12 C       -1.8620    -2.2800     0.4370 C.3   1 <1>   0.2090 
 13 C       -1.4960    -5.0090    -0.0660 C.3   1 <1>   0.4230 
 14 C       -3.1380    -3.0800     0.1250 C.3   1 <1>  -0.1600 
 15 N       -1.2320    -6.4940    -0.2130 N.4   1 <1>  -0.9590 
 16 C       -2.9860    -4.6360     0.1470 C.3   1 <1>   0.0000 
 17 C       -2.1270    -7.3280     0.6610 C.3   1 <1>   0.3430 
 18 C       -1.2090    -6.9980    -1.6230 C.3   1 <1>   0.2630 
 19 C       -3.3820    -5.2290     1.5270 C.3   1 <1>  -0.1600 
 20 C       -3.8870    -5.2160    -0.9790 C.3   1 <1>   0.1200 
 21 C       -2.6290    -6.5370     1.8810 C.3   1 <1>  -0.1600 
 22 O       -5.1900    -4.7550    -0.8720 O.3   1 <1>  -0.6800 
 23 H        1.7490     2.3560    -0.3090 H     1 <1>   0.1500 
 24 H        3.6120     0.8400     0.9250 H     1 <1>   0.1500 
 25 H        3.0210    -3.8030     1.6300 H     1 <1>   0.1500 
 26 H       -1.4230    -3.9400    -1.9570 H     1 <1>   0.0800 
 27 H        0.1450    -4.4250    -1.3510 H     1 <1>   0.0800 
 28 H       -1.6230    -2.3790     1.4840 H     1 <1>   0.0800 
 29 H       -2.0390    -1.2360     0.2380 H     1 <1>   0.0800 
 30 H       -1.0190    -4.7410     0.8630 H     1 <1>   0.0800 
 31 H       -3.9220    -2.7730     0.7960 H     1 <1>   0.0800 
 32 H       -3.4500    -2.7590    -0.8550 H     1 <1>   0.0800 
 33 H       -0.2770    -6.6080     0.1610 H     1 <1>   0.4500 
 34 H       -2.9820    -7.6590     0.0950 H     1 <1>   0.0800 
 35 H       -1.5980    -8.2080     0.9920 H     1 <1>   0.0800 
 36 H       -2.1750    -6.8810    -2.0860 H     1 <1>   0.0800 
 37 H       -0.9470    -8.0440    -1.6400 H     1 <1>   0.0800 
 38 H       -0.4800    -6.4580    -2.2050 H     1 <1>   0.0800 
 39 H       -3.1650    -4.5120     2.3020 H     1 <1>   0.0800 
 40 H       -4.4430    -5.4030     1.5650 H     1 <1>   0.0800 
 41 H       -3.9310    -6.2880    -0.9620 H     1 <1>   0.0800 
 42 H       -3.5300    -4.9040    -1.9450 H     1 <1>   0.0800 
 43 H       -3.2760    -7.1680     2.4660 H     1 <1>   0.0800 
 44 H       -1.7820    -6.3050     2.5040 H     1 <1>   0.0800 
 45 H       -5.6240    -5.0500    -0.0470 H     1 <1>   0.4000 
@<TRIPOS>BOND
  1   1   2  1   
  2   1   3  1   
  3   2   4  ar  
  4   2   5  ar  
  5   3   6  2   
  6   3  23  1   
  7   4   7  ar  
  8   4   8  1   
  9   5   6  1   
 10   5   9  ar  
 11   6  24  1   
 12   7  10  ar  
 13   8  11  1   
 14   8  12  1   
 15   9  10  ar  
 16  10  25  1   
 17  11  13  1   
 18  11  26  1   
 19  11  27  1   
 20  12  14  1   
 21  12  28  1   
 22  12  29  1   
 23  13  15  1   
 24  13  16  1   
 25  13  30  1   
 26  14  16  1   
 27  14  31  1   
 28  14  32  1   
 29  15  17  1   
 30  15  18  1   
 31  15  33  1   
 32  16  19  1   
 33  16  20  1   
 34  17  21  1   
 35  17  34  1   
 36  17  35  1   
 37  18  36  1   
 38  18  37  1   
 39  18  38  1   
 40  19  21  1   
 41  19  39  1   
 42  19  40  1   
 43  20  22  1   
 44  20  41  1   
 45  20  42  1   
 46  21  43  1   
 47  21  44  1   
 48  22  45  1   
@<TRIPOS>SUBSTRUCTURE
  1 ****   8 GROUP 4 **** **** 0

# MOE 2024.06 (io_trps.svl 2023.06)
