@<TRIPOS>MOLECULE
NONAME
44 47 1 0 0 
SMALL
USER_CHARGES


@<TRIPOS>ATOM
  1 S       -0.9560    -0.6330     1.5780 S.3   1 <1>  -0.4600 
  2 C       -2.0700     0.4310     0.6060 C.3   1 <1>   0.2510 
  3 C       -1.6850    -2.2480     1.1730 C.3   1 <1>   0.2510 
  4 C       -3.0400    -0.5550    -0.0010 C.2   1 <1>   0.1080 
  5 C       -2.8520    -1.8910     0.2830 C.2   1 <1>  -0.1810 
  6 N       -4.0570    -0.3390    -0.7700 N.2   1 <1>  -0.7070 
  7 C       -3.8380    -2.5480    -0.3720 C.2   1 <1>  -0.0880 
  8 N       -4.5620    -1.5760    -1.0150 N.pl3 1 <1>   0.3140 
  9 N       -4.0320    -3.9520    -0.3360 N.am  1 <1>  -0.4940 
 10 C       -5.7750    -1.6890    -1.8340 C.3   1 <1>   0.0160 
 11 C       -4.6910    -4.8520    -1.1430 C.2   1 <1>   0.5440 
 12 O       -5.2790    -4.4860    -2.1430 O.2   1 <1>  -0.5700 
 13 C       -4.6050    -6.2460    -0.8010 C.ar  1 <1>   0.0860 
 14 C       -5.5210    -6.8550     0.0740 C.ar  1 <1>   0.1000 
 15 C       -3.5670    -7.0190    -1.3230 C.ar  1 <1>  -0.1500 
 16 N       -6.6210    -6.1920     0.6030 N.pl3 1 <1>  -0.8380 
 17 C       -5.3500    -8.1930     0.4110 C.ar  1 <1>  -0.1500 
 18 C       -3.4140    -8.3480    -0.9820 C.ar  1 <1>  -0.1500 
 19 C       -7.8910    -6.1250    -0.1780 C.3   1 <1>   0.2090 
 20 C       -6.5350    -5.2430     1.7520 C.3   1 <1>   0.2090 
 21 C       -4.3100    -8.9370    -0.1060 C.ar  1 <1>  -0.1500 
 22 C       -8.3240    -4.6700    -0.4260 C.3   1 <1>   0.1200 
 23 C       -7.0790    -3.8480     1.3840 C.3   1 <1>   0.1200 
 24 O       -8.3340    -3.9320     0.7660 O.3   1 <1>  -0.5600 
 25 H       -1.4930     0.9410    -0.1420 H     1 <1>   0.0800 
 26 H       -2.5570     1.1180     1.2730 H     1 <1>   0.0800 
 27 H       -1.9940    -2.7130     2.0920 H     1 <1>   0.0800 
 28 H       -0.9410    -2.8300     0.6600 H     1 <1>   0.0800 
 29 H       -3.5200    -4.4190     0.4110 H     1 <1>   0.3700 
 30 H       -6.2180    -0.7170    -1.9480 H     1 <1>   0.0800 
 31 H       -6.4720    -2.3440    -1.3520 H     1 <1>   0.0800 
 32 H       -5.5120    -2.0760    -2.8000 H     1 <1>   0.0800 
 33 H       -2.8730    -6.5620    -2.0090 H     1 <1>   0.1500 
 34 H       -6.0560    -8.6450     1.0840 H     1 <1>   0.1500 
 35 H       -2.6060    -8.9280    -1.3950 H     1 <1>   0.1500 
 36 H       -8.6660    -6.6340     0.3680 H     1 <1>   0.0800 
 37 H       -7.7640    -6.6250    -1.1220 H     1 <1>   0.0800 
 38 H       -5.5140    -5.1590     2.0800 H     1 <1>   0.0800 
 39 H       -7.1140    -5.6370     2.5690 H     1 <1>   0.0800 
 40 H       -4.1970    -9.9730     0.1650 H     1 <1>   0.1500 
 41 H       -9.3170    -4.6460    -0.8360 H     1 <1>   0.0800 
 42 H       -7.6550    -4.1980    -1.1220 H     1 <1>   0.0800 
 43 H       -6.4060    -3.3430     0.7180 H     1 <1>   0.0800 
 44 H       -7.1900    -3.2510     2.2710 H     1 <1>   0.0800 
@<TRIPOS>BOND
  1   1   2  1   
  2   1   3  1   
  3   2   4  1   
  4   2  25  1   
  5   2  26  1   
  6   3   5  1   
  7   3  27  1   
  8   3  28  1   
  9   4   5  1   
 10   4   6  2   
 11   5   7  2   
 12   6   8  1   
 13   7   8  1   
 14   7   9  1   
 15   8  10  1   
 16   9  11  am  
 17   9  29  1   
 18  10  30  1   
 19  10  31  1   
 20  10  32  1   
 21  11  12  2   
 22  11  13  1   
 23  13  14  ar  
 24  13  15  ar  
 25  14  16  1   
 26  14  17  ar  
 27  15  18  ar  
 28  15  33  1   
 29  16  19  1   
 30  16  20  1   
 31  17  21  ar  
 32  17  34  1   
 33  18  21  ar  
 34  18  35  1   
 35  19  22  1   
 36  19  36  1   
 37  19  37  1   
 38  20  23  1   
 39  20  38  1   
 40  20  39  1   
 41  21  40  1   
 42  22  24  1   
 43  22  41  1   
 44  22  42  1   
 45  23  24  1   
 46  23  43  1   
 47  23  44  1   
@<TRIPOS>SUBSTRUCTURE
  1 ****   9 GROUP 4 **** **** 0

# MOE 2024.06 (io_trps.svl 2023.06)
