@<TRIPOS>MOLECULE
NONAME
46 49 1 0 0 
SMALL
USER_CHARGES


@<TRIPOS>ATOM
  1 O        0.3540    -0.5860     0.9530 O.co2 1 <1>  -0.9000 
  2 C        1.5760    -0.6380     0.8280 C.2   1 <1>   0.9060 
  3 O        2.2470    -1.5400     1.3550 O.co2 1 <1>  -0.9000 
  4 C        2.2730     0.4100    -0.0590 C.3   1 <1>  -0.1060 
  5 C        3.7990     0.2170    -0.0040 C.3   1 <1>   0.4230 
  6 C        1.8940     1.8320     0.4680 C.3   1 <1>  -0.1600 
  7 C        1.8540     0.2150    -1.5340 C.3   1 <1>  -0.1600 
  8 N        4.1810    -1.1820    -0.3890 N.4   1 <1>  -0.9590 
  9 C        4.3120     0.7740     1.3370 C.3   1 <1>   0.2090 
 10 C        3.0530     2.8400     0.5580 C.3   1 <1>   0.2090 
 11 C        2.2960    -1.1740    -2.0360 C.3   1 <1>  -0.1600 
 12 C        3.7840    -1.4660    -1.7950 C.3   1 <1>   0.3430 
 13 C        5.5990    -1.5270    -0.1130 C.3   1 <1>   0.2630 
 14 N        4.2670     2.2720     1.2370 N.pl3 1 <1>  -0.8380 
 15 C        5.4550     2.9100     0.9380 C.ar  1 <1>   0.4100 
 16 N        6.2180     2.3670     0.0270 N.ar  1 <1>  -0.6200 
 17 C        5.7890     4.1270     1.5970 C.ar  1 <1>   0.1600 
 18 C        7.3480     3.0730    -0.2340 C.ar  1 <1>   0.3100 
 19 N        6.8550     4.8260     1.3740 N.ar  1 <1>  -0.6200 
 20 C        7.6680     4.2870     0.4280 C.ar  1 <1>   0.3100 
 21 C        8.2400     2.5870    -1.2040 C.ar  1 <1>  -0.1500 
 22 C        8.8580     4.9480     0.0940 C.ar  1 <1>  -0.1500 
 23 C        9.3980     3.2540    -1.5120 C.ar  1 <1>  -0.1500 
 24 C        9.7110     4.4460    -0.8560 C.ar  1 <1>  -0.1500 
 25 H        4.2320     0.8640    -0.7480 H     1 <1>   0.0800 
 26 H        1.4950     1.7410     1.4650 H     1 <1>   0.0800 
 27 H        1.0990     2.2470    -0.1250 H     1 <1>   0.0800 
 28 H        0.7820     0.2960    -1.6160 H     1 <1>   0.0800 
 29 H        2.2950     0.9830    -2.1460 H     1 <1>   0.0800 
 30 H        3.5530    -1.7410     0.2490 H     1 <1>   0.4500 
 31 H        5.3220     0.4650     1.5310 H     1 <1>   0.0800 
 32 H        3.6940     0.4450     2.1560 H     1 <1>   0.0800 
 33 H        2.7230     3.7110     1.1000 H     1 <1>   0.0800 
 34 H        3.3230     3.1540    -0.4370 H     1 <1>   0.0800 
 35 H        2.0890    -1.2540    -3.0880 H     1 <1>   0.0800 
 36 H        1.7130    -1.9350    -1.5450 H     1 <1>   0.0800 
 37 H        4.3730    -0.8530    -2.4570 H     1 <1>   0.0800 
 38 H        3.9830    -2.5000    -2.0260 H     1 <1>   0.0800 
 39 H        6.2550    -0.8500    -0.6330 H     1 <1>   0.0800 
 40 H        5.8030    -2.5350    -0.4320 H     1 <1>   0.0800 
 41 H        5.7950    -1.4610     0.9450 H     1 <1>   0.0800 
 42 H        5.0880     4.4700     2.3350 H     1 <1>   0.1500 
 43 H        7.9870     1.6700    -1.7030 H     1 <1>   0.1500 
 44 H        9.0820     5.8640     0.6090 H     1 <1>   0.1500 
 45 H       10.0750     2.8710    -2.2580 H     1 <1>   0.1500 
 46 H       10.6230     4.9630    -1.1050 H     1 <1>   0.1500 
@<TRIPOS>BOND
  1   1   2  ar  
  2   2   3  ar  
  3   2   4  1   
  4   4   5  1   
  5   4   6  1   
  6   4   7  1   
  7   5   8  1   
  8   5   9  1   
  9   5  25  1   
 10   6  10  1   
 11   6  26  1   
 12   6  27  1   
 13   7  11  1   
 14   7  28  1   
 15   7  29  1   
 16   8  12  1   
 17   8  13  1   
 18   8  30  1   
 19   9  14  1   
 20   9  31  1   
 21   9  32  1   
 22  10  14  1   
 23  10  33  1   
 24  10  34  1   
 25  11  12  1   
 26  11  35  1   
 27  11  36  1   
 28  12  37  1   
 29  12  38  1   
 30  13  39  1   
 31  13  40  1   
 32  13  41  1   
 33  14  15  1   
 34  15  16  ar  
 35  15  17  ar  
 36  16  18  ar  
 37  17  19  ar  
 38  17  42  1   
 39  18  20  ar  
 40  18  21  ar  
 41  19  20  ar  
 42  20  22  ar  
 43  21  23  ar  
 44  21  43  1   
 45  22  24  ar  
 46  22  44  1   
 47  23  24  ar  
 48  23  45  1   
 49  24  46  1   
@<TRIPOS>SUBSTRUCTURE
  1 ****  14 GROUP 4 **** **** 0

# MOE 2024.06 (io_trps.svl 2023.06)
