@<TRIPOS>MOLECULE
NONAME
38 39 1 0 0 
SMALL
USER_CHARGES


@<TRIPOS>ATOM
  1 CL      -2.4180    -0.3020    -0.4600 Cl    1 <1>  -0.1770 
  2 C       -2.1070    -1.9870    -0.1200 C.ar  1 <1>   0.1770 
  3 C       -3.1440    -2.9030    -0.1270 C.ar  1 <1>   0.1600 
  4 C       -0.8230    -2.4020     0.1550 C.ar  1 <1>  -0.1500 
  5 N       -3.0000    -4.1990     0.1190 N.ar  1 <1>  -0.6200 
  6 C       -0.6620    -3.7460     0.4120 C.ar  1 <1>  -0.1500 
  7 C       -1.7630    -4.6050     0.3830 C.ar  1 <1>   0.4270 
  8 N       -1.6820    -5.9560     0.6270 N.am  1 <1>  -0.5470 
  9 C       -0.6520    -6.8330     0.7770 C.2   1 <1>   0.5690 
 10 O        0.5130    -6.5190     0.7460 O.2   1 <1>  -0.5700 
 11 C       -1.0260    -8.3020     0.9930 C.3   1 <1>   0.1710 
 12 N       -2.4150    -8.6390     0.5590 N.3   1 <1>  -0.8100 
 13 C       -2.8980    -9.8840     1.2100 C.3   1 <1>   0.1100 
 14 C       -2.5400    -8.6950    -0.9050 C.3   1 <1>   0.1100 
 15 C       -4.1770   -10.4690     0.5640 C.3   1 <1>   0.2000 
 16 C       -4.0250    -8.7450    -1.3020 C.3   1 <1>  -0.1600 
 17 O       -3.8190   -11.4990    -0.2940 O.3   1 <1>  -0.6800 
 18 C       -4.9420    -9.4010    -0.2380 C.3   1 <1>  -0.0800 
 19 C       -6.2390    -9.9660    -0.8400 C.3   1 <1>   0.1200 
 20 O       -6.9170    -8.9630    -1.5150 O.3   1 <1>  -0.6800 
 21 H       -4.1360    -2.5470    -0.3450 H     1 <1>   0.1500 
 22 H       -0.0010    -1.7090     0.1670 H     1 <1>   0.1500 
 23 H        0.3160    -4.1290     0.6370 H     1 <1>   0.1500 
 24 H       -2.5930    -6.4210     0.6110 H     1 <1>   0.3700 
 25 H       -0.9270    -8.4970     2.0460 H     1 <1>   0.0800 
 26 H       -0.3180    -8.9240     0.4750 H     1 <1>   0.0800 
 27 H       -2.1250   -10.6350     1.2080 H     1 <1>   0.0800 
 28 H       -3.1200    -9.6490     2.2360 H     1 <1>   0.0800 
 29 H       -2.0860    -7.8310    -1.3610 H     1 <1>   0.0800 
 30 H       -2.0280    -9.5690    -1.2720 H     1 <1>   0.0800 
 31 H       -4.8010   -10.9010     1.3280 H     1 <1>   0.0800 
 32 H       -4.3700    -7.7420    -1.4820 H     1 <1>   0.0800 
 33 H       -4.1070    -9.2720    -2.2360 H     1 <1>   0.0800 
 34 H       -3.3270   -11.1240    -1.0480 H     1 <1>   0.4000 
 35 H       -5.2180    -8.6400     0.4720 H     1 <1>   0.0800 
 36 H       -6.8850   -10.3530    -0.0710 H     1 <1>   0.0800 
 37 H       -6.0260   -10.7520    -1.5460 H     1 <1>   0.0800 
 38 H       -7.1100    -8.2160    -0.9160 H     1 <1>   0.4000 
@<TRIPOS>BOND
  1   1   2  1   
  2   2   3  ar  
  3   2   4  ar  
  4   3   5  ar  
  5   3  21  1   
  6   4   6  ar  
  7   4  22  1   
  8   5   7  ar  
  9   6   7  ar  
 10   6  23  1   
 11   7   8  1   
 12   8   9  am  
 13   8  24  1   
 14   9  10  2   
 15   9  11  1   
 16  11  12  1   
 17  11  25  1   
 18  11  26  1   
 19  12  13  1   
 20  12  14  1   
 21  13  15  1   
 22  13  27  1   
 23  13  28  1   
 24  14  16  1   
 25  14  29  1   
 26  14  30  1   
 27  15  17  1   
 28  15  18  1   
 29  15  31  1   
 30  16  18  1   
 31  16  32  1   
 32  16  33  1   
 33  17  34  1   
 34  18  19  1   
 35  18  35  1   
 36  19  20  1   
 37  19  36  1   
 38  19  37  1   
 39  20  38  1   
@<TRIPOS>SUBSTRUCTURE
  1 ****   8 GROUP 4 **** **** 0

# MOE 2024.06 (io_trps.svl 2023.06)
