@<TRIPOS>MOLECULE
NONAME
32 32 1 0 0 
SMALL
USER_CHARGES


@<TRIPOS>ATOM
  1 O        0.7070    -0.0130    -0.1920 O.2   1 <1>  -0.5700 
  2 C        1.3740     0.6340     0.5910 C.2   1 <1>   0.7800 
  3 O        1.1110     1.8990     0.8880 O.3   1 <1>  -0.4300 
  4 N        2.4480     0.1020     1.2210 N.am  1 <1>  -0.6550 
  5 C        0.0600     2.6960     0.3810 C.3   1 <1>   0.2800 
  6 C        3.0130    -1.2860     1.1010 C.3   1 <1>   0.2250 
  7 C        0.2060     2.8600    -1.1370 C.3   1 <1>  -0.2400 
  8 C       -1.2950     2.0980     0.7750 C.3   1 <1>  -0.2400 
  9 C        0.2280     4.0570     1.0550 C.3   1 <1>  -0.2400 
 10 C        3.2250    -1.7950    -0.3600 C.3   1 <1>   0.4720 
 11 C        1.9780    -2.4460     1.2140 C.3   1 <1>   0.4720 
 12 N        1.8810    -2.4430    -0.2850 N.4   1 <1>  -0.8440 
 13 C        4.3270    -2.8340    -0.5630 C.3   1 <1>  -0.2400 
 14 H        2.9360     0.7410     1.8550 H     1 <1>   0.3700 
 15 H        3.8720    -1.4150     1.7350 H     1 <1>   0.0000 
 16 H       -0.5130     3.5740    -1.4960 H     1 <1>   0.0800 
 17 H        0.0230     1.9350    -1.6510 H     1 <1>   0.0800 
 18 H        1.1880     3.2190    -1.3840 H     1 <1>   0.0800 
 19 H       -2.0840     2.7760     0.5050 H     1 <1>   0.0800 
 20 H       -1.3410     1.9360     1.8370 H     1 <1>   0.0800 
 21 H       -1.4800     1.1720     0.2640 H     1 <1>   0.0800 
 22 H       -0.5390     4.7350     0.7240 H     1 <1>   0.0800 
 23 H        1.1830     4.4840     0.8080 H     1 <1>   0.0800 
 24 H        0.1520     3.9600     2.1230 H     1 <1>   0.0800 
 25 H        3.2410    -1.0050    -1.0890 H     1 <1>   0.0000 
 26 H        1.0520    -2.1740     1.6860 H     1 <1>   0.0000 
 27 H        2.4100    -3.3650     1.5680 H     1 <1>   0.0000 
 28 H        1.1570    -1.7570    -0.5770 H     1 <1>   0.4500 
 29 H        1.7980    -3.3570    -0.7350 H     1 <1>   0.4500 
 30 H        4.2780    -3.6300     0.1590 H     1 <1>   0.0800 
 31 H        5.2860    -2.3550    -0.4680 H     1 <1>   0.0800 
 32 H        4.2660    -3.2460    -1.5550 H     1 <1>   0.0800 
@<TRIPOS>BOND
  1   1   2  2   
  2   2   3  1   
  3   2   4  am  
  4   3   5  1   
  5   4   6  1   
  6   4  14  1   
  7   5   7  1   
  8   5   8  1   
  9   5   9  1   
 10   6  10  1   
 11   6  11  1   
 12   6  15  1   
 13   7  16  1   
 14   7  17  1   
 15   7  18  1   
 16   8  19  1   
 17   8  20  1   
 18   8  21  1   
 19   9  22  1   
 20   9  23  1   
 21   9  24  1   
 22  10  12  1   
 23  10  13  1   
 24  10  25  1   
 25  11  12  1   
 26  11  26  1   
 27  11  27  1   
 28  12  28  1   
 29  12  29  1   
 30  13  30  1   
 31  13  31  1   
 32  13  32  1   
@<TRIPOS>SUBSTRUCTURE
  1 ****   2 GROUP 4 **** **** 0

# MOE 2024.06 (io_trps.svl 2023.06)
