@<TRIPOS>MOLECULE
NONAME
40 41 1 0 0 
SMALL
USER_CHARGES


@<TRIPOS>ATOM
  1 BR       0.3330     0.9310    -2.0160 Br    1 <1>  -0.1110 
  2 C        0.0510     2.5620    -1.0340 C.ar  1 <1>   0.1110 
  3 C       -0.5830     2.5420     0.1820 C.ar  1 <1>   0.1600 
  4 C        0.4820     3.7630    -1.5400 C.ar  1 <1>   0.1600 
  5 N       -0.7810     3.6550     0.8620 N.ar  1 <1>  -0.6200 
  6 N        0.2930     4.8850    -0.8750 N.ar  1 <1>  -0.6200 
  7 C       -0.3300     4.7720     0.2970 C.ar  1 <1>   0.4770 
  8 C       -0.5620     6.0610     1.0910 C.3   1 <1>   0.0640 
  9 C       -1.4640     7.0490     0.3290 C.3   1 <1>  -0.1600 
 10 C        0.7620     6.7410     1.4830 C.3   1 <1>  -0.1600 
 11 C       -1.6960     8.3300     1.1340 C.3   1 <1>   0.1400 
 12 C        0.5190     8.0260     2.2790 C.3   1 <1>   0.1400 
 13 N       -0.3850     8.9240     1.5110 N.am  1 <1>  -0.6600 
 14 C       -0.0050    10.1960     1.1610 C.2   1 <1>   0.7800 
 15 O        1.0660    10.6640     1.4940 O.2   1 <1>  -0.5700 
 16 O       -0.8670    10.9110     0.4330 O.3   1 <1>  -0.4300 
 17 C       -0.6920    12.2200    -0.0650 C.3   1 <1>   0.2800 
 18 C       -1.9780    12.5270    -0.8330 C.3   1 <1>  -0.2400 
 19 C        0.4960    12.2650    -1.0330 C.3   1 <1>  -0.2400 
 20 C       -0.5450    13.2140     1.0930 C.3   1 <1>  -0.2400 
 21 H       -0.9290     1.6120     0.5970 H     1 <1>   0.1500 
 22 H        0.9820     3.8030    -2.4920 H     1 <1>   0.1500 
 23 H       -1.0710     5.7950     2.0020 H     1 <1>   0.0800 
 24 H       -2.4110     6.5840     0.1190 H     1 <1>   0.0800 
 25 H       -1.0110     7.3090    -0.6120 H     1 <1>   0.0800 
 26 H        1.3250     6.9850     0.5980 H     1 <1>   0.0800 
 27 H        1.3550     6.0640     2.0710 H     1 <1>   0.0800 
 28 H       -2.2470     8.1050     2.0310 H     1 <1>   0.0800 
 29 H       -2.2810     9.0180     0.5500 H     1 <1>   0.0800 
 30 H        1.4600     8.5100     2.4770 H     1 <1>   0.0800 
 31 H        0.0600     7.7930     3.2240 H     1 <1>   0.0800 
 32 H       -2.1110    11.8220    -1.6340 H     1 <1>   0.0800 
 33 H       -1.9350    13.5150    -1.2540 H     1 <1>   0.0800 
 34 H       -2.8270    12.4750    -0.1750 H     1 <1>   0.0800 
 35 H        0.3940    11.5040    -1.7850 H     1 <1>   0.0800 
 36 H        1.4260    12.1230    -0.5120 H     1 <1>   0.0800 
 37 H        0.5390    13.2220    -1.5180 H     1 <1>   0.0800 
 38 H       -1.3580    13.1030     1.7870 H     1 <1>   0.0800 
 39 H       -0.5540    14.2200     0.7150 H     1 <1>   0.0800 
 40 H        0.3850    13.0710     1.6110 H     1 <1>   0.0800 
@<TRIPOS>BOND
  1   1   2  1   
  2   2   3  ar  
  3   2   4  ar  
  4   3   5  ar  
  5   3  21  1   
  6   4   6  ar  
  7   4  22  1   
  8   5   7  ar  
  9   6   7  ar  
 10   7   8  1   
 11   8   9  1   
 12   8  10  1   
 13   8  23  1   
 14   9  11  1   
 15   9  24  1   
 16   9  25  1   
 17  10  12  1   
 18  10  26  1   
 19  10  27  1   
 20  11  13  1   
 21  11  28  1   
 22  11  29  1   
 23  12  13  1   
 24  12  30  1   
 25  12  31  1   
 26  13  14  am  
 27  14  15  2   
 28  14  16  1   
 29  16  17  1   
 30  17  18  1   
 31  17  19  1   
 32  17  20  1   
 33  18  32  1   
 34  18  33  1   
 35  18  34  1   
 36  19  35  1   
 37  19  36  1   
 38  19  37  1   
 39  20  38  1   
 40  20  39  1   
 41  20  40  1   
@<TRIPOS>SUBSTRUCTURE
  1 ****   9 GROUP 4 **** **** 0

# MOE 2024.06 (io_trps.svl 2023.06)
