@<TRIPOS>MOLECULE
NONAME
51 54 1 0 0 
SMALL
USER_CHARGES


@<TRIPOS>ATOM
  1 S       -0.1300     0.4670    -1.3290 S.3   1 <1>  -0.3320 
  2 C       -1.3380    -0.4820    -0.3850 C.ar  1 <1>   0.1020 
  3 C       -0.0330     2.1300    -0.5300 C.3   1 <1>   0.0700 
  4 C       -1.5450    -1.7940    -0.7740 C.ar  1 <1>  -0.1500 
  5 C       -2.0360     0.0680     0.6820 C.ar  1 <1>  -0.1500 
  6 C        1.0430     2.9410    -1.2530 C.3   1 <1>  -0.0990 
  7 C       -2.4600    -2.5700    -0.0860 C.ar  1 <1>   0.0830 
  8 C       -2.9480    -0.7130     1.3740 C.ar  1 <1>  -0.1500 
  9 C        1.2240     4.3290    -0.6580 C.2   1 <1>   0.5690 
 10 O       -2.6670    -3.8510    -0.4870 O.3   1 <1>  -0.3630 
 11 C       -3.1580    -2.0300     0.9980 C.ar  1 <1>   0.0830 
 12 O        0.3620     4.7410     0.0850 O.2   1 <1>  -0.5700 
 13 N        2.3360     5.0810    -0.9570 N.am  1 <1>  -0.6600 
 14 C       -3.8170    -4.5020     0.0190 C.3   1 <1>   0.1200 
 15 O       -4.0450    -2.7780     1.7050 O.3   1 <1>  -0.3630 
 16 C        2.6660     6.2720    -0.1070 C.3   1 <1>   0.1400 
 17 C        3.3730     4.6840    -1.9630 C.3   1 <1>   0.1400 
 18 C       -3.9980    -4.1790     1.5090 C.3   1 <1>   0.1200 
 19 C        3.9220     6.1030     0.7800 C.3   1 <1>   0.2200 
 20 C        4.7510     4.3230    -1.3720 C.3   1 <1>  -0.0190 
 21 N        5.1620     6.3680    -0.0040 N.am  1 <1>  -0.6600 
 22 C        4.0230     4.7700     1.5670 C.3   1 <1>   0.1200 
 23 C        5.5430     5.5680    -1.0410 C.2   1 <1>   0.5690 
 24 C        4.7910     3.3270    -0.1960 C.3   1 <1>   0.1200 
 25 C        5.9320     7.5880     0.3760 C.3   1 <1>   0.0600 
 26 O        3.8620     3.5990     0.8090 O.3   1 <1>  -0.5600 
 27 O        6.5100     5.8150    -1.7220 O.2   1 <1>  -0.5700 
 28 H       -1.0010     2.5920    -0.6170 H     1 <1>   0.0800 
 29 H        0.2230     1.9830     0.5050 H     1 <1>   0.0800 
 30 H       -1.0020    -2.2070    -1.6030 H     1 <1>   0.1500 
 31 H       -1.8850     1.0850     0.9850 H     1 <1>   0.1500 
 32 H        1.9700     2.4050    -1.1720 H     1 <1>   0.0800 
 33 H        0.7770     3.0410    -2.2880 H     1 <1>   0.0800 
 34 H       -3.4960    -0.3080     2.2050 H     1 <1>   0.1500 
 35 H       -4.6680    -4.1620    -0.5430 H     1 <1>   0.0800 
 36 H       -3.6920    -5.5580    -0.1310 H     1 <1>   0.0800 
 37 H        2.7900     7.1320    -0.7390 H     1 <1>   0.0800 
 38 H        1.8390     6.4860     0.5460 H     1 <1>   0.0800 
 39 H        3.0240     3.8500    -2.5420 H     1 <1>   0.0800 
 40 H        3.5000     5.5000    -2.6550 H     1 <1>   0.0800 
 41 H       -3.1730    -4.5680     2.0790 H     1 <1>   0.0800 
 42 H       -4.9150    -4.5970     1.8830 H     1 <1>   0.0800 
 43 H        3.8590     6.8770     1.5250 H     1 <1>   0.0800 
 44 H        5.2950     3.8500    -2.1690 H     1 <1>   0.0800 
 45 H        3.2400     4.7530     2.3050 H     1 <1>   0.0800 
 46 H        4.9650     4.7140     2.0830 H     1 <1>   0.0800 
 47 H        5.7730     3.2990     0.2460 H     1 <1>   0.0800 
 48 H        4.5610     2.3420    -0.5620 H     1 <1>   0.0800 
 49 H        6.2360     7.5220     1.4060 H     1 <1>   0.0800 
 50 H        5.3200     8.4620     0.2390 H     1 <1>   0.0800 
 51 H        6.8140     7.6910    -0.2330 H     1 <1>   0.0800 
@<TRIPOS>BOND
  1   1   2  1   
  2   1   3  1   
  3   2   4  ar  
  4   2   5  ar  
  5   3   6  1   
  6   3  28  1   
  7   3  29  1   
  8   4   7  ar  
  9   4  30  1   
 10   5   8  ar  
 11   5  31  1   
 12   6   9  1   
 13   6  32  1   
 14   6  33  1   
 15   7  10  1   
 16   7  11  ar  
 17   8  11  ar  
 18   8  34  1   
 19   9  12  2   
 20   9  13  am  
 21  10  14  1   
 22  11  15  1   
 23  13  16  1   
 24  13  17  1   
 25  14  18  1   
 26  14  35  1   
 27  14  36  1   
 28  15  18  1   
 29  16  19  1   
 30  16  37  1   
 31  16  38  1   
 32  17  20  1   
 33  17  39  1   
 34  17  40  1   
 35  18  41  1   
 36  18  42  1   
 37  19  21  1   
 38  19  22  1   
 39  19  43  1   
 40  20  23  1   
 41  20  24  1   
 42  20  44  1   
 43  21  23  am  
 44  21  25  1   
 45  22  26  1   
 46  22  45  1   
 47  22  46  1   
 48  23  27  2   
 49  24  26  1   
 50  24  47  1   
 51  24  48  1   
 52  25  49  1   
 53  25  50  1   
 54  25  51  1   
@<TRIPOS>SUBSTRUCTURE
  1 ****   3 GROUP 4 **** **** 0

# MOE 2024.06 (io_trps.svl 2023.06)
