@<TRIPOS>MOLECULE
NONAME
49 51 1 0 0 
SMALL
USER_CHARGES


@<TRIPOS>ATOM
  1 F        1.4500     1.2860    -0.5870 F     1 <1>  -0.3400 
  2 C        1.4920     2.5130    -0.0860 C.3   1 <1>   1.1640 
  3 F        2.2520     3.2280    -0.9060 F     1 <1>  -0.3400 
  4 F        2.1490     2.4310     1.0620 F     1 <1>  -0.3400 
  5 C        0.0820     3.1100     0.1060 C.ar  1 <1>  -0.1440 
  6 C       -0.2430     4.3800    -0.3200 C.ar  1 <1>  -0.1500 
  7 C       -0.9060     2.3480     0.7430 C.ar  1 <1>  -0.1500 
  8 C       -1.5320     4.9330    -0.1700 C.ar  1 <1>   0.0000 
  9 C       -2.1570     2.8670     0.9540 C.ar  1 <1>  -0.1500 
 10 C       -2.4810     4.1630     0.5310 C.ar  1 <1>   0.3610 
 11 C       -1.9050     6.2360    -0.6400 C.ar  1 <1>   0.1000 
 12 N       -3.7090     4.7090     0.8260 N.ar  1 <1>  -0.1790 
 13 N       -1.1230     6.9780    -1.4680 N.pl3 1 <1>  -0.8380 
 14 C       -3.1550     6.7210    -0.2460 C.ar  1 <1>  -0.1500 
 15 C       -4.0410     5.9630     0.4740 C.ar  1 <1>   0.2180 
 16 C       -1.0190     8.4730    -1.3980 C.3   1 <1>   0.2090 
 17 C       -0.4860     6.3960    -2.6940 C.3   1 <1>   0.1290 
 18 C       -5.4080     6.4930     0.8770 C.3   1 <1>  -0.0970 
 19 C        0.4270     8.9110    -1.1290 C.3   1 <1>  -0.0800 
 20 C        1.0250     8.2530     0.1270 C.3   1 <1>   0.1400 
 21 C        0.5560    10.4320    -0.9090 C.3   1 <1>  -0.0990 
 22 N        1.7760     9.3380     0.7780 N.am  1 <1>  -0.6600 
 23 C        1.5290    10.5480     0.2300 C.2   1 <1>   0.5690 
 24 C        2.6370     9.0920     1.9550 C.3   1 <1>   0.1400 
 25 O        1.9940    11.6020     0.5870 O.2   1 <1>  -0.5700 
 26 C        3.9230     8.3990     1.5140 C.3   1 <1>  -0.2400 
 27 H        0.5150     4.9910    -0.7780 H     1 <1>   0.1500 
 28 H       -0.6700     1.3470     1.0760 H     1 <1>   0.1500 
 29 H       -2.8930     2.2660     1.4590 H     1 <1>   0.1500 
 30 H       -4.3730     4.1320     1.3470 H     1 <1>   0.4570 
 31 H       -3.4460     7.7090    -0.5530 H     1 <1>   0.1500 
 32 H       -1.6330     8.8480    -0.5990 H     1 <1>   0.0800 
 33 H       -1.3700     8.9050    -2.3200 H     1 <1>   0.0800 
 34 H       -0.8040     5.3780    -2.8400 H     1 <1>   0.0800 
 35 H        0.5870     6.4180    -2.6070 H     1 <1>   0.0800 
 36 H       -0.7750     6.9620    -3.5630 H     1 <1>   0.0800 
 37 H       -5.5160     6.4830     1.9470 H     1 <1>   0.0800 
 38 H       -6.1880     5.8940     0.4390 H     1 <1>   0.0800 
 39 H       -5.5370     7.5060     0.5380 H     1 <1>   0.0800 
 40 H        1.0430     8.6480    -1.9700 H     1 <1>   0.0800 
 41 H        1.6760     7.4380    -0.1390 H     1 <1>   0.0800 
 42 H        0.2560     7.9030     0.7930 H     1 <1>   0.0800 
 43 H       -0.3710    10.8820    -0.6060 H     1 <1>   0.0800 
 44 H        0.9390    10.9330    -1.7790 H     1 <1>   0.0800 
 45 H        2.1080     8.4860     2.6690 H     1 <1>   0.0800 
 46 H        2.8780    10.0330     2.4220 H     1 <1>   0.0800 
 47 H        3.7130     7.4340     1.0920 H     1 <1>   0.0800 
 48 H        4.5690     8.2660     2.3620 H     1 <1>   0.0800 
 49 H        4.4360     9.0060     0.7880 H     1 <1>   0.0800 
@<TRIPOS>BOND
  1   1   2  1   
  2   2   3  1   
  3   2   4  1   
  4   2   5  1   
  5   5   6  ar  
  6   5   7  ar  
  7   6   8  ar  
  8   6  27  1   
  9   7   9  ar  
 10   7  28  1   
 11   8  10  ar  
 12   8  11  ar  
 13   9  10  ar  
 14   9  29  1   
 15  10  12  ar  
 16  11  13  1   
 17  11  14  ar  
 18  12  15  ar  
 19  12  30  1   
 20  13  16  1   
 21  13  17  1   
 22  14  15  ar  
 23  14  31  1   
 24  15  18  1   
 25  16  19  1   
 26  16  32  1   
 27  16  33  1   
 28  17  34  1   
 29  17  35  1   
 30  17  36  1   
 31  18  37  1   
 32  18  38  1   
 33  18  39  1   
 34  19  20  1   
 35  19  21  1   
 36  19  40  1   
 37  20  22  1   
 38  20  41  1   
 39  20  42  1   
 40  21  23  1   
 41  21  43  1   
 42  21  44  1   
 43  22  23  am  
 44  22  24  1   
 45  23  25  2   
 46  24  26  1   
 47  24  45  1   
 48  24  46  1   
 49  26  47  1   
 50  26  48  1   
 51  26  49  1   
@<TRIPOS>SUBSTRUCTURE
  1 ****   8 GROUP 4 **** **** 0

# MOE 2024.06 (io_trps.svl 2023.06)
