@<TRIPOS>MOLECULE
NONAME
34 35 1 0 0 
SMALL
USER_CHARGES


@<TRIPOS>ATOM
  1 CL      -0.7830    -0.8180    -2.2730 Cl    1 <1>  -0.1770 
  2 C       -1.9080    -1.2820    -1.0180 C.ar  1 <1>   0.1770 
  3 C       -2.6400    -0.3340    -0.3230 C.ar  1 <1>   0.1900 
  4 C       -2.0660    -2.6250    -0.7240 C.ar  1 <1>  -0.1500 
  5 F       -2.4970     0.9350    -0.5980 F     1 <1>  -0.1900 
  6 C       -3.5310    -0.7020     0.6680 C.ar  1 <1>  -0.1500 
  7 C       -2.9630    -3.0150     0.2650 C.ar  1 <1>  -0.1440 
  8 C       -3.6890    -2.0490     0.9590 C.ar  1 <1>  -0.1500 
  9 C       -3.1460    -4.4900     0.5870 C.3   1 <1>   0.4870 
 10 N       -3.9630    -5.1210    -0.4810 N.4   1 <1>  -0.9590 
 11 C       -3.8940    -6.6190    -0.3480 C.3   1 <1>   0.3430 
 12 C       -5.3630    -4.5670    -0.4780 C.3   1 <1>   0.3430 
 13 C       -5.0400    -7.1270     0.5030 C.3   1 <1>  -0.1860 
 14 C       -6.3450    -5.5790    -1.0540 C.3   1 <1>  -0.1600 
 15 C       -4.8950    -8.6040     0.6770 C.2   1 <1>   0.9060 
 16 C       -6.3850    -6.8200    -0.1580 C.3   1 <1>   0.2000 
 17 O       -3.9040    -9.1500     0.1890 O.co2 1 <1>  -0.9000 
 18 O       -5.7790    -9.1930     1.2970 O.co2 1 <1>  -0.9000 
 19 O       -7.2700    -6.5770     0.8650 O.3   1 <1>  -0.6800 
 20 H       -1.4800    -3.3430    -1.2720 H     1 <1>   0.1500 
 21 H       -4.0840     0.0560     1.1970 H     1 <1>   0.1500 
 22 H       -4.3810    -2.3330     1.7360 H     1 <1>   0.1500 
 23 H       -3.6330    -4.6080     1.5410 H     1 <1>   0.0800 
 24 H       -2.1800    -4.9650     0.6400 H     1 <1>   0.0800 
 25 H       -3.5300    -4.8780    -1.3780 H     1 <1>   0.4500 
 26 H       -3.9680    -7.0820    -1.3190 H     1 <1>   0.0800 
 27 H       -2.9550    -6.9300     0.0850 H     1 <1>   0.0800 
 28 H       -5.6690    -4.3540     0.5340 H     1 <1>   0.0800 
 29 H       -5.3990    -3.6480    -1.0410 H     1 <1>   0.0800 
 30 H       -4.9700    -6.6890     1.4800 H     1 <1>   0.0800 
 31 H       -6.0360    -5.8530    -2.0470 H     1 <1>   0.0800 
 32 H       -7.3290    -5.1500    -1.1270 H     1 <1>   0.0800 
 33 H       -6.7550    -7.6680    -0.7160 H     1 <1>   0.0800 
 34 H       -7.3210    -7.4080     1.3990 H     1 <1>   0.4000 
@<TRIPOS>BOND
  1   1   2  1   
  2   2   3  ar  
  3   2   4  ar  
  4   3   5  1   
  5   3   6  ar  
  6   4   7  ar  
  7   4  20  1   
  8   6   8  ar  
  9   6  21  1   
 10   7   8  ar  
 11   7   9  1   
 12   8  22  1   
 13   9  10  1   
 14   9  23  1   
 15   9  24  1   
 16  10  11  1   
 17  10  12  1   
 18  10  25  1   
 19  11  13  1   
 20  11  26  1   
 21  11  27  1   
 22  12  14  1   
 23  12  28  1   
 24  12  29  1   
 25  13  15  1   
 26  13  16  1   
 27  13  30  1   
 28  14  16  1   
 29  14  31  1   
 30  14  32  1   
 31  15  17  ar  
 32  15  18  ar  
 33  16  19  1   
 34  16  33  1   
 35  19  34  1   
@<TRIPOS>SUBSTRUCTURE
  1 ****  10 GROUP 4 **** **** 0

# MOE 2024.06 (io_trps.svl 2023.06)
