@<TRIPOS>MOLECULE
F1913-0923
24 25 1 0 0 
SMALL
USER_CHARGES


@<TRIPOS>ATOM
  1 O       -8.8580     1.6260    -1.1150 O.co2 1 <1>  -0.9000 
  2 C       -8.5950     1.2940     0.0460 C.2   1 <1>   0.9060 
  3 O       -9.3290     1.5840     0.9970 O.co2 1 <1>  -0.9000 
  4 C       -7.3340     0.4920     0.3230 C.3   1 <1>  -0.1860 
  5 C       -6.0810     1.3400     0.0110 C.3   1 <1>   0.0210 
  6 C       -7.3140    -0.8530    -0.4460 C.3   1 <1>  -0.1600 
  7 C       -4.8350     0.4740     0.0490 C.2   1 <1>   0.0460 
  8 C       -6.1050    -1.7270    -0.0670 C.3   1 <1>   0.0200 
  9 N       -3.5760     0.9470     0.1200 N.2   1 <1>  -0.5650 
 10 C       -4.8530    -0.8720     0.0140 C.2   1 <1>  -0.3320 
 11 C       -2.8580    -0.1300     0.1320 C.2   1 <1>   0.0360 
 12 N       -3.5730    -1.2780     0.0720 N.pl3 1 <1>   0.0480 
 13 C       -3.0710    -2.6600     0.0690 C.3   1 <1>   0.0160 
 14 H       -7.3300     0.2730     1.3740 H     1 <1>   0.0800 
 15 H       -5.9960     2.1350     0.7280 H     1 <1>   0.0800 
 16 H       -6.1660     1.7750    -0.9690 H     1 <1>   0.0800 
 17 H       -7.2800    -0.6370    -1.5000 H     1 <1>   0.0800 
 18 H       -8.2260    -1.3900    -0.2530 H     1 <1>   0.0800 
 19 H       -5.9840    -2.5040    -0.8010 H     1 <1>   0.0800 
 20 H       -6.2790    -2.1810     0.8930 H     1 <1>   0.0800 
 21 H       -1.7850    -0.1310     0.1850 H     1 <1>   0.1500 
 22 H       -3.5250    -3.2010     0.8780 H     1 <1>   0.0800 
 23 H       -2.0040    -2.6560     0.1910 H     1 <1>   0.0800 
 24 H       -3.3260    -3.1240    -0.8660 H     1 <1>   0.0800 
@<TRIPOS>BOND
  1   1   2  ar  
  2   2   3  ar  
  3   2   4  1   
  4   4   5  1   
  5   4   6  1   
  6   4  14  1   
  7   5   7  1   
  8   5  15  1   
  9   5  16  1   
 10   6   8  1   
 11   6  17  1   
 12   6  18  1   
 13   7   9  1   
 14   7  10  2   
 15   8  10  1   
 16   8  19  1   
 17   8  20  1   
 18   9  11  2   
 19  10  12  1   
 20  11  12  1   
 21  11  21  1   
 22  12  13  1   
 23  13  22  1   
 24  13  23  1   
 25  13  24  1   
@<TRIPOS>SUBSTRUCTURE
  1 ****   7 GROUP 4 **** **** 0

# MOE 2024.06 (io_trps.svl 2023.06)
