@<TRIPOS>MOLECULE
NONAME
47 49 1 0 0 
SMALL
USER_CHARGES


@<TRIPOS>ATOM
  1 O       -2.8920    -1.0080    -2.6020 O.2   1 <1>  -0.5700 
  2 C       -2.8600    -0.2590    -1.6290 C.2   1 <1>   0.6160 
  3 N       -1.6390     0.2900    -1.2340 N.am  1 <1>  -0.4690 
  4 C       -4.0400     0.0420    -0.8770 C.2   1 <1>   0.0290 
  5 C       -1.5670     1.0830    -0.1050 C.2   1 <1>  -0.0290 
  6 C       -0.4140    -0.0130    -2.0400 C.3   1 <1>   0.0600 
  7 C       -3.9480     0.8460     0.2350 C.2   1 <1>  -0.1380 
  8 C       -5.2690    -0.5300    -1.3490 C.2   1 <1>   0.6160 
  9 C       -2.6910     1.3580     0.6120 C.2   1 <1>  -0.1500 
 10 C       -0.2240     1.6460     0.3380 C.3   1 <1>  -0.1020 
 11 C       -5.1400     1.2300     1.1040 C.3   1 <1>  -0.1020 
 12 O       -6.1000     0.1750    -1.8960 O.2   1 <1>  -0.5700 
 13 N       -5.5750    -1.8560    -1.1440 N.am  1 <1>  -0.6600 
 14 C       -6.7110    -2.5260    -1.8210 C.3   1 <1>   0.1400 
 15 C       -4.6700    -2.8500    -0.5210 C.3   1 <1>   0.1400 
 16 C       -6.4310    -4.0220    -1.6690 C.3   1 <1>   0.2000 
 17 C       -5.4840    -4.1440    -0.4760 C.3   1 <1>  -0.0800 
 18 O       -7.5910    -4.7410    -1.4220 O.3   1 <1>  -0.6800 
 19 C       -4.6300    -5.4230    -0.5270 C.3   1 <1>  -0.0170 
 20 C       -3.7920    -5.5970     0.7320 C.ar  1 <1>   0.1670 
 21 N       -2.7010    -4.8540     0.8300 N.ar  1 <1>  -0.6200 
 22 C       -4.1920    -6.5080     1.7090 C.ar  1 <1>   0.1600 
 23 C       -2.0430    -5.0830     1.9540 C.ar  1 <1>   0.1600 
 24 N       -3.5370    -6.7350     2.8360 N.ar  1 <1>  -0.6200 
 25 C       -2.4470    -5.9920     2.9240 C.ar  1 <1>   0.1600 
 26 H        0.1740     0.8760    -2.1730 H     1 <1>   0.0800 
 27 H       -0.6710    -0.3800    -3.0180 H     1 <1>   0.0800 
 28 H        0.1700    -0.7600    -1.5330 H     1 <1>   0.0800 
 29 H       -2.6430     1.9790     1.4900 H     1 <1>   0.1500 
 30 H        0.4820     0.8500     0.4910 H     1 <1>   0.0800 
 31 H       -0.3230     2.1850     1.2630 H     1 <1>   0.0800 
 32 H        0.1580     2.3240    -0.4030 H     1 <1>   0.0800 
 33 H       -4.9530     0.9540     2.1260 H     1 <1>   0.0800 
 34 H       -6.0460     0.7460     0.7870 H     1 <1>   0.0800 
 35 H       -5.2960     2.2930     1.0560 H     1 <1>   0.0800 
 36 H       -7.6260    -2.2420    -1.3320 H     1 <1>   0.0800 
 37 H       -6.7430    -2.2430    -2.8590 H     1 <1>   0.0800 
 38 H       -3.7970    -2.9760    -1.1410 H     1 <1>   0.0800 
 39 H       -4.3680    -2.5400     0.4650 H     1 <1>   0.0800 
 40 H       -5.9790    -4.4000    -2.5700 H     1 <1>   0.0800 
 41 H       -6.0550    -4.1300     0.4350 H     1 <1>   0.0800 
 42 H       -8.0660    -4.3620    -0.6570 H     1 <1>   0.4000 
 43 H       -3.9770    -5.3960    -1.3820 H     1 <1>   0.0800 
 44 H       -5.2790    -6.2720    -0.6450 H     1 <1>   0.0800 
 45 H       -5.0930    -7.0730     1.5540 H     1 <1>   0.1500 
 46 H       -1.1380    -4.5240     2.1160 H     1 <1>   0.1500 
 47 H       -1.8430    -6.1080     3.8060 H     1 <1>   0.1500 
@<TRIPOS>BOND
  1   1   2  2   
  2   2   3  am  
  3   2   4  1   
  4   3   5  1   
  5   3   6  1   
  6   4   7  2   
  7   4   8  1   
  8   5   9  2   
  9   5  10  1   
 10   6  26  1   
 11   6  27  1   
 12   6  28  1   
 13   7   9  1   
 14   7  11  1   
 15   8  12  2   
 16   8  13  am  
 17   9  29  1   
 18  10  30  1   
 19  10  31  1   
 20  10  32  1   
 21  11  33  1   
 22  11  34  1   
 23  11  35  1   
 24  13  14  1   
 25  13  15  1   
 26  14  16  1   
 27  14  36  1   
 28  14  37  1   
 29  15  17  1   
 30  15  38  1   
 31  15  39  1   
 32  16  17  1   
 33  16  18  1   
 34  16  40  1   
 35  17  19  1   
 36  17  41  1   
 37  18  42  1   
 38  19  20  1   
 39  19  43  1   
 40  19  44  1   
 41  20  21  ar  
 42  20  22  ar  
 43  21  23  ar  
 44  22  24  ar  
 45  22  45  1   
 46  23  25  ar  
 47  23  46  1   
 48  24  25  ar  
 49  25  47  1   
@<TRIPOS>SUBSTRUCTURE
  1 ****  15 GROUP 4 **** **** 0

# MOE 2024.06 (io_trps.svl 2023.06)
