@<TRIPOS>MOLECULE
NONAME
50 53 1 0 0 
SMALL
USER_CHARGES


@<TRIPOS>ATOM
  1 O       -0.4930     0.0130     0.1390 O.2   1 <1>  -0.5700 
  2 C       -1.3610     0.6660     0.6890 C.2   1 <1>   0.7160 
  3 N       -2.5380     0.0390     1.0340 N.am  1 <1>  -0.6600 
  4 C       -1.1640     2.0720     0.9500 C.2   1 <1>  -0.0860 
  5 C       -2.6720    -1.4530     1.0180 C.3   1 <1>   0.1400 
  6 C       -3.8620     0.7340     0.9940 C.3   1 <1>   0.1400 
  7 C       -0.5840     3.0710     0.2210 C.2   1 <1>  -0.3320 
  8 C       -1.5710     2.7250     2.1150 C.2   1 <1>   0.1390 
  9 C       -3.6160    -1.9100    -0.1090 C.3   1 <1>   0.3440 
 10 C       -4.7510     0.1550    -0.1250 C.3   1 <1>   0.2950 
 11 N       -0.6790     4.2070     0.9400 N.pl3 1 <1>   0.3140 
 12 C        0.0660     2.9720    -1.1520 C.3   1 <1>  -0.0600 
 13 N       -1.2990     3.9890     2.1130 N.2   1 <1>  -0.7070 
 14 O       -4.8440    -1.2350    -0.0100 O.3   1 <1>  -0.5600 
 15 C       -3.8490    -3.4160    -0.0320 C.ar  1 <1>  -0.1430 
 16 C       -6.1730     0.7190    -0.0600 C.3   1 <1>  -0.1950 
 17 C       -0.1900     5.5560     0.5820 C.3   1 <1>   0.0960 
 18 C       -2.9970    -4.2740    -0.7150 C.ar  1 <1>  -0.1500 
 19 C       -4.8850    -3.9540     0.7190 C.ar  1 <1>  -0.1500 
 20 C       -7.0580     0.7290    -1.2650 C.3   1 <1>  -0.2000 
 21 C       -6.5190     2.0200    -0.7150 C.3   1 <1>  -0.2000 
 22 C       -1.2550     6.3470    -0.1870 C.3   1 <1>  -0.2400 
 23 C       -3.1780    -5.6450    -0.6480 C.ar  1 <1>  -0.1500 
 24 C       -5.0670    -5.3250     0.7870 C.ar  1 <1>  -0.1500 
 25 C       -4.2130    -6.1710     0.1040 C.ar  1 <1>  -0.1500 
 26 H       -1.7120    -1.9210     0.8870 H     1 <1>   0.0800 
 27 H       -3.0680    -1.7840     1.9610 H     1 <1>   0.0800 
 28 H       -4.3570     0.6100     1.9420 H     1 <1>   0.0800 
 29 H       -3.7390     1.7880     0.8200 H     1 <1>   0.0800 
 30 H       -2.0610     2.2300     2.9360 H     1 <1>   0.1500 
 31 H       -3.1810    -1.6690    -1.0640 H     1 <1>   0.0800 
 32 H       -4.3190     0.3820    -1.0850 H     1 <1>   0.0800 
 33 H       -0.0190     1.9740    -1.5430 H     1 <1>   0.0800 
 34 H        1.1110     3.2170    -1.0850 H     1 <1>   0.0800 
 35 H       -0.4090     3.6460    -1.8420 H     1 <1>   0.0800 
 36 H       -6.6430     0.5110     0.8860 H     1 <1>   0.1000 
 37 H        0.0600     6.0710     1.4930 H     1 <1>   0.0800 
 38 H        0.7020     5.4560    -0.0070 H     1 <1>   0.0800 
 39 H       -2.1860    -3.8790    -1.3030 H     1 <1>   0.1500 
 40 H       -5.5580    -3.3040     1.2520 H     1 <1>   0.1500 
 41 H       -6.6680     0.3490    -2.1940 H     1 <1>   0.1000 
 42 H       -8.1010     0.4980    -1.1340 H     1 <1>   0.1000 
 43 H       -7.1980     2.6890    -0.2150 H     1 <1>   0.1000 
 44 H       -5.7730     2.5440    -1.2880 H     1 <1>   0.1000 
 45 H       -2.1390     6.4540     0.4170 H     1 <1>   0.0800 
 46 H       -1.5100     5.8440    -1.1030 H     1 <1>   0.0800 
 47 H       -0.8820     7.3270    -0.4240 H     1 <1>   0.0800 
 48 H       -2.5130    -6.3020    -1.1810 H     1 <1>   0.1500 
 49 H       -5.8750    -5.7310     1.3700 H     1 <1>   0.1500 
 50 H       -4.3550    -7.2370     0.1560 H     1 <1>   0.1500 
@<TRIPOS>BOND
  1   1   2  2   
  2   2   3  am  
  3   2   4  1   
  4   3   5  1   
  5   3   6  1   
  6   4   7  2   
  7   4   8  1   
  8   5   9  1   
  9   5  26  1   
 10   5  27  1   
 11   6  10  1   
 12   6  28  1   
 13   6  29  1   
 14   7  11  1   
 15   7  12  1   
 16   8  13  2   
 17   8  30  1   
 18   9  14  1   
 19   9  15  1   
 20   9  31  1   
 21  10  14  1   
 22  10  16  1   
 23  10  32  1   
 24  11  13  1   
 25  11  17  1   
 26  12  33  1   
 27  12  34  1   
 28  12  35  1   
 29  15  18  ar  
 30  15  19  ar  
 31  16  20  1   
 32  16  21  1   
 33  16  36  1   
 34  17  22  1   
 35  17  37  1   
 36  17  38  1   
 37  18  23  ar  
 38  18  39  1   
 39  19  24  ar  
 40  19  40  1   
 41  20  21  1   
 42  20  41  1   
 43  20  42  1   
 44  21  43  1   
 45  21  44  1   
 46  22  45  1   
 47  22  46  1   
 48  22  47  1   
 49  23  25  ar  
 50  23  48  1   
 51  24  25  ar  
 52  24  49  1   
 53  25  50  1   
@<TRIPOS>SUBSTRUCTURE
  1 ****   3 GROUP 4 **** **** 0

# MOE 2024.06 (io_trps.svl 2023.06)
