@<TRIPOS>MOLECULE
NONAME
46 48 1 0 0 
SMALL
USER_CHARGES


@<TRIPOS>ATOM
  1 O        3.2640    -1.5930     2.1710 O.2   1 <1>  -0.5700 
  2 C        2.6040    -1.3950     1.1690 C.2   1 <1>   0.5440 
  3 N        2.7280    -0.1570     0.5840 N.am  1 <1>  -0.6600 
  4 C        1.8290    -2.4620     0.5560 C.ar  1 <1>   0.0860 
  5 C        3.0700     1.0340     1.4490 C.3   1 <1>   0.2200 
  6 C        2.9220    -0.0610    -0.8920 C.3   1 <1>   0.1400 
  7 C        0.4800    -2.3320     0.1850 C.ar  1 <1>  -0.1440 
  8 C        2.4700    -3.6720     0.2990 C.ar  1 <1>  -0.1500 
  9 C        2.5960     2.3700     0.8540 C.3   1 <1>   0.1200 
 10 C        4.5860     1.0830     1.7530 C.3   1 <1>   0.3430 
 11 C        4.0480     0.9060    -1.3060 C.3   1 <1>  -0.0800 
 12 C       -0.1650    -3.3720    -0.4820 C.ar  1 <1>  -0.1440 
 13 C       -0.2930    -1.0550     0.5240 C.3   1 <1>  -0.0960 
 14 C        1.8250    -4.7080    -0.3440 C.ar  1 <1>  -0.1500 
 15 O        3.5610     2.8930    -0.0110 O.3   1 <1>  -0.5600 
 16 N        5.3730     0.2160     0.8110 N.4   1 <1>  -0.9590 
 17 C        3.5740     2.3690    -1.2960 C.3   1 <1>   0.1200 
 18 C        5.4150     0.7210    -0.6020 C.3   1 <1>   0.3430 
 19 C        0.5130    -4.5520    -0.7400 C.ar  1 <1>  -0.1500 
 20 C       -1.6140    -3.2730    -0.9430 C.3   1 <1>  -0.0970 
 21 C        6.7300    -0.0720     1.3520 C.3   1 <1>   0.2630 
 22 H        2.5510     0.9140     2.3850 H     1 <1>   0.0800 
 23 H        3.1540    -1.0400    -1.2790 H     1 <1>   0.0800 
 24 H        1.9930     0.2440    -1.3450 H     1 <1>   0.0800 
 25 H        3.4910    -3.8040     0.6090 H     1 <1>   0.1500 
 26 H        2.4810     3.0870     1.6490 H     1 <1>   0.0800 
 27 H        1.6500     2.2750     0.3490 H     1 <1>   0.0800 
 28 H        4.7250     0.7240     2.7590 H     1 <1>   0.0800 
 29 H        4.9390     2.1010     1.7150 H     1 <1>   0.0800 
 30 H        4.2280     0.7010    -2.3460 H     1 <1>   0.0800 
 31 H       -1.3190    -1.2730     0.7580 H     1 <1>   0.0800 
 32 H       -0.2660    -0.3760    -0.3080 H     1 <1>   0.0800 
 33 H        0.1170    -0.5650     1.3880 H     1 <1>   0.0800 
 34 H        2.3390    -5.6340    -0.5360 H     1 <1>   0.1500 
 35 H        4.8180    -0.6600     0.8170 H     1 <1>   0.4500 
 36 H        2.5920     2.4750    -1.7260 H     1 <1>   0.0800 
 37 H        4.2540     2.9770    -1.8700 H     1 <1>   0.0800 
 38 H        5.9410     1.6620    -0.6270 H     1 <1>   0.0800 
 39 H        5.9880     0.0200    -1.1870 H     1 <1>   0.0800 
 40 H        0.0210    -5.3640    -1.2480 H     1 <1>   0.1500 
 41 H       -1.8640    -4.0800    -1.6080 H     1 <1>   0.0800 
 42 H       -1.7790    -2.3500    -1.4690 H     1 <1>   0.0800 
 43 H       -2.2730    -3.3200    -0.0950 H     1 <1>   0.0800 
 44 H        7.3090     0.8350     1.4130 H     1 <1>   0.0800 
 45 H        7.2460    -0.7710     0.7150 H     1 <1>   0.0800 
 46 H        6.6520    -0.5020     2.3380 H     1 <1>   0.0800 
@<TRIPOS>BOND
  1   1   2  2   
  2   2   3  am  
  3   2   4  1   
  4   3   5  1   
  5   3   6  1   
  6   4   7  ar  
  7   4   8  ar  
  8   5   9  1   
  9   5  10  1   
 10   5  22  1   
 11   6  11  1   
 12   6  23  1   
 13   6  24  1   
 14   7  12  ar  
 15   7  13  1   
 16   8  14  ar  
 17   8  25  1   
 18   9  15  1   
 19   9  26  1   
 20   9  27  1   
 21  10  16  1   
 22  10  28  1   
 23  10  29  1   
 24  11  17  1   
 25  11  18  1   
 26  11  30  1   
 27  12  19  ar  
 28  12  20  1   
 29  13  31  1   
 30  13  32  1   
 31  13  33  1   
 32  14  19  ar  
 33  14  34  1   
 34  15  17  1   
 35  16  18  1   
 36  16  21  1   
 37  16  35  1   
 38  17  36  1   
 39  17  37  1   
 40  18  38  1   
 41  18  39  1   
 42  19  40  1   
 43  20  41  1   
 44  20  42  1   
 45  20  43  1   
 46  21  44  1   
 47  21  45  1   
 48  21  46  1   
@<TRIPOS>SUBSTRUCTURE
  1 ****   3 GROUP 4 **** **** 0

# MOE 2024.06 (io_trps.svl 2023.06)
