@<TRIPOS>MOLECULE
NONAME
47 49 1 0 0 
SMALL
USER_CHARGES


@<TRIPOS>ATOM
  1 O        2.3220     0.4160     1.8570 O.2   1 <1>  -0.5700 
  2 C        2.5020    -0.2710     0.8730 C.2   1 <1>   0.5440 
  3 N        2.5260     0.3450    -0.3660 N.am  1 <1>  -0.6600 
  4 C        2.7230    -1.6880     1.0320 C.ar  1 <1>   0.0860 
  5 C        3.0380    -0.3150    -1.6100 C.3   1 <1>   0.1400 
  6 C        2.0180     1.7390    -0.5180 C.3   1 <1>   0.1400 
  7 C        3.7950    -2.1510     1.7890 C.ar  1 <1>   0.1600 
  8 C        1.9050    -2.6430     0.4390 C.ar  1 <1>  -0.1500 
  9 C        4.1320     0.5080    -2.3200 C.3   1 <1>   0.3430 
 10 C        3.1380     2.7490    -0.2440 C.3   1 <1>  -0.1600 
 11 N        4.1330    -3.4190     1.9500 N.ar  1 <1>  -0.6200 
 12 C        2.2270    -3.9700     0.6140 C.ar  1 <1>  -0.1500 
 13 N        4.8850     1.3830    -1.3690 N.4   1 <1>  -0.9590 
 14 C        4.2930     2.7440    -1.2460 C.3   1 <1>   0.3430 
 15 C        3.3480    -4.3140     1.3680 C.ar  1 <1>   0.3930 
 16 C        6.3580     1.4160    -1.6070 C.3   1 <1>   0.5230 
 17 O        3.7220    -5.5910     1.5650 O.3   1 <1>  -0.3630 
 18 C        7.0720     1.8560    -0.3370 C.2   1 <1>   0.0060 
 19 C        2.9620    -6.7000     1.1390 C.3   1 <1>   0.0400 
 20 N        8.3470     2.2530    -0.2700 N.pl3 1 <1>   0.0330 
 21 N        6.5140     1.8870     0.8240 N.2   1 <1>  -0.3380 
 22 C        8.5100     2.5320     1.0220 C.2   1 <1>   0.0060 
 23 N        7.4290     2.3230     1.6860 N.2   1 <1>  -0.3380 
 24 C        9.8070     3.0320     1.6260 C.3   1 <1>  -0.0600 
 25 H        2.2190    -0.4840    -2.2880 H     1 <1>   0.0800 
 26 H        3.4560    -1.2770    -1.3710 H     1 <1>   0.0800 
 27 H        1.2210     1.9010     0.1900 H     1 <1>   0.0800 
 28 H        1.6070     1.8810    -1.5030 H     1 <1>   0.0800 
 29 H        4.4120    -1.4190     2.2850 H     1 <1>   0.1500 
 30 H        1.0440    -2.3450    -0.1330 H     1 <1>   0.1500 
 31 H        3.6750     1.1160    -3.0830 H     1 <1>   0.0800 
 32 H        4.8030    -0.1760    -2.8120 H     1 <1>   0.0800 
 33 H        3.5240     2.5920     0.7490 H     1 <1>   0.0800 
 34 H        2.7050     3.7340    -0.2470 H     1 <1>   0.0800 
 35 H        1.6090    -4.7240     0.1680 H     1 <1>   0.1500 
 36 H        4.7750     0.9860    -0.4150 H     1 <1>   0.4500 
 37 H        5.0410     3.4340    -0.8870 H     1 <1>   0.0800 
 38 H        3.9520     3.0900    -2.2080 H     1 <1>   0.0800 
 39 H        6.5870     2.0900    -2.4150 H     1 <1>   0.0800 
 40 H        6.7070     0.4300    -1.8680 H     1 <1>   0.0800 
 41 H        3.4650    -7.5920     1.4670 H     1 <1>   0.0800 
 42 H        2.8990    -6.6910     0.0660 H     1 <1>   0.0800 
 43 H        1.9850    -6.6480     1.5870 H     1 <1>   0.0800 
 44 H        9.0580     2.3350    -1.0020 H     1 <1>   0.2700 
 45 H       10.0920     3.9670     1.1800 H     1 <1>   0.0800 
 46 H       10.5900     2.3110     1.4760 H     1 <1>   0.0800 
 47 H        9.6810     3.1820     2.6840 H     1 <1>   0.0800 
@<TRIPOS>BOND
  1   1   2  2   
  2   2   3  am  
  3   2   4  1   
  4   3   5  1   
  5   3   6  1   
  6   4   7  ar  
  7   4   8  ar  
  8   5   9  1   
  9   5  25  1   
 10   5  26  1   
 11   6  10  1   
 12   6  27  1   
 13   6  28  1   
 14   7  11  ar  
 15   7  29  1   
 16   8  12  ar  
 17   8  30  1   
 18   9  13  1   
 19   9  31  1   
 20   9  32  1   
 21  10  14  1   
 22  10  33  1   
 23  10  34  1   
 24  11  15  ar  
 25  12  15  ar  
 26  12  35  1   
 27  13  14  1   
 28  13  16  1   
 29  13  36  1   
 30  14  37  1   
 31  14  38  1   
 32  15  17  1   
 33  16  18  1   
 34  16  39  1   
 35  16  40  1   
 36  17  19  1   
 37  18  20  1   
 38  18  21  2   
 39  19  41  1   
 40  19  42  1   
 41  19  43  1   
 42  20  22  1   
 43  20  44  1   
 44  21  23  1   
 45  22  23  2   
 46  22  24  1   
 47  24  45  1   
 48  24  46  1   
 49  24  47  1   
@<TRIPOS>SUBSTRUCTURE
  1 ****   2 GROUP 4 **** **** 0

# MOE 2024.06 (io_trps.svl 2023.06)
