@<TRIPOS>MOLECULE
NONAME
54 56 1 0 0 
SMALL
USER_CHARGES


@<TRIPOS>ATOM
  1 F        0.9160     1.6700    -1.9940 F     1 <1>  -0.1900 
  2 C        2.1130     1.9870    -1.5840 C.ar  1 <1>   0.1900 
  3 C        2.2870     2.3790    -0.2710 C.ar  1 <1>  -0.1500 
  4 C        3.1640     1.9180    -2.4770 C.ar  1 <1>  -0.1500 
  5 C        3.5590     2.7130     0.1600 C.ar  1 <1>  -0.1500 
  6 C        4.4340     2.2540    -2.0380 C.ar  1 <1>  -0.1500 
  7 C        4.6390     2.6520    -0.7190 C.ar  1 <1>  -0.1430 
  8 C        6.0470     3.0150    -0.2510 C.3   1 <1>   0.6280 
  9 N        6.5660     1.9370     0.6810 N.4   1 <1>  -0.9590 
 10 C        6.0410     4.4410     0.3620 C.2   1 <1>   0.5690 
 11 C        8.0150     2.1360     0.9920 C.3   1 <1>   0.3430 
 12 C        6.2710     0.5410     0.2310 C.3   1 <1>   0.3430 
 13 O        6.3280     4.5470     1.5340 O.2   1 <1>  -0.5700 
 14 N        5.7240     5.5200    -0.4270 N.am  1 <1>  -0.4940 
 15 C        8.4430     1.1690     2.0970 C.3   1 <1>  -0.1600 
 16 C        6.6770    -0.4510     1.3220 C.3   1 <1>  -0.1600 
 17 C        5.8420     6.9070    -0.1670 C.2   1 <1>  -0.0880 
 18 C        8.1470    -0.2890     1.7250 C.3   1 <1>  -0.1600 
 19 N        5.6040     7.5740     1.0010 N.pl3 1 <1>   0.3140 
 20 C        6.2110     7.8480    -1.0700 C.2   1 <1>  -0.1810 
 21 N        5.8230     8.8960     0.8610 N.2   1 <1>  -0.7070 
 22 C        5.0640     7.0720     2.2710 C.3   1 <1>   0.0160 
 23 C        6.1870     9.0510    -0.3690 C.2   1 <1>   0.1080 
 24 C        6.5820     7.6700    -2.5340 C.3   1 <1>   0.0210 
 25 C        6.5310    10.4140    -0.9270 C.3   1 <1>  -0.0590 
 26 C        8.0800     7.3950    -2.6750 C.3   1 <1>  -0.2400 
 27 H        1.4390     2.4210     0.3900 H     1 <1>   0.1500 
 28 H        2.9810     1.6080    -3.4920 H     1 <1>   0.1500 
 29 H        3.6870     3.0230     1.1860 H     1 <1>   0.1500 
 30 H        5.2490     2.1980    -2.7410 H     1 <1>   0.1500 
 31 H        6.6850     3.0460    -1.1170 H     1 <1>   0.0800 
 32 H        6.0700     2.0960     1.5680 H     1 <1>   0.4500 
 33 H        8.1950     3.1470     1.3240 H     1 <1>   0.0800 
 34 H        8.6090     1.9560     0.1100 H     1 <1>   0.0800 
 35 H        6.8170     0.3240    -0.6730 H     1 <1>   0.0800 
 36 H        5.2180     0.4240     0.0280 H     1 <1>   0.0800 
 37 H        5.4270     5.3310    -1.3870 H     1 <1>   0.3700 
 38 H        7.9370     1.4270     3.0110 H     1 <1>   0.0800 
 39 H        9.4990     1.2840     2.2740 H     1 <1>   0.0800 
 40 H        6.5140    -1.4530     0.9640 H     1 <1>   0.0800 
 41 H        6.0440    -0.3140     2.1820 H     1 <1>   0.0800 
 42 H        8.3710    -0.9320     2.5610 H     1 <1>   0.0800 
 43 H        8.7810    -0.5880     0.9060 H     1 <1>   0.0800 
 44 H        4.3730     6.2740     2.0770 H     1 <1>   0.0800 
 45 H        4.5560     7.8720     2.7760 H     1 <1>   0.0800 
 46 H        5.8750     6.7220     2.8810 H     1 <1>   0.0800 
 47 H        6.3220     8.5580    -3.0840 H     1 <1>   0.0800 
 48 H        6.0230     6.8550    -2.9540 H     1 <1>   0.0800 
 49 H        7.4420    10.3640    -1.4940 H     1 <1>   0.0800 
 50 H        6.6630    11.1130    -0.1220 H     1 <1>   0.0800 
 51 H        5.7330    10.7580    -1.5580 H     1 <1>   0.0800 
 52 H        8.6460     8.2190    -2.2770 H     1 <1>   0.0800 
 53 H        8.3390     7.2680    -3.7110 H     1 <1>   0.0800 
 54 H        8.3490     6.5050    -2.1350 H     1 <1>   0.0800 
@<TRIPOS>BOND
  1   1   2  1   
  2   2   3  ar  
  3   2   4  ar  
  4   3   5  ar  
  5   3  27  1   
  6   4   6  ar  
  7   4  28  1   
  8   5   7  ar  
  9   5  29  1   
 10   6   7  ar  
 11   6  30  1   
 12   7   8  1   
 13   8   9  1   
 14   8  10  1   
 15   8  31  1   
 16   9  11  1   
 17   9  12  1   
 18   9  32  1   
 19  10  13  2   
 20  10  14  am  
 21  11  15  1   
 22  11  33  1   
 23  11  34  1   
 24  12  16  1   
 25  12  35  1   
 26  12  36  1   
 27  14  17  1   
 28  14  37  1   
 29  15  18  1   
 30  15  38  1   
 31  15  39  1   
 32  16  18  1   
 33  16  40  1   
 34  16  41  1   
 35  17  19  1   
 36  17  20  2   
 37  18  42  1   
 38  18  43  1   
 39  19  21  1   
 40  19  22  1   
 41  20  23  1   
 42  20  24  1   
 43  21  23  2   
 44  22  44  1   
 45  22  45  1   
 46  22  46  1   
 47  23  25  1   
 48  24  26  1   
 49  24  47  1   
 50  24  48  1   
 51  25  49  1   
 52  25  50  1   
 53  25  51  1   
 54  26  52  1   
 55  26  53  1   
 56  26  54  1   
@<TRIPOS>SUBSTRUCTURE
  1 ****  10 GROUP 4 **** **** 0

# MOE 2024.06 (io_trps.svl 2023.06)
