@<TRIPOS>MOLECULE
NONAME
43 45 1 0 0 
SMALL
USER_CHARGES


@<TRIPOS>ATOM
  1 F        1.7780     1.2840     0.4420 F     1 <1>  -0.1900 
  2 C        2.0360     0.1300    -0.1160 C.ar  1 <1>   0.1900 
  3 C        3.2070    -0.0260    -0.8670 C.ar  1 <1>   0.0860 
  4 C        1.1070    -0.8830     0.0790 C.ar  1 <1>  -0.1440 
  5 C        4.2000     1.0190    -1.0680 C.2   1 <1>   0.5440 
  6 C        3.3950    -1.2860    -1.4410 C.ar  1 <1>  -0.1500 
  7 C        1.3460    -2.1150    -0.5050 C.ar  1 <1>  -0.1500 
  8 C       -0.1520    -0.6620     0.9070 C.3   1 <1>  -0.0960 
  9 O        5.0640     0.9130    -1.9210 O.2   1 <1>  -0.5700 
 10 N        4.3090     2.1280    -0.2720 N.am  1 <1>  -0.6600 
 11 C        2.4860    -2.3130    -1.2640 C.ar  1 <1>  -0.1500 
 12 C        4.9280     1.9500     1.0860 C.3   1 <1>   0.2200 
 13 C        4.3420     3.4740    -0.9210 C.3   1 <1>   0.1400 
 14 C        4.5390     3.0620     2.0730 C.3   1 <1>   0.1200 
 15 C        6.4700     1.8260     0.9700 C.3   1 <1>   0.3430 
 16 C        5.4750     4.3990    -0.4370 C.3   1 <1>  -0.0800 
 17 O        5.4190     4.1420     1.9680 O.3   1 <1>  -0.5600 
 18 N        6.9950     2.3290    -0.3480 N.4   1 <1>  -0.9590 
 19 C        5.1640     5.0280     0.9310 C.3   1 <1>   0.1200 
 20 C        6.9030     3.8140    -0.5090 C.3   1 <1>   0.3430 
 21 C        8.3650     1.8210    -0.6320 C.3   1 <1>   0.2630 
 22 H        4.2710    -1.4680    -2.0420 H     1 <1>   0.1500 
 23 H        0.6480    -2.9260    -0.3770 H     1 <1>   0.1500 
 24 H       -0.7500    -1.5540     0.9480 H     1 <1>   0.0800 
 25 H       -0.7430     0.1240     0.4730 H     1 <1>   0.0800 
 26 H        0.1110    -0.3820     1.9110 H     1 <1>   0.0800 
 27 H        2.6620    -3.2730    -1.7200 H     1 <1>   0.1500 
 28 H        4.5510     1.0320     1.5010 H     1 <1>   0.0800 
 29 H        4.4330     3.3470    -1.9880 H     1 <1>   0.0800 
 30 H        3.3930     3.9540    -0.7480 H     1 <1>   0.0800 
 31 H        4.6340     2.6900     3.0790 H     1 <1>   0.0800 
 32 H        3.5230     3.3890     1.9310 H     1 <1>   0.0800 
 33 H        6.7220     0.7840     1.0710 H     1 <1>   0.0800 
 34 H        6.9390     2.3530     1.7850 H     1 <1>   0.0800 
 35 H        5.4690     5.2320    -1.1160 H     1 <1>   0.0800 
 36 H        6.3390     1.9190    -1.0530 H     1 <1>   0.4500 
 37 H        4.1400     5.3590     0.9950 H     1 <1>   0.0800 
 38 H        5.7980     5.8830     1.0910 H     1 <1>   0.0800 
 39 H        7.5130     4.2950     0.2390 H     1 <1>   0.0800 
 40 H        7.3120     4.0700    -1.4720 H     1 <1>   0.0800 
 41 H        9.0660     2.2080     0.0900 H     1 <1>   0.0800 
 42 H        8.6770     2.1250    -1.6180 H     1 <1>   0.0800 
 43 H        8.3780     0.7440    -0.5890 H     1 <1>   0.0800 
@<TRIPOS>BOND
  1   1   2  1   
  2   2   3  ar  
  3   2   4  ar  
  4   3   5  1   
  5   3   6  ar  
  6   4   7  ar  
  7   4   8  1   
  8   5   9  2   
  9   5  10  am  
 10   6  11  ar  
 11   6  22  1   
 12   7  11  ar  
 13   7  23  1   
 14   8  24  1   
 15   8  25  1   
 16   8  26  1   
 17  10  12  1   
 18  10  13  1   
 19  11  27  1   
 20  12  14  1   
 21  12  15  1   
 22  12  28  1   
 23  13  16  1   
 24  13  29  1   
 25  13  30  1   
 26  14  17  1   
 27  14  31  1   
 28  14  32  1   
 29  15  18  1   
 30  15  33  1   
 31  15  34  1   
 32  16  19  1   
 33  16  20  1   
 34  16  35  1   
 35  17  19  1   
 36  18  20  1   
 37  18  21  1   
 38  18  36  1   
 39  19  37  1   
 40  19  38  1   
 41  20  39  1   
 42  20  40  1   
 43  21  41  1   
 44  21  42  1   
 45  21  43  1   
@<TRIPOS>SUBSTRUCTURE
  1 ****  10 GROUP 4 **** **** 0

# MOE 2024.06 (io_trps.svl 2023.06)
