@<TRIPOS>MOLECULE
NONAME
46 48 1 0 0 
SMALL
USER_CHARGES


@<TRIPOS>ATOM
  1 S       -0.7660    -2.1290     0.1590 S.o2  1 <1>   1.3330 
  2 O       -0.8390    -3.3990     0.8360 O.2   1 <1>  -0.6500 
  3 O       -0.0450    -1.9980    -1.0820 O.2   1 <1>  -0.6500 
  4 N       -2.3730    -1.7650    -0.1340 N.am  1 <1>  -0.9140 
  5 C       -0.2610    -0.8520     1.2900 C.3   1 <1>  -0.1350 
  6 C       -2.8290    -2.0670    -1.5130 C.3   1 <1>   0.2570 
  7 C       -3.0030    -3.5480    -1.9080 C.2   1 <1>   0.5690 
  8 O       -3.6570    -3.7890    -2.8940 O.2   1 <1>  -0.5700 
  9 N       -2.4730    -4.5610    -1.1680 N.am  1 <1>  -0.7300 
 10 C       -2.4420    -5.9850    -1.5840 C.3   1 <1>   0.2200 
 11 C       -3.4810    -6.8160    -0.8450 C.3   1 <1>  -0.0800 
 12 C       -1.1500    -6.6230    -1.0800 C.3   1 <1>   0.1200 
 13 C       -2.7790    -7.0740     0.4900 C.3   1 <1>   0.1200 
 14 C       -4.8780    -6.1730    -0.7310 C.3   1 <1>  -0.0170 
 15 O       -1.4090    -7.0670     0.2210 O.3   1 <1>  -0.5600 
 16 C       -5.9890    -7.0390    -0.1220 C.ar  1 <1>  -0.1430 
 17 C       -7.2590    -6.4670     0.1360 C.ar  1 <1>   0.0000 
 18 C       -5.8340    -8.3620     0.1880 C.ar  1 <1>  -0.1500 
 19 C       -8.2550    -7.2890     0.7190 C.ar  1 <1>   0.3100 
 20 C       -7.6040    -5.1260    -0.1590 C.ar  1 <1>  -0.1500 
 21 C       -6.8880    -9.0880     0.7560 C.ar  1 <1>   0.1600 
 22 N       -8.0540    -8.5950     1.0240 N.ar  1 <1>  -0.6200 
 23 C       -9.5180    -6.7410     0.9950 C.ar  1 <1>  -0.1500 
 24 C       -8.8460    -4.6230     0.1190 C.ar  1 <1>  -0.1500 
 25 C       -9.8170    -5.4370     0.7060 C.ar  1 <1>  -0.1500 
 26 H       -2.8920    -2.3720     0.5010 H     1 <1>   0.4200 
 27 H       -0.8730    -0.8690     2.1700 H     1 <1>   0.0800 
 28 H       -0.3500     0.1090     0.8240 H     1 <1>   0.0800 
 29 H        0.7610    -1.0000     1.5790 H     1 <1>   0.0800 
 30 H       -3.7890    -1.6030    -1.6470 H     1 <1>   0.0800 
 31 H       -2.1680    -1.6050    -2.2260 H     1 <1>   0.0800 
 32 H       -1.8830    -4.3650    -0.3430 H     1 <1>   0.3700 
 33 H       -2.5370    -6.0640    -2.6540 H     1 <1>   0.0800 
 34 H       -3.5700    -7.7500    -1.3690 H     1 <1>   0.0800 
 35 H       -0.3230    -5.9360    -1.0690 H     1 <1>   0.0800 
 36 H       -0.9010    -7.4860    -1.6720 H     1 <1>   0.0800 
 37 H       -3.0440    -8.0190     0.9290 H     1 <1>   0.0800 
 38 H       -2.9740    -6.2800     1.1910 H     1 <1>   0.0800 
 39 H       -5.1920    -5.8770    -1.7180 H     1 <1>   0.0800 
 40 H       -4.7910    -5.2810    -0.1370 H     1 <1>   0.0800 
 41 H       -4.9230    -8.8990     0.0150 H     1 <1>   0.1500 
 42 H       -6.8790    -4.4810    -0.6190 H     1 <1>   0.1500 
 43 H       -6.7160   -10.1260     0.9860 H     1 <1>   0.1500 
 44 H      -10.2490    -7.3880     1.4430 H     1 <1>   0.1500 
 45 H       -9.0930    -3.6000    -0.1110 H     1 <1>   0.1500 
 46 H      -10.7900    -5.0310     0.9230 H     1 <1>   0.1500 
@<TRIPOS>BOND
  1   1   2  2   
  2   1   3  2   
  3   1   4  am  
  4   1   5  1   
  5   4   6  1   
  6   4  26  1   
  7   5  27  1   
  8   5  28  1   
  9   5  29  1   
 10   6   7  1   
 11   6  30  1   
 12   6  31  1   
 13   7   8  2   
 14   7   9  am  
 15   9  10  1   
 16   9  32  1   
 17  10  11  1   
 18  10  12  1   
 19  10  33  1   
 20  11  13  1   
 21  11  14  1   
 22  11  34  1   
 23  12  15  1   
 24  12  35  1   
 25  12  36  1   
 26  13  15  1   
 27  13  37  1   
 28  13  38  1   
 29  14  16  1   
 30  14  39  1   
 31  14  40  1   
 32  16  17  ar  
 33  16  18  ar  
 34  17  19  ar  
 35  17  20  ar  
 36  18  21  ar  
 37  18  41  1   
 38  19  22  ar  
 39  19  23  ar  
 40  20  24  ar  
 41  20  42  1   
 42  21  22  ar  
 43  21  43  1   
 44  23  25  ar  
 45  23  44  1   
 46  24  25  ar  
 47  24  45  1   
 48  25  46  1   
@<TRIPOS>SUBSTRUCTURE
  1 ****  14 GROUP 4 **** **** 0

# MOE 2024.06 (io_trps.svl 2023.06)
