@<TRIPOS>MOLECULE
NONAME
51 54 1 0 0 
SMALL
USER_CHARGES


@<TRIPOS>ATOM
  1 S       -1.8370     0.0940     1.9060 S.3   1 <1>  -0.0800 
  2 C       -1.9390    -0.9550     0.4870 C.2   1 <1>  -0.0450 
  3 C       -1.6220     1.5270     0.9260 C.2   1 <1>  -0.1100 
  4 C       -2.1360    -2.3710     0.6860 C.2   1 <1>   0.7150 
  5 C       -1.8010    -0.1870    -0.6260 C.2   1 <1>  -0.1500 
  6 C       -1.6270     1.2070    -0.3810 C.2   1 <1>  -0.1500 
  7 O       -1.7260    -2.9220     1.6910 O.2   1 <1>  -0.5700 
  8 N       -2.8090    -3.1420    -0.2440 N.am  1 <1>  -0.6600 
  9 C       -2.6330    -4.6140    -0.2790 C.3   1 <1>   0.1400 
 10 C       -3.9870    -2.6420    -0.9880 C.3   1 <1>   0.1400 
 11 C       -3.8620    -5.2680     0.3500 C.3   1 <1>  -0.1600 
 12 C       -5.2450    -3.2720    -0.3850 C.3   1 <1>  -0.1600 
 13 C       -5.1530    -4.8060    -0.3410 C.3   1 <1>   0.4230 
 14 N       -6.3310    -5.3610     0.3830 N.4   1 <1>  -0.9590 
 15 C       -7.6710    -4.9830    -0.1440 C.3   1 <1>   0.3430 
 16 C       -6.3610    -6.8520     0.4940 C.3   1 <1>   0.3430 
 17 C       -8.6190    -5.9710     0.5330 C.3   1 <1>   0.2000 
 18 C       -7.8390    -7.2860     0.5000 C.3   1 <1>  -0.0800 
 19 O       -8.7540    -5.5840     1.8610 O.3   1 <1>  -0.6800 
 20 C       -8.2010    -8.1250    -0.7450 C.3   1 <1>  -0.0170 
 21 C       -7.4450    -9.4460    -0.7920 C.ar  1 <1>   0.1670 
 22 N       -6.1700    -9.3790    -1.1440 N.ar  1 <1>  -0.6200 
 23 C       -8.0970   -10.6390    -0.4810 C.ar  1 <1>   0.1600 
 24 C       -5.6000   -10.5750    -1.1750 C.ar  1 <1>   0.1600 
 25 N       -7.5240   -11.8290    -0.4980 N.ar  1 <1>  -0.6200 
 26 C       -6.2550   -11.7600    -0.8610 C.ar  1 <1>   0.1600 
 27 H       -1.5120     2.4680     1.4360 H     1 <1>   0.1500 
 28 H       -1.8080    -0.5650    -1.6330 H     1 <1>   0.1500 
 29 H       -1.5090     1.9050    -1.1910 H     1 <1>   0.1500 
 30 H       -2.5120    -4.9330    -1.3010 H     1 <1>   0.0800 
 31 H       -1.7450    -4.8990     0.2630 H     1 <1>   0.0800 
 32 H       -4.0590    -1.5700    -0.9180 H     1 <1>   0.0800 
 33 H       -3.8880    -2.9050    -2.0280 H     1 <1>   0.0800 
 34 H       -3.8810    -5.0080     1.3940 H     1 <1>   0.0800 
 35 H       -3.7440    -6.3330     0.2630 H     1 <1>   0.0800 
 36 H       -6.0830    -2.9620    -0.9810 H     1 <1>   0.0800 
 37 H       -5.3690    -2.8820     0.6110 H     1 <1>   0.0800 
 38 H       -5.1480    -5.1780    -1.3540 H     1 <1>   0.0800 
 39 H       -6.3170    -5.0050     1.3520 H     1 <1>   0.4500 
 40 H       -7.9320    -3.9660     0.1020 H     1 <1>   0.0800 
 41 H       -7.7010    -5.1210    -1.2110 H     1 <1>   0.0800 
 42 H       -5.8480    -7.2840    -0.3480 H     1 <1>   0.0800 
 43 H       -5.8690    -7.1720     1.3980 H     1 <1>   0.0800 
 44 H       -9.5940    -6.0080     0.0750 H     1 <1>   0.0800 
 45 H       -8.0440    -7.8790     1.3750 H     1 <1>   0.0800 
 46 H       -9.4630    -6.0890     2.3140 H     1 <1>   0.4000 
 47 H       -7.9840    -7.5780    -1.6460 H     1 <1>   0.0800 
 48 H       -9.2580    -8.3280    -0.7420 H     1 <1>   0.0800 
 49 H       -9.1360   -10.6140    -0.2040 H     1 <1>   0.1500 
 50 H       -4.5650   -10.6260    -1.4630 H     1 <1>   0.1500 
 51 H       -5.7080   -12.6860    -0.9130 H     1 <1>   0.1500 
@<TRIPOS>BOND
  1   1   2  1   
  2   1   3  1   
  3   2   4  1   
  4   2   5  2   
  5   3   6  2   
  6   3  27  1   
  7   4   7  2   
  8   4   8  am  
  9   5   6  1   
 10   5  28  1   
 11   6  29  1   
 12   8   9  1   
 13   8  10  1   
 14   9  11  1   
 15   9  30  1   
 16   9  31  1   
 17  10  12  1   
 18  10  32  1   
 19  10  33  1   
 20  11  13  1   
 21  11  34  1   
 22  11  35  1   
 23  12  13  1   
 24  12  36  1   
 25  12  37  1   
 26  13  14  1   
 27  13  38  1   
 28  14  15  1   
 29  14  16  1   
 30  14  39  1   
 31  15  17  1   
 32  15  40  1   
 33  15  41  1   
 34  16  18  1   
 35  16  42  1   
 36  16  43  1   
 37  17  18  1   
 38  17  19  1   
 39  17  44  1   
 40  18  20  1   
 41  18  45  1   
 42  19  46  1   
 43  20  21  1   
 44  20  47  1   
 45  20  48  1   
 46  21  22  ar  
 47  21  23  ar  
 48  22  24  ar  
 49  23  25  ar  
 50  23  49  1   
 51  24  26  ar  
 52  24  50  1   
 53  25  26  ar  
 54  26  51  1   
@<TRIPOS>SUBSTRUCTURE
  1 ****  13 GROUP 4 **** **** 0

# MOE 2024.06 (io_trps.svl 2023.06)
