@<TRIPOS>MOLECULE
NONAME
54 56 1 0 0 
SMALL
USER_CHARGES


@<TRIPOS>ATOM
  1 O       -0.0330     0.5300     1.4850 O.2   1 <1>  -0.5700 
  2 C       -0.0550     1.6510     1.0060 C.2   1 <1>   0.7160 
  3 N       -1.2730     2.2580     0.7860 N.am  1 <1>  -0.6600 
  4 C        1.1800     2.3310     0.6660 C.2   1 <1>  -0.0860 
  5 C       -1.3930     3.4910    -0.0440 C.3   1 <1>   0.1400 
  6 C       -2.5310     1.6590     1.3160 C.3   1 <1>   0.1400 
  7 C        1.7050     3.4810     1.2050 C.2   1 <1>  -0.3320 
  8 C        2.0920     1.9390    -0.3280 C.2   1 <1>  -0.1810 
  9 C       -2.7430     3.4930    -0.7570 C.3   1 <1>  -0.1600 
 10 C       -3.5820     2.7500     1.5360 C.3   1 <1>  -0.1600 
 11 N        2.8590     3.7870     0.5860 N.pl3 1 <1>   0.0330 
 12 C        1.1380     4.3250     2.3340 C.3   1 <1>  -0.0600 
 13 C        3.1220     2.8490    -0.3790 C.2   1 <1>  -0.2370 
 14 C        1.8970     0.6870    -1.1700 C.3   1 <1>  -0.0590 
 15 C       -3.9140     3.5470     0.2500 C.3   1 <1>   0.2800 
 16 C        4.2840     2.9180    -1.2240 C.2   1 <1>   0.5940 
 17 O       -4.0520     4.8660     0.7000 O.3   1 <1>  -0.5600 
 18 C       -5.2440     3.0550    -0.4050 C.3   1 <1>  -0.1600 
 19 O        4.4710     2.2140    -2.1820 O.2   1 <1>  -0.5700 
 20 C        5.3540     3.9450    -0.9200 C.3   1 <1>  -0.1790 
 21 C       -4.6180     5.8180    -0.1580 C.3   1 <1>   0.1200 
 22 C       -6.4780     4.0430    -0.1800 C.3   1 <1>   0.2800 
 23 C       -5.7110     5.1860    -1.0230 C.3   1 <1>   0.2000 
 24 O       -7.5550     4.8940     0.0910 O.3   1 <1>  -0.6800 
 25 C       -7.2820     2.9280     0.6030 C.3   1 <1>  -0.2400 
 26 O       -6.4810     6.2210    -1.5690 O.3   1 <1>  -0.6800 
 27 H       -1.3110     4.3580     0.5890 H     1 <1>   0.0800 
 28 H       -0.6020     3.5230    -0.7740 H     1 <1>   0.0800 
 29 H       -2.8930     0.9260     0.6160 H     1 <1>   0.0800 
 30 H       -2.3280     1.1600     2.2490 H     1 <1>   0.0800 
 31 H       -2.7990     2.5910    -1.3400 H     1 <1>   0.0800 
 32 H       -2.7870     4.3140    -1.4480 H     1 <1>   0.0800 
 33 H       -3.1860     3.4160     2.2840 H     1 <1>   0.0800 
 34 H       -4.4650     2.3070     1.9550 H     1 <1>   0.0800 
 35 H        3.4520     4.5940     0.8030 H     1 <1>   0.2700 
 36 H        0.2370     3.8830     2.7210 H     1 <1>   0.0800 
 37 H        0.9090     5.3140     1.9820 H     1 <1>   0.0800 
 38 H        1.8500     4.3930     3.1380 H     1 <1>   0.0800 
 39 H        1.7340    -0.1600    -0.5280 H     1 <1>   0.0800 
 40 H        2.7560     0.4810    -1.7790 H     1 <1>   0.0800 
 41 H        1.0420     0.8060    -1.8090 H     1 <1>   0.0800 
 42 H       -5.1010     2.8900    -1.4590 H     1 <1>   0.0800 
 43 H       -5.3460     2.0310    -0.0860 H     1 <1>   0.0800 
 44 H        5.6710     3.8540     0.1020 H     1 <1>   0.0800 
 45 H        4.9740     4.9330    -1.1010 H     1 <1>   0.0800 
 46 H        6.2040     3.7810    -1.5570 H     1 <1>   0.0800 
 47 H       -5.0370     6.5900     0.4620 H     1 <1>   0.0800 
 48 H       -3.8420     6.2370    -0.7720 H     1 <1>   0.0800 
 49 H       -5.2220     4.7970    -1.8980 H     1 <1>   0.0800 
 50 H       -7.6220     5.0090     1.0590 H     1 <1>   0.4000 
 51 H       -7.4360     2.0710    -0.0330 H     1 <1>   0.0800 
 52 H       -8.2830     3.1260     0.9720 H     1 <1>   0.0800 
 53 H       -6.7370     2.6150     1.4770 H     1 <1>   0.0800 
 54 H       -7.3540     6.1290    -1.1170 H     1 <1>   0.4000 
@<TRIPOS>BOND
  1   1   2  2   
  2   2   3  am  
  3   2   4  1   
  4   3   5  1   
  5   3   6  1   
  6   4   7  2   
  7   4   8  1   
  8   5   9  1   
  9   5  27  1   
 10   5  28  1   
 11   6  10  1   
 12   6  29  1   
 13   6  30  1   
 14   7  11  1   
 15   7  12  1   
 16   8  13  2   
 17   8  14  1   
 18   9  15  1   
 19   9  31  1   
 20   9  32  1   
 21  10  15  1   
 22  10  33  1   
 23  10  34  1   
 24  11  13  1   
 25  11  35  1   
 26  12  36  1   
 27  12  37  1   
 28  12  38  1   
 29  13  16  1   
 30  14  39  1   
 31  14  40  1   
 32  14  41  1   
 33  15  17  1   
 34  15  18  1   
 35  16  19  2   
 36  16  20  1   
 37  17  21  1   
 38  18  22  1   
 39  18  42  1   
 40  18  43  1   
 41  20  44  1   
 42  20  45  1   
 43  20  46  1   
 44  21  23  1   
 45  21  47  1   
 46  21  48  1   
 47  22  23  1   
 48  22  24  1   
 49  22  25  1   
 50  23  26  1   
 51  23  49  1   
 52  24  50  1   
 53  25  51  1   
 54  25  52  1   
 55  25  53  1   
 56  26  54  1   
@<TRIPOS>SUBSTRUCTURE
  1 ****   5 GROUP 4 **** **** 0

# MOE 2024.06 (io_trps.svl 2023.06)
