@<TRIPOS>MOLECULE
NONAME
53 56 1 0 0 
SMALL
USER_CHARGES


@<TRIPOS>ATOM
  1 S       -0.3520     0.6740     1.4020 S.o2  1 <1>   1.5760 
  2 O       -1.3610     1.6820     1.6420 O.2   1 <1>  -0.6500 
  3 O        0.6130     0.3460     2.4280 O.2   1 <1>  -0.6500 
  4 N       -1.1290    -0.7390     0.9030 N.am  1 <1>  -0.8490 
  5 N        0.5020     1.0640    -0.0040 N.am  1 <1>  -0.8490 
  6 C       -2.1730    -0.4480    -0.0840 C.3   1 <1>   0.1960 
  7 C       -1.6990    -1.4490     2.0490 C.3   1 <1>   0.1960 
  8 C        1.5350     0.0660    -0.3070 C.3   1 <1>   0.1960 
  9 C        1.0410     2.4220     0.0960 C.3   1 <1>   0.1960 
 10 C       -2.7360    -1.7580    -0.6320 C.3   1 <1>  -0.1600 
 11 C       -2.2520    -2.7990     1.5940 C.3   1 <1>  -0.1600 
 12 C        1.3290    -0.4460    -1.7300 C.3   1 <1>  -0.2400 
 13 C        1.5190     2.9330    -1.2620 C.3   1 <1>  -0.2400 
 14 C       -3.3030    -2.6210     0.4980 C.3   1 <1>   0.4600 
 15 O       -4.3860    -1.9450     1.1000 O.3   1 <1>  -0.5600 
 16 C       -3.7780    -3.9750    -0.0170 C.2   1 <1>  -0.3320 
 17 C       -5.6470    -2.0250     0.4800 C.3   1 <1>   0.1200 
 18 N       -2.9950    -4.9710    -0.5300 N.pl3 1 <1>   0.0330 
 19 C       -5.0660    -4.3710    -0.0310 C.2   1 <1>  -0.1810 
 20 C       -6.1690    -3.4720     0.4690 C.3   1 <1>   0.0210 
 21 C       -3.8130    -6.0220    -0.8700 C.ar  1 <1>  -0.1520 
 22 C       -5.1260    -5.6750    -0.5640 C.ar  1 <1>   0.0000 
 23 C       -3.5130    -7.2680    -1.4260 C.ar  1 <1>  -0.1500 
 24 C       -6.1590    -6.5840    -0.8140 C.ar  1 <1>  -0.1500 
 25 C       -4.5390    -8.1530    -1.6690 C.ar  1 <1>  -0.1500 
 26 C       -5.8620    -7.8100    -1.3630 C.ar  1 <1>  -0.1500 
 27 H       -1.7580     0.1240    -0.8970 H     1 <1>   0.0800 
 28 H       -2.9610     0.1350     0.3660 H     1 <1>   0.0800 
 29 H       -2.4800    -0.8570     2.5010 H     1 <1>   0.0800 
 30 H       -0.9350    -1.6190     2.7900 H     1 <1>   0.0800 
 31 H        1.4710    -0.7760     0.3630 H     1 <1>   0.0800 
 32 H        2.5220     0.4850    -0.1990 H     1 <1>   0.0800 
 33 H        1.8420     2.4520     0.8170 H     1 <1>   0.0800 
 34 H        0.2660     3.0880     0.4380 H     1 <1>   0.0800 
 35 H       -1.9440    -2.2890    -1.1260 H     1 <1>   0.0800 
 36 H       -3.4940    -1.5600    -1.3650 H     1 <1>   0.0800 
 37 H       -2.6930    -3.3170     2.4250 H     1 <1>   0.0800 
 38 H       -1.4370    -3.3950     1.2290 H     1 <1>   0.0800 
 39 H        0.3670    -0.9190    -1.8110 H     1 <1>   0.0800 
 40 H        2.0860    -1.1710    -1.9650 H     1 <1>   0.0800 
 41 H        1.3900     0.3570    -2.4400 H     1 <1>   0.0800 
 42 H        2.3860     2.3960    -1.5970 H     1 <1>   0.0800 
 43 H        1.7830     3.9720    -1.1780 H     1 <1>   0.0800 
 44 H        0.7310     2.8410    -1.9870 H     1 <1>   0.0800 
 45 H       -5.5590    -1.6530    -0.5250 H     1 <1>   0.0800 
 46 H       -6.3220    -1.3910     1.0250 H     1 <1>   0.0800 
 47 H       -1.9770    -4.9570    -0.6400 H     1 <1>   0.2700 
 48 H       -7.0270    -3.5430    -0.1740 H     1 <1>   0.0800 
 49 H       -6.4550    -3.7660     1.4620 H     1 <1>   0.0800 
 50 H       -2.4950    -7.5250    -1.6580 H     1 <1>   0.1500 
 51 H       -7.1680    -6.3070    -0.5730 H     1 <1>   0.1500 
 52 H       -4.3350    -9.1180    -2.0960 H     1 <1>   0.1500 
 53 H       -6.6460    -8.5200    -1.5610 H     1 <1>   0.1500 
@<TRIPOS>BOND
  1   1   2  2   
  2   1   3  2   
  3   1   4  am  
  4   1   5  am  
  5   4   6  1   
  6   4   7  1   
  7   5   8  1   
  8   5   9  1   
  9   6  10  1   
 10   6  27  1   
 11   6  28  1   
 12   7  11  1   
 13   7  29  1   
 14   7  30  1   
 15   8  12  1   
 16   8  31  1   
 17   8  32  1   
 18   9  13  1   
 19   9  33  1   
 20   9  34  1   
 21  10  14  1   
 22  10  35  1   
 23  10  36  1   
 24  11  14  1   
 25  11  37  1   
 26  11  38  1   
 27  12  39  1   
 28  12  40  1   
 29  12  41  1   
 30  13  42  1   
 31  13  43  1   
 32  13  44  1   
 33  14  15  1   
 34  14  16  1   
 35  15  17  1   
 36  16  18  1   
 37  16  19  2   
 38  17  20  1   
 39  17  45  1   
 40  17  46  1   
 41  18  21  1   
 42  18  47  1   
 43  19  20  1   
 44  19  22  1   
 45  20  48  1   
 46  20  49  1   
 47  21  22  ar  
 48  21  23  ar  
 49  22  24  ar  
 50  23  25  ar  
 51  23  50  1   
 52  24  26  ar  
 53  24  51  1   
 54  25  26  ar  
 55  25  52  1   
 56  26  53  1   
@<TRIPOS>SUBSTRUCTURE
  1 ****  14 GROUP 4 **** **** 0

# MOE 2024.06 (io_trps.svl 2023.06)
