@<TRIPOS>MOLECULE
NONAME
46 47 1 0 0 
SMALL
USER_CHARGES


@<TRIPOS>ATOM
  1 S       -0.4060    -0.7470    -1.1650 S.3   1 <1>  -0.0800 
  2 C       -1.0520    -1.6470     0.1700 C.2   1 <1>   0.4420 
  3 C       -0.6060     0.6780    -0.2050 C.2   1 <1>   0.1980 
  4 N       -1.3540    -0.8860     1.1600 N.2   1 <1>  -0.3380 
  5 N       -1.1620    -3.0110     0.0060 N.am  1 <1>  -0.4940 
  6 N       -1.0970     0.4360     0.9400 N.2   1 <1>  -0.3380 
  7 C       -0.1990     2.0140    -0.7860 C.3   1 <1>   0.0200 
  8 C       -1.6130    -3.9520     0.8900 C.2   1 <1>   0.5690 
  9 C       -0.4230     3.1020     0.2710 C.3   1 <1>   0.3430 
 10 O       -1.9560    -3.6960     2.0170 O.2   1 <1>  -0.5700 
 11 C       -1.6890    -5.4100     0.4160 C.3   1 <1>   0.1710 
 12 N        0.0130     4.4650    -0.1840 N.4   1 <1>  -0.9590 
 13 N       -2.9480    -5.8000    -0.2770 N.3   1 <1>  -0.8100 
 14 C        0.0200     5.4020     0.9840 C.3   1 <1>   0.2630 
 15 C       -0.8580     5.0140    -1.2730 C.3   1 <1>   0.2630 
 16 C       -4.1090    -5.6510     0.6270 C.3   1 <1>   0.2530 
 17 C       -3.1510    -5.1040    -1.5570 C.3   1 <1>   0.0300 
 18 C       -5.3620    -6.2680     0.0220 C.ar  1 <1>  -0.1430 
 19 C       -6.5460    -5.5660    -0.0820 C.ar  1 <1>  -0.1500 
 20 C       -5.3810    -7.5650    -0.4520 C.ar  1 <1>  -0.1500 
 21 C       -7.6570    -6.1760    -0.6410 C.ar  1 <1>   0.1600 
 22 C       -6.5450    -8.0810    -0.9930 C.ar  1 <1>   0.1600 
 23 N       -7.6860    -7.4170    -1.1000 N.ar  1 <1>  -0.6200 
 24 H       -0.8970    -3.3610    -0.9100 H     1 <1>   0.3700 
 25 H       -0.7950     2.2010    -1.6590 H     1 <1>   0.0800 
 26 H        0.8400     1.9690    -1.0580 H     1 <1>   0.0800 
 27 H        0.1300     2.8270     1.1560 H     1 <1>   0.0800 
 28 H       -1.4670     3.1230     0.5400 H     1 <1>   0.0800 
 29 H       -1.5660    -6.0410     1.2790 H     1 <1>   0.0800 
 30 H       -0.8570    -5.6110    -0.2350 H     1 <1>   0.0800 
 31 H        0.9820     4.4000    -0.5350 H     1 <1>   0.4500 
 32 H       -0.9740     5.5000     1.3920 H     1 <1>   0.0800 
 33 H        0.3660     6.3770     0.6810 H     1 <1>   0.0800 
 34 H        0.6730     5.0330     1.7580 H     1 <1>   0.0800 
 35 H       -1.8810     5.0800    -0.9370 H     1 <1>   0.0800 
 36 H       -0.8210     4.3810    -2.1440 H     1 <1>   0.0800 
 37 H       -0.5260     6.0010    -1.5560 H     1 <1>   0.0800 
 38 H       -4.2800    -4.6090     0.8390 H     1 <1>   0.0800 
 39 H       -3.9020    -6.1480     1.5600 H     1 <1>   0.0800 
 40 H       -2.2790    -5.2100    -2.1790 H     1 <1>   0.0800 
 41 H       -3.3570    -4.0590    -1.3960 H     1 <1>   0.0800 
 42 H       -3.9850    -5.5390    -2.0820 H     1 <1>   0.0800 
 43 H       -6.6150    -4.5510     0.2650 H     1 <1>   0.1500 
 44 H       -4.4920    -8.1670    -0.4060 H     1 <1>   0.1500 
 45 H       -8.5720    -5.6130    -0.7140 H     1 <1>   0.1500 
 46 H       -6.5370    -9.0930    -1.3590 H     1 <1>   0.1500 
@<TRIPOS>BOND
  1   1   2  1   
  2   1   3  1   
  3   2   4  2   
  4   2   5  1   
  5   3   6  2   
  6   3   7  1   
  7   4   6  1   
  8   5   8  am  
  9   5  24  1   
 10   7   9  1   
 11   7  25  1   
 12   7  26  1   
 13   8  10  2   
 14   8  11  1   
 15   9  12  1   
 16   9  27  1   
 17   9  28  1   
 18  11  13  1   
 19  11  29  1   
 20  11  30  1   
 21  12  14  1   
 22  12  15  1   
 23  12  31  1   
 24  13  16  1   
 25  13  17  1   
 26  14  32  1   
 27  14  33  1   
 28  14  34  1   
 29  15  35  1   
 30  15  36  1   
 31  15  37  1   
 32  16  18  1   
 33  16  38  1   
 34  16  39  1   
 35  17  40  1   
 36  17  41  1   
 37  17  42  1   
 38  18  19  ar  
 39  18  20  ar  
 40  19  21  ar  
 41  19  43  1   
 42  20  22  ar  
 43  20  44  1   
 44  21  23  ar  
 45  21  45  1   
 46  22  23  ar  
 47  22  46  1   
@<TRIPOS>SUBSTRUCTURE
  1 ****   5 GROUP 4 **** **** 0

# MOE 2024.06 (io_trps.svl 2023.06)
