@<TRIPOS>MOLECULE
NONAME
58 62 1 0 0 
SMALL
USER_CHARGES


@<TRIPOS>ATOM
  1 S       -0.7980     0.5240    -0.6860 S.o2  1 <1>   1.3330 
  2 O       -0.6530     0.2540     0.7270 O.2   1 <1>  -0.6500 
  3 O       -0.5490     1.8530    -1.1940 O.2   1 <1>  -0.6500 
  4 N       -2.3610     0.0640    -1.1520 N.am  1 <1>  -0.8490 
  5 C        0.2210    -0.6090    -1.6030 C.3   1 <1>  -0.1350 
  6 C       -2.8800    -1.0920    -0.3870 C.3   1 <1>   0.1960 
  7 C       -3.3480     1.1270    -0.9180 C.3   1 <1>   0.1960 
  8 C       -3.8250    -0.5310     0.6820 C.3   1 <1>   0.2800 
  9 C       -3.7830     0.9810     0.5430 C.3   1 <1>  -0.0800 
 10 O       -5.1530    -0.7850     0.3930 O.3   1 <1>  -0.5600 
 11 C       -3.7410    -0.9700     2.1420 C.3   1 <1>  -0.1600 
 12 C       -5.2050     1.3830     0.9970 C.3   1 <1>  -0.0800 
 13 C       -5.7690    -0.0060     1.3450 C.3   1 <1>   0.2000 
 14 C       -5.1370    -0.5610     2.6310 C.3   1 <1>  -0.1600 
 15 C       -6.0280     2.1270    -0.0720 C.3   1 <1>   0.1100 
 16 N       -7.0920     2.9550     0.5250 N.3   1 <1>  -0.8100 
 17 C       -8.2230     2.1570     1.0870 C.3   1 <1>   0.1710 
 18 C       -7.6160     3.9220    -0.4550 C.3   1 <1>   0.1100 
 19 C       -9.4960     2.9450     1.4380 C.2   1 <1>   0.5690 
 20 C       -8.5910     4.9150     0.2030 C.3   1 <1>   0.1400 
 21 O      -10.3440     2.3830     2.0940 O.2   1 <1>  -0.5700 
 22 N       -9.6550     4.2300     0.9920 N.am  1 <1>  -0.6600 
 23 C      -10.8610     5.0320     1.3250 C.3   1 <1>   0.2840 
 24 C      -11.6610     5.3120     0.0600 C.ar  1 <1>  -0.1430 
 25 C      -12.2900     4.2600    -0.5960 C.ar  1 <1>  -0.1500 
 26 C      -11.7660     6.6040    -0.4410 C.ar  1 <1>  -0.1500 
 27 C      -13.0220     4.4920    -1.7480 C.ar  1 <1>  -0.1500 
 28 C      -12.4960     6.8490    -1.5930 C.ar  1 <1>  -0.1500 
 29 C      -13.1100     5.7850    -2.2250 C.ar  1 <1>   0.1900 
 30 F      -13.7980     6.0110    -3.3120 F     1 <1>  -0.1900 
 31 H        0.0050    -1.6200    -1.3200 H     1 <1>   0.0800 
 32 H        1.2570    -0.4090    -1.4100 H     1 <1>   0.0800 
 33 H        0.0380    -0.4960    -2.6540 H     1 <1>   0.0800 
 34 H       -3.4350    -1.7400    -1.0440 H     1 <1>   0.0800 
 35 H       -2.0830    -1.6580     0.0640 H     1 <1>   0.0800 
 36 H       -2.9580     2.1090    -1.1290 H     1 <1>   0.0800 
 37 H       -4.1850     0.9450    -1.5720 H     1 <1>   0.0800 
 38 H       -3.0340     1.4100     1.1850 H     1 <1>   0.0800 
 39 H       -3.6040    -2.0350     2.2050 H     1 <1>   0.0800 
 40 H       -2.9460    -0.4680     2.6650 H     1 <1>   0.0800 
 41 H       -5.1440     2.0010     1.8750 H     1 <1>   0.0800 
 42 H       -6.8370    -0.1140     1.2920 H     1 <1>   0.0800 
 43 H       -5.1030     0.1790     3.4120 H     1 <1>   0.0800 
 44 H       -5.6900    -1.4170     2.9740 H     1 <1>   0.0800 
 45 H       -6.4400     1.4340    -0.7870 H     1 <1>   0.0800 
 46 H       -5.3630     2.7910    -0.5970 H     1 <1>   0.0800 
 47 H       -8.5070     1.3940     0.3840 H     1 <1>   0.0800 
 48 H       -7.8940     1.6760     1.9890 H     1 <1>   0.0800 
 49 H       -6.8020     4.4810    -0.8840 H     1 <1>   0.0800 
 50 H       -8.1210     3.4020    -1.2520 H     1 <1>   0.0800 
 51 H       -9.0410     5.5160    -0.5680 H     1 <1>   0.0800 
 52 H       -8.0370     5.5670     0.8570 H     1 <1>   0.0800 
 53 H      -11.4830     4.5030     2.0270 H     1 <1>   0.0800 
 54 H      -10.5550     5.9520     1.7890 H     1 <1>   0.0800 
 55 H      -12.2050     3.2590    -0.2050 H     1 <1>   0.1500 
 56 H      -11.2830     7.4240     0.0630 H     1 <1>   0.1500 
 57 H      -13.5150     3.6890    -2.2670 H     1 <1>   0.1500 
 58 H      -12.5890     7.8410    -1.9950 H     1 <1>   0.1500 
@<TRIPOS>BOND
  1   1   2  2   
  2   1   3  2   
  3   1   4  am  
  4   1   5  1   
  5   4   6  1   
  6   4   7  1   
  7   5  31  1   
  8   5  32  1   
  9   5  33  1   
 10   6   8  1   
 11   6  34  1   
 12   6  35  1   
 13   7   9  1   
 14   7  36  1   
 15   7  37  1   
 16   8   9  1   
 17   8  10  1   
 18   8  11  1   
 19   9  12  1   
 20   9  38  1   
 21  10  13  1   
 22  11  14  1   
 23  11  39  1   
 24  11  40  1   
 25  12  13  1   
 26  12  15  1   
 27  12  41  1   
 28  13  14  1   
 29  13  42  1   
 30  14  43  1   
 31  14  44  1   
 32  15  16  1   
 33  15  45  1   
 34  15  46  1   
 35  16  17  1   
 36  16  18  1   
 37  17  19  1   
 38  17  47  1   
 39  17  48  1   
 40  18  20  1   
 41  18  49  1   
 42  18  50  1   
 43  19  21  2   
 44  19  22  am  
 45  20  22  1   
 46  20  51  1   
 47  20  52  1   
 48  22  23  1   
 49  23  24  1   
 50  23  53  1   
 51  23  54  1   
 52  24  25  ar  
 53  24  26  ar  
 54  25  27  ar  
 55  25  55  1   
 56  26  28  ar  
 57  26  56  1   
 58  27  29  ar  
 59  27  57  1   
 60  28  29  ar  
 61  28  58  1   
 62  29  30  1   
@<TRIPOS>SUBSTRUCTURE
  1 ****  16 GROUP 4 **** **** 0

# MOE 2024.06 (io_trps.svl 2023.06)
