@<TRIPOS>MOLECULE
NONAME
44 45 1 0 0 
SMALL
USER_CHARGES


@<TRIPOS>ATOM
  1 S       -1.6880    -0.5810    -0.3250 S.3   1 <1>  -0.4600 
  2 C       -3.0870    -1.6570    -0.8040 C.3   1 <1>   0.1310 
  3 C       -0.8730    -0.2260    -1.9040 C.3   1 <1>  -0.0100 
  4 C       -3.8160    -2.2230     0.4120 C.2   1 <1>   0.5690 
  5 O       -3.7170    -3.4140     0.6080 O.2   1 <1>  -0.5700 
  6 N       -4.6010    -1.4320     1.2150 N.am  1 <1>  -0.6600 
  7 C       -5.3970    -2.0410     2.3190 C.3   1 <1>   0.1400 
  8 C       -4.9260    -0.0070     0.9440 C.3   1 <1>   0.1400 
  9 C       -6.6630    -2.7400     1.7930 C.3   1 <1>   0.1400 
 10 C       -6.1990     0.1250     0.0970 C.3   1 <1>  -0.1600 
 11 N       -7.2610    -2.0760     0.5850 N.am  1 <1>  -0.6600 
 12 C       -7.4330    -0.5990     0.6580 C.3   1 <1>   0.1400 
 13 C       -7.4980    -2.7560    -0.5930 C.2   1 <1>   0.5440 
 14 O       -7.8090    -2.1330    -1.5910 O.2   1 <1>  -0.5700 
 15 C       -7.3570    -4.1890    -0.6870 C.ar  1 <1>   0.0860 
 16 C       -8.3560    -5.0540    -0.2420 C.ar  1 <1>   0.1900 
 17 C       -6.1990    -4.7630    -1.2210 C.ar  1 <1>  -0.1500 
 18 F       -9.4340    -4.5330     0.2890 F     1 <1>  -0.1900 
 19 C       -8.2480    -6.4380    -0.3230 C.ar  1 <1>   0.0830 
 20 C       -6.0510    -6.1370    -1.3060 C.ar  1 <1>  -0.1500 
 21 O       -9.2250    -7.2740     0.1200 O.3   1 <1>  -0.3630 
 22 C       -7.0750    -6.9530    -0.8580 C.ar  1 <1>   0.1900 
 23 C      -10.4210    -7.3130    -0.6280 C.3   1 <1>   0.0400 
 24 F       -6.9170    -8.2470    -0.9540 F     1 <1>  -0.1900 
 25 H       -2.6770    -2.4610    -1.3870 H     1 <1>   0.0800 
 26 H       -3.7540    -1.0750    -1.4110 H     1 <1>   0.0800 
 27 H       -0.0350     0.4180    -1.7020 H     1 <1>   0.0800 
 28 H       -1.5840     0.2640    -2.5460 H     1 <1>   0.0800 
 29 H       -0.5440    -1.1580    -2.3270 H     1 <1>   0.0800 
 30 H       -5.6770    -1.2820     3.0270 H     1 <1>   0.0800 
 31 H       -4.7910    -2.7580     2.8450 H     1 <1>   0.0800 
 32 H       -4.1080     0.4740     0.4370 H     1 <1>   0.0800 
 33 H       -5.0590     0.5090     1.8800 H     1 <1>   0.0800 
 34 H       -7.4000    -2.7790     2.5760 H     1 <1>   0.0800 
 35 H       -6.3910    -3.7540     1.5640 H     1 <1>   0.0800 
 36 H       -6.0080    -0.2250    -0.9010 H     1 <1>   0.0800 
 37 H       -6.4340     1.1700     0.0180 H     1 <1>   0.0800 
 38 H       -8.2970    -0.3220     0.0760 H     1 <1>   0.0800 
 39 H       -7.6170    -0.3000     1.6750 H     1 <1>   0.0800 
 40 H       -5.4090    -4.1160    -1.5620 H     1 <1>   0.1500 
 41 H       -5.1550    -6.5730    -1.7110 H     1 <1>   0.1500 
 42 H      -11.0460    -8.0850    -0.2190 H     1 <1>   0.0800 
 43 H      -10.1840    -7.5370    -1.6530 H     1 <1>   0.0800 
 44 H      -10.9190    -6.3630    -0.5540 H     1 <1>   0.0800 
@<TRIPOS>BOND
  1   1   2  1   
  2   1   3  1   
  3   2   4  1   
  4   2  25  1   
  5   2  26  1   
  6   3  27  1   
  7   3  28  1   
  8   3  29  1   
  9   4   5  2   
 10   4   6  am  
 11   6   7  1   
 12   6   8  1   
 13   7   9  1   
 14   7  30  1   
 15   7  31  1   
 16   8  10  1   
 17   8  32  1   
 18   8  33  1   
 19   9  11  1   
 20   9  34  1   
 21   9  35  1   
 22  10  12  1   
 23  10  36  1   
 24  10  37  1   
 25  11  12  1   
 26  11  13  am  
 27  12  38  1   
 28  12  39  1   
 29  13  14  2   
 30  13  15  1   
 31  15  16  ar  
 32  15  17  ar  
 33  16  18  1   
 34  16  19  ar  
 35  17  20  ar  
 36  17  40  1   
 37  19  21  1   
 38  19  22  ar  
 39  20  22  ar  
 40  20  41  1   
 41  21  23  1   
 42  22  24  1   
 43  23  42  1   
 44  23  43  1   
 45  23  44  1   
@<TRIPOS>SUBSTRUCTURE
  1 ****  15 GROUP 4 **** **** 0

# MOE 2024.06 (io_trps.svl 2023.06)
