@<TRIPOS>MOLECULE
NONAME
20 20 1 0 0 
SMALL
USER_CHARGES


@<TRIPOS>ATOM
  1 BR       0.0000     0.0400     0.9080 Br    1 <1>  -0.1110 
  2 C       -0.0260     1.9550     0.7280 C.ar  1 <1>   0.1110 
  3 C       -1.1950     2.6540     0.8860 C.ar  1 <1>   0.1600 
  4 C        1.1240     2.6430     0.4380 C.ar  1 <1>   0.1600 
  5 N       -1.2200     3.9660     0.7640 N.ar  1 <1>  -0.6200 
  6 N        1.1150     3.9560     0.3130 N.ar  1 <1>  -0.6200 
  7 C       -0.0600     4.5670     0.4850 C.ar  1 <1>   0.4770 
  8 C       -0.0890     6.1120     0.3580 C.3   1 <1>   0.3440 
  9 C       -0.1120     6.6600     1.7520 C.1   1 <1>   0.3570 
 10 C        1.1450     6.6860    -0.3810 C.3   1 <1>  -0.2400 
 11 C       -1.3420     6.6030    -0.4050 C.3   1 <1>  -0.2400 
 12 N       -0.1220     7.1130     2.7970 N.1   1 <1>  -0.5570 
 13 H       -2.1100     2.1350     1.1150 H     1 <1>   0.1500 
 14 H        2.0530     2.1150     0.3090 H     1 <1>   0.1500 
 15 H        2.0500     6.4410     0.1480 H     1 <1>   0.0800 
 16 H        1.0830     7.7570    -0.4540 H     1 <1>   0.0800 
 17 H        1.2100     6.2740    -1.3720 H     1 <1>   0.0800 
 18 H       -2.2400     6.3180     0.1140 H     1 <1>   0.0800 
 19 H       -1.3680     6.1710    -1.3900 H     1 <1>   0.0800 
 20 H       -1.3380     7.6750    -0.4970 H     1 <1>   0.0800 
@<TRIPOS>BOND
  1   1   2  1   
  2   2   3  ar  
  3   2   4  ar  
  4   3   5  ar  
  5   3  13  1   
  6   4   6  ar  
  7   4  14  1   
  8   5   7  ar  
  9   6   7  ar  
 10   7   8  1   
 11   8   9  1   
 12   8  10  1   
 13   8  11  1   
 14   9  12  3   
 15  10  15  1   
 16  10  16  1   
 17  10  17  1   
 18  11  18  1   
 19  11  19  1   
 20  11  20  1   
@<TRIPOS>SUBSTRUCTURE
  1 ****   7 GROUP 4 **** **** 0

# MOE 2024.06 (io_trps.svl 2023.06)
