@<TRIPOS>MOLECULE
NONAME
48 51 1 0 0 
SMALL
USER_CHARGES


@<TRIPOS>ATOM
  1 S        0.6500     0.9590    -1.9590 S.3   1 <1>  -0.0800 
  2 C       -0.5240     2.0050    -1.1740 C.2   1 <1>  -0.1400 
  3 C       -0.6050     0.2630    -2.9770 C.2   1 <1>  -0.1100 
  4 C       -1.7470     1.8110    -1.6840 C.2   1 <1>  -0.1810 
  5 C       -0.1440     2.9780    -0.0620 C.3   1 <1>   0.4600 
  6 C       -1.8040     0.8150    -2.7090 C.2   1 <1>  -0.1500 
  7 C       -2.9100     2.6180    -1.1540 C.3   1 <1>   0.0210 
  8 O       -1.3260     3.5670     0.4470 O.3   1 <1>  -0.5600 
  9 C        0.4890     2.2310     1.1270 C.3   1 <1>  -0.1600 
 10 C        0.7610     4.1000    -0.5980 C.3   1 <1>  -0.1600 
 11 C       -2.3680     3.8780    -0.4520 C.3   1 <1>   0.1200 
 12 C        2.0040     2.4260     1.2090 C.3   1 <1>   0.1400 
 13 C        1.4670     4.8260     0.5450 C.3   1 <1>   0.1400 
 14 N        2.3360     3.8800     1.3100 N.am  1 <1>  -0.6600 
 15 C        3.4200     4.2840     2.0540 C.2   1 <1>   0.5690 
 16 O        4.1670     3.4830     2.5700 O.2   1 <1>  -0.5700 
 17 C        3.7230     5.7600     2.2840 C.3   1 <1>   0.0440 
 18 C        4.3310     6.4580     1.0700 C.ar  1 <1>  -0.1440 
 19 C        3.8600     7.6960     0.6610 C.ar  1 <1>  -0.1500 
 20 C        5.3630     5.8610     0.3630 C.ar  1 <1>  -0.1500 
 21 C        4.4080     8.3230    -0.4450 C.ar  1 <1>  -0.1500 
 22 C        5.9120     6.4890    -0.7420 C.ar  1 <1>  -0.1500 
 23 C        5.4370     7.7240    -1.1530 C.ar  1 <1>  -0.1440 
 24 C        6.0330     8.4160    -2.3650 C.3   1 <1>   0.2630 
 25 O        5.1410     8.2690    -3.4070 O.3   1 <1>  -0.6800 
 26 H       -0.3070    -0.4970    -3.6770 H     1 <1>   0.1500 
 27 H       -2.7320     0.5630    -3.1920 H     1 <1>   0.1500 
 28 H       -3.4770     2.0260    -0.4570 H     1 <1>   0.0800 
 29 H       -3.5570     2.9100    -1.9610 H     1 <1>   0.0800 
 30 H        0.2730     1.1810     1.0540 H     1 <1>   0.0800 
 31 H        0.0640     2.5830     2.0500 H     1 <1>   0.0800 
 32 H        0.1940     4.7960    -1.1850 H     1 <1>   0.0800 
 33 H        1.5130     3.6860    -1.2440 H     1 <1>   0.0800 
 34 H       -3.1520     4.3540     0.1100 H     1 <1>   0.0800 
 35 H       -1.9950     4.5760    -1.1800 H     1 <1>   0.0800 
 36 H        2.4790     2.0160     0.3340 H     1 <1>   0.0800 
 37 H        2.3820     1.8990     2.0700 H     1 <1>   0.0800 
 38 H        0.7340     5.2510     1.2110 H     1 <1>   0.0800 
 39 H        2.0600     5.6210     0.1310 H     1 <1>   0.0800 
 40 H        4.4150     5.8410     3.1020 H     1 <1>   0.0800 
 41 H        2.8170     6.2510     2.5860 H     1 <1>   0.0800 
 42 H        3.0640     8.1810     1.1980 H     1 <1>   0.1500 
 43 H        5.7460     4.9020     0.6700 H     1 <1>   0.1500 
 44 H        4.0300     9.2810    -0.7570 H     1 <1>   0.1500 
 45 H        6.7110     6.0060    -1.2770 H     1 <1>   0.1500 
 46 H        6.9680     7.9650    -2.6530 H     1 <1>   0.0800 
 47 H        6.1810     9.4670    -2.1890 H     1 <1>   0.0800 
 48 H        4.6980     7.4030    -3.3120 H     1 <1>   0.4000 
@<TRIPOS>BOND
  1   1   2  1   
  2   1   3  1   
  3   2   4  2   
  4   2   5  1   
  5   3   6  2   
  6   3  26  1   
  7   4   6  1   
  8   4   7  1   
  9   5   8  1   
 10   5   9  1   
 11   5  10  1   
 12   6  27  1   
 13   7  11  1   
 14   7  28  1   
 15   7  29  1   
 16   8  11  1   
 17   9  12  1   
 18   9  30  1   
 19   9  31  1   
 20  10  13  1   
 21  10  32  1   
 22  10  33  1   
 23  11  34  1   
 24  11  35  1   
 25  12  14  1   
 26  12  36  1   
 27  12  37  1   
 28  13  14  1   
 29  13  38  1   
 30  13  39  1   
 31  14  15  am  
 32  15  16  2   
 33  15  17  1   
 34  17  18  1   
 35  17  40  1   
 36  17  41  1   
 37  18  19  ar  
 38  18  20  ar  
 39  19  21  ar  
 40  19  42  1   
 41  20  22  ar  
 42  20  43  1   
 43  21  23  ar  
 44  21  44  1   
 45  22  23  ar  
 46  22  45  1   
 47  23  24  1   
 48  24  25  1   
 49  24  46  1   
 50  24  47  1   
 51  25  48  1   
@<TRIPOS>SUBSTRUCTURE
  1 ****  13 GROUP 4 **** **** 0

# MOE 2024.06 (io_trps.svl 2023.06)
