@<TRIPOS>MOLECULE
NONAME
48 50 1 0 0 
SMALL
USER_CHARGES


@<TRIPOS>ATOM
  1 S        1.2080     1.2050    -2.3600 S.3   1 <1>  -0.0800 
  2 C        1.3790     1.3660    -0.6310 C.2   1 <1>  -0.1400 
  3 C        0.9930    -0.5170    -2.1520 C.2   1 <1>   0.2280 
  4 C        1.2580     0.1470    -0.0740 C.2   1 <1>   0.0460 
  5 C        1.6160     2.7630    -0.0950 C.3   1 <1>   0.0200 
  6 N        1.0470    -0.9070    -0.9430 N.2   1 <1>  -0.5650 
  7 C        1.3220    -0.2230     1.3930 C.3   1 <1>  -0.0590 
  8 C        2.9700     3.2710    -0.6000 C.3   1 <1>   0.3430 
  9 N        3.2350     4.6890    -0.1990 N.4   1 <1>  -0.9590 
 10 C        4.3740     5.2610    -0.9830 C.3   1 <1>   0.5230 
 11 C        3.4530     4.8590     1.2760 C.3   1 <1>   0.2630 
 12 C        4.4360     6.7540    -0.7480 C.2   1 <1>  -0.0400 
 13 O        3.3560     7.4590    -0.9400 O.3   1 <1>  -0.0190 
 14 C        5.4090     7.5860    -0.3460 C.2   1 <1>  -0.1500 
 15 N        3.5470     8.7140    -0.6770 N.2   1 <1>  -0.4100 
 16 C        4.7800     8.8300    -0.3210 C.2   1 <1>   0.1080 
 17 C        5.4590    10.1390     0.0730 C.3   1 <1>   0.1010 
 18 C        4.8090    10.7370     1.3330 C.3   1 <1>  -0.1600 
 19 C        5.4260    11.1490    -1.0860 C.3   1 <1>  -0.1600 
 20 C        5.4670    12.0670     1.7300 C.3   1 <1>  -0.1600 
 21 C        6.0850    12.4800    -0.6940 C.3   1 <1>  -0.1600 
 22 C        5.4380    13.0670     0.5660 C.3   1 <1>  -0.1600 
 23 H        0.8340    -1.1070    -3.0380 H     1 <1>   0.1500 
 24 H        1.6000     2.7370     0.9790 H     1 <1>   0.0800 
 25 H        0.8230     3.4020    -0.4400 H     1 <1>   0.0800 
 26 H        1.4830     0.6380     2.0110 H     1 <1>   0.0800 
 27 H        2.1220    -0.9240     1.5530 H     1 <1>   0.0800 
 28 H        0.3980    -0.6900     1.6830 H     1 <1>   0.0800 
 29 H        2.9720     3.1990    -1.6760 H     1 <1>   0.0800 
 30 H        3.7510     2.6280    -0.2270 H     1 <1>   0.0800 
 31 H        2.4200     5.2680    -0.4610 H     1 <1>   0.4500 
 32 H        4.2200     5.0830    -2.0350 H     1 <1>   0.0800 
 33 H        5.3040     4.8030    -0.6880 H     1 <1>   0.0800 
 34 H        4.3150     4.2970     1.5980 H     1 <1>   0.0800 
 35 H        2.5920     4.5170     1.8270 H     1 <1>   0.0800 
 36 H        3.6110     5.8990     1.5140 H     1 <1>   0.0800 
 37 H        6.4370     7.3980    -0.0910 H     1 <1>   0.1500 
 38 H        6.4890     9.9270     0.2990 H     1 <1>   0.0800 
 39 H        4.8900    10.0400     2.1480 H     1 <1>   0.0800 
 40 H        3.7620    10.9050     1.1460 H     1 <1>   0.0800 
 41 H        4.4030    11.3330    -1.3680 H     1 <1>   0.0800 
 42 H        5.9320    10.7350    -1.9410 H     1 <1>   0.0800 
 43 H        6.4880    11.8910     2.0220 H     1 <1>   0.0800 
 44 H        4.9510    12.4860     2.5760 H     1 <1>   0.0800 
 45 H        5.9910    13.1810    -1.5060 H     1 <1>   0.0800 
 46 H        7.1350    12.3220    -0.5160 H     1 <1>   0.0800 
 47 H        5.9540    13.9680     0.8510 H     1 <1>   0.0800 
 48 H        4.4160    13.3300     0.3510 H     1 <1>   0.0800 
@<TRIPOS>BOND
  1   1   2  1   
  2   1   3  1   
  3   2   4  2   
  4   2   5  1   
  5   3   6  2   
  6   3  23  1   
  7   4   6  1   
  8   4   7  1   
  9   5   8  1   
 10   5  24  1   
 11   5  25  1   
 12   7  26  1   
 13   7  27  1   
 14   7  28  1   
 15   8   9  1   
 16   8  29  1   
 17   8  30  1   
 18   9  10  1   
 19   9  11  1   
 20   9  31  1   
 21  10  12  1   
 22  10  32  1   
 23  10  33  1   
 24  11  34  1   
 25  11  35  1   
 26  11  36  1   
 27  12  13  1   
 28  12  14  2   
 29  13  15  1   
 30  14  16  1   
 31  14  37  1   
 32  15  16  2   
 33  16  17  1   
 34  17  18  1   
 35  17  19  1   
 36  17  38  1   
 37  18  20  1   
 38  18  39  1   
 39  18  40  1   
 40  19  21  1   
 41  19  41  1   
 42  19  42  1   
 43  20  22  1   
 44  20  43  1   
 45  20  44  1   
 46  21  22  1   
 47  21  45  1   
 48  21  46  1   
 49  22  47  1   
 50  22  48  1   
@<TRIPOS>SUBSTRUCTURE
  1 ****   9 GROUP 4 **** **** 0

# MOE 2024.06 (io_trps.svl 2023.06)
