@<TRIPOS>MOLECULE
NONAME
46 48 1 0 0 
SMALL
USER_CHARGES


@<TRIPOS>ATOM
  1 S       -0.1890    -0.9160    -0.3460 S.3   1 <1>  -0.0800 
  2 C       -0.7440     0.1160     0.9530 C.2   1 <1>   0.1980 
  3 C       -1.7290    -1.7220    -0.3220 C.2   1 <1>  -0.1100 
  4 N       -1.9300    -0.1240     1.3460 N.2   1 <1>  -0.5650 
  5 C        0.2160     1.1620     1.4660 C.3   1 <1>  -0.0600 
  6 C       -2.5000    -1.1670     0.6290 C.2   1 <1>   0.0460 
  7 C       -3.9250    -1.5610     0.9970 C.3   1 <1>   0.3210 
  8 N       -4.2650    -2.8910     0.4400 N.am  1 <1>  -0.7300 
  9 C       -5.2410    -3.1380    -0.4700 C.2   1 <1>   0.5690 
 10 O       -6.0170    -2.2780    -0.8100 O.2   1 <1>  -0.5700 
 11 C       -5.3420    -4.5390    -1.0750 C.3   1 <1>   0.2610 
 12 O       -4.0620    -5.1540    -1.0720 O.3   1 <1>  -0.5600 
 13 C       -6.3830    -5.3740    -0.2830 C.3   1 <1>   0.3640 
 14 C       -4.0530    -6.4330    -1.6570 C.3   1 <1>   0.1810 
 15 N       -6.1520    -6.8570    -0.3620 N.am  1 <1>  -0.6600 
 16 C       -7.8050    -5.0550    -0.7630 C.ar  1 <1>  -0.1430 
 17 C       -5.0610    -7.3780    -1.0050 C.2   1 <1>   0.5690 
 18 C       -7.1410    -7.7190     0.3510 C.3   1 <1>   0.0600 
 19 C       -8.7110    -4.3240     0.0070 C.ar  1 <1>  -0.1430 
 20 C       -8.2020    -5.5150    -2.0140 C.ar  1 <1>  -0.1500 
 21 O       -4.8640    -8.5670    -1.0910 O.2   1 <1>  -0.5700 
 22 C       -9.9810    -4.0690    -0.4910 C.ar  1 <1>  -0.1500 
 23 C       -8.3630    -3.7820     1.3880 C.3   1 <1>  -0.0970 
 24 C       -9.4690    -5.2560    -2.5010 C.ar  1 <1>  -0.1500 
 25 C      -10.3610    -4.5310    -1.7370 C.ar  1 <1>  -0.1500 
 26 H       -1.8940    -2.5210    -1.0220 H     1 <1>   0.1500 
 27 H       -0.2480     1.7230     2.2570 H     1 <1>   0.0800 
 28 H        0.4810     1.8330     0.6700 H     1 <1>   0.0800 
 29 H        1.1020     0.6890     1.8440 H     1 <1>   0.0800 
 30 H       -4.6060    -0.8110     0.6320 H     1 <1>   0.0800 
 31 H       -4.0110    -1.6000     2.0680 H     1 <1>   0.0800 
 32 H       -3.5620    -3.6200     0.5900 H     1 <1>   0.3700 
 33 H       -5.6550    -4.4380    -2.0980 H     1 <1>   0.0800 
 34 H       -6.2820    -5.1050     0.7520 H     1 <1>   0.0800 
 35 H       -4.2720    -6.3350    -2.7050 H     1 <1>   0.0800 
 36 H       -3.0640    -6.8380    -1.5450 H     1 <1>   0.0800 
 37 H       -7.2860    -7.3590     1.3540 H     1 <1>   0.0800 
 38 H       -6.7940    -8.7370     0.3980 H     1 <1>   0.0800 
 39 H       -8.0830    -7.7030    -0.1690 H     1 <1>   0.0800 
 40 H       -7.5230    -6.0890    -2.6210 H     1 <1>   0.1500 
 41 H      -10.6880    -3.5040     0.0900 H     1 <1>   0.1500 
 42 H       -9.1960    -3.2520     1.8140 H     1 <1>   0.0800 
 43 H       -7.5380    -3.0960     1.3220 H     1 <1>   0.0800 
 44 H       -8.1080    -4.5870     2.0510 H     1 <1>   0.0800 
 45 H       -9.7610    -5.6200    -3.4710 H     1 <1>   0.1500 
 46 H      -11.3480    -4.3240    -2.1100 H     1 <1>   0.1500 
@<TRIPOS>BOND
  1   1   2  1   
  2   1   3  1   
  3   2   4  2   
  4   2   5  1   
  5   3   6  2   
  6   3  26  1   
  7   4   6  1   
  8   5  27  1   
  9   5  28  1   
 10   5  29  1   
 11   6   7  1   
 12   7   8  1   
 13   7  30  1   
 14   7  31  1   
 15   8   9  am  
 16   8  32  1   
 17   9  10  2   
 18   9  11  1   
 19  11  12  1   
 20  11  13  1   
 21  11  33  1   
 22  12  14  1   
 23  13  15  1   
 24  13  16  1   
 25  13  34  1   
 26  14  17  1   
 27  14  35  1   
 28  14  36  1   
 29  15  17  am  
 30  15  18  1   
 31  16  19  ar  
 32  16  20  ar  
 33  17  21  2   
 34  18  37  1   
 35  18  38  1   
 36  18  39  1   
 37  19  22  ar  
 38  19  23  1   
 39  20  24  ar  
 40  20  40  1   
 41  22  25  ar  
 42  22  41  1   
 43  23  42  1   
 44  23  43  1   
 45  23  44  1   
 46  24  25  ar  
 47  24  45  1   
 48  25  46  1   
@<TRIPOS>SUBSTRUCTURE
  1 ****   9 GROUP 4 **** **** 0

# MOE 2024.06 (io_trps.svl 2023.06)
