@<TRIPOS>MOLECULE
NONAME
47 48 1 0 0 
SMALL
USER_CHARGES


@<TRIPOS>ATOM
  1 O       -0.4110     0.3420     0.0280 O.3   1 <1>  -0.3630 
  2 C       -1.4050    -0.4800    -0.4050 C.ar  1 <1>   0.0830 
  3 C       -0.4860     1.7370    -0.1190 C.3   1 <1>   0.1200 
  4 C       -1.2600    -1.8480    -0.1710 C.ar  1 <1>  -0.1440 
  5 C       -2.5390     0.0000    -1.0590 C.ar  1 <1>  -0.1500 
  6 C        0.7840     2.3220     0.5030 C.3   1 <1>   0.3430 
  7 C       -2.2620    -2.7100    -0.5990 C.ar  1 <1>  -0.1500 
  8 C       -0.0020    -2.3470     0.5500 C.3   1 <1>  -0.0170 
  9 C       -3.5240    -0.8740    -1.4780 C.ar  1 <1>  -0.1500 
 10 N        0.8680     3.8150     0.3780 N.4   1 <1>  -0.9590 
 11 C       -3.3850    -2.2280    -1.2470 C.ar  1 <1>  -0.1500 
 12 C        0.0920    -3.8630     0.7640 C.3   1 <1>  -0.2400 
 13 C        2.2220     4.2970     0.7590 C.3   1 <1>   0.5240 
 14 C       -0.1930     4.5330     1.1350 C.3   1 <1>   0.3430 
 15 C        2.3550     5.7100     0.2460 C.2   1 <1>  -0.1810 
 16 C       -1.1520     5.1640     0.1350 C.3   1 <1>  -0.2400 
 17 C        2.3510     6.8600     1.0250 C.2   1 <1>   0.1390 
 18 C        2.4900     6.1570    -1.0240 C.2   1 <1>  -0.3020 
 19 N        2.4550     7.9300     0.3060 N.2   1 <1>  -0.7070 
 20 N        2.5530     7.5030    -0.9620 N.pl3 1 <1>   0.3140 
 21 C        2.7160     8.4460    -2.0750 C.3   1 <1>   0.0160 
 22 H       -1.3670     2.0760     0.3950 H     1 <1>   0.0800 
 23 H       -0.5390     1.9580    -1.1710 H     1 <1>   0.0800 
 24 H       -2.6820     1.0430    -1.2580 H     1 <1>   0.1500 
 25 H        1.6300     1.8750     0.0060 H     1 <1>   0.0800 
 26 H        0.8180     2.0440     1.5430 H     1 <1>   0.0800 
 27 H       -2.1910    -3.7700    -0.4400 H     1 <1>   0.1500 
 28 H        0.0500    -1.8670     1.5110 H     1 <1>   0.0800 
 29 H        0.8580    -2.0340    -0.0160 H     1 <1>   0.0800 
 30 H       -4.4000    -0.5050    -1.9830 H     1 <1>   0.1500 
 31 H        0.7680     4.0890    -0.6080 H     1 <1>   0.4500 
 32 H       -4.1510    -2.9110    -1.5720 H     1 <1>   0.1500 
 33 H       -0.7290    -4.2090     1.3660 H     1 <1>   0.0800 
 34 H        1.0090    -4.1040     1.2730 H     1 <1>   0.0800 
 35 H        0.0840    -4.3770    -0.1800 H     1 <1>   0.0800 
 36 H        2.9800     3.6840     0.2990 H     1 <1>   0.0800 
 37 H        2.3530     4.2670     1.8290 H     1 <1>   0.0800 
 38 H        0.2380     5.3120     1.7450 H     1 <1>   0.0800 
 39 H       -0.7250     3.8540     1.7830 H     1 <1>   0.0800 
 40 H       -0.6400     5.8860    -0.4770 H     1 <1>   0.0800 
 41 H       -1.9280     5.6820     0.6710 H     1 <1>   0.0800 
 42 H       -1.6180     4.4230    -0.4880 H     1 <1>   0.0800 
 43 H        2.2710     6.8930     2.1000 H     1 <1>   0.1500 
 44 H        2.5510     5.6230    -1.9550 H     1 <1>   0.1500 
 45 H        2.7670     7.9110    -3.0040 H     1 <1>   0.0800 
 46 H        3.6210     9.0050    -1.9270 H     1 <1>   0.0800 
 47 H        1.8800     9.1200    -2.0870 H     1 <1>   0.0800 
@<TRIPOS>BOND
  1   1   2  1   
  2   1   3  1   
  3   2   4  ar  
  4   2   5  ar  
  5   3   6  1   
  6   3  22  1   
  7   3  23  1   
  8   4   7  ar  
  9   4   8  1   
 10   5   9  ar  
 11   5  24  1   
 12   6  10  1   
 13   6  25  1   
 14   6  26  1   
 15   7  11  ar  
 16   7  27  1   
 17   8  12  1   
 18   8  28  1   
 19   8  29  1   
 20   9  11  ar  
 21   9  30  1   
 22  10  13  1   
 23  10  14  1   
 24  10  31  1   
 25  11  32  1   
 26  12  33  1   
 27  12  34  1   
 28  12  35  1   
 29  13  15  1   
 30  13  36  1   
 31  13  37  1   
 32  14  16  1   
 33  14  38  1   
 34  14  39  1   
 35  15  17  1   
 36  15  18  2   
 37  16  40  1   
 38  16  41  1   
 39  16  42  1   
 40  17  19  2   
 41  17  43  1   
 42  18  20  1   
 43  18  44  1   
 44  19  20  1   
 45  20  21  1   
 46  21  45  1   
 47  21  46  1   
 48  21  47  1   
@<TRIPOS>SUBSTRUCTURE
  1 ****   3 GROUP 4 **** **** 0

# MOE 2024.06 (io_trps.svl 2023.06)
