@<TRIPOS>MOLECULE
NONAME
40 41 1 0 0 
SMALL
USER_CHARGES


@<TRIPOS>ATOM
  1 S        0.2200    -0.6960     0.5590 S.o2  1 <1>   1.4470 
  2 O        0.3270    -1.4920    -0.6440 O.2   1 <1>  -0.6500 
  3 O       -0.7100    -1.0840     1.5940 O.2   1 <1>  -0.6500 
  4 N        1.7110    -0.7600     1.3310 N.am  1 <1>  -0.9140 
  5 C        0.0300     1.0590     0.1460 C.ar  1 <1>  -0.0090 
  6 C        2.4660    -1.9980     1.1530 C.3   1 <1>   0.1960 
  7 C        0.9500     1.7040    -0.6720 C.ar  1 <1>  -0.1500 
  8 C       -1.0370     1.8040     0.6330 C.ar  1 <1>  -0.1500 
  9 C        1.8000    -3.1810     1.8560 C.3   1 <1>  -0.0990 
 10 C        0.8130     3.0440    -0.9910 C.ar  1 <1>  -0.1500 
 11 C       -1.1800     3.1450     0.3180 C.ar  1 <1>  -0.1500 
 12 C        2.5800    -4.4370     1.5440 C.2   1 <1>   0.5690 
 13 C       -0.2530     3.7720    -0.4950 C.ar  1 <1>  -0.1430 
 14 O        3.4720    -4.7430     2.2990 O.2   1 <1>  -0.5700 
 15 N        2.2890    -5.1760     0.4320 N.am  1 <1>  -0.6600 
 16 C       -0.4080     5.2420    -0.8440 C.3   1 <1>  -0.0970 
 17 C        1.2480    -4.8810    -0.5840 C.3   1 <1>   0.1400 
 18 C        3.0070    -6.4260     0.1060 C.3   1 <1>   0.1400 
 19 C        1.4940    -5.8920    -1.6970 C.3   1 <1>  -0.1600 
 20 C        2.1910    -7.0640    -1.0120 C.3   1 <1>  -0.1600 
 21 H        1.4830    -0.6620     2.3190 H     1 <1>   0.4200 
 22 H        3.4530    -1.8650     1.5650 H     1 <1>   0.0800 
 23 H        2.5840    -2.2050     0.1010 H     1 <1>   0.0800 
 24 H        1.7850     1.1480    -1.0640 H     1 <1>   0.1500 
 25 H       -1.7680     1.3320     1.2680 H     1 <1>   0.1500 
 26 H        0.7830    -3.3130     1.5430 H     1 <1>   0.0800 
 27 H        1.8110    -3.0260     2.9190 H     1 <1>   0.0800 
 28 H        1.5410     3.5160    -1.6280 H     1 <1>   0.1500 
 29 H       -2.0180     3.6970     0.7090 H     1 <1>   0.1500 
 30 H        0.5550     5.6950    -0.9970 H     1 <1>   0.0800 
 31 H       -0.9070     5.7670    -0.0500 H     1 <1>   0.0800 
 32 H       -0.9860     5.3420    -1.7450 H     1 <1>   0.0800 
 33 H        1.3300    -3.8720    -0.9510 H     1 <1>   0.0800 
 34 H        0.2750    -5.0320    -0.1490 H     1 <1>   0.0800 
 35 H        3.0740    -7.0660     0.9700 H     1 <1>   0.0800 
 36 H        3.9970    -6.1800    -0.2380 H     1 <1>   0.0800 
 37 H        2.1510    -5.4520    -2.4280 H     1 <1>   0.0800 
 38 H        0.5790    -6.1830    -2.1820 H     1 <1>   0.0800 
 39 H        1.4590    -7.7210    -0.5760 H     1 <1>   0.0800 
 40 H        2.8100    -7.6270    -1.6870 H     1 <1>   0.0800 
@<TRIPOS>BOND
  1   1   2  2   
  2   1   3  2   
  3   1   4  am  
  4   1   5  1   
  5   4   6  1   
  6   4  21  1   
  7   5   7  ar  
  8   5   8  ar  
  9   6   9  1   
 10   6  22  1   
 11   6  23  1   
 12   7  10  ar  
 13   7  24  1   
 14   8  11  ar  
 15   8  25  1   
 16   9  12  1   
 17   9  26  1   
 18   9  27  1   
 19  10  13  ar  
 20  10  28  1   
 21  11  13  ar  
 22  11  29  1   
 23  12  14  2   
 24  12  15  am  
 25  13  16  1   
 26  15  17  1   
 27  15  18  1   
 28  16  30  1   
 29  16  31  1   
 30  16  32  1   
 31  17  19  1   
 32  17  33  1   
 33  17  34  1   
 34  18  20  1   
 35  18  35  1   
 36  18  36  1   
 37  19  20  1   
 38  19  37  1   
 39  19  38  1   
 40  20  39  1   
 41  20  40  1   
@<TRIPOS>SUBSTRUCTURE
  1 ****   1 GROUP 4 **** **** 0

# MOE 2024.06 (io_trps.svl 2023.06)
