@<TRIPOS>MOLECULE
NONAME
46 48 1 0 0 
SMALL
USER_CHARGES


@<TRIPOS>ATOM
  1 F       -3.4130    -0.8490    -2.8660 F     1 <1>  -0.3400 
  2 C       -3.7810    -2.1090    -2.6590 C.3   1 <1>   1.1640 
  3 F       -2.7210    -2.8560    -2.9470 F     1 <1>  -0.3400 
  4 F       -4.6940    -2.3850    -3.5820 F     1 <1>  -0.3400 
  5 C       -4.3190    -2.3450    -1.2390 C.ar  1 <1>  -0.1440 
  6 C       -5.0300    -1.3510    -0.5740 C.ar  1 <1>  -0.1500 
  7 C       -4.1150    -3.5580    -0.5880 C.ar  1 <1>  -0.1500 
  8 C       -5.5140    -1.5600     0.7060 C.ar  1 <1>  -0.1500 
  9 C       -4.5990    -3.7650     0.6910 C.ar  1 <1>  -0.1500 
 10 C       -5.3030    -2.7700     1.3470 C.ar  1 <1>  -0.1430 
 11 C       -5.8270    -3.0090     2.7610 C.3   1 <1>   0.0440 
 12 C       -6.5830    -4.3250     2.9150 C.2   1 <1>   0.5690 
 13 O       -6.0660    -5.1600     3.6220 O.2   1 <1>  -0.5700 
 14 N       -7.7920    -4.5620     2.2970 N.am  1 <1>  -0.6600 
 15 C       -8.4880    -3.5530     1.4400 C.3   1 <1>   0.2200 
 16 C       -8.4480    -5.8970     2.4750 C.3   1 <1>   0.0600 
 17 C       -8.4430    -3.9080    -0.0430 C.3   1 <1>  -0.1600 
 18 C       -9.9750    -3.3850     1.7500 C.3   1 <1>  -0.1600 
 19 C       -9.5670    -3.0730    -0.6710 C.3   1 <1>  -0.0800 
 20 C      -10.5670    -2.7700     0.4740 C.3   1 <1>  -0.0800 
 21 C      -10.1690    -3.7280    -1.9300 C.3   1 <1>   0.1400 
 22 C      -12.0110    -3.2360     0.1980 C.3   1 <1>  -0.0990 
 23 N      -11.5090    -3.1650    -2.1960 N.am  1 <1>  -0.7300 
 24 C      -12.4130    -2.9190    -1.2250 C.2   1 <1>   0.5690 
 25 O      -13.5030    -2.4750    -1.4740 O.2   1 <1>  -0.5700 
 26 H       -5.2090    -0.4000    -1.0490 H     1 <1>   0.1500 
 27 H       -3.5720    -4.3540    -1.0710 H     1 <1>   0.1500 
 28 H       -6.0530    -0.7690     1.2000 H     1 <1>   0.1500 
 29 H       -4.4220    -4.7120     1.1770 H     1 <1>   0.1500 
 30 H       -6.4640    -2.2050     3.0770 H     1 <1>   0.0800 
 31 H       -4.9860    -3.0220     3.4310 H     1 <1>   0.0800 
 32 H       -8.0350    -2.5860     1.5550 H     1 <1>   0.0800 
 33 H       -8.9920    -6.1810     1.5940 H     1 <1>   0.0800 
 34 H       -9.1230    -5.8560     3.3110 H     1 <1>   0.0800 
 35 H       -7.7100    -6.6570     2.6690 H     1 <1>   0.0800 
 36 H       -7.4860    -3.6690    -0.4730 H     1 <1>   0.0800 
 37 H       -8.6420    -4.9540    -0.1800 H     1 <1>   0.0800 
 38 H      -10.4390    -4.3350     1.9340 H     1 <1>   0.0800 
 39 H      -10.1260    -2.7460     2.6020 H     1 <1>   0.0800 
 40 H       -9.1390    -2.1320    -0.9760 H     1 <1>   0.0800 
 41 H      -10.5920    -1.6990     0.5950 H     1 <1>   0.0800 
 42 H      -10.2720    -4.7910    -1.7860 H     1 <1>   0.0800 
 43 H       -9.5250    -3.5600    -2.7770 H     1 <1>   0.0800 
 44 H      -12.6920    -2.7590     0.8790 H     1 <1>   0.0800 
 45 H      -12.0960    -4.2990     0.3260 H     1 <1>   0.0800 
 46 H      -11.7910    -2.9860    -3.1630 H     1 <1>   0.3700 
@<TRIPOS>BOND
  1   1   2  1   
  2   2   3  1   
  3   2   4  1   
  4   2   5  1   
  5   5   6  ar  
  6   5   7  ar  
  7   6   8  ar  
  8   6  26  1   
  9   7   9  ar  
 10   7  27  1   
 11   8  10  ar  
 12   8  28  1   
 13   9  10  ar  
 14   9  29  1   
 15  10  11  1   
 16  11  12  1   
 17  11  30  1   
 18  11  31  1   
 19  12  13  2   
 20  12  14  am  
 21  14  15  1   
 22  14  16  1   
 23  15  17  1   
 24  15  18  1   
 25  15  32  1   
 26  16  33  1   
 27  16  34  1   
 28  16  35  1   
 29  17  19  1   
 30  17  36  1   
 31  17  37  1   
 32  18  20  1   
 33  18  38  1   
 34  18  39  1   
 35  19  20  1   
 36  19  21  1   
 37  19  40  1   
 38  20  22  1   
 39  20  41  1   
 40  21  23  1   
 41  21  42  1   
 42  21  43  1   
 43  22  24  1   
 44  22  44  1   
 45  22  45  1   
 46  23  24  am  
 47  23  46  1   
 48  24  25  2   
@<TRIPOS>SUBSTRUCTURE
  1 ****  17 GROUP 4 **** **** 0

# MOE 2024.06 (io_trps.svl 2023.06)
