@<TRIPOS>MOLECULE
NONAME
47 49 1 0 0 
SMALL
USER_CHARGES


@<TRIPOS>ATOM
  1 F       -1.5070    -0.6750     1.5970 F     1 <1>  -0.1900 
  2 C       -1.2130    -1.8810     1.1870 C.ar  1 <1>   0.1900 
  3 C       -1.0050    -2.1580    -0.1660 C.ar  1 <1>   0.0830 
  4 C       -1.1080    -2.8660     2.1500 C.ar  1 <1>  -0.1500 
  5 O       -1.1200    -1.2670    -1.1860 O.3   1 <1>  -0.3630 
  6 C       -0.6640    -3.4520    -0.5210 C.ar  1 <1>  -0.1500 
  7 C       -0.8020    -4.1580     1.7600 C.ar  1 <1>  -0.1500 
  8 C       -2.1080    -0.2570    -1.1470 C.3   1 <1>   0.0400 
  9 C       -0.5960    -4.4830     0.4170 C.ar  1 <1>   0.0860 
 10 C       -0.2880    -5.8470     0.0290 C.2   1 <1>   0.5440 
 11 O        0.8840    -6.1400    -0.1100 O.2   1 <1>  -0.5700 
 12 N       -1.2460    -6.8360    -0.1620 N.am  1 <1>  -0.6600 
 13 C       -2.6670    -6.6440    -0.5910 C.3   1 <1>   0.2200 
 14 C       -0.8180    -8.2660    -0.2000 C.3   1 <1>   0.0600 
 15 C       -3.5430    -5.9630     0.4600 C.3   1 <1>  -0.1600 
 16 C       -2.7900    -5.8510    -1.8910 C.3   1 <1>  -0.1600 
 17 C       -4.4640    -4.9810    -0.2790 C.3   1 <1>  -0.0800 
 18 C       -4.0590    -4.9980    -1.7690 C.3   1 <1>  -0.0800 
 19 C       -4.4600    -3.5850     0.3650 C.3   1 <1>   0.1400 
 20 C       -3.8970    -3.6000    -2.4040 C.3   1 <1>  -0.0990 
 21 N       -5.1490    -2.6140    -0.5170 N.am  1 <1>  -0.6600 
 22 C       -4.9000    -2.6030    -1.8610 C.2   1 <1>   0.5690 
 23 C       -6.0660    -1.6460     0.1410 C.3   1 <1>   0.0600 
 24 O       -5.4170    -1.8210    -2.6220 O.2   1 <1>  -0.5700 
 25 H       -1.2620    -2.6210     3.1860 H     1 <1>   0.1500 
 26 H       -0.4480    -3.6640    -1.5520 H     1 <1>   0.1500 
 27 H       -0.7140    -4.9360     2.4990 H     1 <1>   0.1500 
 28 H       -2.2720     0.0890    -2.1520 H     1 <1>   0.0800 
 29 H       -1.7560     0.5540    -0.5370 H     1 <1>   0.0800 
 30 H       -3.0210    -0.6660    -0.7510 H     1 <1>   0.0800 
 31 H       -3.1070    -7.6090    -0.7800 H     1 <1>   0.0800 
 32 H       -1.5340    -8.8790     0.3180 H     1 <1>   0.0800 
 33 H        0.1390    -8.3930     0.2760 H     1 <1>   0.0800 
 34 H       -0.7400    -8.5920    -1.2230 H     1 <1>   0.0800 
 35 H       -4.1320    -6.7060     0.9670 H     1 <1>   0.0800 
 36 H       -2.9540    -5.4600     1.1970 H     1 <1>   0.0800 
 37 H       -1.9280    -5.2370    -2.0450 H     1 <1>   0.0800 
 38 H       -2.8680    -6.5210    -2.7280 H     1 <1>   0.0800 
 39 H       -5.4730    -5.3530    -0.2100 H     1 <1>   0.0800 
 40 H       -4.8500    -5.5040    -2.2990 H     1 <1>   0.0800 
 41 H       -3.4500    -3.2520     0.5130 H     1 <1>   0.0800 
 42 H       -4.9470    -3.6270     1.3240 H     1 <1>   0.0800 
 43 H       -4.0030    -3.6690    -3.4710 H     1 <1>   0.0800 
 44 H       -2.9240    -3.2010    -2.1980 H     1 <1>   0.0800 
 45 H       -5.5250    -1.0710     0.8710 H     1 <1>   0.0800 
 46 H       -6.8670    -2.1760     0.6240 H     1 <1>   0.0800 
 47 H       -6.4890    -0.9730    -0.5860 H     1 <1>   0.0800 
@<TRIPOS>BOND
  1   1   2  1   
  2   2   3  ar  
  3   2   4  ar  
  4   3   5  1   
  5   3   6  ar  
  6   4   7  ar  
  7   4  25  1   
  8   5   8  1   
  9   6   9  ar  
 10   6  26  1   
 11   7   9  ar  
 12   7  27  1   
 13   8  28  1   
 14   8  29  1   
 15   8  30  1   
 16   9  10  1   
 17  10  11  2   
 18  10  12  am  
 19  12  13  1   
 20  12  14  1   
 21  13  15  1   
 22  13  16  1   
 23  13  31  1   
 24  14  32  1   
 25  14  33  1   
 26  14  34  1   
 27  15  17  1   
 28  15  35  1   
 29  15  36  1   
 30  16  18  1   
 31  16  37  1   
 32  16  38  1   
 33  17  18  1   
 34  17  19  1   
 35  17  39  1   
 36  18  20  1   
 37  18  40  1   
 38  19  21  1   
 39  19  41  1   
 40  19  42  1   
 41  20  22  1   
 42  20  43  1   
 43  20  44  1   
 44  21  22  am  
 45  21  23  1   
 46  22  24  2   
 47  23  45  1   
 48  23  46  1   
 49  23  47  1   
@<TRIPOS>SUBSTRUCTURE
  1 ****   6 GROUP 4 **** **** 0

# MOE 2024.06 (io_trps.svl 2023.06)
