@<TRIPOS>MOLECULE
NONAME
44 45 1 0 0 
SMALL
USER_CHARGES


@<TRIPOS>ATOM
  1 CL      -1.4990    -0.4160    -1.9300 Cl    1 <1>  -0.1770 
  2 C       -2.2170     0.4930    -0.6180 C.ar  1 <1>   0.1770 
  3 C       -3.3290    -0.0310     0.0360 C.ar  1 <1>   0.0860 
  4 C       -1.6440     1.7080    -0.2550 C.ar  1 <1>  -0.1440 
  5 C       -3.8320     0.7260     1.0880 C.ar  1 <1>   0.1900 
  6 C       -3.9320    -1.2780    -0.3490 C.2   1 <1>   0.5440 
  7 C       -2.1890     2.4280     0.7990 C.ar  1 <1>  -0.1500 
  8 C       -0.4310     2.2570    -0.9950 C.3   1 <1>  -0.0970 
  9 F       -4.8660     0.2860     1.7530 F     1 <1>  -0.1900 
 10 C       -3.2900     1.9350     1.4780 C.ar  1 <1>  -0.1500 
 11 O       -4.5780    -1.3640    -1.3730 O.2   1 <1>  -0.5700 
 12 N       -3.8200    -2.3780     0.4510 N.am  1 <1>  -0.7300 
 13 C       -4.4850    -3.6700     0.1780 C.3   1 <1>   0.2200 
 14 C       -5.9300    -3.6020     0.6800 C.3   1 <1>  -0.0800 
 15 C       -3.8730    -4.7820     1.0270 C.3   1 <1>   0.1200 
 16 C       -5.9770    -4.6380     1.8090 C.3   1 <1>   0.1200 
 17 C       -6.9770    -3.7360    -0.4480 C.3   1 <1>  -0.0550 
 18 O       -4.6510    -4.8250     2.1800 O.3   1 <1>  -0.5600 
 19 S       -7.1160    -5.3310    -1.2700 S.o2  1 <1>   1.3330 
 20 O       -7.8950    -5.1740    -2.4770 O.2   1 <1>  -0.6500 
 21 O       -5.8100    -5.9490    -1.3410 O.2   1 <1>  -0.6500 
 22 N       -8.0640    -6.2430    -0.1930 N.am  1 <1>  -0.8490 
 23 C       -9.5050    -6.0070    -0.3400 C.3   1 <1>   0.1160 
 24 C       -7.7860    -7.6800    -0.2910 C.3   1 <1>   0.1160 
 25 H       -1.7620     3.3720     1.0960 H     1 <1>   0.1500 
 26 H       -0.1300     3.2100    -0.5960 H     1 <1>   0.0800 
 27 H       -0.6630     2.3850    -2.0380 H     1 <1>   0.0800 
 28 H        0.3950     1.5750    -0.9050 H     1 <1>   0.0800 
 29 H       -3.7220     2.4810     2.2990 H     1 <1>   0.1500 
 30 H       -3.4530    -2.2880     1.4010 H     1 <1>   0.3700 
 31 H       -4.4050    -3.9030    -0.8720 H     1 <1>   0.0800 
 32 H       -6.0960    -2.6420     1.1380 H     1 <1>   0.0800 
 33 H       -2.8450    -4.5990     1.2840 H     1 <1>   0.0800 
 34 H       -3.9650    -5.7320     0.5290 H     1 <1>   0.0800 
 35 H       -6.3510    -5.5920     1.4900 H     1 <1>   0.0800 
 36 H       -6.5350    -4.2940     2.6620 H     1 <1>   0.0800 
 37 H       -6.7330    -3.0010    -1.1920 H     1 <1>   0.0800 
 38 H       -7.9370    -3.4660    -0.0560 H     1 <1>   0.0800 
 39 H      -10.0450    -6.5340     0.4280 H     1 <1>   0.0800 
 40 H       -9.8460    -6.3470    -1.3040 H     1 <1>   0.0800 
 41 H       -9.7230    -4.9570    -0.2480 H     1 <1>   0.0800 
 42 H       -8.3960    -8.2270     0.4070 H     1 <1>   0.0800 
 43 H       -6.7530    -7.8730    -0.0560 H     1 <1>   0.0800 
 44 H       -7.9850    -8.0320    -1.2900 H     1 <1>   0.0800 
@<TRIPOS>BOND
  1   1   2  1   
  2   2   3  ar  
  3   2   4  ar  
  4   3   5  ar  
  5   3   6  1   
  6   4   7  ar  
  7   4   8  1   
  8   5   9  1   
  9   5  10  ar  
 10   6  11  2   
 11   6  12  am  
 12   7  10  ar  
 13   7  25  1   
 14   8  26  1   
 15   8  27  1   
 16   8  28  1   
 17  10  29  1   
 18  12  13  1   
 19  12  30  1   
 20  13  14  1   
 21  13  15  1   
 22  13  31  1   
 23  14  16  1   
 24  14  17  1   
 25  14  32  1   
 26  15  18  1   
 27  15  33  1   
 28  15  34  1   
 29  16  18  1   
 30  16  35  1   
 31  16  36  1   
 32  17  19  1   
 33  17  37  1   
 34  17  38  1   
 35  19  20  2   
 36  19  21  2   
 37  19  22  am  
 38  22  23  1   
 39  22  24  1   
 40  23  39  1   
 41  23  40  1   
 42  23  41  1   
 43  24  42  1   
 44  24  43  1   
 45  24  44  1   
@<TRIPOS>SUBSTRUCTURE
  1 ****  12 GROUP 4 **** **** 0

# MOE 2024.06 (io_trps.svl 2023.06)
