@<TRIPOS>MOLECULE
NONAME
36 38 1 0 0 
SMALL
USER_CHARGES


@<TRIPOS>ATOM
  1 S        0.0060    -0.4840    -0.0410 S.3   1 <1>  -0.0800 
  2 C       -1.0070     0.6520     0.8300 C.2   1 <1>   0.4620 
  3 C       -1.4170    -1.4180    -0.4130 C.2   1 <1>  -0.1100 
  4 N       -2.2510     0.3580     0.8350 N.2   1 <1>  -0.5650 
  5 N       -0.4300     1.7270     1.4170 N.pl3 1 <1>  -0.8840 
  6 C       -2.4870    -0.8150     0.1330 C.2   1 <1>   0.0460 
  7 C       -3.9320    -1.2950     0.0510 C.3   1 <1>   0.3900 
  8 N       -4.0080    -2.7040    -0.3990 N.pl3 1 <1>  -0.8690 
  9 C       -5.1940    -3.3290    -0.5420 C.ar  1 <1>   0.7200 
 10 N       -5.1370    -4.6320    -0.3300 N.ar  1 <1>  -0.6200 
 11 N       -6.2520    -2.5880    -0.8560 N.ar  1 <1>  -0.6200 
 12 C       -6.2710    -5.2960    -0.4560 C.ar  1 <1>   0.4100 
 13 C       -7.3810    -3.2580    -0.9900 C.ar  1 <1>   0.1600 
 14 N       -6.2230    -6.6670    -0.2300 N.pl3 1 <1>  -0.8380 
 15 C       -7.4350    -4.6100    -0.8000 C.ar  1 <1>   0.1900 
 16 C       -7.0690    -7.2710     0.8420 C.3   1 <1>   0.2090 
 17 C       -4.9400    -7.4090    -0.4210 C.3   1 <1>   0.2090 
 18 F       -8.5850    -5.2340    -0.9550 F     1 <1>  -0.1900 
 19 C       -7.2130    -8.7890     0.6310 C.3   1 <1>   0.1200 
 20 C       -5.1950    -8.9210    -0.5560 C.3   1 <1>   0.1200 
 21 O       -5.9580    -9.4030     0.5170 O.3   1 <1>  -0.5600 
 22 H       -1.3010    -2.3100    -1.0010 H     1 <1>   0.1500 
 23 H       -1.0170     2.4150     1.8880 H     1 <1>   0.4000 
 24 H        0.5650     1.9310     1.3240 H     1 <1>   0.4000 
 25 H       -4.4730    -0.6610    -0.6300 H     1 <1>   0.0800 
 26 H       -4.3860    -1.2120     1.0240 H     1 <1>   0.0800 
 27 H       -3.3350    -3.3160     0.0580 H     1 <1>   0.4000 
 28 H       -8.2710    -2.7160    -1.2560 H     1 <1>   0.1500 
 29 H       -8.0440    -6.8210     0.8510 H     1 <1>   0.0800 
 30 H       -6.6100    -7.0920     1.7990 H     1 <1>   0.0800 
 31 H       -4.2940    -7.2310     0.4220 H     1 <1>   0.0800 
 32 H       -4.4430    -7.0500    -1.3050 H     1 <1>   0.0800 
 33 H       -7.7770    -8.9900    -0.2630 H     1 <1>   0.0800 
 34 H       -7.7200    -9.2330     1.4680 H     1 <1>   0.0800 
 35 H       -4.2620    -9.4550    -0.5630 H     1 <1>   0.0800 
 36 H       -5.7210    -9.1290    -1.4720 H     1 <1>   0.0800 
@<TRIPOS>BOND
  1   1   2  1   
  2   1   3  1   
  3   2   4  2   
  4   2   5  1   
  5   3   6  2   
  6   3  22  1   
  7   4   6  1   
  8   5  23  1   
  9   5  24  1   
 10   6   7  1   
 11   7   8  1   
 12   7  25  1   
 13   7  26  1   
 14   8   9  1   
 15   8  27  1   
 16   9  10  ar  
 17   9  11  ar  
 18  10  12  ar  
 19  11  13  ar  
 20  12  14  1   
 21  12  15  ar  
 22  13  15  ar  
 23  13  28  1   
 24  14  16  1   
 25  14  17  1   
 26  15  18  1   
 27  16  19  1   
 28  16  29  1   
 29  16  30  1   
 30  17  20  1   
 31  17  31  1   
 32  17  32  1   
 33  19  21  1   
 34  19  33  1   
 35  19  34  1   
 36  20  21  1   
 37  20  35  1   
 38  20  36  1   
@<TRIPOS>SUBSTRUCTURE
  1 ****   9 GROUP 4 **** **** 0

# MOE 2024.06 (io_trps.svl 2023.06)
