@<TRIPOS>MOLECULE
NONAME
53 56 1 0 0 
SMALL
USER_CHARGES


@<TRIPOS>ATOM
  1 O       -0.5080    -0.8140    -0.0890 O.2   1 <1>  -0.5700 
  2 C       -0.5020    -1.6870     0.7490 C.2   1 <1>   0.5690 
  3 N        0.2660    -1.6100     1.8710 N.am  1 <1>  -0.7300 
  4 C       -1.4150    -2.9030     0.4990 C.3   1 <1>   0.4040 
  5 C        1.1940    -0.4990     2.1780 C.3   1 <1>   0.1400 
  6 N       -2.4510    -2.6340    -0.5690 N.4   1 <1>  -0.9590 
  7 C        2.5480    -1.0880     2.5510 C.3   1 <1>  -0.2400 
  8 C       -3.5200    -1.7040    -0.0660 C.3   1 <1>   0.3430 
  9 C       -3.0210    -3.8690    -1.1730 C.3   1 <1>   0.3430 
 10 C       -4.4660    -1.2640    -1.1960 C.3   1 <1>   0.1430 
 11 C       -3.9320    -3.4890    -2.3450 C.3   1 <1>  -0.1600 
 12 C       -5.5880    -0.4510    -0.5950 C.ar  1 <1>   0.1670 
 13 C       -5.0360    -2.4980    -1.9290 C.3   1 <1>  -0.1600 
 14 C       -3.8020    -0.2550    -2.1710 C.3   1 <1>  -0.1600 
 15 N       -6.2840    -0.8100     0.4540 N.ar  1 <1>  -0.6200 
 16 C       -5.7870     0.7140    -1.2650 C.ar  1 <1>  -0.1440 
 17 C       -4.8320     0.8640    -2.4230 C.3   1 <1>  -0.0170 
 18 C       -7.2390     0.0530     0.8360 C.ar  1 <1>   0.6200 
 19 C       -6.7790     1.5440    -0.8110 C.ar  1 <1>   0.1600 
 20 N       -7.5040     1.2220     0.2350 N.ar  1 <1>  -0.6200 
 21 C       -8.0420    -0.3050     1.9950 C.ar  1 <1>   0.0000 
 22 C       -8.3700    -1.6340     2.2760 C.ar  1 <1>  -0.1500 
 23 C       -8.5200     0.6650     2.8810 C.ar  1 <1>  -0.1500 
 24 C       -9.1290    -1.9780     3.3800 C.ar  1 <1>  -0.1500 
 25 C       -9.2790     0.3290     3.9870 C.ar  1 <1>  -0.1500 
 26 C       -9.5850    -0.9960     4.2400 C.ar  1 <1>  -0.1500 
 27 H        0.2670    -2.3470     2.5810 H     1 <1>   0.3700 
 28 H       -1.9000    -3.1770     1.4200 H     1 <1>   0.0800 
 29 H       -0.7870    -3.7200     0.1900 H     1 <1>   0.0800 
 30 H        0.8040     0.0810     2.9980 H     1 <1>   0.0800 
 31 H        1.3000     0.1500     1.3230 H     1 <1>   0.0800 
 32 H       -1.9400    -2.1040    -1.2960 H     1 <1>   0.4500 
 33 H        2.4670    -1.7110     3.4240 H     1 <1>   0.0800 
 34 H        3.2370    -0.2920     2.7690 H     1 <1>   0.0800 
 35 H        2.9460    -1.6610     1.7320 H     1 <1>   0.0800 
 36 H       -3.0740    -0.8260     0.3740 H     1 <1>   0.0800 
 37 H       -4.1030    -2.1980     0.6950 H     1 <1>   0.0800 
 38 H       -3.5920    -4.4070    -0.4340 H     1 <1>   0.0800 
 39 H       -2.2290    -4.5100    -1.5270 H     1 <1>   0.0800 
 40 H       -4.3910    -4.3830    -2.7310 H     1 <1>   0.0800 
 41 H       -3.3360    -3.0740    -3.1390 H     1 <1>   0.0800 
 42 H       -5.5990    -2.1870    -2.7930 H     1 <1>   0.0800 
 43 H       -5.7220    -3.0050    -1.2710 H     1 <1>   0.0800 
 44 H       -3.4900    -0.7050    -3.0970 H     1 <1>   0.0800 
 45 H       -2.9390     0.1890    -1.7030 H     1 <1>   0.0800 
 46 H       -5.3580     0.7010    -3.3490 H     1 <1>   0.0800 
 47 H       -4.3690     1.8360    -2.4340 H     1 <1>   0.0800 
 48 H       -6.9800     2.4800    -1.3060 H     1 <1>   0.1500 
 49 H       -8.0290    -2.4110     1.6150 H     1 <1>   0.1500 
 50 H       -8.2920     1.7010     2.6980 H     1 <1>   0.1500 
 51 H       -9.3670    -3.0100     3.5710 H     1 <1>   0.1500 
 52 H       -9.6330     1.0980     4.6510 H     1 <1>   0.1500 
 53 H      -10.1760    -1.2600     5.1000 H     1 <1>   0.1500 
@<TRIPOS>BOND
  1   1   2  2   
  2   2   3  am  
  3   2   4  1   
  4   3   5  1   
  5   3  27  1   
  6   4   6  1   
  7   4  28  1   
  8   4  29  1   
  9   5   7  1   
 10   5  30  1   
 11   5  31  1   
 12   6   8  1   
 13   6   9  1   
 14   6  32  1   
 15   7  33  1   
 16   7  34  1   
 17   7  35  1   
 18   8  10  1   
 19   8  36  1   
 20   8  37  1   
 21   9  11  1   
 22   9  38  1   
 23   9  39  1   
 24  10  12  1   
 25  10  13  1   
 26  10  14  1   
 27  11  13  1   
 28  11  40  1   
 29  11  41  1   
 30  12  15  ar  
 31  12  16  ar  
 32  13  42  1   
 33  13  43  1   
 34  14  17  1   
 35  14  44  1   
 36  14  45  1   
 37  15  18  ar  
 38  16  17  1   
 39  16  19  ar  
 40  17  46  1   
 41  17  47  1   
 42  18  20  ar  
 43  18  21  1   
 44  19  20  ar  
 45  19  48  1   
 46  21  22  ar  
 47  21  23  ar  
 48  22  24  ar  
 49  22  49  1   
 50  23  25  ar  
 51  23  50  1   
 52  24  26  ar  
 53  24  51  1   
 54  25  26  ar  
 55  25  52  1   
 56  26  53  1   
@<TRIPOS>SUBSTRUCTURE
  1 ****   8 GROUP 4 **** **** 0

# MOE 2024.06 (io_trps.svl 2023.06)
