@<TRIPOS>MOLECULE
NONAME
51 53 1 0 0 
SMALL
USER_CHARGES


@<TRIPOS>ATOM
  1 O        1.0430     1.6140    -1.0630 O.2   1 <1>  -0.5700 
  2 C        0.5160     2.6790    -0.8590 C.2   1 <1>   0.5690 
  3 N       -0.2930     2.8580     0.2060 N.am  1 <1>  -0.7300 
  4 C        0.7240     3.8410    -1.8280 C.3   1 <1>   0.1810 
  5 C       -1.0640     4.1020     0.4610 C.3   1 <1>   0.3640 
  6 O        0.4710     5.0890    -1.2240 O.3   1 <1>  -0.5600 
  7 C       -2.5440     3.7230     0.5190 C.ar  1 <1>  -0.1440 
  8 C       -0.8070     5.2110    -0.6020 C.3   1 <1>   0.2610 
  9 C       -3.3430     4.2070     1.5450 C.ar  1 <1>  -0.1500 
 10 C       -3.1170     2.8990    -0.4440 C.ar  1 <1>  -0.1500 
 11 C       -0.9480     6.6060     0.0260 C.2   1 <1>   0.5690 
 12 C       -4.6850     3.8750     1.6120 C.ar  1 <1>  -0.1500 
 13 C       -4.4590     2.5650    -0.3780 C.ar  1 <1>  -0.1500 
 14 O       -1.8280     6.8280     0.8230 O.2   1 <1>  -0.5700 
 15 N       -0.0650     7.5770    -0.3300 N.am  1 <1>  -0.7300 
 16 C       -5.2440     3.0530     0.6510 C.ar  1 <1>  -0.1500 
 17 C       -0.0630     8.9680     0.1480 C.3   1 <1>   0.2200 
 18 C       -0.0940     9.9110    -1.0550 C.3   1 <1>  -0.1600 
 19 C        1.1850     9.2030     1.0000 C.3   1 <1>  -0.1600 
 20 C        0.0070    11.3690    -0.6010 C.3   1 <1>   0.1400 
 21 C        1.2700    10.6660     1.4380 C.3   1 <1>   0.1400 
 22 N        1.2290    11.5470     0.2360 N.am  1 <1>  -0.6600 
 23 C        2.1920    12.4660    -0.1100 C.2   1 <1>   0.5690 
 24 O        2.0720    13.1700    -1.0850 O.2   1 <1>  -0.5700 
 25 C        3.4520    12.6160     0.7430 C.3   1 <1>  -0.0990 
 26 C        4.4690    13.6500     0.2270 C.3   1 <1>  -0.2400 
 27 H       -0.4860     2.0620     0.8140 H     1 <1>   0.3700 
 28 H        0.0700     3.7290    -2.6740 H     1 <1>   0.0800 
 29 H        1.7420     3.8400    -2.1710 H     1 <1>   0.0800 
 30 H       -0.7630     4.4780     1.4240 H     1 <1>   0.0800 
 31 H       -1.5470     5.1300    -1.3780 H     1 <1>   0.0800 
 32 H       -2.9280     4.8560     2.2980 H     1 <1>   0.1500 
 33 H       -2.5240     2.5050    -1.2510 H     1 <1>   0.1500 
 34 H       -5.2940     4.2600     2.4110 H     1 <1>   0.1500 
 35 H       -4.8920     1.9250    -1.1260 H     1 <1>   0.1500 
 36 H        0.6960     7.3080    -0.9610 H     1 <1>   0.3700 
 37 H       -6.2880     2.7950     0.7030 H     1 <1>   0.1500 
 38 H       -0.9390     9.1420     0.7520 H     1 <1>   0.0800 
 39 H        0.7260     9.7010    -1.7170 H     1 <1>   0.0800 
 40 H       -1.0140     9.7760    -1.5940 H     1 <1>   0.0800 
 41 H        1.1430     8.5750     1.8720 H     1 <1>   0.0800 
 42 H        2.0690     8.9550     0.4410 H     1 <1>   0.0800 
 43 H       -0.8580    11.6370    -0.0190 H     1 <1>   0.0800 
 44 H        0.0350    12.0120    -1.4650 H     1 <1>   0.0800 
 45 H        2.1680    10.8150     2.0090 H     1 <1>   0.0800 
 46 H        0.4330    10.9050     2.0720 H     1 <1>   0.0800 
 47 H        3.1530    12.8990     1.7350 H     1 <1>   0.0800 
 48 H        3.9380    11.6600     0.7930 H     1 <1>   0.0800 
 49 H        4.0160    14.6250     0.1840 H     1 <1>   0.0800 
 50 H        4.7990    13.3840    -0.7620 H     1 <1>   0.0800 
 51 H        5.3240    13.6930     0.8780 H     1 <1>   0.0800 
@<TRIPOS>BOND
  1   1   2  2   
  2   2   3  am  
  3   2   4  1   
  4   3   5  1   
  5   3  27  1   
  6   4   6  1   
  7   4  28  1   
  8   4  29  1   
  9   5   7  1   
 10   5   8  1   
 11   5  30  1   
 12   6   8  1   
 13   7   9  ar  
 14   7  10  ar  
 15   8  11  1   
 16   8  31  1   
 17   9  12  ar  
 18   9  32  1   
 19  10  13  ar  
 20  10  33  1   
 21  11  14  2   
 22  11  15  am  
 23  12  16  ar  
 24  12  34  1   
 25  13  16  ar  
 26  13  35  1   
 27  15  17  1   
 28  15  36  1   
 29  16  37  1   
 30  17  18  1   
 31  17  19  1   
 32  17  38  1   
 33  18  20  1   
 34  18  39  1   
 35  18  40  1   
 36  19  21  1   
 37  19  41  1   
 38  19  42  1   
 39  20  22  1   
 40  20  43  1   
 41  20  44  1   
 42  21  22  1   
 43  21  45  1   
 44  21  46  1   
 45  22  23  am  
 46  23  24  2   
 47  23  25  1   
 48  25  26  1   
 49  25  47  1   
 50  25  48  1   
 51  26  49  1   
 52  26  50  1   
 53  26  51  1   
@<TRIPOS>SUBSTRUCTURE
  1 ****  11 GROUP 4 **** **** 0

# MOE 2024.06 (io_trps.svl 2023.06)
