@<TRIPOS>MOLECULE
NONAME
44 46 1 0 0 
SMALL
USER_CHARGES


@<TRIPOS>ATOM
  1 S        1.1300    -0.3610    -0.3140 S.3   1 <1>  -0.4600 
  2 C        0.7400     0.3500    -1.9340 C.3   1 <1>   0.0700 
  3 C        2.9410    -0.2970    -0.2660 C.3   1 <1>   0.0700 
  4 C        1.4650     1.6950    -2.0810 C.3   1 <1>   0.3430 
  5 C        3.4060     1.1200    -0.6220 C.3   1 <1>   0.3430 
  6 N        2.9600     1.5570    -1.9960 N.4   1 <1>  -0.9590 
  7 C        3.6610     2.8310    -2.3890 C.3   1 <1>   0.4810 
  8 C        3.1890     4.0330    -1.5960 C.2   1 <1>  -0.1240 
  9 C        3.9290     4.3190    -0.4090 C.2   1 <1>   0.6160 
 10 C        2.1640     4.8260    -1.9920 C.2   1 <1>  -0.1780 
 11 O        4.7780     3.5260    -0.0240 O.2   1 <1>  -0.5700 
 12 N        3.6260     5.4580     0.3050 N.am  1 <1>  -0.4770 
 13 C        1.7910     5.9660    -1.2180 C.ar  1 <1>   0.0280 
 14 C        2.5430     6.2820    -0.0680 C.ar  1 <1>   0.1170 
 15 C        4.6600     5.9790     1.2860 C.3   1 <1>   0.0340 
 16 C        0.7150     6.7790    -1.5900 C.ar  1 <1>  -0.1500 
 17 C        2.1910     7.4230     0.6560 C.ar  1 <1>  -0.1500 
 18 C        5.3670     7.2500     0.8270 C.2   1 <1>   0.9060 
 19 C        0.3940     7.9040    -0.8650 C.ar  1 <1>  -0.1500 
 20 C        1.1530     8.2280     0.2470 C.ar  1 <1>   0.1020 
 21 O        6.0940     7.2080    -0.1720 O.co2 1 <1>  -0.9000 
 22 O        5.1840     8.2880     1.4770 O.co2 1 <1>  -0.9000 
 23 S        0.7640     9.7460     1.1260 S.3   1 <1>  -0.3320 
 24 C        2.3530    10.2260     1.9500 C.3   1 <1>  -0.0100 
 25 H       -0.3280     0.4790    -1.9680 H     1 <1>   0.0800 
 26 H        1.0410    -0.3560    -2.6870 H     1 <1>   0.0800 
 27 H        3.3190    -1.0310    -0.9560 H     1 <1>   0.0800 
 28 H        3.2380    -0.5580     0.7350 H     1 <1>   0.0800 
 29 H        1.1190     2.3610    -1.3060 H     1 <1>   0.0800 
 30 H        1.1960     2.1260    -3.0310 H     1 <1>   0.0800 
 31 H        4.4820     1.1560    -0.5630 H     1 <1>   0.0800 
 32 H        3.0230     1.8050     0.1180 H     1 <1>   0.0800 
 33 H        3.2590     0.8290    -2.6540 H     1 <1>   0.4500 
 34 H        3.4820     3.0240    -3.4340 H     1 <1>   0.0800 
 35 H        4.7270     2.7210    -2.2580 H     1 <1>   0.0800 
 36 H        1.6050     4.6510    -2.8950 H     1 <1>   0.1500 
 37 H        5.4260     5.2490     1.4570 H     1 <1>   0.0800 
 38 H        4.1900     6.1760     2.2290 H     1 <1>   0.0800 
 39 H        0.1350     6.5320    -2.4610 H     1 <1>   0.1500 
 40 H        2.7360     7.6880     1.5380 H     1 <1>   0.1500 
 41 H       -0.4220     8.5450    -1.1490 H     1 <1>   0.1500 
 42 H        2.2700    11.2510     2.2580 H     1 <1>   0.0800 
 43 H        3.1520    10.1040     1.2380 H     1 <1>   0.0800 
 44 H        2.5030     9.5820     2.7970 H     1 <1>   0.0800 
@<TRIPOS>BOND
  1   1   2  1   
  2   1   3  1   
  3   2   4  1   
  4   2  25  1   
  5   2  26  1   
  6   3   5  1   
  7   3  27  1   
  8   3  28  1   
  9   4   6  1   
 10   4  29  1   
 11   4  30  1   
 12   5   6  1   
 13   5  31  1   
 14   5  32  1   
 15   6   7  1   
 16   6  33  1   
 17   7   8  1   
 18   7  34  1   
 19   7  35  1   
 20   8   9  1   
 21   8  10  2   
 22   9  11  2   
 23   9  12  am  
 24  10  13  1   
 25  10  36  1   
 26  12  14  1   
 27  12  15  1   
 28  13  14  ar  
 29  13  16  ar  
 30  14  17  ar  
 31  15  18  1   
 32  15  37  1   
 33  15  38  1   
 34  16  19  ar  
 35  16  39  1   
 36  17  20  ar  
 37  17  40  1   
 38  18  21  ar  
 39  18  22  ar  
 40  19  20  ar  
 41  19  41  1   
 42  20  23  1   
 43  23  24  1   
 44  24  42  1   
 45  24  43  1   
 46  24  44  1   
@<TRIPOS>SUBSTRUCTURE
  1 ****  12 GROUP 4 **** **** 0

# MOE 2024.06 (io_trps.svl 2023.06)
