@<TRIPOS>MOLECULE
NONAME
24 24 1 0 0 
SMALL
USER_CHARGES


@<TRIPOS>ATOM
  1 F        0.0440    -0.4280     0.3720 F     1 <1>  -0.3400 
  2 C        1.3360    -0.7520     0.3660 C.3   1 <1>   0.6610 
  3 F        1.7140    -0.5310    -0.8940 F     1 <1>  -0.3400 
  4 C        1.5750    -2.2170     0.7690 C.2   1 <1>   0.4230 
  5 O        0.7420    -2.8070     1.4220 O.2   1 <1>  -0.5700 
  6 C        2.7910    -2.8720     0.3500 C.ar  1 <1>   0.0860 
  7 C        4.0610    -2.2710     0.3990 C.ar  1 <1>   0.0820 
  8 C        2.7160    -4.1870    -0.1120 C.ar  1 <1>  -0.1500 
  9 O        4.1470    -0.9980     0.8490 O.3   1 <1>  -0.3620 
 10 C        5.2070    -2.9830     0.0270 C.ar  1 <1>  -0.1430 
 11 C        3.8370    -4.8810    -0.5130 C.ar  1 <1>  -0.1500 
 12 C        4.6880     0.0050     0.0090 C.3   1 <1>   0.0400 
 13 C        5.0790    -4.2790    -0.4420 C.ar  1 <1>  -0.1500 
 14 C        6.6170    -2.4160     0.1440 C.3   1 <1>  -0.0970 
 15 H        1.8500    -0.0560     1.0010 H     1 <1>   0.0800 
 16 H        1.7530    -4.6700    -0.1530 H     1 <1>   0.1500 
 17 H        3.7490    -5.8920    -0.8740 H     1 <1>   0.1500 
 18 H        4.1600     0.9230     0.1950 H     1 <1>   0.0800 
 19 H        4.5640    -0.2850    -1.0210 H     1 <1>   0.0800 
 20 H        5.7280     0.1380     0.2430 H     1 <1>   0.0800 
 21 H        5.9480    -4.8390    -0.7460 H     1 <1>   0.1500 
 22 H        6.7120    -1.8380     1.0460 H     1 <1>   0.0800 
 23 H        6.8390    -1.7950    -0.7040 H     1 <1>   0.0800 
 24 H        7.3440    -3.2070     0.1860 H     1 <1>   0.0800 
@<TRIPOS>BOND
  1   1   2  1   
  2   2   3  1   
  3   2   4  1   
  4   2  15  1   
  5   4   5  2   
  6   4   6  1   
  7   6   7  ar  
  8   6   8  ar  
  9   7   9  1   
 10   7  10  ar  
 11   8  11  ar  
 12   8  16  1   
 13   9  12  1   
 14  10  13  ar  
 15  10  14  1   
 16  11  13  ar  
 17  11  17  1   
 18  12  18  1   
 19  12  19  1   
 20  12  20  1   
 21  13  21  1   
 22  14  22  1   
 23  14  23  1   
 24  14  24  1   
@<TRIPOS>SUBSTRUCTURE
  1 ****   6 GROUP 4 **** **** 0

# MOE 2024.06 (io_trps.svl 2023.06)
