@<TRIPOS>MOLECULE
NONAME
42 44 1 0 0 
SMALL
USER_CHARGES


@<TRIPOS>ATOM
  1 O       -0.4530     0.2380     0.9720 O.2   1 <1>  -0.5700 
  2 C       -1.4430     0.8800     0.6820 C.2   1 <1>   0.5440 
  3 N       -2.5990     0.2060     0.3620 N.am  1 <1>  -0.6600 
  4 C       -1.3810     2.3230     0.6700 C.ar  1 <1>   0.0860 
  5 C       -3.7950     0.7970    -0.2990 C.3   1 <1>   0.1400 
  6 C       -2.6580    -1.2790     0.2780 C.3   1 <1>   0.1400 
  7 C       -2.2450     3.0830     1.4540 C.ar  1 <1>   0.1600 
  8 C       -0.4650     3.0110    -0.1120 C.ar  1 <1>  -0.1500 
  9 C       -4.8100    -0.3440    -0.3330 C.3   1 <1>   0.2000 
 10 C       -3.9370    -1.5890    -0.5070 C.3   1 <1>  -0.0800 
 11 N       -2.2940     4.4040     1.4960 N.ar  1 <1>  -0.6200 
 12 C       -0.4830     4.3890    -0.0820 C.ar  1 <1>  -0.1430 
 13 O       -5.4410    -0.3890     0.9020 O.3   1 <1>  -0.6800 
 14 C       -4.5960    -2.9250    -0.1190 C.3   1 <1>   0.0210 
 15 C       -1.4120     5.0260     0.7290 C.ar  1 <1>   0.1600 
 16 C        0.4970     5.1910    -0.9220 C.3   1 <1>  -0.0970 
 17 C       -3.6320    -4.0770    -0.3210 C.2   1 <1>   0.1080 
 18 N       -3.1290    -4.3790    -1.4770 N.2   1 <1>  -0.7070 
 19 C       -3.1730    -4.9180     0.6880 C.2   1 <1>  -0.1500 
 20 N       -2.3270    -5.4330    -1.2350 N.pl3 1 <1>   0.3000 
 21 C       -2.3360    -5.7770     0.0710 C.2   1 <1>  -0.3320 
 22 C       -1.5300    -6.9220     0.6560 C.3   1 <1>  -0.0600 
 23 H       -4.1820     1.6480     0.2320 H     1 <1>   0.0800 
 24 H       -3.5330     1.0840    -1.3020 H     1 <1>   0.0800 
 25 H       -1.7900    -1.6740    -0.2230 H     1 <1>   0.0800 
 26 H       -2.7050    -1.6840     1.2740 H     1 <1>   0.0800 
 27 H       -2.9400     2.5550     2.0840 H     1 <1>   0.1500 
 28 H        0.2350     2.4650    -0.7200 H     1 <1>   0.1500 
 29 H       -5.5560    -0.2290    -1.1000 H     1 <1>   0.0800 
 30 H       -3.6610    -1.6490    -1.5460 H     1 <1>   0.0800 
 31 H       -4.7560    -0.3750     1.6000 H     1 <1>   0.4000 
 32 H       -5.4630    -3.0900    -0.7330 H     1 <1>   0.0800 
 33 H       -4.9130    -2.9090     0.9070 H     1 <1>   0.0800 
 34 H       -1.4310     6.1020     0.7500 H     1 <1>   0.1500 
 35 H        1.4010     4.6310    -1.0830 H     1 <1>   0.0800 
 36 H        0.7540     6.1110    -0.4270 H     1 <1>   0.0800 
 37 H        0.0580     5.4210    -1.8760 H     1 <1>   0.0800 
 38 H       -3.4440    -4.8690     1.7270 H     1 <1>   0.1500 
 39 H       -1.7890    -5.8920    -1.9790 H     1 <1>   0.2700 
 40 H       -1.7060    -6.9930     1.7150 H     1 <1>   0.0800 
 41 H       -0.4800    -6.7580     0.4940 H     1 <1>   0.0800 
 42 H       -1.8170    -7.8510     0.1970 H     1 <1>   0.0800 
@<TRIPOS>BOND
  1   1   2  2   
  2   2   3  am  
  3   2   4  1   
  4   3   5  1   
  5   3   6  1   
  6   4   7  ar  
  7   4   8  ar  
  8   5   9  1   
  9   5  23  1   
 10   5  24  1   
 11   6  10  1   
 12   6  25  1   
 13   6  26  1   
 14   7  11  ar  
 15   7  27  1   
 16   8  12  ar  
 17   8  28  1   
 18   9  10  1   
 19   9  13  1   
 20   9  29  1   
 21  10  14  1   
 22  10  30  1   
 23  11  15  ar  
 24  12  15  ar  
 25  12  16  1   
 26  13  31  1   
 27  14  17  1   
 28  14  32  1   
 29  14  33  1   
 30  15  34  1   
 31  16  35  1   
 32  16  36  1   
 33  16  37  1   
 34  17  18  2   
 35  17  19  1   
 36  18  20  1   
 37  19  21  2   
 38  19  38  1   
 39  20  21  1   
 40  20  39  1   
 41  21  22  1   
 42  22  40  1   
 43  22  41  1   
 44  22  42  1   
@<TRIPOS>SUBSTRUCTURE
  1 ****   3 GROUP 4 **** **** 0

# MOE 2024.06 (io_trps.svl 2023.06)
