@<TRIPOS>MOLECULE
NONAME
44 46 1 0 0 
SMALL
USER_CHARGES


@<TRIPOS>ATOM
  1 S       -0.0450     0.0730     1.6960 S.o2  1 <1>   1.4470 
  2 O        0.3580     1.4070     2.0890 O.2   1 <1>  -0.6500 
  3 O       -0.6090    -0.8180     2.6860 O.2   1 <1>  -0.6500 
  4 N       -1.2010     0.2440     0.4700 N.am  1 <1>  -0.8490 
  5 C        1.3220    -0.7720     0.8520 C.ar  1 <1>  -0.0090 
  6 C       -2.5580     0.4060     1.0330 C.3   1 <1>   0.1960 
  7 C       -0.8350     1.2300    -0.5640 C.3   1 <1>   0.1960 
  8 C        2.6110    -0.2540     0.8720 C.ar  1 <1>  -0.1500 
  9 C        1.1070    -1.9640     0.1630 C.ar  1 <1>  -0.1500 
 10 C       -3.5980     0.9100     0.0030 C.3   1 <1>   0.0000 
 11 C       -1.6280     2.5320    -0.4300 C.3   1 <1>  -0.1600 
 12 C        3.6270    -0.9220     0.2160 C.ar  1 <1>   0.1900 
 13 C        2.1360    -2.6270    -0.4920 C.ar  1 <1>  -0.1500 
 14 C       -4.9890     0.9520     0.6690 C.3   1 <1>   0.2000 
 15 C       -3.1470     2.2970    -0.5330 C.3   1 <1>  -0.1600 
 16 C       -3.8070    -0.1370    -1.1120 C.3   1 <1>  -0.1600 
 17 F        4.8300    -0.4190     0.2440 F     1 <1>  -0.1900 
 18 C        3.4150    -2.1020    -0.4690 C.ar  1 <1>  -0.1500 
 19 O       -5.8500     1.7420    -0.1020 O.3   1 <1>  -0.5600 
 20 C       -5.4990    -0.4940     0.6290 C.3   1 <1>  -0.1600 
 21 C       -4.7790    -1.1750    -0.5430 C.3   1 <1>  -0.1600 
 22 C       -6.9270     2.2920     0.5890 C.3   1 <1>   0.0400 
 23 H       -2.8700    -0.5370     1.4470 H     1 <1>   0.0800 
 24 H       -2.5180     1.1150     1.8440 H     1 <1>   0.0800 
 25 H        0.2200     1.4430    -0.5310 H     1 <1>   0.0800 
 26 H       -1.0420     0.8030    -1.5300 H     1 <1>   0.0800 
 27 H        2.8270     0.6620     1.3940 H     1 <1>   0.1500 
 28 H        0.1120    -2.3790     0.1410 H     1 <1>   0.1500 
 29 H       -1.3900     2.9790     0.5200 H     1 <1>   0.0800 
 30 H       -1.3200     3.2230    -1.1940 H     1 <1>   0.0800 
 31 H        1.9390    -3.5470    -1.0160 H     1 <1>   0.1500 
 32 H       -4.9410     1.3520     1.6690 H     1 <1>   0.0800 
 33 H       -3.4620     2.4080    -1.5560 H     1 <1>   0.0800 
 34 H       -3.6330     3.0780     0.0260 H     1 <1>   0.0800 
 35 H       -4.2800     0.3330    -1.9580 H     1 <1>   0.0800 
 36 H       -2.8930    -0.5950    -1.4440 H     1 <1>   0.0800 
 37 H        4.2320    -2.5930    -0.9670 H     1 <1>   0.1500 
 38 H       -5.2300    -0.9900     1.5440 H     1 <1>   0.0800 
 39 H       -6.5670    -0.5420     0.5160 H     1 <1>   0.0800 
 40 H       -4.2390    -2.0370    -0.1900 H     1 <1>   0.0800 
 41 H       -5.4790    -1.4880    -1.2990 H     1 <1>   0.0800 
 42 H       -7.5250     2.8460    -0.1120 H     1 <1>   0.0800 
 43 H       -6.5570     2.9550     1.3520 H     1 <1>   0.0800 
 44 H       -7.5170     1.5050     1.0250 H     1 <1>   0.0800 
@<TRIPOS>BOND
  1   1   2  2   
  2   1   3  2   
  3   1   4  am  
  4   1   5  1   
  5   4   6  1   
  6   4   7  1   
  7   5   8  ar  
  8   5   9  ar  
  9   6  10  1   
 10   6  23  1   
 11   6  24  1   
 12   7  11  1   
 13   7  25  1   
 14   7  26  1   
 15   8  12  ar  
 16   8  27  1   
 17   9  13  ar  
 18   9  28  1   
 19  10  14  1   
 20  10  15  1   
 21  10  16  1   
 22  11  15  1   
 23  11  29  1   
 24  11  30  1   
 25  12  17  1   
 26  12  18  ar  
 27  13  18  ar  
 28  13  31  1   
 29  14  19  1   
 30  14  20  1   
 31  14  32  1   
 32  15  33  1   
 33  15  34  1   
 34  16  21  1   
 35  16  35  1   
 36  16  36  1   
 37  18  37  1   
 38  19  22  1   
 39  20  21  1   
 40  20  38  1   
 41  20  39  1   
 42  21  40  1   
 43  21  41  1   
 44  22  42  1   
 45  22  43  1   
 46  22  44  1   
@<TRIPOS>SUBSTRUCTURE
  1 ****   4 GROUP 4 **** **** 0

# MOE 2024.06 (io_trps.svl 2023.06)
