@<TRIPOS>MOLECULE
NONAME
52 54 1 0 0 
SMALL
USER_CHARGES


@<TRIPOS>ATOM
  1 O        0.0690     1.3080     1.3420 O.2   1 <1>  -0.5700 
  2 C        0.1200     2.4360     0.8870 C.2   1 <1>   0.5440 
  3 N       -1.0550     3.1350     0.6960 N.am  1 <1>  -0.6600 
  4 C        1.4150     2.9950     0.5490 C.ar  1 <1>   0.0860 
  5 C       -2.3490     2.6630     1.2730 C.3   1 <1>   0.1400 
  6 C       -1.2000     4.2830    -0.2410 C.3   1 <1>   0.1400 
  7 C        2.3240     2.2670    -0.2140 C.ar  1 <1>  -0.1500 
  8 C        1.7960     4.2650     0.9740 C.ar  1 <1>  -0.1500 
  9 C       -3.3080     2.2020     0.1590 C.3   1 <1>   0.0000 
 10 C       -2.1450     3.9020    -1.3860 C.3   1 <1>  -0.1600 
 11 C        3.5690     2.7820    -0.5540 C.ar  1 <1>   0.0830 
 12 C        3.0200     4.8120     0.6380 C.ar  1 <1>   0.0830 
 13 C       -4.6370     1.7110     0.7660 C.3   1 <1>   0.2000 
 14 C       -3.4890     3.3530    -0.8730 C.3   1 <1>  -0.1600 
 15 C       -2.8120     0.9180    -0.5310 C.3   1 <1>  -0.1600 
 16 O        4.4670     2.0790    -1.3060 O.3   1 <1>  -0.3630 
 17 C        3.9290     4.0610    -0.1180 C.ar  1 <1>   0.0830 
 18 O        3.2410     6.0750     1.0980 O.3   1 <1>  -0.3630 
 19 O       -5.5250     2.7380     1.0280 O.3   1 <1>  -0.6800 
 20 C       -5.2390     0.7350    -0.2440 C.3   1 <1>  -0.1600 
 21 C       -4.0630     0.2350    -1.0940 C.3   1 <1>  -0.1600 
 22 C        4.1840     0.7800    -1.7780 C.3   1 <1>   0.0400 
 23 O        5.1570     4.5530    -0.4250 O.3   1 <1>  -0.3630 
 24 C        3.9220     7.0120     0.2910 C.3   1 <1>   0.0400 
 25 C        6.2250     4.0730     0.3590 C.3   1 <1>   0.0400 
 26 H       -2.1800     1.8600     1.9700 H     1 <1>   0.0800 
 27 H       -2.8010     3.4730     1.8190 H     1 <1>   0.0800 
 28 H       -1.6010     5.1230     0.3000 H     1 <1>   0.0800 
 29 H       -0.2500     4.5710    -0.6530 H     1 <1>   0.0800 
 30 H        2.0200     1.2850    -0.5250 H     1 <1>   0.1500 
 31 H        1.1200     4.8410     1.5790 H     1 <1>   0.1500 
 32 H       -2.3240     4.7710    -1.9940 H     1 <1>   0.0800 
 33 H       -1.6570     3.1750    -2.0100 H     1 <1>   0.0800 
 34 H       -4.4480     1.1930     1.6910 H     1 <1>   0.0800 
 35 H       -4.0840     3.0250    -1.7060 H     1 <1>   0.0800 
 36 H       -4.0060     4.1720    -0.4040 H     1 <1>   0.0800 
 37 H       -2.0740     1.0960    -1.2910 H     1 <1>   0.0800 
 38 H       -2.3690     0.2690     0.2070 H     1 <1>   0.0800 
 39 H       -5.7650     3.1790     0.1930 H     1 <1>   0.4000 
 40 H       -5.7120    -0.0830     0.2710 H     1 <1>   0.0800 
 41 H       -5.9590     1.2230    -0.8770 H     1 <1>   0.0800 
 42 H       -3.9680    -0.8370    -1.0480 H     1 <1>   0.0800 
 43 H       -4.2080     0.5260    -2.1200 H     1 <1>   0.0800 
 44 H        5.0360     0.4360    -2.3370 H     1 <1>   0.0800 
 45 H        3.3210     0.8210    -2.4190 H     1 <1>   0.0800 
 46 H        4.0120     0.1310    -0.9380 H     1 <1>   0.0800 
 47 H        3.6460     7.9980     0.6170 H     1 <1>   0.0800 
 48 H        3.6380     6.8690    -0.7360 H     1 <1>   0.0800 
 49 H        4.9810     6.8740     0.4150 H     1 <1>   0.0800 
 50 H        7.1240     4.5680     0.0410 H     1 <1>   0.0800 
 51 H        6.3190     3.0110     0.2130 H     1 <1>   0.0800 
 52 H        6.0240     4.2950     1.3920 H     1 <1>   0.0800 
@<TRIPOS>BOND
  1   1   2  2   
  2   2   3  am  
  3   2   4  1   
  4   3   5  1   
  5   3   6  1   
  6   4   7  ar  
  7   4   8  ar  
  8   5   9  1   
  9   5  26  1   
 10   5  27  1   
 11   6  10  1   
 12   6  28  1   
 13   6  29  1   
 14   7  11  ar  
 15   7  30  1   
 16   8  12  ar  
 17   8  31  1   
 18   9  13  1   
 19   9  14  1   
 20   9  15  1   
 21  10  14  1   
 22  10  32  1   
 23  10  33  1   
 24  11  16  1   
 25  11  17  ar  
 26  12  17  ar  
 27  12  18  1   
 28  13  19  1   
 29  13  20  1   
 30  13  34  1   
 31  14  35  1   
 32  14  36  1   
 33  15  21  1   
 34  15  37  1   
 35  15  38  1   
 36  16  22  1   
 37  17  23  1   
 38  18  24  1   
 39  19  39  1   
 40  20  21  1   
 41  20  40  1   
 42  20  41  1   
 43  21  42  1   
 44  21  43  1   
 45  22  44  1   
 46  22  45  1   
 47  22  46  1   
 48  23  25  1   
 49  24  47  1   
 50  24  48  1   
 51  24  49  1   
 52  25  50  1   
 53  25  51  1   
 54  25  52  1   
@<TRIPOS>SUBSTRUCTURE
  1 ****   2 GROUP 4 **** **** 0

# MOE 2024.06 (io_trps.svl 2023.06)
