@<TRIPOS>MOLECULE
NONAME
52 54 1 0 0 
SMALL
USER_CHARGES


@<TRIPOS>ATOM
  1 O       -1.5000     1.4720    -1.2340 O.2   1 <1>  -0.5700 
  2 C       -2.1040     1.2860    -0.1910 C.2   1 <1>   0.5440 
  3 N       -2.5630     0.0080     0.0520 N.am  1 <1>  -0.6600 
  4 C       -2.3140     2.3690     0.7480 C.ar  1 <1>   0.0860 
  5 C       -3.9840    -0.4340    -0.1410 C.3   1 <1>   0.2200 
  6 C       -1.5870    -1.1040    -0.1150 C.3   1 <1>   0.0600 
  7 C       -2.5110     3.7010     0.3200 C.ar  1 <1>   0.4100 
  8 C       -2.3530     2.1350     2.1160 C.ar  1 <1>  -0.1500 
  9 C       -4.6280     0.0840    -1.4350 C.3   1 <1>  -0.1600 
 10 C       -4.8980    -0.0230     1.0120 C.3   1 <1>  -0.1600 
 11 N       -2.9140     4.6890     1.1160 N.ar  1 <1>  -0.6200 
 12 N       -2.3330     4.0690    -0.9930 N.pl3 1 <1>  -0.8690 
 13 C       -2.6700     3.1800     2.9530 C.ar  1 <1>  -0.1500 
 14 C       -5.9970     0.6980    -1.0750 C.3   1 <1>  -0.0800 
 15 C       -6.0010     0.8810     0.4480 C.3   1 <1>  -0.0800 
 16 C       -2.9530     4.4180     2.4070 C.ar  1 <1>   0.1600 
 17 C       -1.6800     5.3650    -1.3270 C.3   1 <1>   0.1290 
 18 C       -6.1740     2.1070    -1.6530 C.3   1 <1>  -0.1600 
 19 C       -5.7820     2.3820     0.6930 C.3   1 <1>  -0.1600 
 20 C       -5.3790     2.9450    -0.6680 C.3   1 <1>   0.4230 
 21 N       -5.5030     4.4240    -0.7910 N.4   1 <1>  -0.9590 
 22 C       -6.7990     5.0160    -0.3470 C.3   1 <1>   0.2630 
 23 C       -5.1580     4.8760    -2.1700 C.3   1 <1>   0.2630 
 24 H       -3.9980    -1.5120    -0.1850 H     1 <1>   0.0800 
 25 H       -1.7500    -1.8550     0.6390 H     1 <1>   0.0800 
 26 H       -0.5800    -0.7330    -0.0210 H     1 <1>   0.0800 
 27 H       -1.6980    -1.5450    -1.0910 H     1 <1>   0.0800 
 28 H       -2.1460     1.1530     2.5080 H     1 <1>   0.1500 
 29 H       -3.9910     0.7910    -1.9320 H     1 <1>   0.0800 
 30 H       -4.7760    -0.7400    -2.1110 H     1 <1>   0.0800 
 31 H       -5.3660    -0.9170     1.3870 H     1 <1>   0.0800 
 32 H       -4.3670     0.4210     1.8310 H     1 <1>   0.0800 
 33 H       -1.9020     3.2920    -1.5340 H     1 <1>   0.4000 
 34 H       -2.7060     3.0380     4.0200 H     1 <1>   0.1500 
 35 H       -6.7900     0.0370    -1.3860 H     1 <1>   0.0800 
 36 H       -6.9550     0.5910     0.8600 H     1 <1>   0.0800 
 37 H       -3.2220     5.2230     3.0720 H     1 <1>   0.1500 
 38 H       -0.7440     5.4470    -0.8000 H     1 <1>   0.0800 
 39 H       -2.3130     6.1860    -1.0380 H     1 <1>   0.0800 
 40 H       -1.4900     5.4200    -2.3850 H     1 <1>   0.0800 
 41 H       -7.2140     2.3790    -1.6310 H     1 <1>   0.0800 
 42 H       -5.7940     2.1700    -2.6570 H     1 <1>   0.0800 
 43 H       -5.0400     2.5750     1.4420 H     1 <1>   0.0800 
 44 H       -6.7180     2.7920     1.0220 H     1 <1>   0.0800 
 45 H       -4.3480     2.6850    -0.8310 H     1 <1>   0.0800 
 46 H       -4.7350     4.7820    -0.1810 H     1 <1>   0.4500 
 47 H       -7.6150     4.5970    -0.9130 H     1 <1>   0.0800 
 48 H       -6.7880     6.0840    -0.4920 H     1 <1>   0.0800 
 49 H       -6.9630     4.8200     0.6990 H     1 <1>   0.0800 
 50 H       -5.9110     4.5550    -2.8700 H     1 <1>   0.0800 
 51 H       -4.2090     4.4600    -2.4690 H     1 <1>   0.0800 
 52 H       -5.0850     5.9500    -2.2030 H     1 <1>   0.0800 
@<TRIPOS>BOND
  1   1   2  2   
  2   2   3  am  
  3   2   4  1   
  4   3   5  1   
  5   3   6  1   
  6   4   7  ar  
  7   4   8  ar  
  8   5   9  1   
  9   5  10  1   
 10   5  24  1   
 11   6  25  1   
 12   6  26  1   
 13   6  27  1   
 14   7  11  ar  
 15   7  12  1   
 16   8  13  ar  
 17   8  28  1   
 18   9  14  1   
 19   9  29  1   
 20   9  30  1   
 21  10  15  1   
 22  10  31  1   
 23  10  32  1   
 24  11  16  ar  
 25  12  17  1   
 26  12  33  1   
 27  13  16  ar  
 28  13  34  1   
 29  14  15  1   
 30  14  18  1   
 31  14  35  1   
 32  15  19  1   
 33  15  36  1   
 34  16  37  1   
 35  17  38  1   
 36  17  39  1   
 37  17  40  1   
 38  18  20  1   
 39  18  41  1   
 40  18  42  1   
 41  19  20  1   
 42  19  43  1   
 43  19  44  1   
 44  20  21  1   
 45  20  45  1   
 46  21  22  1   
 47  21  23  1   
 48  21  46  1   
 49  22  47  1   
 50  22  48  1   
 51  22  49  1   
 52  23  50  1   
 53  23  51  1   
 54  23  52  1   
@<TRIPOS>SUBSTRUCTURE
  1 ****   4 GROUP 4 **** **** 0

# MOE 2024.06 (io_trps.svl 2023.06)
