@<TRIPOS>MOLECULE
NONAME
54 57 1 0 0 
SMALL
USER_CHARGES


@<TRIPOS>ATOM
  1 O        1.0660     0.5790     0.2330 O.2   1 <1>  -0.5700 
  2 C        1.9470    -0.2230     0.4800 C.2   1 <1>   0.5440 
  3 N        3.0680     0.2570     1.1480 N.am  1 <1>  -0.6600 
  4 C        1.7780    -1.6080     0.0370 C.ar  1 <1>   0.3960 
  5 C        4.2300    -0.5820     1.5680 C.3   1 <1>   0.1400 
  6 C        3.2490     1.7120     1.3970 C.3   1 <1>   0.1400 
  7 N        2.8210    -2.3140    -0.4460 N.ar  1 <1>  -0.6200 
  8 C        0.4970    -2.1670     0.1110 C.ar  1 <1>   0.1600 
  9 C        5.3480    -0.5870     0.5040 C.3   1 <1>   0.3430 
 10 C        3.8550     2.3840     0.1600 C.3   1 <1>  -0.1600 
 11 C        2.4870    -3.5390    -0.8180 C.ar  1 <1>   0.1600 
 12 N        0.1700    -3.3960    -0.2510 N.ar  1 <1>  -0.6200 
 13 N        5.7800     0.7860     0.0600 N.4   1 <1>  -0.9590 
 14 C        4.7160     1.4810    -0.7280 C.3   1 <1>   0.3430 
 15 C        1.2050    -4.0650    -0.7220 C.ar  1 <1>   0.1600 
 16 C        7.0350     0.7040    -0.7250 C.3   1 <1>   0.4810 
 17 C        7.5800     2.1050    -0.8870 C.2   1 <1>  -0.2540 
 18 C        7.6550     2.7980    -2.0320 C.2   1 <1>  -0.2880 
 19 C        8.1010     2.7810     0.3870 C.3   1 <1>   0.1160 
 20 C        8.2680     4.2020    -2.0230 C.3   1 <1>  -0.0220 
 21 C        9.5070     3.4540     0.1790 C.3   1 <1>   0.0000 
 22 C        7.5340     4.2380     0.4170 C.3   1 <1>   0.0000 
 23 C        8.6950     4.5730    -0.5760 C.3   1 <1>   0.0000 
 24 C       10.5400     2.6610    -0.6520 C.3   1 <1>  -0.2400 
 25 C       10.2060     3.9280     1.4760 C.3   1 <1>  -0.2400 
 26 H        4.6230    -0.2140     2.5000 H     1 <1>   0.0800 
 27 H        3.9080    -1.5920     1.7510 H     1 <1>   0.0800 
 28 H        2.3010     2.1690     1.6340 H     1 <1>   0.0800 
 29 H        3.8910     1.8570     2.2490 H     1 <1>   0.0800 
 30 H       -0.2990    -1.5490     0.4940 H     1 <1>   0.1500 
 31 H        5.0030    -1.1460    -0.3500 H     1 <1>   0.0800 
 32 H        6.1930    -1.1150     0.9130 H     1 <1>   0.0800 
 33 H        4.4140     3.2510     0.4610 H     1 <1>   0.0800 
 34 H        3.0400     2.7440    -0.4440 H     1 <1>   0.0800 
 35 H        3.2620    -4.1680    -1.2210 H     1 <1>   0.1500 
 36 H        5.9840     1.3700     0.8770 H     1 <1>   0.4500 
 37 H        5.1610     2.0910    -1.4980 H     1 <1>   0.0800 
 38 H        4.0860     0.7500    -1.2100 H     1 <1>   0.0800 
 39 H        1.0300    -5.0760    -1.0490 H     1 <1>   0.1500 
 40 H        7.7630     0.0950    -0.2150 H     1 <1>   0.0800 
 41 H        6.8380     0.2720    -1.6930 H     1 <1>   0.0800 
 42 H        7.3320     2.4580    -3.0030 H     1 <1>   0.1500 
 43 H        7.9770     2.2330     1.3050 H     1 <1>   0.0000 
 44 H        7.5460     4.9170    -2.3770 H     1 <1>   0.0800 
 45 H        9.1230     4.2380    -2.6750 H     1 <1>   0.0800 
 46 H        6.5500     4.3410    -0.0060 H     1 <1>   0.0000 
 47 H        7.6030     4.7270     1.3720 H     1 <1>   0.0000 
 48 H        9.0920     5.5670    -0.4700 H     1 <1>   0.0000 
 49 H       11.3710     3.2970    -0.8980 H     1 <1>   0.0800 
 50 H       10.1480     2.2710    -1.5710 H     1 <1>   0.0800 
 51 H       10.9130     1.8320    -0.0780 H     1 <1>   0.0800 
 52 H       11.0530     4.5420     1.2260 H     1 <1>   0.0800 
 53 H       10.5620     3.0790     2.0320 H     1 <1>   0.0800 
 54 H        9.5750     4.5020     2.1270 H     1 <1>   0.0800 
@<TRIPOS>BOND
  1   1   2  2   
  2   2   3  am  
  3   2   4  1   
  4   3   5  1   
  5   3   6  1   
  6   4   7  ar  
  7   4   8  ar  
  8   5   9  1   
  9   5  26  1   
 10   5  27  1   
 11   6  10  1   
 12   6  28  1   
 13   6  29  1   
 14   7  11  ar  
 15   8  12  ar  
 16   8  30  1   
 17   9  13  1   
 18   9  31  1   
 19   9  32  1   
 20  10  14  1   
 21  10  33  1   
 22  10  34  1   
 23  11  15  ar  
 24  11  35  1   
 25  12  15  ar  
 26  13  14  1   
 27  13  16  1   
 28  13  36  1   
 29  14  37  1   
 30  14  38  1   
 31  15  39  1   
 32  16  17  1   
 33  16  40  1   
 34  16  41  1   
 35  17  18  2   
 36  17  19  1   
 37  18  20  1   
 38  18  42  1   
 39  19  21  1   
 40  19  22  1   
 41  19  43  1   
 42  20  23  1   
 43  20  44  1   
 44  20  45  1   
 45  21  23  1   
 46  21  24  1   
 47  21  25  1   
 48  22  23  1   
 49  22  46  1   
 50  22  47  1   
 51  23  48  1   
 52  24  49  1   
 53  24  50  1   
 54  24  51  1   
 55  25  52  1   
 56  25  53  1   
 57  25  54  1   
@<TRIPOS>SUBSTRUCTURE
  1 ****  13 GROUP 4 **** **** 0

# MOE 2024.06 (io_trps.svl 2023.06)
