@<TRIPOS>MOLECULE
NONAME
44 45 1 0 0 
SMALL
USER_CHARGES


@<TRIPOS>ATOM
  1 S        0.3820     0.1910    -1.1870 S.o2  1 <1>   1.3330 
  2 O       -0.6200     1.0460    -1.7810 O.2   1 <1>  -0.6500 
  3 O        0.6970    -1.0810    -1.7980 O.2   1 <1>  -0.6500 
  4 N       -0.0980    -0.1070     0.4160 N.am  1 <1>  -0.8490 
  5 C        1.9110     1.1130    -1.0090 C.3   1 <1>  -0.0550 
  6 C       -0.9060    -1.3250     0.5340 C.3   1 <1>   0.1160 
  7 C       -0.8120     1.0200     1.0280 C.3   1 <1>   0.1160 
  8 C        3.0840     0.2930    -0.4270 C.3   1 <1>  -0.0800 
  9 C        4.4320     0.9980    -0.4560 C.3   1 <1>   0.2200 
 10 C        2.9380    -0.1030     1.0490 C.3   1 <1>   0.1200 
 11 N        4.2950     2.4140    -0.0420 N.am  1 <1>  -0.7300 
 12 C        5.1640     0.2400     0.6410 C.3   1 <1>   0.1200 
 13 O        4.2030     0.0400     1.6310 O.3   1 <1>  -0.5600 
 14 C        4.3050     3.4740    -0.8830 C.2   1 <1>   0.5690 
 15 O        4.3720     3.3370    -2.0780 O.2   1 <1>  -0.5700 
 16 C        4.2250     4.8650    -0.3020 C.3   1 <1>  -0.0990 
 17 C        5.6220     5.4740    -0.1600 C.3   1 <1>   0.0210 
 18 C        5.5360     6.8380     0.4950 C.2   1 <1>  -0.1810 
 19 C        5.0800     8.0150    -0.0910 C.2   1 <1>   0.1390 
 20 C        5.8740     7.1900     1.7530 C.2   1 <1>  -0.3020 
 21 N        5.1230     9.0210     0.7280 N.2   1 <1>  -0.7070 
 22 N        5.6170     8.5080     1.8710 N.pl3 1 <1>   0.3000 
 23 H        2.2040     1.4630    -1.9810 H     1 <1>   0.0800 
 24 H        1.7340     1.9770    -0.4010 H     1 <1>   0.0800 
 25 H       -1.1850    -1.4910     1.5600 H     1 <1>   0.0800 
 26 H       -0.3390    -2.1780     0.1980 H     1 <1>   0.0800 
 27 H       -1.7960    -1.2430    -0.0680 H     1 <1>   0.0800 
 28 H       -1.0100     0.8130     2.0650 H     1 <1>   0.0800 
 29 H       -1.7470     1.1930     0.5200 H     1 <1>   0.0800 
 30 H       -0.2170     1.9150     0.9670 H     1 <1>   0.0800 
 31 H        3.1780    -0.6150    -0.9980 H     1 <1>   0.0800 
 32 H        4.9240     0.9230    -1.4120 H     1 <1>   0.0800 
 33 H        2.6140    -1.1240     1.1570 H     1 <1>   0.0800 
 34 H        2.2650     0.5500     1.5760 H     1 <1>   0.0800 
 35 H        4.2140     2.5390     0.9710 H     1 <1>   0.3700 
 36 H        5.9980     0.7860     1.0450 H     1 <1>   0.0800 
 37 H        5.4880    -0.7250     0.2910 H     1 <1>   0.0800 
 38 H        3.6280     5.4770    -0.9540 H     1 <1>   0.0800 
 39 H        3.7440     4.8310     0.6580 H     1 <1>   0.0800 
 40 H        6.0810     5.5660    -1.1300 H     1 <1>   0.0800 
 41 H        6.2390     4.8290     0.4410 H     1 <1>   0.0800 
 42 H        4.7300     8.0960    -1.1070 H     1 <1>   0.1500 
 43 H        6.2730     6.5960     2.5540 H     1 <1>   0.1500 
 44 H        5.7670     9.0850     2.7070 H     1 <1>   0.2700 
@<TRIPOS>BOND
  1   1   2  2   
  2   1   3  2   
  3   1   4  am  
  4   1   5  1   
  5   4   6  1   
  6   4   7  1   
  7   5   8  1   
  8   5  23  1   
  9   5  24  1   
 10   6  25  1   
 11   6  26  1   
 12   6  27  1   
 13   7  28  1   
 14   7  29  1   
 15   7  30  1   
 16   8   9  1   
 17   8  10  1   
 18   8  31  1   
 19   9  11  1   
 20   9  12  1   
 21   9  32  1   
 22  10  13  1   
 23  10  33  1   
 24  10  34  1   
 25  11  14  am  
 26  11  35  1   
 27  12  13  1   
 28  12  36  1   
 29  12  37  1   
 30  14  15  2   
 31  14  16  1   
 32  16  17  1   
 33  16  38  1   
 34  16  39  1   
 35  17  18  1   
 36  17  40  1   
 37  17  41  1   
 38  18  19  1   
 39  18  20  2   
 40  19  21  2   
 41  19  42  1   
 42  20  22  1   
 43  20  43  1   
 44  21  22  1   
 45  22  44  1   
@<TRIPOS>SUBSTRUCTURE
  1 ****  11 GROUP 4 **** **** 0

# MOE 2024.06 (io_trps.svl 2023.06)
