@<TRIPOS>MOLECULE
NONAME
51 53 1 0 0 
SMALL
USER_CHARGES


@<TRIPOS>ATOM
  1 O       -0.4770     0.1560     1.5810 O.2   1 <1>  -0.5700 
  2 C       -1.3070     0.8150     0.9830 C.2   1 <1>   0.5440 
  3 N       -2.3310     0.1550     0.3410 N.am  1 <1>  -0.6600 
  4 C       -1.1910     2.2600     0.9460 C.ar  1 <1>   0.0860 
  5 C       -3.1110     0.7150    -0.7920 C.3   1 <1>   0.1400 
  6 C       -2.4610    -1.3230     0.3810 C.3   1 <1>   0.1400 
  7 C        0.0250     2.8700     0.6430 C.ar  1 <1>  -0.1500 
  8 C       -2.2760     3.0930     1.2130 C.ar  1 <1>  -0.1500 
  9 C       -3.5160    -0.5010    -1.6240 C.3   1 <1>   0.2000 
 10 C       -3.5480    -1.6650    -0.6390 C.3   1 <1>  -0.0800 
 11 C        0.1640     4.2470     0.5880 C.ar  1 <1>  -0.1440 
 12 C       -2.1600     4.4690     1.1580 C.ar  1 <1>  -0.1500 
 13 O       -4.7610    -0.3300    -2.2070 O.3   1 <1>  -0.6800 
 14 C       -3.3520    -3.0330    -1.3100 C.3   1 <1>   0.0210 
 15 C       -0.9390     5.0590     0.8400 C.ar  1 <1>   0.0830 
 16 C        1.5280     4.8370     0.2490 C.3   1 <1>   0.1220 
 17 C       -3.3040    -4.1400    -0.2750 C.2   1 <1>   0.1080 
 18 O       -0.7750     6.4030     0.7650 O.3   1 <1>  -0.3630 
 19 C        1.6790     4.9840    -1.2550 C.2   1 <1>  -0.2880 
 20 N       -4.3140    -4.4380     0.4810 N.2   1 <1>  -0.7070 
 21 C       -2.1950    -4.9370    -0.0120 C.2   1 <1>  -0.1500 
 22 C       -1.8310     7.3080     0.9950 C.3   1 <1>   0.0400 
 23 C        2.6240     4.4020    -2.0010 C.2   1 <1>  -0.3000 
 24 N       -3.8720    -5.4480     1.2550 N.pl3 1 <1>   0.3000 
 25 C       -2.5910    -5.7670     0.9760 C.2   1 <1>  -0.3320 
 26 C       -1.8110    -6.8610     1.6820 C.3   1 <1>  -0.0600 
 27 H       -3.9800     1.2170    -0.4070 H     1 <1>   0.0800 
 28 H       -2.5110     1.3940    -1.3730 H     1 <1>   0.0800 
 29 H       -1.5180    -1.7660     0.1050 H     1 <1>   0.0800 
 30 H       -2.7310    -1.6560     1.3690 H     1 <1>   0.0800 
 31 H        0.8730     2.2370     0.4470 H     1 <1>   0.1500 
 32 H       -3.2200     2.6480     1.4720 H     1 <1>   0.1500 
 33 H       -2.7920    -0.6620    -2.4050 H     1 <1>   0.0800 
 34 H       -4.4850    -1.6660    -0.1090 H     1 <1>   0.0800 
 35 H       -3.0270     5.0650     1.3690 H     1 <1>   0.1500 
 36 H       -5.4610    -0.3690    -1.5260 H     1 <1>   0.4000 
 37 H       -2.4410    -3.0390    -1.8810 H     1 <1>   0.0800 
 38 H       -4.1700    -3.2240    -1.9810 H     1 <1>   0.0800 
 39 H        1.6510     5.7980     0.7180 H     1 <1>   0.0800 
 40 H        2.3030     4.1970     0.6320 H     1 <1>   0.0800 
 41 H        0.9200     5.6250    -1.6730 H     1 <1>   0.1500 
 42 H       -1.2400    -4.8820    -0.5030 H     1 <1>   0.1500 
 43 H       -1.4490     8.3050     0.8700 H     1 <1>   0.0800 
 44 H       -2.1900     7.1770     2.0000 H     1 <1>   0.0800 
 45 H       -2.6110     7.1230     0.2780 H     1 <1>   0.0800 
 46 H        2.7040     4.5250    -3.0670 H     1 <1>   0.1500 
 47 H        3.3930     3.7570    -1.6130 H     1 <1>   0.1500 
 48 H       -4.4680    -5.8960     1.9610 H     1 <1>   0.2700 
 49 H       -0.8140    -6.9200     1.2820 H     1 <1>   0.0800 
 50 H       -2.2930    -7.8120     1.5420 H     1 <1>   0.0800 
 51 H       -1.7450    -6.6500     2.7350 H     1 <1>   0.0800 
@<TRIPOS>BOND
  1   1   2  2   
  2   2   3  am  
  3   2   4  1   
  4   3   5  1   
  5   3   6  1   
  6   4   7  ar  
  7   4   8  ar  
  8   5   9  1   
  9   5  27  1   
 10   5  28  1   
 11   6  10  1   
 12   6  29  1   
 13   6  30  1   
 14   7  11  ar  
 15   7  31  1   
 16   8  12  ar  
 17   8  32  1   
 18   9  10  1   
 19   9  13  1   
 20   9  33  1   
 21  10  14  1   
 22  10  34  1   
 23  11  15  ar  
 24  11  16  1   
 25  12  15  ar  
 26  12  35  1   
 27  13  36  1   
 28  14  17  1   
 29  14  37  1   
 30  14  38  1   
 31  15  18  1   
 32  16  19  1   
 33  16  39  1   
 34  16  40  1   
 35  17  20  2   
 36  17  21  1   
 37  18  22  1   
 38  19  23  2   
 39  19  41  1   
 40  20  24  1   
 41  21  25  2   
 42  21  42  1   
 43  22  43  1   
 44  22  44  1   
 45  22  45  1   
 46  23  46  1   
 47  23  47  1   
 48  24  25  1   
 49  24  48  1   
 50  25  26  1   
 51  26  49  1   
 52  26  50  1   
 53  26  51  1   
@<TRIPOS>SUBSTRUCTURE
  1 ****   3 GROUP 4 **** **** 0

# MOE 2024.06 (io_trps.svl 2023.06)
