@<TRIPOS>MOLECULE
NONAME
45 47 1 0 0 
SMALL
USER_CHARGES


@<TRIPOS>ATOM
  1 F        2.1380     0.7230     1.9010 F     1 <1>  -0.1900 
  2 C        2.5390    -0.3270     1.2380 C.ar  1 <1>   0.1900 
  3 C        1.9690    -1.5500     1.5270 C.ar  1 <1>  -0.1500 
  4 C        3.5100    -0.1780     0.2720 C.ar  1 <1>  -0.1500 
  5 C        2.3740    -2.6750     0.8190 C.ar  1 <1>  -0.1440 
  6 C        3.9280    -1.3020    -0.4170 C.ar  1 <1>  -0.1500 
  7 C        3.3770    -2.5500    -0.1470 C.ar  1 <1>  -0.1430 
  8 C        1.7020    -4.0010     1.1380 C.3   1 <1>   0.4870 
  9 C        3.9290    -3.7380    -0.9290 C.3   1 <1>  -0.0970 
 10 N        0.9310    -4.4530    -0.0570 N.4   1 <1>  -0.9590 
 11 C       -0.5190    -4.0990    -0.0080 C.3   1 <1>   0.4230 
 12 C        1.1480    -5.9170    -0.2800 C.3   1 <1>   0.2630 
 13 C       -1.2510    -4.5540    -1.2710 C.3   1 <1>  -0.1600 
 14 C       -0.7620    -2.5920     0.0230 C.3   1 <1>  -0.1600 
 15 C       -2.4810    -3.6480    -1.3800 C.3   1 <1>  -0.0800 
 16 C       -2.1630    -2.3870    -0.5630 C.3   1 <1>  -0.0800 
 17 C       -3.7540    -4.2510    -0.7680 C.3   1 <1>  -0.1600 
 18 C       -3.2680    -2.2660     0.4980 C.3   1 <1>  -0.1600 
 19 C       -4.4220    -3.0830    -0.0610 C.3   1 <1>   0.2000 
 20 O       -5.2280    -3.5360     0.9590 O.3   1 <1>  -0.6800 
 21 H        1.2220    -1.5950     2.2990 H     1 <1>   0.1500 
 22 H        3.9310     0.7910     0.0710 H     1 <1>   0.1500 
 23 H        4.6960    -1.1930    -1.1650 H     1 <1>   0.1500 
 24 H        1.0510    -3.8980     1.9900 H     1 <1>   0.0800 
 25 H        2.4670    -4.7190     1.3830 H     1 <1>   0.0800 
 26 H        4.9070    -3.5080    -1.3170 H     1 <1>   0.0800 
 27 H        3.2920    -3.9720    -1.7620 H     1 <1>   0.0800 
 28 H        4.0340    -4.6020    -0.2980 H     1 <1>   0.0800 
 29 H        1.3360    -3.9220    -0.8410 H     1 <1>   0.4500 
 30 H       -0.9920    -4.5490     0.8500 H     1 <1>   0.0800 
 31 H        0.7090    -6.4880     0.5220 H     1 <1>   0.0800 
 32 H        2.2020    -6.1380    -0.3250 H     1 <1>   0.0800 
 33 H        0.6990    -6.2280    -1.2090 H     1 <1>   0.0800 
 34 H       -0.6330    -4.3820    -2.1350 H     1 <1>   0.0800 
 35 H       -1.5300    -5.5930    -1.2320 H     1 <1>   0.0800 
 36 H       -0.6960    -2.1890     1.0170 H     1 <1>   0.0800 
 37 H       -0.0550    -2.0900    -0.6160 H     1 <1>   0.0800 
 38 H       -2.6710    -3.3830    -2.4080 H     1 <1>   0.0800 
 39 H       -2.1850    -1.5180    -1.2020 H     1 <1>   0.0800 
 40 H       -3.5060    -5.0150    -0.0520 H     1 <1>   0.0800 
 41 H       -4.3980    -4.6620    -1.5260 H     1 <1>   0.0800 
 42 H       -3.5590    -1.2400     0.6460 H     1 <1>   0.0800 
 43 H       -2.9450    -2.6870     1.4340 H     1 <1>   0.0800 
 44 H       -5.0160    -2.5000    -0.7460 H     1 <1>   0.0800 
 45 H       -4.7180    -4.0620     1.6000 H     1 <1>   0.4000 
@<TRIPOS>BOND
  1   1   2  1   
  2   2   3  ar  
  3   2   4  ar  
  4   3   5  ar  
  5   3  21  1   
  6   4   6  ar  
  7   4  22  1   
  8   5   7  ar  
  9   5   8  1   
 10   6   7  ar  
 11   6  23  1   
 12   7   9  1   
 13   8  10  1   
 14   8  24  1   
 15   8  25  1   
 16   9  26  1   
 17   9  27  1   
 18   9  28  1   
 19  10  11  1   
 20  10  12  1   
 21  10  29  1   
 22  11  13  1   
 23  11  14  1   
 24  11  30  1   
 25  12  31  1   
 26  12  32  1   
 27  12  33  1   
 28  13  15  1   
 29  13  34  1   
 30  13  35  1   
 31  14  16  1   
 32  14  36  1   
 33  14  37  1   
 34  15  16  1   
 35  15  17  1   
 36  15  38  1   
 37  16  18  1   
 38  16  39  1   
 39  17  19  1   
 40  17  40  1   
 41  17  41  1   
 42  18  19  1   
 43  18  42  1   
 44  18  43  1   
 45  19  20  1   
 46  19  44  1   
 47  20  45  1   
@<TRIPOS>SUBSTRUCTURE
  1 ****  14 GROUP 4 **** **** 0

# MOE 2024.06 (io_trps.svl 2023.06)
