@<TRIPOS>MOLECULE
NONAME
50 52 1 0 0 
SMALL
USER_CHARGES


@<TRIPOS>ATOM
  1 O       -0.5910    -1.6210    -1.0020 O.2   1 <1>  -0.5700 
  2 C        0.5690    -1.8800    -0.7090 C.2   1 <1>   0.7670 
  3 N        1.5270    -1.5620    -1.6300 N.2   1 <1>  -0.6610 
  4 C        0.9120    -2.4980     0.5370 C.2   1 <1>  -0.1240 
  5 C        2.7440    -1.8150    -1.3340 C.2   1 <1>   0.4390 
  6 C        2.2230    -2.7390     0.8010 C.2   1 <1>  -0.0380 
  7 C       -0.2170    -2.8670     1.5060 C.3   1 <1>   0.0390 
  8 N        3.1280    -2.3840    -0.1590 N.pl3 1 <1>  -0.5500 
  9 C        3.8400    -1.4800    -2.3140 C.3   1 <1>  -0.1790 
 10 C        2.8140    -3.3730     2.0510 C.3   1 <1>  -0.1020 
 11 C       -0.4740    -4.3670     1.5490 C.2   1 <1>   0.5690 
 12 O       -0.0460    -4.9820     2.4980 O.2   1 <1>  -0.5700 
 13 N       -1.1690    -5.0000     0.5560 N.am  1 <1>  -0.6600 
 14 C       -1.7490    -4.3940    -0.6700 C.3   1 <1>   0.1400 
 15 C       -1.5160    -6.4370     0.6160 C.3   1 <1>   0.1400 
 16 C       -2.6260    -5.4830    -1.3010 C.3   1 <1>   0.2000 
 17 C       -2.0000    -6.7860    -0.7940 C.3   1 <1>  -0.0800 
 18 O       -3.9360    -5.3910    -0.8140 O.3   1 <1>  -0.5600 
 19 C       -2.9400    -8.0050    -0.8380 C.3   1 <1>   0.0200 
 20 C       -4.7470    -4.4660    -1.4700 C.3   1 <1>   0.0400 
 21 C       -2.2420    -9.3120    -0.4990 C.2   1 <1>  -0.0400 
 22 O       -2.9570   -10.4040    -0.4250 O.3   1 <1>  -0.0190 
 23 C       -0.9660    -9.6440    -0.2420 C.2   1 <1>  -0.1500 
 24 N       -2.2310   -11.4440    -0.1300 N.2   1 <1>  -0.4100 
 25 C       -1.0260   -11.0150    -0.0130 C.2   1 <1>   0.1080 
 26 C        0.1590   -11.8900     0.3290 C.3   1 <1>  -0.0590 
 27 H       -1.1330    -2.3640     1.2640 H     1 <1>   0.0800 
 28 H        0.0460    -2.5390     2.4940 H     1 <1>   0.0800 
 29 H        4.1250    -2.5530    -0.0090 H     1 <1>   0.4000 
 30 H        4.5240    -0.7780    -1.8740 H     1 <1>   0.0800 
 31 H        3.4190    -1.0390    -3.2000 H     1 <1>   0.0800 
 32 H        4.3690    -2.3720    -2.5930 H     1 <1>   0.0800 
 33 H        3.5890    -2.7450     2.4510 H     1 <1>   0.0800 
 34 H        3.2330    -4.3330     1.8080 H     1 <1>   0.0800 
 35 H        2.0800    -3.5170     2.8210 H     1 <1>   0.0800 
 36 H       -2.3130    -3.5070    -0.4430 H     1 <1>   0.0800 
 37 H       -0.9490    -4.1520    -1.3470 H     1 <1>   0.0800 
 38 H       -0.6640    -7.0240     0.9120 H     1 <1>   0.0800 
 39 H       -2.3090    -6.5700     1.3330 H     1 <1>   0.0800 
 40 H       -2.6410    -5.4330    -2.3760 H     1 <1>   0.0800 
 41 H       -1.1350    -6.9900    -1.3990 H     1 <1>   0.0800 
 42 H       -3.3610    -8.0920    -1.8230 H     1 <1>   0.0800 
 43 H       -3.7540    -7.8620    -0.1480 H     1 <1>   0.0800 
 44 H       -5.7170    -4.4880    -1.0070 H     1 <1>   0.0800 
 45 H       -4.8350    -4.7440    -2.5070 H     1 <1>   0.0800 
 46 H       -4.3250    -3.4810    -1.3770 H     1 <1>   0.0800 
 47 H       -0.0800    -9.0380    -0.2110 H     1 <1>   0.1500 
 48 H        0.6300   -11.5300     1.2250 H     1 <1>   0.0800 
 49 H        0.8680   -11.8740    -0.4780 H     1 <1>   0.0800 
 50 H       -0.1670   -12.9020     0.4890 H     1 <1>   0.0800 
@<TRIPOS>BOND
  1   1   2  2   
  2   2   3  1   
  3   2   4  1   
  4   3   5  2   
  5   4   6  2   
  6   4   7  1   
  7   5   8  1   
  8   5   9  1   
  9   6   8  1   
 10   6  10  1   
 11   7  11  1   
 12   7  27  1   
 13   7  28  1   
 14   8  29  1   
 15   9  30  1   
 16   9  31  1   
 17   9  32  1   
 18  10  33  1   
 19  10  34  1   
 20  10  35  1   
 21  11  12  2   
 22  11  13  am  
 23  13  14  1   
 24  13  15  1   
 25  14  16  1   
 26  14  36  1   
 27  14  37  1   
 28  15  17  1   
 29  15  38  1   
 30  15  39  1   
 31  16  17  1   
 32  16  18  1   
 33  16  40  1   
 34  17  19  1   
 35  17  41  1   
 36  18  20  1   
 37  19  21  1   
 38  19  42  1   
 39  19  43  1   
 40  20  44  1   
 41  20  45  1   
 42  20  46  1   
 43  21  22  1   
 44  21  23  2   
 45  22  24  1   
 46  23  25  1   
 47  23  47  1   
 48  24  25  2   
 49  25  26  1   
 50  26  48  1   
 51  26  49  1   
 52  26  50  1   
@<TRIPOS>SUBSTRUCTURE
  1 ****  13 GROUP 4 **** **** 0

# MOE 2024.06 (io_trps.svl 2023.06)
