@<TRIPOS>MOLECULE
NONAME
50 53 1 0 0 
SMALL
USER_CHARGES


@<TRIPOS>ATOM
  1 O       -0.7050     0.6630    -1.4850 O.2   1 <1>  -0.5700 
  2 C       -0.5180     1.6630    -0.8310 C.2   1 <1>   0.5690 
  3 N       -1.5380     2.4050    -0.2940 N.am  1 <1>  -0.5090 
  4 C        0.9290     2.1210    -0.6440 C.3   1 <1>   0.1810 
  5 C       -1.2810     3.7310     0.3570 C.3   1 <1>   0.3640 
  6 C       -2.9500     1.9490    -0.3070 C.3   1 <1>   0.0490 
  7 O        1.0800     3.0880     0.3670 O.3   1 <1>  -0.5600 
  8 C       -2.1810     4.8020    -0.2610 C.ar  1 <1>  -0.1440 
  9 C        0.1960     4.1850     0.2490 C.3   1 <1>   0.2610 
 10 C       -3.6730     1.8020     0.9970 C.3   1 <1>  -0.2000 
 11 C       -3.2920     0.5880     0.2120 C.3   1 <1>  -0.2000 
 12 C       -2.8630     5.6880     0.5620 C.ar  1 <1>   0.1600 
 13 C       -2.3320     4.9230    -1.6310 C.ar  1 <1>  -0.1500 
 14 C        0.5300     5.2800     1.2780 C.2   1 <1>   0.5690 
 15 N       -3.6640     6.6530     0.1380 N.ar  1 <1>  -0.6200 
 16 C       -3.1610     5.9250    -2.0880 C.ar  1 <1>  -0.1500 
 17 O       -0.1860     5.3940     2.2500 O.2   1 <1>  -0.5700 
 18 N        1.5960     6.1290     1.0830 N.am  1 <1>  -0.6600 
 19 C       -3.7940     6.7490    -1.1740 C.ar  1 <1>   0.1600 
 20 C        2.6520     5.9560     0.0490 C.3   1 <1>   0.1400 
 21 C        1.7950     7.3330     1.9370 C.3   1 <1>   0.1400 
 22 C        2.6690     7.1830    -0.8670 C.3   1 <1>  -0.1600 
 23 C        1.8140     8.5830     1.0510 C.3   1 <1>  -0.1600 
 24 C        2.8690     8.4780    -0.0620 C.3   1 <1>  -0.0800 
 25 C        2.8060     9.7020    -0.9830 C.3   1 <1>  -0.2400 
 26 H        1.2980     2.5300    -1.5660 H     1 <1>   0.0800 
 27 H        1.5340     1.2750    -0.3750 H     1 <1>   0.0800 
 28 H       -1.5300     3.6190     1.3970 H     1 <1>   0.0800 
 29 H       -3.4970     2.3160    -1.1600 H     1 <1>   0.1000 
 30 H        0.3420     4.6100    -0.7270 H     1 <1>   0.0800 
 31 H       -3.1580     1.9780     1.9240 H     1 <1>   0.1000 
 32 H       -4.7130     2.0710     1.0430 H     1 <1>   0.1000 
 33 H       -4.0650     0.0310    -0.2850 H     1 <1>   0.1000 
 34 H       -2.4930    -0.0400     0.5660 H     1 <1>   0.1000 
 35 H       -2.7430     5.6050     1.6300 H     1 <1>   0.1500 
 36 H       -1.8340     4.2640    -2.3210 H     1 <1>   0.1500 
 37 H       -3.3210     6.0670    -3.1410 H     1 <1>   0.1500 
 38 H       -4.4410     7.5280    -1.5410 H     1 <1>   0.1500 
 39 H        3.6050     5.8590     0.5420 H     1 <1>   0.0800 
 40 H        2.4960     5.0660    -0.5320 H     1 <1>   0.0800 
 41 H        1.0070     7.4220     2.6660 H     1 <1>   0.0800 
 42 H        2.7280     7.2390     2.4660 H     1 <1>   0.0800 
 43 H        3.4640     7.0770    -1.5830 H     1 <1>   0.0800 
 44 H        1.7400     7.2260    -1.4080 H     1 <1>   0.0800 
 45 H        0.8350     8.7110     0.6210 H     1 <1>   0.0800 
 46 H        2.0160     9.4430     1.6640 H     1 <1>   0.0800 
 47 H        3.8450     8.4480     0.3960 H     1 <1>   0.0800 
 48 H        1.8440     9.7700    -1.4590 H     1 <1>   0.0800 
 49 H        3.5630     9.6360    -1.7450 H     1 <1>   0.0800 
 50 H        2.9730    10.6020    -0.4180 H     1 <1>   0.0800 
@<TRIPOS>BOND
  1   1   2  2   
  2   2   3  am  
  3   2   4  1   
  4   3   5  1   
  5   3   6  1   
  6   4   7  1   
  7   4  26  1   
  8   4  27  1   
  9   5   8  1   
 10   5   9  1   
 11   5  28  1   
 12   6  10  1   
 13   6  11  1   
 14   6  29  1   
 15   7   9  1   
 16   8  12  ar  
 17   8  13  ar  
 18   9  14  1   
 19   9  30  1   
 20  10  11  1   
 21  10  31  1   
 22  10  32  1   
 23  11  33  1   
 24  11  34  1   
 25  12  15  ar  
 26  12  35  1   
 27  13  16  ar  
 28  13  36  1   
 29  14  17  2   
 30  14  18  am  
 31  15  19  ar  
 32  16  19  ar  
 33  16  37  1   
 34  18  20  1   
 35  18  21  1   
 36  19  38  1   
 37  20  22  1   
 38  20  39  1   
 39  20  40  1   
 40  21  23  1   
 41  21  41  1   
 42  21  42  1   
 43  22  24  1   
 44  22  43  1   
 45  22  44  1   
 46  23  24  1   
 47  23  45  1   
 48  23  46  1   
 49  24  25  1   
 50  24  47  1   
 51  25  48  1   
 52  25  49  1   
 53  25  50  1   
@<TRIPOS>SUBSTRUCTURE
  1 ****   9 GROUP 4 **** **** 0

# MOE 2024.06 (io_trps.svl 2023.06)
