@<TRIPOS>MOLECULE
NONAME
49 52 1 0 0 
SMALL
USER_CHARGES


@<TRIPOS>ATOM
  1 O        3.5900     0.0580     1.6420 O.2   1 <1>  -0.5700 
  2 C        2.8650    -0.6040     0.9120 C.2   1 <1>   0.5440 
  3 N        2.8090    -0.1870    -0.3970 N.am  1 <1>  -0.6600 
  4 C        2.2410    -1.8290     1.3760 C.ar  1 <1>   0.0860 
  5 C        3.6090    -0.9110    -1.4380 C.3   1 <1>   0.1400 
  6 C        2.3500     1.1860    -0.7640 C.3   1 <1>   0.1400 
  7 C        1.1780    -2.4560     0.6820 C.ar  1 <1>   0.0000 
  8 C        2.6870    -2.4550     2.5340 C.ar  1 <1>  -0.1500 
  9 C        5.1170    -0.5930    -1.3080 C.3   1 <1>   0.3430 
 10 C        3.4550     2.2510    -0.6320 C.3   1 <1>  -0.1600 
 11 C        0.6530    -3.6660     1.1380 C.ar  1 <1>  -0.1520 
 12 C        0.4270    -2.1330    -0.4710 C.2   1 <1>  -0.1500 
 13 C        2.1490    -3.6590     2.9910 C.ar  1 <1>  -0.1500 
 14 N        5.3130     0.6690    -0.5360 N.4   1 <1>  -0.9590 
 15 C        4.8180     1.8850    -1.2290 C.3   1 <1>   0.3430 
 16 N       -0.3490    -4.0680     0.2880 N.pl3 1 <1>   0.0480 
 17 C        1.1370    -4.2740     2.2960 C.ar  1 <1>  -0.1500 
 18 C       -0.4730    -3.1210    -0.6820 C.2   1 <1>  -0.3020 
 19 C        6.6390     0.8400     0.1110 C.3   1 <1>   0.5230 
 20 C       -1.1680    -5.2850     0.4200 C.3   1 <1>   0.0160 
 21 C        6.5460     1.9650     1.1270 C.2   1 <1>   0.0060 
 22 N        7.1670     3.0910     0.9900 N.2   1 <1>  -0.5650 
 23 N        5.7780     1.9010     2.2410 N.pl3 1 <1>   0.0330 
 24 C        6.8000     3.7970     2.0770 C.2   1 <1>   0.0770 
 25 C        5.9500     3.0870     2.8490 C.2   1 <1>  -0.3020 
 26 H        3.2640    -0.6300    -2.4180 H     1 <1>   0.0800 
 27 H        3.4570    -1.9740    -1.3400 H     1 <1>   0.0800 
 28 H        1.5240     1.4580    -0.1270 H     1 <1>   0.0800 
 29 H        1.9790     1.1710    -1.7760 H     1 <1>   0.0800 
 30 H        3.4780    -2.0080     3.1100 H     1 <1>   0.1500 
 31 H        5.5720    -0.5230    -2.2830 H     1 <1>   0.0800 
 32 H        5.5860    -1.4080    -0.7820 H     1 <1>   0.0800 
 33 H        3.5800     2.5010     0.4070 H     1 <1>   0.0800 
 34 H        3.1090     3.1480    -1.1130 H     1 <1>   0.0800 
 35 H        0.5500    -1.2480    -1.0670 H     1 <1>   0.1500 
 36 H        2.5340    -4.1030     3.8930 H     1 <1>   0.1500 
 37 H        4.6390     0.5660     0.2520 H     1 <1>   0.4500 
 38 H        5.5020     2.7060    -1.0750 H     1 <1>   0.0800 
 39 H        4.7300     1.7080    -2.2880 H     1 <1>   0.0800 
 40 H        0.7180    -5.2040     2.6390 H     1 <1>   0.1500 
 41 H       -1.2050    -3.2020    -1.4670 H     1 <1>   0.1500 
 42 H        7.3850     1.0890    -0.6260 H     1 <1>   0.0800 
 43 H        6.9330    -0.0660     0.6120 H     1 <1>   0.0800 
 44 H       -0.5260    -6.1470     0.4040 H     1 <1>   0.0800 
 45 H       -1.8650    -5.3420    -0.3960 H     1 <1>   0.0800 
 46 H       -1.7060    -5.2510     1.3490 H     1 <1>   0.0800 
 47 H        5.1490     1.1380     2.5370 H     1 <1>   0.2700 
 48 H        7.1720     4.7950     2.2510 H     1 <1>   0.1500 
 49 H        5.4710     3.3570     3.7730 H     1 <1>   0.1500 
@<TRIPOS>BOND
  1   1   2  2   
  2   2   3  am  
  3   2   4  1   
  4   3   5  1   
  5   3   6  1   
  6   4   7  ar  
  7   4   8  ar  
  8   5   9  1   
  9   5  26  1   
 10   5  27  1   
 11   6  10  1   
 12   6  28  1   
 13   6  29  1   
 14   7  11  ar  
 15   7  12  1   
 16   8  13  ar  
 17   8  30  1   
 18   9  14  1   
 19   9  31  1   
 20   9  32  1   
 21  10  15  1   
 22  10  33  1   
 23  10  34  1   
 24  11  16  1   
 25  11  17  ar  
 26  12  18  2   
 27  12  35  1   
 28  13  17  ar  
 29  13  36  1   
 30  14  15  1   
 31  14  19  1   
 32  14  37  1   
 33  15  38  1   
 34  15  39  1   
 35  16  18  1   
 36  16  20  1   
 37  17  40  1   
 38  18  41  1   
 39  19  21  1   
 40  19  42  1   
 41  19  43  1   
 42  20  44  1   
 43  20  45  1   
 44  20  46  1   
 45  21  22  2   
 46  21  23  1   
 47  22  24  1   
 48  23  25  1   
 49  23  47  1   
 50  24  25  2   
 51  24  48  1   
 52  25  49  1   
@<TRIPOS>SUBSTRUCTURE
  1 ****   2 GROUP 4 **** **** 0

# MOE 2024.06 (io_trps.svl 2023.06)
