@<TRIPOS>MOLECULE
NONAME
37 40 1 0 0 
SMALL
USER_CHARGES


@<TRIPOS>ATOM
  1 S       -0.4310     0.2700     1.1740 S.3   1 <1>  -0.0800 
  2 C       -0.1870     1.7770     0.3160 C.2   1 <1>  -0.1400 
  3 C        1.1420     0.4300     1.9410 C.2   1 <1>  -0.1100 
  4 C        1.0020     2.3260     0.5970 C.2   1 <1>  -0.1810 
  5 C       -1.2170     2.3590    -0.6130 C.3   1 <1>   0.0200 
  6 C        1.7650     1.5550     1.5370 C.2   1 <1>  -0.1500 
  7 C        1.4380     3.6420    -0.0530 C.3   1 <1>   0.4610 
  8 C       -0.8620     3.8420    -0.8120 C.3   1 <1>   0.1200 
  9 O        0.5130     4.0070    -1.0640 O.3   1 <1>  -0.5600 
 10 C        2.7860     3.4620    -0.7610 C.3   1 <1>  -0.1600 
 11 C        1.5190     4.7680     0.9880 C.3   1 <1>  -0.1600 
 12 C        3.2870     4.7780    -1.3500 C.3   1 <1>   0.2090 
 13 C        2.0410     6.0650     0.3740 C.3   1 <1>   0.2090 
 14 N        3.3600     5.7890    -0.2580 N.pl3 1 <1>  -0.8380 
 15 C        4.5450     6.3300     0.1950 C.ar  1 <1>   0.7200 
 16 N        4.4600     7.3840     1.0150 N.ar  1 <1>  -0.6200 
 17 N        5.6790     5.7510    -0.2180 N.ar  1 <1>  -0.6200 
 18 C        5.5960     7.8940     1.4410 C.ar  1 <1>   0.1600 
 19 C        6.8030     6.2740     0.2200 C.ar  1 <1>   0.1600 
 20 C        6.7990     7.3580     1.0600 C.ar  1 <1>   0.1900 
 21 F        7.9260     7.8730     1.4910 F     1 <1>  -0.1900 
 22 H        1.4390    -0.3460     2.6230 H     1 <1>   0.1500 
 23 H       -2.2000     2.2730    -0.1880 H     1 <1>   0.0800 
 24 H       -1.1960     1.8410    -1.5550 H     1 <1>   0.0800 
 25 H        2.7370     1.8780     1.8650 H     1 <1>   0.1500 
 26 H       -1.1200     4.4090     0.0640 H     1 <1>   0.0800 
 27 H       -1.4010     4.2430    -1.6520 H     1 <1>   0.0800 
 28 H        2.6840     2.7260    -1.5370 H     1 <1>   0.0800 
 29 H        3.5220     3.1050    -0.0650 H     1 <1>   0.0800 
 30 H        2.1910     4.4750     1.7720 H     1 <1>   0.0800 
 31 H        0.5590     4.9300     1.4380 H     1 <1>   0.0800 
 32 H        2.6030     5.1260    -2.1060 H     1 <1>   0.0800 
 33 H        4.2430     4.6280    -1.8200 H     1 <1>   0.0800 
 34 H        2.1140     6.8180     1.1380 H     1 <1>   0.0800 
 35 H        1.3570     6.4220    -0.3780 H     1 <1>   0.0800 
 36 H        5.5690     8.7440     2.0990 H     1 <1>   0.1500 
 37 H        7.7350     5.8370    -0.0910 H     1 <1>   0.1500 
@<TRIPOS>BOND
  1   1   2  1   
  2   1   3  1   
  3   2   4  2   
  4   2   5  1   
  5   3   6  2   
  6   3  22  1   
  7   4   6  1   
  8   4   7  1   
  9   5   8  1   
 10   5  23  1   
 11   5  24  1   
 12   6  25  1   
 13   7   9  1   
 14   7  10  1   
 15   7  11  1   
 16   8   9  1   
 17   8  26  1   
 18   8  27  1   
 19  10  12  1   
 20  10  28  1   
 21  10  29  1   
 22  11  13  1   
 23  11  30  1   
 24  11  31  1   
 25  12  14  1   
 26  12  32  1   
 27  12  33  1   
 28  13  14  1   
 29  13  34  1   
 30  13  35  1   
 31  14  15  1   
 32  15  16  ar  
 33  15  17  ar  
 34  16  18  ar  
 35  17  19  ar  
 36  18  20  ar  
 37  18  36  1   
 38  19  20  ar  
 39  19  37  1   
 40  20  21  1   
@<TRIPOS>SUBSTRUCTURE
  1 ****  11 GROUP 4 **** **** 0

# MOE 2024.06 (io_trps.svl 2023.06)
