@<TRIPOS>MOLECULE
NONAME
55 58 1 0 0 
SMALL
USER_CHARGES


@<TRIPOS>ATOM
  1 O       -0.2570     0.2730     0.0650 O.2   1 <1>  -0.5700 
  2 C       -1.2820     0.9160     0.2040 C.2   1 <1>   0.5440 
  3 N       -2.4750     0.2310     0.2880 N.am  1 <1>  -0.6600 
  4 C       -1.2290     2.3610     0.2550 C.ar  1 <1>   0.0860 
  5 C       -3.7940     0.8060    -0.0820 C.3   1 <1>   0.1400 
  6 C       -2.5290    -1.2510     0.2730 C.3   1 <1>   0.1400 
  7 C       -0.4560     3.0840    -0.6540 C.ar  1 <1>  -0.1500 
  8 C       -1.9390     3.0910     1.2090 C.ar  1 <1>  -0.1500 
  9 C       -4.6080    -0.3860    -0.5830 C.3   1 <1>   0.2000 
 10 C       -4.0090    -1.6040     0.1140 C.3   1 <1>  -0.0800 
 11 C       -0.4000     4.4660    -0.6420 C.ar  1 <1>  -0.1440 
 12 C       -1.8950     4.4690     1.2310 C.ar  1 <1>  -0.1500 
 13 O       -5.9510    -0.2630    -0.2630 O.3   1 <1>  -0.6800 
 14 C       -4.2490    -2.9140    -0.6510 C.3   1 <1>   0.0200 
 15 C       -1.1370     5.1790     0.3090 C.ar  1 <1>   0.1000 
 16 C        0.4760     5.1720    -1.6670 C.3   1 <1>  -0.0970 
 17 C       -3.5740    -4.0790     0.0440 C.2   1 <1>  -0.0400 
 18 N       -1.1440     6.5620     0.3910 N.pl3 1 <1>  -0.8380 
 19 O       -3.9480    -4.4290     1.2460 O.3   1 <1>  -0.0190 
 20 C       -2.5820    -4.8990    -0.3350 C.2   1 <1>  -0.1500 
 21 C       -0.1580     7.2730     1.2480 C.3   1 <1>   0.2090 
 22 C       -1.7510     7.4090    -0.6710 C.3   1 <1>   0.2090 
 23 N       -3.2570    -5.4370     1.6930 N.2   1 <1>  -0.4100 
 24 C       -2.4260    -5.7420     0.7620 C.2   1 <1>   0.1080 
 25 C       -0.7420     8.6130     1.7310 C.3   1 <1>   0.1200 
 26 C       -2.2460     8.7370    -0.0700 C.3   1 <1>   0.1200 
 27 C       -1.4180    -6.8650     0.8550 C.3   1 <1>  -0.0590 
 28 O       -1.2270     9.3740     0.6550 O.3   1 <1>  -0.5600 
 29 H       -4.2480     1.2360     0.7930 H     1 <1>   0.0800 
 30 H       -3.6860     1.5490    -0.8520 H     1 <1>   0.0800 
 31 H       -1.9530    -1.6150    -0.5610 H     1 <1>   0.0800 
 32 H       -2.1230    -1.6550     1.1860 H     1 <1>   0.0800 
 33 H        0.1110     2.5280    -1.3800 H     1 <1>   0.1500 
 34 H       -2.5240     2.5650     1.9410 H     1 <1>   0.1500 
 35 H       -4.5190    -0.4610    -1.6540 H     1 <1>   0.0800 
 36 H       -4.4220    -1.6890     1.1040 H     1 <1>   0.0800 
 37 H       -2.4500     5.0200     1.9670 H     1 <1>   0.1500 
 38 H       -6.0700    -0.2440     0.7060 H     1 <1>   0.4000 
 39 H       -3.8660    -2.8300    -1.6530 H     1 <1>   0.0800 
 40 H       -5.3060    -3.1070    -0.7130 H     1 <1>   0.0800 
 41 H        1.1690     4.4860    -2.1190 H     1 <1>   0.0800 
 42 H        1.0400     5.9560    -1.1970 H     1 <1>   0.0800 
 43 H       -0.1390     5.5970    -2.4390 H     1 <1>   0.0800 
 44 H       -2.0190    -4.9270    -1.2490 H     1 <1>   0.1500 
 45 H        0.0960     6.6580     2.0940 H     1 <1>   0.0800 
 46 H        0.7390     7.4590     0.6850 H     1 <1>   0.0800 
 47 H       -1.0170     7.6200    -1.4280 H     1 <1>   0.0800 
 48 H       -2.5710     6.8830    -1.1270 H     1 <1>   0.0800 
 49 H        0.0170     9.1910     2.2270 H     1 <1>   0.0800 
 50 H       -1.5500     8.4390     2.4190 H     1 <1>   0.0800 
 51 H       -3.0770     8.5590     0.5890 H     1 <1>   0.0800 
 52 H       -2.5590     9.4040    -0.8520 H     1 <1>   0.0800 
 53 H       -1.5880    -7.5750     0.0670 H     1 <1>   0.0800 
 54 H       -1.5140    -7.3660     1.8020 H     1 <1>   0.0800 
 55 H       -0.4230    -6.4700     0.7700 H     1 <1>   0.0800 
@<TRIPOS>BOND
  1   1   2  2   
  2   2   3  am  
  3   2   4  1   
  4   3   5  1   
  5   3   6  1   
  6   4   7  ar  
  7   4   8  ar  
  8   5   9  1   
  9   5  29  1   
 10   5  30  1   
 11   6  10  1   
 12   6  31  1   
 13   6  32  1   
 14   7  11  ar  
 15   7  33  1   
 16   8  12  ar  
 17   8  34  1   
 18   9  10  1   
 19   9  13  1   
 20   9  35  1   
 21  10  14  1   
 22  10  36  1   
 23  11  15  ar  
 24  11  16  1   
 25  12  15  ar  
 26  12  37  1   
 27  13  38  1   
 28  14  17  1   
 29  14  39  1   
 30  14  40  1   
 31  15  18  1   
 32  16  41  1   
 33  16  42  1   
 34  16  43  1   
 35  17  19  1   
 36  17  20  2   
 37  18  21  1   
 38  18  22  1   
 39  19  23  1   
 40  20  24  1   
 41  20  44  1   
 42  21  25  1   
 43  21  45  1   
 44  21  46  1   
 45  22  26  1   
 46  22  47  1   
 47  22  48  1   
 48  23  24  2   
 49  24  27  1   
 50  25  28  1   
 51  25  49  1   
 52  25  50  1   
 53  26  28  1   
 54  26  51  1   
 55  26  52  1   
 56  27  53  1   
 57  27  54  1   
 58  27  55  1   
@<TRIPOS>SUBSTRUCTURE
  1 ****   2 GROUP 4 **** **** 0

# MOE 2024.06 (io_trps.svl 2023.06)
