@<TRIPOS>MOLECULE
NONAME
53 56 1 0 0 
SMALL
USER_CHARGES


@<TRIPOS>ATOM
  1 O       -3.6170     0.6300     2.3560 O.2   1 <1>  -0.5700 
  2 C       -2.9800     1.4760     1.7830 C.2   1 <1>   0.4950 
  3 C       -3.3030     2.1970     0.6010 C.2   1 <1>  -0.1240 
  4 C       -1.6440     1.9630     2.2960 C.3   1 <1>  -0.0990 
  5 C       -2.3720     3.1220     0.3020 C.2   1 <1>  -0.1670 
  6 C       -4.5610     1.8910    -0.2090 C.3   1 <1>   0.0390 
  7 C       -1.2410     3.0840     1.3170 C.3   1 <1>  -0.0220 
  8 C       -2.3200     4.0670    -0.7790 C.ar  1 <1>   0.0280 
  9 C       -4.5420     0.4610    -0.7320 C.2   1 <1>   0.5690 
 10 C       -1.3030     4.0190    -1.7290 C.ar  1 <1>  -0.1500 
 11 C       -3.2880     5.0600    -0.9060 C.ar  1 <1>  -0.1500 
 12 O       -3.8190     0.2330    -1.6740 O.2   1 <1>  -0.5700 
 13 N       -5.3000    -0.5330    -0.1670 N.am  1 <1>  -0.6600 
 14 C       -1.2530     4.9300    -2.7680 C.ar  1 <1>  -0.1500 
 15 C       -3.2430     5.9730    -1.9440 C.ar  1 <1>  -0.1500 
 16 C       -6.2200    -0.4340     0.9950 C.3   1 <1>   0.1400 
 17 C       -4.9800    -1.9600    -0.3840 C.3   1 <1>   0.1400 
 18 C       -2.2240     5.9100    -2.8770 C.ar  1 <1>  -0.1500 
 19 C       -5.9760    -1.6990     1.8250 C.3   1 <1>   0.2000 
 20 C       -5.0120    -2.5760     1.0140 C.3   1 <1>  -0.0800 
 21 O       -5.3840    -1.3590     3.0280 O.3   1 <1>  -0.6800 
 22 C       -5.4080    -4.0610     1.0190 C.3   1 <1>   0.0210 
 23 C       -4.5450    -4.8680     0.0680 C.2   1 <1>   0.1080 
 24 N       -3.2680    -5.0200     0.2320 N.2   1 <1>  -0.7070 
 25 C       -5.0080    -5.5120    -1.0750 C.2   1 <1>  -0.1500 
 26 N       -2.8770    -5.7700    -0.8140 N.pl3 1 <1>   0.3000 
 27 C       -3.9130    -6.0820    -1.6210 C.2   1 <1>  -0.3320 
 28 C       -3.7900    -6.9140    -2.8830 C.3   1 <1>  -0.0600 
 29 H       -1.7510     2.3360     3.2980 H     1 <1>   0.0800 
 30 H       -0.9360     1.1550     2.2780 H     1 <1>   0.0800 
 31 H       -4.6060     2.5400    -1.0630 H     1 <1>   0.0800 
 32 H       -5.4340     2.0830     0.3800 H     1 <1>   0.0800 
 33 H       -0.3060     2.8530     0.8360 H     1 <1>   0.0800 
 34 H       -1.1620     4.0300     1.8230 H     1 <1>   0.0800 
 35 H       -0.5530     3.2530    -1.6560 H     1 <1>   0.1500 
 36 H       -4.0790     5.1160    -0.1810 H     1 <1>   0.1500 
 37 H       -0.4610     4.8750    -3.4950 H     1 <1>   0.1500 
 38 H       -4.0000     6.7350    -2.0270 H     1 <1>   0.1500 
 39 H       -6.0510     0.4470     1.5850 H     1 <1>   0.0800 
 40 H       -7.2330    -0.4330     0.6310 H     1 <1>   0.0800 
 41 H       -5.7310    -2.3950    -1.0200 H     1 <1>   0.0800 
 42 H       -4.0110    -2.0900    -0.8380 H     1 <1>   0.0800 
 43 H       -2.1870     6.6180    -3.6860 H     1 <1>   0.1500 
 44 H       -6.9050    -2.1960     2.0420 H     1 <1>   0.0800 
 45 H       -4.0160    -2.4890     1.4150 H     1 <1>   0.0800 
 46 H       -4.6300    -0.7360     2.8530 H     1 <1>   0.4000 
 47 H       -6.4390    -4.1690     0.7340 H     1 <1>   0.0800 
 48 H       -5.2910    -4.4560     2.0120 H     1 <1>   0.0800 
 49 H       -6.0240    -5.5340    -1.4260 H     1 <1>   0.1500 
 50 H       -1.8970    -6.0490    -0.9480 H     1 <1>   0.2700 
 51 H       -4.7520    -7.0220    -3.3500 H     1 <1>   0.0800 
 52 H       -3.4110    -7.8930    -2.6480 H     1 <1>   0.0800 
 53 H       -3.1230    -6.4370    -3.5800 H     1 <1>   0.0800 
@<TRIPOS>BOND
  1   1   2  2   
  2   2   3  1   
  3   2   4  1   
  4   3   5  2   
  5   3   6  1   
  6   4   7  1   
  7   4  29  1   
  8   4  30  1   
  9   5   7  1   
 10   5   8  1   
 11   6   9  1   
 12   6  31  1   
 13   6  32  1   
 14   7  33  1   
 15   7  34  1   
 16   8  10  ar  
 17   8  11  ar  
 18   9  12  2   
 19   9  13  am  
 20  10  14  ar  
 21  10  35  1   
 22  11  15  ar  
 23  11  36  1   
 24  13  16  1   
 25  13  17  1   
 26  14  18  ar  
 27  14  37  1   
 28  15  18  ar  
 29  15  38  1   
 30  16  19  1   
 31  16  39  1   
 32  16  40  1   
 33  17  20  1   
 34  17  41  1   
 35  17  42  1   
 36  18  43  1   
 37  19  20  1   
 38  19  21  1   
 39  19  44  1   
 40  20  22  1   
 41  20  45  1   
 42  21  46  1   
 43  22  23  1   
 44  22  47  1   
 45  22  48  1   
 46  23  24  2   
 47  23  25  1   
 48  24  26  1   
 49  25  27  2   
 50  25  49  1   
 51  26  27  1   
 52  26  50  1   
 53  27  28  1   
 54  28  51  1   
 55  28  52  1   
 56  28  53  1   
@<TRIPOS>SUBSTRUCTURE
  1 ****   9 GROUP 4 **** **** 0

# MOE 2024.06 (io_trps.svl 2023.06)
