@<TRIPOS>MOLECULE
NONAME
43 44 1 0 0 
SMALL
USER_CHARGES


@<TRIPOS>ATOM
  1 S        0.9350     1.2880     0.4350 S.o2  1 <1>   1.3330 
  2 O        0.5000     2.3920     1.2610 O.2   1 <1>  -0.6500 
  3 O       -0.0260     0.5880    -0.3890 O.2   1 <1>  -0.6500 
  4 N        1.6690     0.1460     1.4560 N.am  1 <1>  -0.8490 
  5 C        2.2620     1.8560    -0.6260 C.3   1 <1>  -0.0550 
  6 C        0.6810    -0.7460     2.0680 C.3   1 <1>   0.1160 
  7 C        2.4960     0.7550     2.5070 C.3   1 <1>   0.1160 
  8 C        2.8190     0.8100    -1.6160 C.3   1 <1>  -0.0800 
  9 C        3.8040     1.3740    -2.6360 C.3   1 <1>   0.2200 
 10 C        3.6120    -0.3290    -0.9600 C.3   1 <1>   0.1200 
 11 N        4.6890     2.3780    -2.0000 N.am  1 <1>  -0.7300 
 12 C        4.6210     0.1330    -2.9600 C.3   1 <1>   0.1200 
 13 O        4.7560    -0.5270    -1.7400 O.3   1 <1>  -0.5600 
 14 C        4.5240     3.7230    -2.0760 C.2   1 <1>   0.5690 
 15 O        3.7220     4.2210    -2.8270 O.2   1 <1>  -0.5700 
 16 C        5.3200     4.6120    -1.1390 C.3   1 <1>   0.0440 
 17 C        4.9670     4.3010     0.3110 C.ar  1 <1>  -0.1440 
 18 C        5.8420     3.6620     1.1660 C.ar  1 <1>  -0.1500 
 19 C        3.7300     4.6250     0.8330 C.ar  1 <1>  -0.1500 
 20 C        5.4420     3.3700     2.4600 C.ar  1 <1>   0.1600 
 21 C        3.4240     4.2810     2.1390 C.ar  1 <1>   0.1600 
 22 N        4.2500     3.6530     2.9620 N.ar  1 <1>  -0.6200 
 23 H        1.8970     2.6880    -1.1960 H     1 <1>   0.0800 
 24 H        3.0590     2.2150    -0.0090 H     1 <1>   0.0800 
 25 H        1.1700    -1.4730     2.6930 H     1 <1>   0.0800 
 26 H        0.1360    -1.2730     1.3020 H     1 <1>   0.0800 
 27 H       -0.0180    -0.1800     2.6610 H     1 <1>   0.0800 
 28 H        2.9570    -0.0100     3.1070 H     1 <1>   0.0800 
 29 H        1.9020     1.3880     3.1450 H     1 <1>   0.0800 
 30 H        3.2780     1.3470     2.0660 H     1 <1>   0.0800 
 31 H        1.9960     0.3710    -2.1530 H     1 <1>   0.0800 
 32 H        3.3190     1.7880    -3.5060 H     1 <1>   0.0800 
 33 H        3.0440    -1.2430    -0.9330 H     1 <1>   0.0800 
 34 H        3.9400    -0.0770     0.0330 H     1 <1>   0.0800 
 35 H        5.3400     1.9720    -1.3240 H     1 <1>   0.3700 
 36 H        5.5920     0.3630    -3.3610 H     1 <1>   0.0800 
 37 H        4.0870    -0.5160    -3.6320 H     1 <1>   0.0800 
 38 H        6.3680     4.4590    -1.3190 H     1 <1>   0.0800 
 39 H        5.0930     5.6410    -1.3520 H     1 <1>   0.0800 
 40 H        6.8300     3.3850     0.8440 H     1 <1>   0.1500 
 41 H        2.9940     5.1320     0.2320 H     1 <1>   0.1500 
 42 H        6.1380     2.8750     3.1160 H     1 <1>   0.1500 
 43 H        2.4480     4.5310     2.5220 H     1 <1>   0.1500 
@<TRIPOS>BOND
  1   1   2  2   
  2   1   3  2   
  3   1   4  am  
  4   1   5  1   
  5   4   6  1   
  6   4   7  1   
  7   5   8  1   
  8   5  23  1   
  9   5  24  1   
 10   6  25  1   
 11   6  26  1   
 12   6  27  1   
 13   7  28  1   
 14   7  29  1   
 15   7  30  1   
 16   8   9  1   
 17   8  10  1   
 18   8  31  1   
 19   9  11  1   
 20   9  12  1   
 21   9  32  1   
 22  10  13  1   
 23  10  33  1   
 24  10  34  1   
 25  11  14  am  
 26  11  35  1   
 27  12  13  1   
 28  12  36  1   
 29  12  37  1   
 30  14  15  2   
 31  14  16  1   
 32  16  17  1   
 33  16  38  1   
 34  16  39  1   
 35  17  18  ar  
 36  17  19  ar  
 37  18  20  ar  
 38  18  40  1   
 39  19  21  ar  
 40  19  41  1   
 41  20  22  ar  
 42  20  42  1   
 43  21  22  ar  
 44  21  43  1   
@<TRIPOS>SUBSTRUCTURE
  1 ****   5 GROUP 4 **** **** 0

# MOE 2024.06 (io_trps.svl 2023.06)
