@<TRIPOS>MOLECULE
NONAME
41 43 1 0 0 
SMALL
USER_CHARGES


@<TRIPOS>ATOM
  1 O       -0.2040    -3.5940     1.9660 O.2   1 <1>  -0.5700 
  2 C        0.6140    -3.1360     1.1960 C.2   1 <1>   0.7800 
  3 O        1.8820    -2.9680     1.5310 O.3   1 <1>  -0.4300 
  4 N        0.3860    -2.8200    -0.0970 N.am  1 <1>  -0.6600 
  5 C        2.6450    -2.5500     0.4140 C.3   1 <1>   0.1200 
  6 C        1.6550    -2.5090    -0.7580 C.3   1 <1>   0.1400 
  7 C       -0.8440    -3.1900    -0.8640 C.3   1 <1>   0.2010 
  8 C       -0.9990    -4.6970    -1.0740 C.2   1 <1>   0.5690 
  9 O       -1.0750    -5.1310    -2.1990 O.2   1 <1>  -0.5700 
 10 N       -1.0550    -5.5110     0.0110 N.am  1 <1>  -0.7300 
 11 C       -1.1530    -6.9850    -0.0260 C.3   1 <1>   0.2200 
 12 C       -2.5300    -7.4480     0.4030 C.3   1 <1>  -0.0800 
 13 C       -0.2340    -7.6660     0.9840 C.3   1 <1>   0.1200 
 14 C       -2.2320    -8.8240     0.9850 C.3   1 <1>   0.1200 
 15 C       -3.5480    -7.4570    -0.7480 C.3   1 <1>  -0.0160 
 16 O       -0.9380    -8.7580     1.5020 O.3   1 <1>  -0.5600 
 17 C       -4.8830    -8.0260    -0.2930 C.ar  1 <1>  -0.1440 
 18 C       -5.7470    -7.3000     0.5010 C.ar  1 <1>  -0.1500 
 19 C       -5.2990    -9.2940    -0.6460 C.ar  1 <1>  -0.1500 
 20 C       -6.9490    -7.8620     0.8960 C.ar  1 <1>   0.1600 
 21 C       -6.5230    -9.7620    -0.1970 C.ar  1 <1>   0.1600 
 22 N       -7.3580    -9.0770     0.5670 N.ar  1 <1>  -0.6200 
 23 H        3.0530    -1.5770     0.6230 H     1 <1>   0.0800 
 24 H        3.4370    -3.2590     0.2460 H     1 <1>   0.0800 
 25 H        1.8950    -3.2560    -1.4950 H     1 <1>   0.0800 
 26 H        1.6250    -1.5340    -1.2130 H     1 <1>   0.0800 
 27 H       -1.7060    -2.8360    -0.3270 H     1 <1>   0.0800 
 28 H       -0.8270    -2.7040    -1.8220 H     1 <1>   0.0800 
 29 H       -0.9460    -5.0850     0.9450 H     1 <1>   0.3700 
 30 H       -0.9190    -7.3510    -1.0120 H     1 <1>   0.0800 
 31 H       -2.8890    -6.8260     1.2050 H     1 <1>   0.0800 
 32 H        0.0000    -7.0120     1.8060 H     1 <1>   0.0800 
 33 H        0.6680    -8.0240     0.5210 H     1 <1>   0.0800 
 34 H       -2.2390    -9.5820     0.2210 H     1 <1>   0.0800 
 35 H       -2.9160    -9.0920     1.7720 H     1 <1>   0.0800 
 36 H       -3.1660    -8.0360    -1.5710 H     1 <1>   0.0800 
 37 H       -3.6920    -6.4520    -1.1040 H     1 <1>   0.0800 
 38 H       -5.4960    -6.3040     0.8150 H     1 <1>   0.1500 
 39 H       -4.6850    -9.9220    -1.2650 H     1 <1>   0.1500 
 40 H       -7.6100    -7.2810     1.5160 H     1 <1>   0.1500 
 41 H       -6.8310   -10.7530    -0.4820 H     1 <1>   0.1500 
@<TRIPOS>BOND
  1   1   2  2   
  2   2   3  1   
  3   2   4  am  
  4   3   5  1   
  5   4   6  1   
  6   4   7  1   
  7   5   6  1   
  8   5  23  1   
  9   5  24  1   
 10   6  25  1   
 11   6  26  1   
 12   7   8  1   
 13   7  27  1   
 14   7  28  1   
 15   8   9  2   
 16   8  10  am  
 17  10  11  1   
 18  10  29  1   
 19  11  12  1   
 20  11  13  1   
 21  11  30  1   
 22  12  14  1   
 23  12  15  1   
 24  12  31  1   
 25  13  16  1   
 26  13  32  1   
 27  13  33  1   
 28  14  16  1   
 29  14  34  1   
 30  14  35  1   
 31  15  17  1   
 32  15  36  1   
 33  15  37  1   
 34  17  18  ar  
 35  17  19  ar  
 36  18  20  ar  
 37  18  38  1   
 38  19  21  ar  
 39  19  39  1   
 40  20  22  ar  
 41  20  40  1   
 42  21  22  ar  
 43  21  41  1   
@<TRIPOS>SUBSTRUCTURE
  1 ****  10 GROUP 4 **** **** 0

# MOE 2024.06 (io_trps.svl 2023.06)
