@<TRIPOS>MOLECULE
NONAME
58 62 1 0 0 
SMALL
USER_CHARGES


@<TRIPOS>ATOM
  1 O        0.3200     0.8110     0.9880 O.2   1 <1>  -0.5700 
  2 C       -0.0980     1.7410     0.3220 C.2   1 <1>   0.5440 
  3 N       -1.3860     1.6750    -0.1790 N.am  1 <1>  -0.6600 
  4 C        0.7500     2.8940     0.1080 C.ar  1 <1>   0.0860 
  5 C       -2.1580     2.8730    -0.6400 C.3   1 <1>   0.1400 
  6 C       -2.2050     0.4340    -0.0880 C.3   1 <1>   0.1400 
  7 C        1.3570     3.5460     1.1820 C.ar  1 <1>  -0.1500 
  8 C        0.9940     3.4050    -1.1680 C.ar  1 <1>  -0.1500 
  9 C       -3.3510     3.1530     0.2930 C.3   1 <1>   0.1440 
 10 C       -3.4020     0.6650     0.8440 C.3   1 <1>  -0.1600 
 11 C        2.1410     4.6670     0.9940 C.ar  1 <1>  -0.1500 
 12 C        1.7790     4.5250    -1.3570 C.ar  1 <1>  -0.1500 
 13 C       -4.1120     4.3470    -0.2560 C.ar  1 <1>   0.1670 
 14 C       -4.2310     1.8890     0.4160 C.3   1 <1>  -0.1600 
 15 C       -2.8800     3.6720     1.6790 C.3   1 <1>  -0.1600 
 16 C        2.3630     5.1840    -0.2790 C.ar  1 <1>   0.1000 
 17 N       -4.8920     4.3360    -1.3110 N.ar  1 <1>  -0.6200 
 18 C       -3.8710     5.4720     0.4770 C.ar  1 <1>  -0.1430 
 19 C       -2.9210     5.2090     1.6190 C.3   1 <1>  -0.0170 
 20 N        3.1470     6.3170    -0.4570 N.pl3 1 <1>  -0.8380 
 21 C       -5.4250     5.5140    -1.5980 C.ar  1 <1>   0.7200 
 22 C       -4.4910     6.6350     0.0880 C.ar  1 <1>   0.1600 
 23 C        4.4540     6.4450     0.2520 C.3   1 <1>   0.2090 
 24 C        2.8200     7.3220    -1.5090 C.3   1 <1>   0.2090 
 25 N       -5.2850     6.6670    -0.9590 N.ar  1 <1>  -0.6200 
 26 N       -6.2300     5.5390    -2.6610 N.pl3 1 <1>  -0.9000 
 27 C        5.4720     7.1710    -0.6330 C.3   1 <1>  -0.1600 
 28 C        3.4620     8.6690    -1.1620 C.3   1 <1>  -0.1600 
 29 C        4.9950     8.5750    -1.0470 C.3   1 <1>  -0.1600 
 30 H       -2.5240     2.6870    -1.6360 H     1 <1>   0.0800 
 31 H       -1.5360     3.7480    -0.6790 H     1 <1>   0.0800 
 32 H       -1.6140    -0.3890     0.2770 H     1 <1>   0.0800 
 33 H       -2.5540     0.1760    -1.0730 H     1 <1>   0.0800 
 34 H        1.2020     3.1580     2.1730 H     1 <1>   0.1500 
 35 H        0.5600     2.9080    -2.0170 H     1 <1>   0.1500 
 36 H       -3.0350     0.7960     1.8470 H     1 <1>   0.0800 
 37 H       -4.0250    -0.2120     0.8390 H     1 <1>   0.0800 
 38 H        2.5860     5.1570     1.8390 H     1 <1>   0.1500 
 39 H        1.9520     4.8910    -2.3510 H     1 <1>   0.1500 
 40 H       -4.6780     1.6840    -0.5420 H     1 <1>   0.0800 
 41 H       -5.0310     2.0600     1.1140 H     1 <1>   0.0800 
 42 H       -1.9030     3.3110     1.9500 H     1 <1>   0.0800 
 43 H       -3.5750     3.3510     2.4350 H     1 <1>   0.0800 
 44 H       -1.9490     5.6050     1.3820 H     1 <1>   0.0800 
 45 H       -3.2760     5.6320     2.5430 H     1 <1>   0.0800 
 46 H       -4.3330     7.5470     0.6380 H     1 <1>   0.1500 
 47 H        4.8250     5.4660     0.5040 H     1 <1>   0.0800 
 48 H        4.3050     6.9990     1.1640 H     1 <1>   0.0800 
 49 H        1.7510     7.4320    -1.5760 H     1 <1>   0.0800 
 50 H        3.1920     6.9760    -2.4580 H     1 <1>   0.0800 
 51 H       -6.8670     6.3300    -2.6980 H     1 <1>   0.4000 
 52 H       -6.6020     4.6370    -2.9420 H     1 <1>   0.4000 
 53 H        5.6330     6.5700    -1.5110 H     1 <1>   0.0800 
 54 H        6.4120     7.2450    -0.1160 H     1 <1>   0.0800 
 55 H        3.0500     8.9980    -0.2240 H     1 <1>   0.0800 
 56 H        3.1980     9.3990    -1.9060 H     1 <1>   0.0800 
 57 H        5.4460     8.8260    -1.9920 H     1 <1>   0.0800 
 58 H        5.3300     9.3000    -0.3250 H     1 <1>   0.0800 
@<TRIPOS>BOND
  1   1   2  2   
  2   2   3  am  
  3   2   4  1   
  4   3   5  1   
  5   3   6  1   
  6   4   7  ar  
  7   4   8  ar  
  8   5   9  1   
  9   5  30  1   
 10   5  31  1   
 11   6  10  1   
 12   6  32  1   
 13   6  33  1   
 14   7  11  ar  
 15   7  34  1   
 16   8  12  ar  
 17   8  35  1   
 18   9  13  1   
 19   9  14  1   
 20   9  15  1   
 21  10  14  1   
 22  10  36  1   
 23  10  37  1   
 24  11  16  ar  
 25  11  38  1   
 26  12  16  ar  
 27  12  39  1   
 28  13  17  ar  
 29  13  18  ar  
 30  14  40  1   
 31  14  41  1   
 32  15  19  1   
 33  15  42  1   
 34  15  43  1   
 35  16  20  1   
 36  17  21  ar  
 37  18  19  1   
 38  18  22  ar  
 39  19  44  1   
 40  19  45  1   
 41  20  23  1   
 42  20  24  1   
 43  21  25  ar  
 44  21  26  1   
 45  22  25  ar  
 46  22  46  1   
 47  23  27  1   
 48  23  47  1   
 49  23  48  1   
 50  24  28  1   
 51  24  49  1   
 52  24  50  1   
 53  26  51  1   
 54  26  52  1   
 55  27  29  1   
 56  27  53  1   
 57  27  54  1   
 58  28  29  1   
 59  28  55  1   
 60  28  56  1   
 61  29  57  1   
 62  29  58  1   
@<TRIPOS>SUBSTRUCTURE
  1 ****   5 GROUP 4 **** **** 0

# MOE 2024.06 (io_trps.svl 2023.06)
