@<TRIPOS>MOLECULE
NONAME
52 55 1 0 0 
SMALL
USER_CHARGES


@<TRIPOS>ATOM
  1 F        0.0440    -0.8540     1.0280 F     1 <1>  -0.1900 
  2 C       -0.5850    -1.9410     0.6580 C.ar  1 <1>   0.1900 
  3 C        0.0950    -3.0590     0.1610 C.ar  1 <1>   0.0830 
  4 C       -1.9600    -1.9270     0.7810 C.ar  1 <1>  -0.1500 
  5 O        1.4430    -3.1930    -0.0070 O.3   1 <1>  -0.3630 
  6 C       -0.6620    -4.1590    -0.2070 C.ar  1 <1>  -0.1500 
  7 C       -2.6840    -3.0420     0.4030 C.ar  1 <1>  -0.1500 
  8 C        2.3670    -2.1970     0.3720 C.3   1 <1>   0.0400 
  9 C       -2.0550    -4.1850    -0.0970 C.ar  1 <1>   0.0530 
 10 C       -2.8060    -5.3540    -0.4930 C.2   1 <1>   0.0870 
 11 O       -2.2970    -6.2140    -1.3440 O.3   1 <1>  -0.0190 
 12 C       -4.0360    -5.8210    -0.1610 C.2   1 <1>  -0.2330 
 13 N       -3.1040    -7.2100    -1.6060 N.2   1 <1>  -0.4100 
 14 C       -4.1610    -6.9930    -0.9060 C.2   1 <1>   0.3720 
 15 C       -5.0110    -5.2940     0.7330 C.2   1 <1>   1.0330 
 16 N       -5.2620    -7.8530    -0.9350 N.pl3 1 <1>  -0.8210 
 17 O       -5.8490    -4.4680     0.3320 O.co2 1 <1>  -0.9000 
 18 O       -5.0410    -5.6490     1.9230 O.co2 1 <1>  -0.9000 
 19 C       -6.4870    -7.2100    -1.4740 C.3   1 <1>   0.2090 
 20 C       -5.5100    -8.5190     0.3680 C.3   1 <1>   0.2090 
 21 C       -7.5660    -8.2730    -1.6880 C.3   1 <1>  -0.1600 
 22 C       -6.5750    -9.6040     0.1960 C.3   1 <1>  -0.1600 
 23 C       -7.8780    -9.0140    -0.3770 C.3   1 <1>  -0.0800 
 24 C       -8.9540   -10.0870    -0.6140 C.3   1 <1>  -0.1600 
 25 C       -9.4290   -10.7370     0.6940 C.3   1 <1>   0.0960 
 26 N      -10.5460   -11.6650     0.4400 N.pl3 1 <1>   0.3140 
 27 N      -10.3460   -12.9790     0.2340 N.2   1 <1>  -0.7070 
 28 C      -11.8560   -11.3540     0.3800 C.2   1 <1>  -0.3020 
 29 C      -11.5330   -13.4710     0.0470 C.2   1 <1>   0.1390 
 30 C      -12.5230   -12.5000     0.1270 C.2   1 <1>  -0.1500 
 31 H       -2.4610    -1.0580     1.1670 H     1 <1>   0.1500 
 32 H       -0.1520    -5.0250    -0.5880 H     1 <1>   0.1500 
 33 H       -3.7570    -3.0200     0.4960 H     1 <1>   0.1500 
 34 H        3.3560    -2.5630     0.1650 H     1 <1>   0.0800 
 35 H        2.2620    -2.0050     1.4260 H     1 <1>   0.0800 
 36 H        2.1800    -1.3080    -0.2030 H     1 <1>   0.0800 
 37 H       -6.2530    -6.7240    -2.4070 H     1 <1>   0.0800 
 38 H       -6.8490    -6.4650    -0.7870 H     1 <1>   0.0800 
 39 H       -5.8510    -7.8000     1.0930 H     1 <1>   0.0800 
 40 H       -4.5920    -8.9520     0.7280 H     1 <1>   0.0800 
 41 H       -7.2210    -8.9650    -2.4370 H     1 <1>   0.0800 
 42 H       -8.4530    -7.7920    -2.0600 H     1 <1>   0.0800 
 43 H       -6.7510   -10.0500     1.1570 H     1 <1>   0.0800 
 44 H       -6.1880   -10.3620    -0.4610 H     1 <1>   0.0800 
 45 H       -8.2600    -8.2900     0.3250 H     1 <1>   0.0800 
 46 H       -8.5660   -10.8500    -1.2680 H     1 <1>   0.0800 
 47 H       -9.8000    -9.6290    -1.0970 H     1 <1>   0.0800 
 48 H       -9.7620    -9.9860     1.3870 H     1 <1>   0.0800 
 49 H       -8.6330   -11.2980     1.1470 H     1 <1>   0.0800 
 50 H      -12.2310   -10.3570     0.5160 H     1 <1>   0.1500 
 51 H      -11.7170   -14.5150    -0.1460 H     1 <1>   0.1500 
 52 H      -13.5800   -12.6590     0.0090 H     1 <1>   0.1500 
@<TRIPOS>BOND
  1   1   2  1   
  2   2   3  ar  
  3   2   4  ar  
  4   3   5  1   
  5   3   6  ar  
  6   4   7  ar  
  7   4  31  1   
  8   5   8  1   
  9   6   9  ar  
 10   6  32  1   
 11   7   9  ar  
 12   7  33  1   
 13   8  34  1   
 14   8  35  1   
 15   8  36  1   
 16   9  10  1   
 17  10  11  1   
 18  10  12  2   
 19  11  13  1   
 20  12  14  1   
 21  12  15  1   
 22  13  14  2   
 23  14  16  1   
 24  15  17  ar  
 25  15  18  ar  
 26  16  19  1   
 27  16  20  1   
 28  19  21  1   
 29  19  37  1   
 30  19  38  1   
 31  20  22  1   
 32  20  39  1   
 33  20  40  1   
 34  21  23  1   
 35  21  41  1   
 36  21  42  1   
 37  22  23  1   
 38  22  43  1   
 39  22  44  1   
 40  23  24  1   
 41  23  45  1   
 42  24  25  1   
 43  24  46  1   
 44  24  47  1   
 45  25  26  1   
 46  25  48  1   
 47  25  49  1   
 48  26  27  1   
 49  26  28  1   
 50  27  29  2   
 51  28  30  2   
 52  28  50  1   
 53  29  30  1   
 54  29  51  1   
 55  30  52  1   
@<TRIPOS>SUBSTRUCTURE
  1 ****  14 GROUP 4 **** **** 0

# MOE 2024.06 (io_trps.svl 2023.06)
