@<TRIPOS>MOLECULE
NONAME
35 37 1 0 0 
SMALL
USER_CHARGES


@<TRIPOS>ATOM
  1 O       -0.2550    -0.1810    -1.2900 O.2   1 <1>  -0.5700 
  2 C       -1.1700    -0.7290    -0.7070 C.2   1 <1>   0.7800 
  3 O       -1.1030    -2.0240    -0.4250 O.3   1 <1>  -0.4300 
  4 N       -2.2960    -0.0660    -0.3300 N.am  1 <1>  -0.6600 
  5 C        0.0210    -2.7770    -0.8150 C.3   1 <1>   0.2640 
  6 C       -3.3700    -0.6040     0.5510 C.3   1 <1>   0.2200 
  7 C       -2.4650     1.4080    -0.3700 C.3   1 <1>   0.1400 
  8 C       -0.1660    -4.2120    -0.3470 C.ar  1 <1>  -0.1440 
  9 C       -4.7150    -0.4580    -0.1990 C.3   1 <1>   0.2000 
 10 C       -3.4690     0.5150     1.5730 C.3   1 <1>  -0.1600 
 11 C       -3.6960     1.6060     0.5340 C.3   1 <1>  -0.0800 
 12 C       -1.2630    -4.9460    -0.7730 C.ar  1 <1>  -0.1500 
 13 C        0.7550    -4.8020     0.5060 C.ar  1 <1>  -0.1500 
 14 O       -4.5960    -0.9050    -1.5030 O.3   1 <1>  -0.6800 
 15 C       -4.9440     1.0660    -0.1970 C.3   1 <1>  -0.1600 
 16 C       -1.4370    -6.2540    -0.3560 C.ar  1 <1>  -0.1500 
 17 C        0.5830    -6.1100     0.9250 C.ar  1 <1>  -0.1500 
 18 C       -0.5130    -6.8370     0.4940 C.ar  1 <1>  -0.1500 
 19 H        0.8970    -2.3340    -0.3710 H     1 <1>   0.0800 
 20 H        0.1020    -2.7380    -1.8870 H     1 <1>   0.0800 
 21 H       -3.1740    -1.5830     0.9570 H     1 <1>   0.0800 
 22 H       -2.6360     1.7510    -1.3770 H     1 <1>   0.0800 
 23 H       -1.5930     1.8870     0.0410 H     1 <1>   0.0800 
 24 H       -5.5180    -0.9860     0.2850 H     1 <1>   0.0800 
 25 H       -2.5560     0.6380     2.1310 H     1 <1>   0.0800 
 26 H       -4.3010     0.3910     2.2450 H     1 <1>   0.0800 
 27 H       -3.8030     2.6050     0.9180 H     1 <1>   0.0800 
 28 H       -1.9880    -4.4960    -1.4300 H     1 <1>   0.1500 
 29 H        1.6100    -4.2460     0.8500 H     1 <1>   0.1500 
 30 H       -3.7010    -0.6490    -1.8120 H     1 <1>   0.4000 
 31 H       -5.8270     1.2960     0.3730 H     1 <1>   0.0800 
 32 H       -5.0450     1.4740    -1.1880 H     1 <1>   0.0800 
 33 H       -2.2910    -6.8160    -0.6910 H     1 <1>   0.1500 
 34 H        1.3010    -6.5620     1.5870 H     1 <1>   0.1500 
 35 H       -0.6470    -7.8540     0.8190 H     1 <1>   0.1500 
@<TRIPOS>BOND
  1   1   2  2   
  2   2   3  1   
  3   2   4  am  
  4   3   5  1   
  5   4   6  1   
  6   4   7  1   
  7   5   8  1   
  8   5  19  1   
  9   5  20  1   
 10   6   9  1   
 11   6  10  1   
 12   6  21  1   
 13   7  11  1   
 14   7  22  1   
 15   7  23  1   
 16   8  12  ar  
 17   8  13  ar  
 18   9  14  1   
 19   9  15  1   
 20   9  24  1   
 21  10  11  1   
 22  10  25  1   
 23  10  26  1   
 24  11  15  1   
 25  11  27  1   
 26  12  16  ar  
 27  12  28  1   
 28  13  17  ar  
 29  13  29  1   
 30  14  30  1   
 31  15  31  1   
 32  15  32  1   
 33  16  18  ar  
 34  16  33  1   
 35  17  18  ar  
 36  17  34  1   
 37  18  35  1   
@<TRIPOS>SUBSTRUCTURE
  1 ****   3 GROUP 4 **** **** 0

# MOE 2024.06 (io_trps.svl 2023.06)
