@<TRIPOS>MOLECULE
NONAME
52 55 1 0 0 
SMALL
USER_CHARGES


@<TRIPOS>ATOM
  1 O       -0.7630    -0.6870    -1.5000 O.2   1 <1>  -0.5700 
  2 C       -1.4910    -1.0330    -0.5980 C.2   1 <1>   0.5690 
  3 N       -1.6790    -2.3680    -0.3200 N.am  1 <1>  -0.6600 
  4 C       -2.2100     0.0460     0.2120 C.3   1 <1>  -0.0990 
  5 C       -2.5360    -2.8860     0.7990 C.3   1 <1>   0.2200 
  6 C       -1.0030    -3.3640    -1.1960 C.3   1 <1>   0.1400 
  7 C       -1.9520     1.5010    -0.2300 C.3   1 <1>  -0.0800 
  8 C       -1.7970    -3.9240     1.6870 C.3   1 <1>   0.1200 
  9 C       -3.9330    -3.3040     0.2790 C.3   1 <1>   0.1100 
 10 C       -1.5870    -4.7800    -1.1720 C.3   1 <1>  -0.0800 
 11 C       -0.5350     2.0020     0.0550 C.3   1 <1>  -0.1600 
 12 C       -2.8330     2.5050     0.5120 C.3   1 <1>  -0.1600 
 13 O       -1.8580    -5.2540     1.2460 O.3   1 <1>  -0.5600 
 14 N       -3.9770    -4.6070    -0.3990 N.3   1 <1>  -0.8100 
 15 C       -1.1560    -5.5730     0.0820 C.3   1 <1>   0.1200 
 16 C       -3.0850    -4.8260    -1.5420 C.3   1 <1>   0.1100 
 17 C       -0.6450     3.5270     0.1260 C.3   1 <1>  -0.1600 
 18 C       -2.1300     3.8490     0.3260 C.3   1 <1>  -0.1600 
 19 C       -5.3070    -5.2310    -0.5280 C.3   1 <1>   0.2900 
 20 C       -5.2310    -6.6550    -0.0030 C.2   1 <1>   0.0070 
 21 N       -6.0900    -7.5960    -0.2440 N.2   1 <1>  -0.5650 
 22 N       -4.2110    -7.0450     0.7910 N.pl3 1 <1>   0.0330 
 23 C       -5.6000    -8.6540     0.4320 C.2   1 <1>   0.0770 
 24 C       -4.4520    -8.3380     1.0710 C.2   1 <1>  -0.3020 
 25 H       -3.2640    -0.1430     0.1360 H     1 <1>   0.0800 
 26 H       -1.9220    -0.0510     1.2410 H     1 <1>   0.0800 
 27 H       -2.7200    -2.0650     1.4630 H     1 <1>   0.0800 
 28 H       -1.0520    -3.0070    -2.2110 H     1 <1>   0.0800 
 29 H        0.0390    -3.4000    -0.9270 H     1 <1>   0.0800 
 30 H       -2.1460     1.5970    -1.2860 H     1 <1>   0.0800 
 31 H       -2.2580    -3.9190     2.6580 H     1 <1>   0.0800 
 32 H       -0.7650    -3.6460     1.8100 H     1 <1>   0.0800 
 33 H       -4.3120    -2.5420    -0.3800 H     1 <1>   0.0800 
 34 H       -4.5860    -3.3530     1.1330 H     1 <1>   0.0800 
 35 H       -1.0880    -5.2740    -1.9860 H     1 <1>   0.0800 
 36 H       -0.1960     1.6290     1.0050 H     1 <1>   0.0800 
 37 H        0.1580     1.6890    -0.7080 H     1 <1>   0.0800 
 38 H       -3.8380     2.5230     0.1270 H     1 <1>   0.0800 
 39 H       -2.8590     2.2650     1.5610 H     1 <1>   0.0800 
 40 H       -0.1070    -5.4310     0.2770 H     1 <1>   0.0800 
 41 H       -1.3200    -6.6220    -0.0950 H     1 <1>   0.0800 
 42 H       -3.2900    -5.8040    -1.9450 H     1 <1>   0.0800 
 43 H       -3.3000    -4.1040    -2.3110 H     1 <1>   0.0800 
 44 H       -0.0510     3.9110     0.9380 H     1 <1>   0.0800 
 45 H       -0.2990     3.9670    -0.7940 H     1 <1>   0.0800 
 46 H       -2.5110     4.3330    -0.5570 H     1 <1>   0.0800 
 47 H       -2.2880     4.4940     1.1730 H     1 <1>   0.0800 
 48 H       -6.0330    -4.6950     0.0570 H     1 <1>   0.0800 
 49 H       -5.6310    -5.2300    -1.5540 H     1 <1>   0.0800 
 50 H       -3.4270    -6.4250     1.0570 H     1 <1>   0.2700 
 51 H       -6.1080    -9.6040     0.4230 H     1 <1>   0.1500 
 52 H       -3.8100    -8.9390     1.6880 H     1 <1>   0.1500 
@<TRIPOS>BOND
  1   1   2  2   
  2   2   3  am  
  3   2   4  1   
  4   3   5  1   
  5   3   6  1   
  6   4   7  1   
  7   4  25  1   
  8   4  26  1   
  9   5   8  1   
 10   5   9  1   
 11   5  27  1   
 12   6  10  1   
 13   6  28  1   
 14   6  29  1   
 15   7  11  1   
 16   7  12  1   
 17   7  30  1   
 18   8  13  1   
 19   8  31  1   
 20   8  32  1   
 21   9  14  1   
 22   9  33  1   
 23   9  34  1   
 24  10  15  1   
 25  10  16  1   
 26  10  35  1   
 27  11  17  1   
 28  11  36  1   
 29  11  37  1   
 30  12  18  1   
 31  12  38  1   
 32  12  39  1   
 33  13  15  1   
 34  14  16  1   
 35  14  19  1   
 36  15  40  1   
 37  15  41  1   
 38  16  42  1   
 39  16  43  1   
 40  17  18  1   
 41  17  44  1   
 42  17  45  1   
 43  18  46  1   
 44  18  47  1   
 45  19  20  1   
 46  19  48  1   
 47  19  49  1   
 48  20  21  2   
 49  20  22  1   
 50  21  23  1   
 51  22  24  1   
 52  22  50  1   
 53  23  24  2   
 54  23  51  1   
 55  24  52  1   
@<TRIPOS>SUBSTRUCTURE
  1 ****   5 GROUP 4 **** **** 0

# MOE 2024.06 (io_trps.svl 2023.06)
