@<TRIPOS>MOLECULE
NONAME
49 51 1 0 0 
SMALL
USER_CHARGES


@<TRIPOS>ATOM
  1 O        1.4020     0.1440    -0.2760 O.2   1 <1>  -0.5700 
  2 C        2.1940    -0.6160     0.2250 C.2   1 <1>   0.5690 
  3 N        3.2290    -0.1490     0.9930 N.am  1 <1>  -0.6600 
  4 C        2.0260    -2.1010    -0.0450 C.3   1 <1>  -0.0990 
  5 C        4.5690    -0.8010     1.0680 C.3   1 <1>   0.1400 
  6 C        3.1140     1.1740     1.6730 C.3   1 <1>   0.1400 
  7 C        0.5550    -2.4630    -0.3010 C.3   1 <1>   0.0960 
  8 C        5.4230    -0.4450    -0.1680 C.3   1 <1>   0.3430 
  9 C        4.1020     2.2070     1.1190 C.3   1 <1>  -0.1600 
 10 N        0.4100    -3.9170    -0.4960 N.pl3 1 <1>   0.0480 
 11 N        5.7230     1.0180    -0.3200 N.4   1 <1>  -0.9590 
 12 C        4.5480     1.9410    -0.3190 C.3   1 <1>   0.3430 
 13 C        0.2790    -4.8720     0.4270 C.2   1 <1>   0.0360 
 14 C        0.3990    -4.6110    -1.6350 C.2   1 <1>   0.0360 
 15 C        6.6170     1.2990    -1.4830 C.3   1 <1>   0.4860 
 16 N        0.2040    -6.0430    -0.1020 N.2   1 <1>  -0.3380 
 17 N        0.2810    -5.8760    -1.4240 N.2   1 <1>  -0.3380 
 18 C        7.4600     2.5290    -1.1570 C.ar  1 <1>   0.1670 
 19 N        7.8390     2.6540     0.1130 N.ar  1 <1>  -0.6200 
 20 C        7.7740     3.4370    -2.1570 C.ar  1 <1>  -0.1500 
 21 C        8.5690     3.7220     0.3960 C.ar  1 <1>   0.1670 
 22 C        8.5300     4.5460    -1.8470 C.ar  1 <1>  -0.1500 
 23 C        8.9320     4.6810    -0.5370 C.ar  1 <1>  -0.1500 
 24 C        9.0140     3.8630     1.8370 C.3   1 <1>  -0.0970 
 25 H        2.3700    -2.6520     0.8100 H     1 <1>   0.0800 
 26 H        2.6170    -2.3650    -0.9020 H     1 <1>   0.0800 
 27 H        4.4540    -1.8690     1.1180 H     1 <1>   0.0800 
 28 H        5.0780    -0.4940     1.9660 H     1 <1>   0.0800 
 29 H        3.2720     1.0480     2.7310 H     1 <1>   0.0800 
 30 H        2.1120     1.5520     1.5510 H     1 <1>   0.0800 
 31 H        0.1920    -1.9570    -1.1790 H     1 <1>   0.0800 
 32 H       -0.0530    -2.1620     0.5350 H     1 <1>   0.0800 
 33 H        4.9080    -0.7970    -1.0460 H     1 <1>   0.0800 
 34 H        6.3530    -0.9860    -0.0990 H     1 <1>   0.0800 
 35 H        4.9560     2.2920     1.7660 H     1 <1>   0.0800 
 36 H        3.6080     3.1610     1.1440 H     1 <1>   0.0800 
 37 H        6.3250     1.3350     0.4650 H     1 <1>   0.4500 
 38 H        4.8380     2.8840    -0.7550 H     1 <1>   0.0800 
 39 H        3.7320     1.5350    -0.8980 H     1 <1>   0.0800 
 40 H        0.2420    -4.6760     1.4830 H     1 <1>   0.1500 
 41 H        0.4800    -4.1580    -2.6060 H     1 <1>   0.1500 
 42 H        6.0430     1.4570    -2.3800 H     1 <1>   0.0800 
 43 H        7.2870     0.4700    -1.6380 H     1 <1>   0.0800 
 44 H        7.4420     3.2910    -3.1700 H     1 <1>   0.1500 
 45 H        8.7980     5.2760    -2.5930 H     1 <1>   0.1500 
 46 H        9.5270     5.5280    -0.2450 H     1 <1>   0.1500 
 47 H        9.6070     3.0120     2.1170 H     1 <1>   0.0800 
 48 H        8.1540     3.9150     2.4790 H     1 <1>   0.0800 
 49 H        9.6020     4.7520     1.9760 H     1 <1>   0.0800 
@<TRIPOS>BOND
  1   1   2  2   
  2   2   3  am  
  3   2   4  1   
  4   3   5  1   
  5   3   6  1   
  6   4   7  1   
  7   4  25  1   
  8   4  26  1   
  9   5   8  1   
 10   5  27  1   
 11   5  28  1   
 12   6   9  1   
 13   6  29  1   
 14   6  30  1   
 15   7  10  1   
 16   7  31  1   
 17   7  32  1   
 18   8  11  1   
 19   8  33  1   
 20   8  34  1   
 21   9  12  1   
 22   9  35  1   
 23   9  36  1   
 24  10  13  1   
 25  10  14  1   
 26  11  12  1   
 27  11  15  1   
 28  11  37  1   
 29  12  38  1   
 30  12  39  1   
 31  13  16  2   
 32  13  40  1   
 33  14  17  2   
 34  14  41  1   
 35  15  18  1   
 36  15  42  1   
 37  15  43  1   
 38  16  17  1   
 39  18  19  ar  
 40  18  20  ar  
 41  19  21  ar  
 42  20  22  ar  
 43  20  44  1   
 44  21  23  ar  
 45  21  24  1   
 46  22  23  ar  
 47  22  45  1   
 48  23  46  1   
 49  24  47  1   
 50  24  48  1   
 51  24  49  1   
@<TRIPOS>SUBSTRUCTURE
  1 ****   8 GROUP 4 **** **** 0

# MOE 2024.06 (io_trps.svl 2023.06)
