@<TRIPOS>MOLECULE
NONAME
41 43 1 0 0 
SMALL
USER_CHARGES


@<TRIPOS>ATOM
  1 F        1.3450    -1.2610    -1.9810 F     1 <1>  -0.1900 
  2 C        1.5110    -1.3890    -0.6820 C.ar  1 <1>   0.1900 
  3 C        0.6400    -2.1850     0.0580 C.ar  1 <1>   0.4100 
  4 C        2.5380    -0.7410    -0.0420 C.ar  1 <1>   0.1660 
  5 N        0.8020    -2.3110     1.3660 N.ar  1 <1>  -0.6200 
  6 N       -0.4170    -2.8800    -0.4980 N.pl3 1 <1>  -0.8380 
  7 N        2.7000    -0.8690     1.2670 N.ar  1 <1>  -0.6200 
  8 C        3.5340     0.1490    -0.7770 C.3   1 <1>  -0.0170 
  9 C        1.8210    -1.6430     1.8840 C.ar  1 <1>   0.4700 
 10 C       -1.7920    -2.4790    -0.0910 C.3   1 <1>   0.2090 
 11 C       -0.3400    -4.3690    -0.4740 C.3   1 <1>   0.2090 
 12 C        3.1670     1.6310    -0.6380 C.3   1 <1>  -0.2400 
 13 C       -2.3030    -3.6490     0.7460 C.3   1 <1>   0.2000 
 14 C       -1.6980    -4.8640     0.0400 C.3   1 <1>  -0.0800 
 15 O       -1.7570    -3.5280     2.0150 O.3   1 <1>  -0.6800 
 16 C       -1.6090    -6.1450     0.8910 C.3   1 <1>  -0.0170 
 17 C       -0.9730    -7.2780     0.1010 C.ar  1 <1>  -0.1440 
 18 C        0.3430    -7.6490     0.2910 C.ar  1 <1>  -0.1500 
 19 C       -1.6760    -7.9910    -0.8490 C.ar  1 <1>  -0.1500 
 20 C        0.8800    -8.6790    -0.4630 C.ar  1 <1>   0.1600 
 21 C       -1.0440    -9.0050    -1.5490 C.ar  1 <1>   0.1600 
 22 N        0.2180    -9.3640    -1.3810 N.ar  1 <1>  -0.6200 
 23 H        4.5150    -0.0160    -0.3680 H     1 <1>   0.0800 
 24 H        3.5700    -0.1130    -1.8190 H     1 <1>   0.0800 
 25 H        1.9530    -1.7420     2.9490 H     1 <1>   0.1500 
 26 H       -1.7980    -1.5580     0.4690 H     1 <1>   0.0800 
 27 H       -2.3960    -2.3610    -0.9730 H     1 <1>   0.0800 
 28 H       -0.1410    -4.7490    -1.4620 H     1 <1>   0.0800 
 29 H        0.4510    -4.6830     0.1850 H     1 <1>   0.0800 
 30 H        3.1560     1.9130     0.4000 H     1 <1>   0.0800 
 31 H        2.1930     1.8150    -1.0570 H     1 <1>   0.0800 
 32 H        3.8870     2.2410    -1.1540 H     1 <1>   0.0800 
 33 H       -3.3750    -3.6840     0.8300 H     1 <1>   0.0800 
 34 H       -2.3040    -5.0740    -0.8230 H     1 <1>   0.0800 
 35 H       -0.8300    -3.1960     1.9010 H     1 <1>   0.4000 
 36 H       -2.5960    -6.4360     1.2060 H     1 <1>   0.0800 
 37 H       -1.0300    -5.9640     1.7800 H     1 <1>   0.0800 
 38 H        0.9570    -7.1470     1.0160 H     1 <1>   0.1500 
 39 H       -2.7070    -7.7670    -1.0520 H     1 <1>   0.1500 
 40 H        1.9090    -8.9530    -0.3020 H     1 <1>   0.1500 
 41 H       -1.6070    -9.5500    -2.2880 H     1 <1>   0.1500 
@<TRIPOS>BOND
  1   1   2  1   
  2   2   3  ar  
  3   2   4  ar  
  4   3   5  ar  
  5   3   6  1   
  6   4   7  ar  
  7   4   8  1   
  8   5   9  ar  
  9   6  10  1   
 10   6  11  1   
 11   7   9  ar  
 12   8  12  1   
 13   8  23  1   
 14   8  24  1   
 15   9  25  1   
 16  10  13  1   
 17  10  26  1   
 18  10  27  1   
 19  11  14  1   
 20  11  28  1   
 21  11  29  1   
 22  12  30  1   
 23  12  31  1   
 24  12  32  1   
 25  13  14  1   
 26  13  15  1   
 27  13  33  1   
 28  14  16  1   
 29  14  34  1   
 30  15  35  1   
 31  16  17  1   
 32  16  36  1   
 33  16  37  1   
 34  17  18  ar  
 35  17  19  ar  
 36  18  20  ar  
 37  18  38  1   
 38  19  21  ar  
 39  19  39  1   
 40  20  22  ar  
 41  20  40  1   
 42  21  22  ar  
 43  21  41  1   
@<TRIPOS>SUBSTRUCTURE
  1 ****  11 GROUP 4 **** **** 0

# MOE 2024.06 (io_trps.svl 2023.06)
