@<TRIPOS>MOLECULE
NONAME
41 42 1 0 0 
SMALL
USER_CHARGES


@<TRIPOS>ATOM
  1 F       -0.1380    -1.9270     2.1790 F     1 <1>  -0.3400 
  2 C       -0.7940    -3.0790     2.0930 C.3   1 <1>   1.1640 
  3 F       -1.6950    -3.0710     3.0660 F     1 <1>  -0.3400 
  4 F        0.0790    -4.0300     2.4010 F     1 <1>  -0.3400 
  5 C       -1.4470    -3.3150     0.7200 C.ar  1 <1>  -0.1440 
  6 C       -2.0250    -4.5480     0.4310 C.ar  1 <1>  -0.1500 
  7 C       -1.4790    -2.3240    -0.2560 C.ar  1 <1>  -0.1500 
  8 C       -2.6200    -4.7900    -0.7980 C.ar  1 <1>  -0.1440 
  9 C       -2.0660    -2.5620    -1.4850 C.ar  1 <1>  -0.1500 
 10 C       -2.6340    -3.7920    -1.7590 C.ar  1 <1>  -0.1500 
 11 C       -3.2470    -6.1430    -1.0800 C.3   1 <1>   0.4870 
 12 N       -4.5350    -6.2290    -0.3450 N.4   1 <1>  -0.9590 
 13 C       -4.9800    -7.6480    -0.2190 C.3   1 <1>   0.5240 
 14 C       -5.5580    -5.2590    -0.8640 C.3   1 <1>   0.3430 
 15 C       -3.9480    -8.3790     0.6330 C.2   1 <1>   0.0460 
 16 C       -6.8730    -5.2030    -0.0580 C.3   1 <1>   0.1200 
 17 N       -3.3820    -7.7450     1.6850 N.2   1 <1>  -0.5650 
 18 C       -3.4510    -9.6320     0.5020 C.2   1 <1>  -0.3320 
 19 O       -7.5960    -6.3810    -0.2180 O.3   1 <1>  -0.6800 
 20 C       -2.5700    -8.6240     2.1770 C.2   1 <1>   0.0360 
 21 N       -2.5640    -9.7920     1.5040 N.pl3 1 <1>   0.0330 
 22 C       -3.7500   -10.7320    -0.5040 C.3   1 <1>  -0.0600 
 23 H       -2.0030    -5.3270     1.1800 H     1 <1>   0.1500 
 24 H       -1.0430    -1.3550    -0.0700 H     1 <1>   0.1500 
 25 H       -2.0760    -1.7840    -2.2320 H     1 <1>   0.1500 
 26 H       -3.0770    -3.9560    -2.7270 H     1 <1>   0.1500 
 27 H       -2.5710    -6.9120    -0.7400 H     1 <1>   0.0800 
 28 H       -3.4060    -6.2700    -2.1370 H     1 <1>   0.0800 
 29 H       -4.2910    -5.9960     0.6300 H     1 <1>   0.4500 
 30 H       -5.0850    -8.1130    -1.1840 H     1 <1>   0.0800 
 31 H       -5.9200    -7.7020     0.3000 H     1 <1>   0.0800 
 32 H       -5.7980    -5.4940    -1.8880 H     1 <1>   0.0800 
 33 H       -5.1280    -4.2710    -0.8520 H     1 <1>   0.0800 
 34 H       -7.4830    -4.3940    -0.4210 H     1 <1>   0.0800 
 35 H       -6.6770    -5.0510     0.9900 H     1 <1>   0.0800 
 36 H       -8.4820    -6.3120     0.2030 H     1 <1>   0.4000 
 37 H       -1.9490    -8.4630     3.0430 H     1 <1>   0.1500 
 38 H       -2.0050   -10.6240     1.7230 H     1 <1>   0.2700 
 39 H       -4.4940   -10.4170    -1.2120 H     1 <1>   0.0800 
 40 H       -4.1190   -11.6070     0.0040 H     1 <1>   0.0800 
 41 H       -2.8570   -10.9990    -1.0420 H     1 <1>   0.0800 
@<TRIPOS>BOND
  1   1   2  1   
  2   2   3  1   
  3   2   4  1   
  4   2   5  1   
  5   5   6  ar  
  6   5   7  ar  
  7   6   8  ar  
  8   6  23  1   
  9   7   9  ar  
 10   7  24  1   
 11   8  10  ar  
 12   8  11  1   
 13   9  10  ar  
 14   9  25  1   
 15  10  26  1   
 16  11  12  1   
 17  11  27  1   
 18  11  28  1   
 19  12  13  1   
 20  12  14  1   
 21  12  29  1   
 22  13  15  1   
 23  13  30  1   
 24  13  31  1   
 25  14  16  1   
 26  14  32  1   
 27  14  33  1   
 28  15  17  1   
 29  15  18  2   
 30  16  19  1   
 31  16  34  1   
 32  16  35  1   
 33  17  20  2   
 34  18  21  1   
 35  18  22  1   
 36  19  36  1   
 37  20  21  1   
 38  20  37  1   
 39  21  38  1   
 40  22  39  1   
 41  22  40  1   
 42  22  41  1   
@<TRIPOS>SUBSTRUCTURE
  1 ****   6 GROUP 4 **** **** 0

# MOE 2024.06 (io_trps.svl 2023.06)
