@<TRIPOS>MOLECULE
NONAME
49 51 1 0 0 
SMALL
USER_CHARGES


@<TRIPOS>ATOM
  1 F        0.2220     0.3190     0.3020 F     1 <1>  -0.3400 
  2 C       -0.7570     0.6740    -0.5210 C.3   1 <1>   1.3000 
  3 F       -0.8330     1.9970    -0.5140 F     1 <1>  -0.3400 
  4 F       -0.4280     0.2930    -1.7500 F     1 <1>  -0.3400 
  5 O       -1.9930     0.1150    -0.1230 O.3   1 <1>  -0.3630 
  6 C       -2.0800    -1.2300    -0.0710 C.ar  1 <1>   0.0830 
  7 C       -2.4930    -1.9380    -1.1870 C.ar  1 <1>  -0.1500 
  8 C       -1.7740    -1.8970     1.1050 C.ar  1 <1>  -0.1500 
  9 C       -2.5910    -3.3170    -1.1300 C.ar  1 <1>  -0.1500 
 10 C       -1.8740    -3.2760     1.1600 C.ar  1 <1>  -0.1500 
 11 C       -2.2870    -3.9930     0.0450 C.ar  1 <1>  -0.1430 
 12 C       -2.4160    -5.5040     0.1110 C.3   1 <1>   0.4870 
 13 N       -3.6950    -5.8350     0.7910 N.4   1 <1>  -0.9590 
 14 C       -4.8780    -5.3570     0.0330 C.3   1 <1>   0.3430 
 15 C       -3.8970    -7.2900     1.0180 C.3   1 <1>   0.3430 
 16 C       -6.0410    -6.1790     0.5710 C.3   1 <1>  -0.0800 
 17 C       -5.4060    -7.5400     0.9270 C.3   1 <1>  -0.0800 
 18 C       -7.2580    -6.2340    -0.3880 C.3   1 <1>   0.2800 
 19 C       -5.7100    -8.6310    -0.1130 C.3   1 <1>  -0.1600 
 20 O       -6.7950    -6.2530    -1.6890 O.3   1 <1>  -0.6800 
 21 C       -8.0460    -7.5360    -0.1540 C.3   1 <1>  -0.1600 
 22 C       -8.2020    -5.0190    -0.2540 C.3   1 <1>  -0.1600 
 23 C       -7.2200    -8.8260    -0.3290 C.3   1 <1>  -0.1600 
 24 C       -7.5840    -3.6360    -0.5300 C.3   1 <1>  -0.2400 
 25 H       -2.7340    -1.4120    -2.0950 H     1 <1>   0.1500 
 26 H       -1.4590    -1.3370     1.9690 H     1 <1>   0.1500 
 27 H       -2.9080    -3.8510    -2.0110 H     1 <1>   0.1500 
 28 H       -1.6220    -3.7760     2.0810 H     1 <1>   0.1500 
 29 H       -1.5840    -5.9110     0.6610 H     1 <1>   0.0800 
 30 H       -2.4060    -5.9180    -0.8850 H     1 <1>   0.0800 
 31 H       -3.7040    -5.3470     1.6940 H     1 <1>   0.4500 
 32 H       -5.0340    -4.2990     0.1620 H     1 <1>   0.0800 
 33 H       -4.7440    -5.5680    -1.0160 H     1 <1>   0.0800 
 34 H       -3.3980    -7.8560     0.2470 H     1 <1>   0.0800 
 35 H       -3.5110    -7.5900     1.9790 H     1 <1>   0.0800 
 36 H       -6.3660    -5.7280     1.4930 H     1 <1>   0.0800 
 37 H       -5.7730    -7.8720     1.8840 H     1 <1>   0.0800 
 38 H       -5.2680    -8.3540    -1.0560 H     1 <1>   0.0800 
 39 H       -5.2710    -9.5690     0.1830 H     1 <1>   0.0800 
 40 H       -7.5520    -6.3620    -2.2980 H     1 <1>   0.4000 
 41 H       -8.4170    -7.5150     0.8560 H     1 <1>   0.0800 
 42 H       -8.9100    -7.5740    -0.7960 H     1 <1>   0.0800 
 43 H       -9.0330    -5.1540    -0.9240 H     1 <1>   0.0800 
 44 H       -8.6140    -5.0080     0.7410 H     1 <1>   0.0800 
 45 H       -7.5900    -9.5670     0.3590 H     1 <1>   0.0800 
 46 H       -7.3720    -9.2140    -1.3230 H     1 <1>   0.0800 
 47 H       -7.0910    -3.6170    -1.4860 H     1 <1>   0.0800 
 48 H       -6.8860    -3.3610     0.2390 H     1 <1>   0.0800 
 49 H       -8.3630    -2.8930    -0.5430 H     1 <1>   0.0800 
@<TRIPOS>BOND
  1   1   2  1   
  2   2   3  1   
  3   2   4  1   
  4   2   5  1   
  5   5   6  1   
  6   6   7  ar  
  7   6   8  ar  
  8   7   9  ar  
  9   7  25  1   
 10   8  10  ar  
 11   8  26  1   
 12   9  11  ar  
 13   9  27  1   
 14  10  11  ar  
 15  10  28  1   
 16  11  12  1   
 17  12  13  1   
 18  12  29  1   
 19  12  30  1   
 20  13  14  1   
 21  13  15  1   
 22  13  31  1   
 23  14  16  1   
 24  14  32  1   
 25  14  33  1   
 26  15  17  1   
 27  15  34  1   
 28  15  35  1   
 29  16  17  1   
 30  16  18  1   
 31  16  36  1   
 32  17  19  1   
 33  17  37  1   
 34  18  20  1   
 35  18  21  1   
 36  18  22  1   
 37  19  23  1   
 38  19  38  1   
 39  19  39  1   
 40  20  40  1   
 41  21  23  1   
 42  21  41  1   
 43  21  42  1   
 44  22  24  1   
 45  22  43  1   
 46  22  44  1   
 47  23  45  1   
 48  23  46  1   
 49  24  47  1   
 50  24  48  1   
 51  24  49  1   
@<TRIPOS>SUBSTRUCTURE
  1 ****  11 GROUP 4 **** **** 0

# MOE 2024.06 (io_trps.svl 2023.06)
