@<TRIPOS>MOLECULE
NONAME
42 44 1 0 0 
SMALL
USER_CHARGES


@<TRIPOS>ATOM
  1 F        1.4120     1.0500     0.2970 F     1 <1>  -0.3400 
  2 C        1.4070     2.1890     0.9840 C.3   1 <1>   0.8560 
  3 F        0.7620     1.9110     2.1150 F     1 <1>  -0.3400 
  4 N        0.6780     3.2570     0.2170 N.pl3 1 <1>   0.3140 
  5 N        1.2430     4.4400    -0.1420 N.2   1 <1>  -0.7070 
  6 C       -0.6040     3.1930    -0.2110 C.2   1 <1>  -0.3020 
  7 C        0.2980     5.1030    -0.7940 C.2   1 <1>   0.2030 
  8 C       -0.8750     4.3440    -0.8530 C.2   1 <1>  -0.1500 
  9 C        0.4610     6.4270    -1.3650 C.2   1 <1>   0.7160 
 10 O       -0.4360     7.0020    -1.9580 O.2   1 <1>  -0.5700 
 11 N        1.6920     7.0130    -1.2030 N.am  1 <1>  -0.4940 
 12 C        2.1940     8.2700    -1.6200 C.2   1 <1>  -0.0880 
 13 N        3.4530     8.7310    -1.3920 N.pl3 1 <1>   0.3140 
 14 C        1.5580     9.2470    -2.3080 C.2   1 <1>  -0.1500 
 15 N        3.6320     9.9670    -1.9140 N.2   1 <1>  -0.7070 
 16 C        4.5600     8.0440    -0.6750 C.3   1 <1>   0.1760 
 17 C        2.4910    10.2620    -2.4580 C.2   1 <1>   0.1390 
 18 C        4.9770     8.8630     0.5590 C.3   1 <1>  -0.1600 
 19 C        5.7500     7.8280    -1.6260 C.3   1 <1>  -0.1600 
 20 C        6.2100     8.2760     1.2380 C.3   1 <1>   0.3430 
 21 C        6.9640     7.2660    -0.8940 C.3   1 <1>   0.3430 
 22 N        7.3150     8.1620     0.2440 N.4   1 <1>  -0.9590 
 23 C        8.5870     7.7280     0.9000 C.3   1 <1>   0.2630 
 24 H        2.4200     2.4590     1.2180 H     1 <1>   0.0800 
 25 H       -1.2380     2.3410    -0.0330 H     1 <1>   0.1500 
 26 H       -1.7900     4.6580    -1.3290 H     1 <1>   0.1500 
 27 H        2.3010     6.3780    -0.6840 H     1 <1>   0.3700 
 28 H        0.5450     9.2580    -2.6730 H     1 <1>   0.1500 
 29 H        4.2030     7.0850    -0.3470 H     1 <1>   0.0800 
 30 H        2.2970    11.1920    -2.9670 H     1 <1>   0.1500 
 31 H        4.1640     8.8850     1.2640 H     1 <1>   0.0800 
 32 H        5.1900     9.8800     0.2760 H     1 <1>   0.0800 
 33 H        6.0280     8.7590    -2.0910 H     1 <1>   0.0800 
 34 H        5.4630     7.1460    -2.4070 H     1 <1>   0.0800 
 35 H        5.9780     7.3030     1.6420 H     1 <1>   0.0800 
 36 H        6.5090     8.9190     2.0510 H     1 <1>   0.0800 
 37 H        7.7940     7.1990    -1.5800 H     1 <1>   0.0800 
 38 H        6.7460     6.2750    -0.5280 H     1 <1>   0.0800 
 39 H        7.4640     9.1050    -0.1500 H     1 <1>   0.4500 
 40 H        8.4760     6.7450     1.3260 H     1 <1>   0.0800 
 41 H        8.8570     8.4160     1.6850 H     1 <1>   0.0800 
 42 H        9.3890     7.7030     0.1790 H     1 <1>   0.0800 
@<TRIPOS>BOND
  1   1   2  1   
  2   2   3  1   
  3   2   4  1   
  4   2  24  1   
  5   4   5  1   
  6   4   6  1   
  7   5   7  2   
  8   6   8  2   
  9   6  25  1   
 10   7   8  1   
 11   7   9  1   
 12   8  26  1   
 13   9  10  2   
 14   9  11  am  
 15  11  12  1   
 16  11  27  1   
 17  12  13  1   
 18  12  14  2   
 19  13  15  1   
 20  13  16  1   
 21  14  17  1   
 22  14  28  1   
 23  15  17  2   
 24  16  18  1   
 25  16  19  1   
 26  16  29  1   
 27  17  30  1   
 28  18  20  1   
 29  18  31  1   
 30  18  32  1   
 31  19  21  1   
 32  19  33  1   
 33  19  34  1   
 34  20  22  1   
 35  20  35  1   
 36  20  36  1   
 37  21  22  1   
 38  21  37  1   
 39  21  38  1   
 40  22  23  1   
 41  22  39  1   
 42  23  40  1   
 43  23  41  1   
 44  23  42  1   
@<TRIPOS>SUBSTRUCTURE
  1 ****  11 GROUP 4 **** **** 0

# MOE 2024.06 (io_trps.svl 2023.06)
