@<TRIPOS>MOLECULE
NONAME
49 51 1 0 0 
SMALL
USER_CHARGES


@<TRIPOS>ATOM
  1 O       -1.1690     0.7320    -1.0670 O.2   1 <1>  -0.5700 
  2 C       -1.4530     0.9350     0.0970 C.2   1 <1>   0.5440 
  3 N       -1.7700    -0.1420     0.8740 N.am  1 <1>  -0.7300 
  4 C       -1.4570     2.2830     0.6440 C.ar  1 <1>   0.0860 
  5 C       -1.7580    -1.5560     0.4300 C.3   1 <1>   0.2200 
  6 C       -0.7510     3.3060     0.0110 C.ar  1 <1>  -0.1500 
  7 C       -2.1590     2.6110     1.8070 C.ar  1 <1>  -0.1500 
  8 C       -3.1710    -2.0740     0.1950 C.3   1 <1>  -0.0800 
  9 C       -1.3360    -2.4300     1.6020 C.3   1 <1>   0.1200 
 10 C       -0.7350     4.6020     0.5150 C.ar  1 <1>   0.0820 
 11 C       -2.1470     3.8950     2.3190 C.ar  1 <1>  -0.1500 
 12 C       -3.6250    -2.4910     1.5990 C.3   1 <1>   0.1200 
 13 C       -4.1310    -1.1070    -0.5230 C.3   1 <1>  -0.0160 
 14 O       -2.4770    -2.5400     2.3980 O.3   1 <1>  -0.5600 
 15 O       -0.0670     5.6370    -0.0560 O.3   1 <1>  -0.3630 
 16 C       -1.4350     4.8880     1.6740 C.ar  1 <1>  -0.1500 
 17 C       -5.4730    -1.7730    -0.7870 C.ar  1 <1>  -0.1430 
 18 C        0.6260     5.5330    -1.2810 C.3   1 <1>   0.2000 
 19 C       -6.5670    -1.5710     0.0300 C.ar  1 <1>  -0.1500 
 20 C       -5.6620    -2.6170    -1.8620 C.ar  1 <1>  -0.1500 
 21 C        1.6040     6.7030    -1.3400 C.3   1 <1>  -0.2400 
 22 C       -0.3830     5.6020    -2.4300 C.3   1 <1>  -0.2400 
 23 C       -7.7620    -2.2100    -0.2570 C.ar  1 <1>   0.1600 
 24 C       -6.9000    -3.2070    -2.0590 C.ar  1 <1>   0.1600 
 25 N       -7.9540    -3.0260    -1.2800 N.ar  1 <1>  -0.6200 
 26 H       -1.9840    -0.0270     1.8660 H     1 <1>   0.3700 
 27 H       -1.1180    -1.6840    -0.4270 H     1 <1>   0.0800 
 28 H       -0.2160     3.0590    -0.8860 H     1 <1>   0.1500 
 29 H       -2.7280     1.8580     2.3210 H     1 <1>   0.1500 
 30 H       -3.0960    -2.9690    -0.3970 H     1 <1>   0.0800 
 31 H       -0.5300    -2.0040     2.1740 H     1 <1>   0.0800 
 32 H       -1.0680    -3.4180     1.2680 H     1 <1>   0.0800 
 33 H       -2.6930     4.1270     3.2180 H     1 <1>   0.1500 
 34 H       -4.0900    -3.4620     1.5940 H     1 <1>   0.0800 
 35 H       -4.2930    -1.7690     2.0340 H     1 <1>   0.0800 
 36 H       -3.6940    -0.8000    -1.4580 H     1 <1>   0.0800 
 37 H       -4.2830    -0.2200     0.0660 H     1 <1>   0.0800 
 38 H       -1.4180     5.8910     2.0610 H     1 <1>   0.1500 
 39 H        1.1800     4.6110    -1.2940 H     1 <1>   0.0800 
 40 H       -6.5050    -0.9230     0.8840 H     1 <1>   0.1500 
 41 H       -4.8600    -2.8210    -2.5470 H     1 <1>   0.1500 
 42 H        1.0740     7.6380    -1.2940 H     1 <1>   0.0800 
 43 H        2.1650     6.6680    -2.2560 H     1 <1>   0.0800 
 44 H        2.2930     6.6440    -0.5170 H     1 <1>   0.0800 
 45 H       -0.9360     6.5230    -2.3850 H     1 <1>   0.0800 
 46 H       -1.0700     4.7770    -2.3840 H     1 <1>   0.0800 
 47 H        0.1320     5.5560    -3.3720 H     1 <1>   0.0800 
 48 H       -8.6050    -2.0410     0.3910 H     1 <1>   0.1500 
 49 H       -7.0290    -3.8630    -2.9030 H     1 <1>   0.1500 
@<TRIPOS>BOND
  1   1   2  2   
  2   2   3  am  
  3   2   4  1   
  4   3   5  1   
  5   3  26  1   
  6   4   6  ar  
  7   4   7  ar  
  8   5   8  1   
  9   5   9  1   
 10   5  27  1   
 11   6  10  ar  
 12   6  28  1   
 13   7  11  ar  
 14   7  29  1   
 15   8  12  1   
 16   8  13  1   
 17   8  30  1   
 18   9  14  1   
 19   9  31  1   
 20   9  32  1   
 21  10  15  1   
 22  10  16  ar  
 23  11  16  ar  
 24  11  33  1   
 25  12  14  1   
 26  12  34  1   
 27  12  35  1   
 28  13  17  1   
 29  13  36  1   
 30  13  37  1   
 31  15  18  1   
 32  16  38  1   
 33  17  19  ar  
 34  17  20  ar  
 35  18  21  1   
 36  18  22  1   
 37  18  39  1   
 38  19  23  ar  
 39  19  40  1   
 40  20  24  ar  
 41  20  41  1   
 42  21  42  1   
 43  21  43  1   
 44  21  44  1   
 45  22  45  1   
 46  22  46  1   
 47  22  47  1   
 48  23  25  ar  
 49  23  48  1   
 50  24  25  ar  
 51  24  49  1   
@<TRIPOS>SUBSTRUCTURE
  1 ****   2 GROUP 4 **** **** 0

# MOE 2024.06 (io_trps.svl 2023.06)
