@<TRIPOS>MOLECULE
NONAME
49 51 1 0 0 
SMALL
USER_CHARGES


@<TRIPOS>ATOM
  1 O       -0.0090    -0.4110    -2.5220 O.2   1 <1>  -0.5700 
  2 C       -0.6790     0.4400    -1.9840 C.2   1 <1>   0.5690 
  3 N       -1.7600     0.1070    -1.2100 N.am  1 <1>  -0.6600 
  4 C       -0.2950     1.8970    -2.2140 C.3   1 <1>   0.0440 
  5 C       -2.6170     1.0460    -0.4420 C.3   1 <1>   0.1400 
  6 C       -2.1180    -1.2990    -0.9040 C.3   1 <1>   0.1400 
  7 C        0.0290     2.6620    -0.9250 C.ar  1 <1>  -0.1440 
  8 C       -3.6860     0.1610     0.1960 C.3   1 <1>   0.2000 
  9 C       -3.0460    -1.2200     0.3090 C.3   1 <1>  -0.0800 
 10 C       -0.4800     3.9290    -0.6480 C.ar  1 <1>  -0.1440 
 11 C        0.8630     2.0490     0.0000 C.ar  1 <1>  -0.1500 
 12 O       -4.0550     0.6270     1.4470 O.3   1 <1>  -0.6800 
 13 C       -4.0720    -2.3610     0.3760 C.3   1 <1>   0.0210 
 14 C       -0.1560     4.5430     0.5520 C.ar  1 <1>  -0.1500 
 15 C       -1.3820     4.6780    -1.6200 C.3   1 <1>  -0.0970 
 16 C        1.1820     2.6640     1.1980 C.ar  1 <1>  -0.1430 
 17 C       -3.3860    -3.7120     0.3590 C.2   1 <1>   0.1080 
 18 C        0.6670     3.9170     1.4700 C.ar  1 <1>  -0.1500 
 19 C        2.0900     1.9630     2.1920 C.3   1 <1>  -0.0970 
 20 N       -2.5820    -4.1050     1.2980 N.2   1 <1>  -0.7070 
 21 C       -3.5220    -4.6620    -0.6480 C.2   1 <1>  -0.1500 
 22 N       -2.1800    -5.3300     0.9110 N.pl3 1 <1>   0.3000 
 23 C       -2.7350    -5.6900    -0.2660 C.2   1 <1>  -0.3320 
 24 C       -2.4740    -7.0120    -0.9630 C.3   1 <1>  -0.0600 
 25 H        0.5730     1.9240    -2.8470 H     1 <1>   0.0800 
 26 H       -1.0980     2.3520    -2.7560 H     1 <1>   0.0800 
 27 H       -2.0260     1.5270     0.3170 H     1 <1>   0.0800 
 28 H       -3.0600     1.7770    -1.0940 H     1 <1>   0.0800 
 29 H       -2.6240    -1.7230    -1.7540 H     1 <1>   0.0800 
 30 H       -1.2390    -1.8840    -0.6860 H     1 <1>   0.0800 
 31 H       -4.5620     0.1390    -0.4300 H     1 <1>   0.0800 
 32 H       -2.4220    -1.2580     1.1840 H     1 <1>   0.0800 
 33 H        1.2710     1.0750    -0.2100 H     1 <1>   0.1500 
 34 H       -3.2930     0.5860     2.0580 H     1 <1>   0.4000 
 35 H       -4.7520    -2.2970    -0.4540 H     1 <1>   0.0800 
 36 H       -4.6430    -2.2760     1.2830 H     1 <1>   0.0800 
 37 H       -0.5410     5.5200     0.7830 H     1 <1>   0.1500 
 38 H       -1.5860     5.6730    -1.2680 H     1 <1>   0.0800 
 39 H       -2.3190     4.1620    -1.7290 H     1 <1>   0.0800 
 40 H       -0.9060     4.7570    -2.5800 H     1 <1>   0.0800 
 41 H        0.9050     4.4130     2.3940 H     1 <1>   0.1500 
 42 H        1.9770     2.3850     3.1740 H     1 <1>   0.0800 
 43 H        3.1140     2.0700     1.8840 H     1 <1>   0.0800 
 44 H        1.8480     0.9170     2.2410 H     1 <1>   0.0800 
 45 H       -4.1290    -4.5710    -1.5310 H     1 <1>   0.1500 
 46 H       -1.5280    -5.8930     1.4700 H     1 <1>   0.2700 
 47 H       -3.0300    -7.0610    -1.8830 H     1 <1>   0.0800 
 48 H       -2.7780    -7.8300    -0.3350 H     1 <1>   0.0800 
 49 H       -1.4280    -7.1120    -1.1910 H     1 <1>   0.0800 
@<TRIPOS>BOND
  1   1   2  2   
  2   2   3  am  
  3   2   4  1   
  4   3   5  1   
  5   3   6  1   
  6   4   7  1   
  7   4  25  1   
  8   4  26  1   
  9   5   8  1   
 10   5  27  1   
 11   5  28  1   
 12   6   9  1   
 13   6  29  1   
 14   6  30  1   
 15   7  10  ar  
 16   7  11  ar  
 17   8   9  1   
 18   8  12  1   
 19   8  31  1   
 20   9  13  1   
 21   9  32  1   
 22  10  14  ar  
 23  10  15  1   
 24  11  16  ar  
 25  11  33  1   
 26  12  34  1   
 27  13  17  1   
 28  13  35  1   
 29  13  36  1   
 30  14  18  ar  
 31  14  37  1   
 32  15  38  1   
 33  15  39  1   
 34  15  40  1   
 35  16  18  ar  
 36  16  19  1   
 37  17  20  2   
 38  17  21  1   
 39  18  41  1   
 40  19  42  1   
 41  19  43  1   
 42  19  44  1   
 43  20  22  1   
 44  21  23  2   
 45  21  45  1   
 46  22  23  1   
 47  22  46  1   
 48  23  24  1   
 49  24  47  1   
 50  24  48  1   
 51  24  49  1   
@<TRIPOS>SUBSTRUCTURE
  1 ****   3 GROUP 4 **** **** 0

# MOE 2024.06 (io_trps.svl 2023.06)
