@<TRIPOS>MOLECULE
NONAME
47 49 1 0 0 
SMALL
USER_CHARGES


@<TRIPOS>ATOM
  1 CL       2.5770    -0.0330     0.3280 Cl    1 <1>  -0.1770 
  2 C        3.8140     0.0630     1.5600 C.ar  1 <1>   0.1770 
  3 C        5.0400     0.6660     1.3070 C.ar  1 <1>   0.0860 
  4 C        3.5420    -0.4910     2.7980 C.ar  1 <1>   0.1600 
  5 C        5.3980     1.2850     0.0480 C.2   1 <1>   0.5440 
  6 C        5.9300     0.6270     2.3740 C.ar  1 <1>  -0.1500 
  7 N        4.3900    -0.5050     3.8160 N.ar  1 <1>  -0.6200 
  8 O        6.5140     1.1450    -0.4150 O.2   1 <1>  -0.5700 
  9 N        4.5550     2.1270    -0.6330 N.am  1 <1>  -0.6600 
 10 C        5.5680     0.0480     3.5760 C.ar  1 <1>   0.1600 
 11 C        4.5560     2.1690    -2.1310 C.3   1 <1>   0.1400 
 12 C        3.8770     3.2590     0.0430 C.3   1 <1>   0.1400 
 13 C        5.7680     2.9340    -2.7050 C.3   1 <1>   0.3430 
 14 C        4.8360     4.4540     0.1470 C.3   1 <1>  -0.1600 
 15 N        6.3860     3.8460    -1.6960 N.4   1 <1>  -0.9590 
 16 C        5.4640     4.8990    -1.1790 C.3   1 <1>   0.3430 
 17 C        7.7100     4.3610    -2.1130 C.3   1 <1>   0.5240 
 18 C        8.3950     4.9000    -0.8800 C.2   1 <1>  -0.1810 
 19 C        9.0370     4.2400     0.1120 C.2   1 <1>  -0.3320 
 20 C        8.4770     6.2410    -0.5260 C.2   1 <1>   0.1390 
 21 N        9.4490     5.1790     0.9950 N.pl3 1 <1>   0.3140 
 22 C        9.3020     2.7500     0.2750 C.3   1 <1>  -0.0600 
 23 N        9.0890     6.4090     0.5990 N.2   1 <1>  -0.7070 
 24 C       10.2100     4.9740     2.2360 C.3   1 <1>   0.0160 
 25 H        2.5790    -0.9460     2.9560 H     1 <1>   0.1500 
 26 H        6.9130     1.0490     2.2640 H     1 <1>   0.1500 
 27 H        6.2810     0.0360     4.3850 H     1 <1>   0.1500 
 28 H        3.6460     2.6250    -2.4800 H     1 <1>   0.0800 
 29 H        4.5690     1.1620    -2.5120 H     1 <1>   0.0800 
 30 H        3.5630     2.9630     1.0300 H     1 <1>   0.0800 
 31 H        2.9930     3.5330    -0.5080 H     1 <1>   0.0800 
 32 H        5.4720     3.4800    -3.5850 H     1 <1>   0.0800 
 33 H        6.5000     2.2010    -3.0050 H     1 <1>   0.0800 
 34 H        5.6150     4.2370     0.8570 H     1 <1>   0.0800 
 35 H        4.2820     5.2850     0.5470 H     1 <1>   0.0800 
 36 H        6.5830     3.2180    -0.8940 H     1 <1>   0.4500 
 37 H        6.0130     5.8090    -1.0000 H     1 <1>   0.0800 
 38 H        4.6950     5.1120    -1.9020 H     1 <1>   0.0800 
 39 H        7.6050     5.1340    -2.8570 H     1 <1>   0.0800 
 40 H        8.3060     3.5600    -2.5210 H     1 <1>   0.0800 
 41 H        8.0830     7.0660    -1.0980 H     1 <1>   0.1500 
 42 H        8.9570     2.1990    -0.5810 H     1 <1>   0.0800 
 43 H        8.7980     2.3740     1.1480 H     1 <1>   0.0800 
 44 H       10.3570     2.5710     0.3820 H     1 <1>   0.0800 
 45 H        9.6710     4.3040     2.8780 H     1 <1>   0.0800 
 46 H       10.3380     5.9200     2.7300 H     1 <1>   0.0800 
 47 H       11.1720     4.5620     1.9970 H     1 <1>   0.0800 
@<TRIPOS>BOND
  1   1   2  1   
  2   2   3  ar  
  3   2   4  ar  
  4   3   5  1   
  5   3   6  ar  
  6   4   7  ar  
  7   4  25  1   
  8   5   8  2   
  9   5   9  am  
 10   6  10  ar  
 11   6  26  1   
 12   7  10  ar  
 13   9  11  1   
 14   9  12  1   
 15  10  27  1   
 16  11  13  1   
 17  11  28  1   
 18  11  29  1   
 19  12  14  1   
 20  12  30  1   
 21  12  31  1   
 22  13  15  1   
 23  13  32  1   
 24  13  33  1   
 25  14  16  1   
 26  14  34  1   
 27  14  35  1   
 28  15  16  1   
 29  15  17  1   
 30  15  36  1   
 31  16  37  1   
 32  16  38  1   
 33  17  18  1   
 34  17  39  1   
 35  17  40  1   
 36  18  19  2   
 37  18  20  1   
 38  19  21  1   
 39  19  22  1   
 40  20  23  2   
 41  20  41  1   
 42  21  23  1   
 43  21  24  1   
 44  22  42  1   
 45  22  43  1   
 46  22  44  1   
 47  24  45  1   
 48  24  46  1   
 49  24  47  1   
@<TRIPOS>SUBSTRUCTURE
  1 ****   5 GROUP 4 **** **** 0

# MOE 2024.06 (io_trps.svl 2023.06)
