@<TRIPOS>MOLECULE
NONAME
50 53 1 0 0 
SMALL
USER_CHARGES


@<TRIPOS>ATOM
  1 O       -0.3360     1.3760     1.0210 O.2   1 <1>  -0.5700 
  2 C       -0.1790     2.5390     0.7010 C.2   1 <1>   0.5440 
  3 N       -1.2860     3.3390     0.4960 N.am  1 <1>  -0.6600 
  4 C        1.1720     3.0400     0.5330 C.ar  1 <1>   0.0860 
  5 C       -2.6600     2.9000     0.8990 C.3   1 <1>   0.1400 
  6 C       -1.2660     4.6110    -0.2750 C.3   1 <1>   0.1400 
  7 C        1.6180     4.1870     1.1890 C.ar  1 <1>  -0.1500 
  8 C        2.0830     2.3790    -0.2900 C.ar  1 <1>  -0.1500 
  9 C       -3.5770     2.7240    -0.3380 C.3   1 <1>   0.0000 
 10 C       -2.1490     4.4770    -1.5210 C.3   1 <1>  -0.1600 
 11 C        2.9060     4.6610     1.0190 C.ar  1 <1>  -0.1500 
 12 C        3.3720     2.8460    -0.4640 C.ar  1 <1>  -0.1500 
 13 C       -5.0030     2.3210     0.0770 C.3   1 <1>   0.2000 
 14 C       -3.5760     4.0260    -1.1670 C.3   1 <1>  -0.1600 
 15 C       -3.1390     1.5020    -1.1640 C.3   1 <1>  -0.1600 
 16 C        3.8030     3.9980     0.1880 C.ar  1 <1>  -0.0230 
 17 O       -5.4300     3.0250     1.2060 O.3   1 <1>  -0.5600 
 18 C       -4.9470     0.8130     0.3440 C.3   1 <1>  -0.1600 
 19 C       -3.7430     0.2880    -0.4510 C.3   1 <1>  -0.1600 
 20 N        5.1240     4.4800     0.0140 N.pl3 1 <1>   0.3260 
 21 C       -6.7950     2.9440     1.4670 C.3   1 <1>   0.0400 
 22 C        6.2870     3.7750    -0.0020 C.2   1 <1>   0.0360 
 23 C        5.5290     5.7550    -0.1840 C.2   1 <1>  -0.3020 
 24 N        7.3510     4.4870    -0.1890 N.2   1 <1>  -0.5650 
 25 C        6.8730     5.7400    -0.3040 C.2   1 <1>   0.0770 
 26 H       -2.6150     1.9850     1.4620 H     1 <1>   0.0800 
 27 H       -3.0730     3.6510     1.5490 H     1 <1>   0.0800 
 28 H       -1.6390     5.4030     0.3510 H     1 <1>   0.0800 
 29 H       -0.2670     4.8630    -0.5810 H     1 <1>   0.0800 
 30 H        0.9380     4.7050     1.8430 H     1 <1>   0.1500 
 31 H        1.7610     1.4820    -0.7930 H     1 <1>   0.1500 
 32 H       -2.1890     5.4250    -2.0280 H     1 <1>   0.0800 
 33 H       -1.6980     3.7690    -2.1930 H     1 <1>   0.0800 
 34 H        3.2180     5.5480     1.5430 H     1 <1>   0.1500 
 35 H        4.0440     2.3110    -1.1130 H     1 <1>   0.1500 
 36 H       -5.6770     2.5230    -0.7390 H     1 <1>   0.0800 
 37 H       -4.1480     3.8940    -2.0690 H     1 <1>   0.0800 
 38 H       -4.0530     4.8010    -0.5910 H     1 <1>   0.0800 
 39 H       -3.5550     1.5650    -2.1540 H     1 <1>   0.0800 
 40 H       -2.0700     1.4160    -1.2480 H     1 <1>   0.0800 
 41 H       -4.7900     0.6260     1.3920 H     1 <1>   0.0800 
 42 H       -5.8550     0.3380     0.0210 H     1 <1>   0.0800 
 43 H       -3.0160    -0.1280     0.2270 H     1 <1>   0.0800 
 44 H       -4.0310    -0.4710    -1.1580 H     1 <1>   0.0800 
 45 H       -7.0030     3.5390     2.3390 H     1 <1>   0.0800 
 46 H       -7.0650     1.9200     1.6580 H     1 <1>   0.0800 
 47 H       -7.3420     3.3310     0.6250 H     1 <1>   0.0800 
 48 H        6.2910     2.7100     0.1390 H     1 <1>   0.1500 
 49 H        4.8440     6.5810    -0.2300 H     1 <1>   0.1500 
 50 H        7.5350     6.5740    -0.4710 H     1 <1>   0.1500 
@<TRIPOS>BOND
  1   1   2  2   
  2   2   3  am  
  3   2   4  1   
  4   3   5  1   
  5   3   6  1   
  6   4   7  ar  
  7   4   8  ar  
  8   5   9  1   
  9   5  26  1   
 10   5  27  1   
 11   6  10  1   
 12   6  28  1   
 13   6  29  1   
 14   7  11  ar  
 15   7  30  1   
 16   8  12  ar  
 17   8  31  1   
 18   9  13  1   
 19   9  14  1   
 20   9  15  1   
 21  10  14  1   
 22  10  32  1   
 23  10  33  1   
 24  11  16  ar  
 25  11  34  1   
 26  12  16  ar  
 27  12  35  1   
 28  13  17  1   
 29  13  18  1   
 30  13  36  1   
 31  14  37  1   
 32  14  38  1   
 33  15  19  1   
 34  15  39  1   
 35  15  40  1   
 36  16  20  1   
 37  17  21  1   
 38  18  19  1   
 39  18  41  1   
 40  18  42  1   
 41  19  43  1   
 42  19  44  1   
 43  20  22  1   
 44  20  23  1   
 45  21  45  1   
 46  21  46  1   
 47  21  47  1   
 48  22  24  2   
 49  22  48  1   
 50  23  25  2   
 51  23  49  1   
 52  24  25  1   
 53  25  50  1   
@<TRIPOS>SUBSTRUCTURE
  1 ****   2 GROUP 4 **** **** 0

# MOE 2024.06 (io_trps.svl 2023.06)
