@<TRIPOS>MOLECULE
NONAME
49 51 1 0 0 
SMALL
USER_CHARGES


@<TRIPOS>ATOM
  1 O        0.0500     0.2330    -1.0540 O.2   1 <1>  -0.5700 
  2 C        0.0590     1.3900    -0.7080 C.2   1 <1>   0.5690 
  3 N       -1.0850     2.0710    -0.3660 N.am  1 <1>  -0.6600 
  4 C        1.4150     2.0800    -0.6940 C.3   1 <1>  -0.0990 
  5 C       -2.4060     1.3610    -0.3890 C.3   1 <1>   0.2200 
  6 C       -1.0560     3.4680     0.1730 C.3   1 <1>   0.1400 
  7 C        1.4490     3.4010     0.0860 C.3   1 <1>  -0.1600 
  8 C       -3.4350     2.0980    -1.2530 C.3   1 <1>  -0.1600 
  9 C       -3.0340     1.2770     1.0020 C.3   1 <1>  -0.1600 
 10 C        0.2040     4.2330    -0.2520 C.3   1 <1>  -0.0190 
 11 C       -4.4300     2.7900    -0.3080 C.3   1 <1>  -0.1600 
 12 C       -3.9960     2.4600     1.1220 C.3   1 <1>  -0.1600 
 13 C        0.2580     5.6070     0.4070 C.2   1 <1>   0.5690 
 14 O       -0.2160     5.7510     1.5090 O.2   1 <1>  -0.5700 
 15 N        0.8570     6.6190    -0.2830 N.am  1 <1>  -0.4930 
 16 C        1.0490     7.9670     0.1090 C.2   1 <1>   0.0630 
 17 C        0.6770     8.6110     1.2900 C.2   1 <1>   0.1390 
 18 C        1.6580     8.9250    -0.6190 C.2   1 <1>  -0.3020 
 19 N        1.0230     9.8630     1.2990 N.2   1 <1>  -0.7070 
 20 N        1.6340    10.0630     0.1130 N.pl3 1 <1>   0.3140 
 21 C        2.1970    11.3800    -0.3040 C.3   1 <1>   0.1760 
 22 C        3.3090    11.8240     0.6580 C.3   1 <1>  -0.2400 
 23 C        1.0910    12.4420    -0.3860 C.3   1 <1>  -0.2400 
 24 H        1.6880     2.2620    -1.7170 H     1 <1>   0.0800 
 25 H        2.1400     1.4020    -0.2810 H     1 <1>   0.0800 
 26 H       -2.2760     0.3640    -0.7750 H     1 <1>   0.0800 
 27 H       -1.0990     3.4140     1.2480 H     1 <1>   0.0800 
 28 H       -1.9180     4.0140    -0.1660 H     1 <1>   0.0800 
 29 H        2.3470     3.9430    -0.1550 H     1 <1>   0.0800 
 30 H        1.4580     3.1930     1.1430 H     1 <1>   0.0800 
 31 H       -3.9680     1.3720    -1.8420 H     1 <1>   0.0800 
 32 H       -2.9640     2.7930    -1.9260 H     1 <1>   0.0800 
 33 H       -2.2950     1.2570     1.7840 H     1 <1>   0.0800 
 34 H       -3.6070     0.3680     1.0540 H     1 <1>   0.0800 
 35 H        0.1520     4.3790    -1.3160 H     1 <1>   0.0800 
 36 H       -5.4200     2.4070    -0.4860 H     1 <1>   0.0800 
 37 H       -4.4400     3.8550    -0.4660 H     1 <1>   0.0800 
 38 H       -3.4850     3.3040     1.5510 H     1 <1>   0.0800 
 39 H       -4.8390     2.2200     1.7470 H     1 <1>   0.0800 
 40 H        1.2360     6.3910    -1.2000 H     1 <1>   0.3700 
 41 H        0.1620     8.1310     2.1050 H     1 <1>   0.1500 
 42 H        2.0990     8.8690    -1.5950 H     1 <1>   0.1500 
 43 H        2.6230    11.2550    -1.2830 H     1 <1>   0.0800 
 44 H        2.9110    11.9640     1.6480 H     1 <1>   0.0800 
 45 H        3.7390    12.7510     0.3270 H     1 <1>   0.0800 
 46 H        4.0850    11.0800     0.6950 H     1 <1>   0.0800 
 47 H        0.6480    12.5940     0.5830 H     1 <1>   0.0800 
 48 H        0.3270    12.1280    -1.0740 H     1 <1>   0.0800 
 49 H        1.4960    13.3760    -0.7290 H     1 <1>   0.0800 
@<TRIPOS>BOND
  1   1   2  2   
  2   2   3  am  
  3   2   4  1   
  4   3   5  1   
  5   3   6  1   
  6   4   7  1   
  7   4  24  1   
  8   4  25  1   
  9   5   8  1   
 10   5   9  1   
 11   5  26  1   
 12   6  10  1   
 13   6  27  1   
 14   6  28  1   
 15   7  10  1   
 16   7  29  1   
 17   7  30  1   
 18   8  11  1   
 19   8  31  1   
 20   8  32  1   
 21   9  12  1   
 22   9  33  1   
 23   9  34  1   
 24  10  13  1   
 25  10  35  1   
 26  11  12  1   
 27  11  36  1   
 28  11  37  1   
 29  12  38  1   
 30  12  39  1   
 31  13  14  2   
 32  13  15  am  
 33  15  16  1   
 34  15  40  1   
 35  16  17  1   
 36  16  18  2   
 37  17  19  2   
 38  17  41  1   
 39  18  20  1   
 40  18  42  1   
 41  19  20  1   
 42  20  21  1   
 43  21  22  1   
 44  21  23  1   
 45  21  43  1   
 46  22  44  1   
 47  22  45  1   
 48  22  46  1   
 49  23  47  1   
 50  23  48  1   
 51  23  49  1   
@<TRIPOS>SUBSTRUCTURE
  1 ****  13 GROUP 4 **** **** 0

# MOE 2024.06 (io_trps.svl 2023.06)
