@<TRIPOS>MOLECULE
NONAME
44 46 1 0 0 
SMALL
USER_CHARGES


@<TRIPOS>ATOM
  1 F       -1.1880    -0.1700    -1.4390 F     1 <1>  -0.1900 
  2 C       -1.8800    -0.7920    -0.5170 C.ar  1 <1>   0.1900 
  3 C       -2.5390    -0.0930     0.5010 C.ar  1 <1>   0.0830 
  4 C       -1.9240    -2.1680    -0.6110 C.ar  1 <1>  -0.1500 
  5 O       -2.5680     1.2520     0.6920 O.3   1 <1>  -0.3630 
  6 C       -3.2430    -0.8440     1.4300 C.ar  1 <1>  -0.1500 
  7 C       -2.6430    -2.9190     0.3170 C.ar  1 <1>   0.0860 
  8 C       -1.8680     2.1680    -0.1210 C.3   1 <1>   0.0400 
  9 C       -3.2910    -2.2240     1.3420 C.ar  1 <1>  -0.1500 
 10 C       -2.6990    -4.3650     0.2140 C.2   1 <1>   0.5440 
 11 O       -1.6800    -4.9900    -0.0110 O.2   1 <1>  -0.5700 
 12 N       -3.8800    -5.0580     0.3460 N.am  1 <1>  -0.6600 
 13 C       -5.2300    -4.4810     0.1210 C.3   1 <1>   0.1400 
 14 C       -3.9330    -6.5410     0.2720 C.3   1 <1>   0.1400 
 15 C       -6.0750    -5.6510    -0.3790 C.3   1 <1>   0.2000 
 16 C       -5.4200    -6.8950     0.2120 C.3   1 <1>  -0.0800 
 17 O       -7.3900    -5.5500     0.0440 O.3   1 <1>  -0.6800 
 18 C       -5.7160    -8.1750    -0.5830 C.3   1 <1>   0.0210 
 19 C       -4.9700    -9.3580     0.0000 C.2   1 <1>   0.1080 
 20 N       -5.1940    -9.8100     1.1950 N.2   1 <1>  -0.7070 
 21 C       -3.9730   -10.0730    -0.6550 C.2   1 <1>  -0.1500 
 22 N       -4.3380   -10.8390     1.3350 N.pl3 1 <1>   0.3000 
 23 C       -3.5860   -11.0170     0.2280 C.2   1 <1>  -0.3320 
 24 C       -2.5270   -12.0940     0.0810 C.3   1 <1>  -0.0600 
 25 H       -1.3990    -2.6700    -1.4040 H     1 <1>   0.1500 
 26 H       -3.7520    -0.3330     2.2290 H     1 <1>   0.1500 
 27 H       -2.0410     3.1570     0.2640 H     1 <1>   0.0800 
 28 H       -2.2390     2.0990    -1.1280 H     1 <1>   0.0800 
 29 H       -0.8170     1.9400    -0.0800 H     1 <1>   0.0800 
 30 H       -3.8330    -2.7820     2.0860 H     1 <1>   0.1500 
 31 H       -5.6150    -4.1100     1.0540 H     1 <1>   0.0800 
 32 H       -5.1960    -3.6930    -0.6110 H     1 <1>   0.0800 
 33 H       -3.4220    -6.8670    -0.6190 H     1 <1>   0.0800 
 34 H       -3.4590    -6.9840     1.1310 H     1 <1>   0.0800 
 35 H       -6.0640    -5.6710    -1.4560 H     1 <1>   0.0800 
 36 H       -5.7510    -7.0300     1.2280 H     1 <1>   0.0800 
 37 H       -7.4510    -5.7230     1.0040 H     1 <1>   0.4000 
 38 H       -5.4330    -8.0460    -1.6120 H     1 <1>   0.0800 
 39 H       -6.7710    -8.3830    -0.5490 H     1 <1>   0.0800 
 40 H       -3.6080    -9.8910    -1.6490 H     1 <1>   0.1500 
 41 H       -4.2910   -11.3980     2.1950 H     1 <1>   0.2700 
 42 H       -2.0670   -12.0290    -0.8900 H     1 <1>   0.0800 
 43 H       -2.9690   -13.0690     0.1860 H     1 <1>   0.0800 
 44 H       -1.7640   -11.9700     0.8290 H     1 <1>   0.0800 
@<TRIPOS>BOND
  1   1   2  1   
  2   2   3  ar  
  3   2   4  ar  
  4   3   5  1   
  5   3   6  ar  
  6   4   7  ar  
  7   4  25  1   
  8   5   8  1   
  9   6   9  ar  
 10   6  26  1   
 11   7   9  ar  
 12   7  10  1   
 13   8  27  1   
 14   8  28  1   
 15   8  29  1   
 16   9  30  1   
 17  10  11  2   
 18  10  12  am  
 19  12  13  1   
 20  12  14  1   
 21  13  15  1   
 22  13  31  1   
 23  13  32  1   
 24  14  16  1   
 25  14  33  1   
 26  14  34  1   
 27  15  16  1   
 28  15  17  1   
 29  15  35  1   
 30  16  18  1   
 31  16  36  1   
 32  17  37  1   
 33  18  19  1   
 34  18  38  1   
 35  18  39  1   
 36  19  20  2   
 37  19  21  1   
 38  20  22  1   
 39  21  23  2   
 40  21  40  1   
 41  22  23  1   
 42  22  41  1   
 43  23  24  1   
 44  24  42  1   
 45  24  43  1   
 46  24  44  1   
@<TRIPOS>SUBSTRUCTURE
  1 ****  12 GROUP 4 **** **** 0

# MOE 2024.06 (io_trps.svl 2023.06)
