@<TRIPOS>MOLECULE
NONAME
64 67 1 0 0 
SMALL
USER_CHARGES


@<TRIPOS>ATOM
  1 O       -1.2860     0.8830     1.8170 O.2   1 <1>  -0.5700 
  2 C       -1.0660     1.7090     0.9660 C.2   1 <1>   0.6590 
  3 O       -1.5640     1.6140    -0.2700 O.3   1 <1>  -0.4300 
  4 C       -0.1210     2.9110     1.1780 C.3   1 <1>   0.2610 
  5 C       -2.0410     0.4360    -0.9180 C.3   1 <1>   0.2000 
  6 O       -0.2190     3.5010     2.4530 O.3   1 <1>  -0.5600 
  7 C        1.3530     2.5200     0.9790 C.3   1 <1>  -0.1600 
  8 C       -0.8060    -0.3880    -1.4080 C.3   1 <1>   0.0580 
  9 C       -3.1390    -0.2960    -0.0860 C.3   1 <1>   0.2000 
 10 C       -1.4660     4.0310     2.7770 C.3   1 <1>   0.0400 
 11 C        1.6490     1.9900    -0.4480 C.3   1 <1>   0.0580 
 12 C        0.0730    -0.8600    -0.2500 C.2   1 <1>  -0.2880 
 13 C       -1.2000    -1.5910    -2.2780 C.3   1 <1>  -0.2400 
 14 O       -3.8190    -1.2030    -0.8820 O.3   1 <1>  -0.6800 
 15 C       -4.2270     0.6310     0.4680 C.3   1 <1>  -0.2400 
 16 C        2.4860     3.0030    -1.2230 C.2   1 <1>  -0.2880 
 17 C        2.2660     0.5450    -0.5040 C.3   1 <1>   0.4180 
 18 C        1.3050    -0.4940     0.1530 C.2   1 <1>  -0.2760 
 19 C        3.5410     2.6180    -1.9410 C.2   1 <1>  -0.2880 
 20 O        3.4930     0.5750     0.1970 O.3   1 <1>  -0.5600 
 21 C        2.7180     0.2450    -1.9550 C.3   1 <1>  -0.0800 
 22 C        1.8060    -1.1070     1.4700 C.3   1 <1>  -0.1020 
 23 C        3.9400     1.1520    -2.0150 C.3   1 <1>   0.0580 
 24 C        4.5800     0.7260    -0.6930 C.3   1 <1>   0.2000 
 25 C        3.2010    -1.1950    -2.2570 C.3   1 <1>   0.2000 
 26 C        5.2790    -0.6430    -0.8570 C.3   1 <1>   0.2000 
 27 O        2.1200    -2.0490    -2.2370 O.3   1 <1>  -0.6800 
 28 C        4.2830    -1.7450    -1.2960 C.3   1 <1>  -0.0800 
 29 O        6.2920    -0.5280    -1.8050 O.3   1 <1>  -0.6800 
 30 C        4.9620    -3.0160    -1.8500 C.3   1 <1>  -0.2400 
 31 H       -0.3740     3.6720     0.4610 H     1 <1>   0.0800 
 32 H       -2.5340     0.8000    -1.8010 H     1 <1>   0.0800 
 33 H        1.9720     3.3760     1.1820 H     1 <1>   0.0800 
 34 H        1.6020     1.7780     1.7110 H     1 <1>   0.0800 
 35 H       -0.2380     0.2600    -2.0460 H     1 <1>   0.0800 
 36 H       -2.6840    -0.8590     0.7100 H     1 <1>   0.0800 
 37 H       -1.3790     4.5280     3.7270 H     1 <1>   0.0800 
 38 H       -2.1860     3.2340     2.8590 H     1 <1>   0.0800 
 39 H       -1.7630     4.7410     2.0240 H     1 <1>   0.0800 
 40 H        0.7360     1.9490    -0.9990 H     1 <1>   0.0800 
 41 H       -0.4780    -1.5880     0.3230 H     1 <1>   0.1500 
 42 H       -1.6440    -2.3680    -1.6820 H     1 <1>   0.0800 
 43 H       -0.3420    -2.0020    -2.7730 H     1 <1>   0.0800 
 44 H       -1.9040    -1.2930    -3.0340 H     1 <1>   0.0800 
 45 H       -4.4850    -0.7410    -1.4240 H     1 <1>   0.4000 
 46 H       -4.6680     1.2180    -0.3170 H     1 <1>   0.0800 
 47 H       -3.8120     1.3020     1.1960 H     1 <1>   0.0800 
 48 H       -4.9880     0.0520     0.9610 H     1 <1>   0.0800 
 49 H        2.1550     4.0250    -1.1410 H     1 <1>   0.1500 
 50 H        4.1810     3.2850    -2.4940 H     1 <1>   0.1500 
 51 H        1.9870     0.5420    -2.6850 H     1 <1>   0.0800 
 52 H        1.9800    -0.3380     2.1990 H     1 <1>   0.0800 
 53 H        2.7180    -1.6530     1.3490 H     1 <1>   0.0800 
 54 H        1.0790    -1.7800     1.8890 H     1 <1>   0.0800 
 55 H        4.5540     0.9760    -2.8810 H     1 <1>   0.0800 
 56 H        5.2560     1.4650    -0.3000 H     1 <1>   0.0800 
 57 H        3.5920    -1.2180    -3.2610 H     1 <1>   0.0800 
 58 H        5.7470    -0.9160     0.0730 H     1 <1>   0.0800 
 59 H        1.6120    -1.9030    -1.4060 H     1 <1>   0.4000 
 60 H        3.7780    -2.0450    -0.4040 H     1 <1>   0.0800 
 61 H        6.7090    -1.4000    -1.9440 H     1 <1>   0.4000 
 62 H        5.4260    -2.8240    -2.8010 H     1 <1>   0.0800 
 63 H        4.2250    -3.7880    -1.9920 H     1 <1>   0.0800 
 64 H        5.7010    -3.3810    -1.1600 H     1 <1>   0.0800 
@<TRIPOS>BOND
  1   1   2  2   
  2   2   3  1   
  3   2   4  1   
  4   3   5  1   
  5   4   6  1   
  6   4   7  1   
  7   4  31  1   
  8   5   8  1   
  9   5   9  1   
 10   5  32  1   
 11   6  10  1   
 12   7  11  1   
 13   7  33  1   
 14   7  34  1   
 15   8  12  1   
 16   8  13  1   
 17   8  35  1   
 18   9  14  1   
 19   9  15  1   
 20   9  36  1   
 21  10  37  1   
 22  10  38  1   
 23  10  39  1   
 24  11  16  1   
 25  11  17  1   
 26  11  40  1   
 27  12  18  2   
 28  12  41  1   
 29  13  42  1   
 30  13  43  1   
 31  13  44  1   
 32  14  45  1   
 33  15  46  1   
 34  15  47  1   
 35  15  48  1   
 36  16  19  2   
 37  16  49  1   
 38  17  18  1   
 39  17  20  1   
 40  17  21  1   
 41  18  22  1   
 42  19  23  1   
 43  19  50  1   
 44  20  24  1   
 45  21  23  1   
 46  21  25  1   
 47  21  51  1   
 48  22  52  1   
 49  22  53  1   
 50  22  54  1   
 51  23  24  1   
 52  23  55  1   
 53  24  26  1   
 54  24  56  1   
 55  25  27  1   
 56  25  28  1   
 57  25  57  1   
 58  26  28  1   
 59  26  29  1   
 60  26  58  1   
 61  27  59  1   
 62  28  30  1   
 63  28  60  1   
 64  29  61  1   
 65  30  62  1   
 66  30  63  1   
 67  30  64  1   
@<TRIPOS>SUBSTRUCTURE
  1 ****  17 GROUP 4 **** **** 0

# MOE 2024.06 (io_trps.svl 2023.06)
