@<TRIPOS>MOLECULE
NONAME
42 45 1 0 0 
SMALL
USER_CHARGES


@<TRIPOS>ATOM
  1 CL      -0.0240     0.2580     0.3480 Cl    1 <1>  -0.1770 
  2 C        0.0600     1.9940     0.3200 C.ar  1 <1>   0.1770 
  3 C       -1.0920     2.7320     0.3420 C.ar  1 <1>  -0.1500 
  4 C        1.3060     2.6090     0.2910 C.ar  1 <1>  -0.1500 
  5 C       -1.0240     4.1310     0.3210 C.ar  1 <1>   0.3610 
  6 C        1.3750     3.9780     0.2500 C.ar  1 <1>  -0.1500 
  7 N       -2.1710     4.8820     0.4510 N.ar  1 <1>  -0.1790 
  8 C        0.2220     4.7880     0.2080 C.ar  1 <1>   0.0000 
  9 C       -2.1400     6.2250     0.4710 C.ar  1 <1>   0.2110 
 10 C        0.2550     6.2200     0.1160 C.ar  1 <1>   0.1000 
 11 C       -0.9560     6.8920     0.3100 C.ar  1 <1>  -0.1500 
 12 N        1.3690     6.9410    -0.1890 N.pl3 1 <1>  -0.8380 
 13 C        1.6290     8.2800     0.4630 C.3   1 <1>   0.2090 
 14 C        2.2340     6.5900    -1.3770 C.3   1 <1>   0.2090 
 15 C        3.0840     8.6310     0.8620 C.3   1 <1>   0.2200 
 16 C        3.7610     6.7470    -1.2360 C.3   1 <1>  -0.0190 
 17 N        3.8810     9.0580    -0.3240 N.am  1 <1>  -0.6600 
 18 C        3.8240     7.5650     1.7040 C.3   1 <1>   0.1200 
 19 C        4.1600     8.1980    -1.3440 C.2   1 <1>   0.5690 
 20 C        4.4660     6.0770    -0.0430 C.3   1 <1>   0.1200 
 21 C        4.3050    10.4880    -0.3580 C.3   1 <1>   0.0600 
 22 O        3.8050     6.2730     1.1670 O.3   1 <1>  -0.5600 
 23 O        4.7290     8.5530    -2.3490 O.2   1 <1>  -0.5700 
 24 H       -2.0360     2.2190     0.3860 H     1 <1>   0.1500 
 25 H        2.1950     2.0010     0.3100 H     1 <1>   0.1500 
 26 H        2.3370     4.4520     0.2650 H     1 <1>   0.1500 
 27 H       -3.0580     4.3820     0.5580 H     1 <1>   0.4570 
 28 H       -3.0630     6.7690     0.6030 H     1 <1>   0.1500 
 29 H       -0.9670     7.9660     0.2960 H     1 <1>   0.1500 
 30 H        1.2630     9.0570    -0.1860 H     1 <1>   0.0800 
 31 H        1.0520     8.3220     1.3690 H     1 <1>   0.0800 
 32 H        2.0290     5.5800    -1.6780 H     1 <1>   0.0800 
 33 H        1.9210     7.2110    -2.2000 H     1 <1>   0.0800 
 34 H        3.0070     9.4940     1.4990 H     1 <1>   0.0800 
 35 H        4.1790     6.2800    -2.1090 H     1 <1>   0.0800 
 36 H        3.3480     7.4950     2.6650 H     1 <1>   0.0800 
 37 H        4.8480     7.8560     1.8610 H     1 <1>   0.0800 
 38 H        5.4780     6.4350     0.0540 H     1 <1>   0.0800 
 39 H        4.5060     5.0150    -0.2050 H     1 <1>   0.0800 
 40 H        4.9030    10.7120     0.5070 H     1 <1>   0.0800 
 41 H        3.4390    11.1260    -0.3710 H     1 <1>   0.0800 
 42 H        4.8920    10.6920    -1.2380 H     1 <1>   0.0800 
@<TRIPOS>BOND
  1   1   2  1   
  2   2   3  ar  
  3   2   4  ar  
  4   3   5  ar  
  5   3  24  1   
  6   4   6  ar  
  7   4  25  1   
  8   5   7  ar  
  9   5   8  ar  
 10   6   8  ar  
 11   6  26  1   
 12   7   9  ar  
 13   7  27  1   
 14   8  10  ar  
 15   9  11  ar  
 16   9  28  1   
 17  10  11  ar  
 18  10  12  1   
 19  11  29  1   
 20  12  13  1   
 21  12  14  1   
 22  13  15  1   
 23  13  30  1   
 24  13  31  1   
 25  14  16  1   
 26  14  32  1   
 27  14  33  1   
 28  15  17  1   
 29  15  18  1   
 30  15  34  1   
 31  16  19  1   
 32  16  20  1   
 33  16  35  1   
 34  17  19  am  
 35  17  21  1   
 36  18  22  1   
 37  18  36  1   
 38  18  37  1   
 39  19  23  2   
 40  20  22  1   
 41  20  38  1   
 42  20  39  1   
 43  21  40  1   
 44  21  41  1   
 45  21  42  1   
@<TRIPOS>SUBSTRUCTURE
  1 ****  12 GROUP 4 **** **** 0

# MOE 2024.06 (io_trps.svl 2023.06)
