@<TRIPOS>MOLECULE
NONAME
48 50 1 0 0 
SMALL
USER_CHARGES


@<TRIPOS>ATOM
  1 O       -2.3370     0.6290    -1.8700 O.2   1 <1>  -0.5700 
  2 C       -2.2790    -0.4230    -1.2740 C.2   1 <1>   0.5690 
  3 N       -1.8500    -0.5110     0.0260 N.am  1 <1>  -0.6600 
  4 C       -2.6730    -1.6890    -2.0230 C.3   1 <1>  -0.0190 
  5 C       -1.9210    -1.8150     0.7580 C.3   1 <1>   0.2200 
  6 C       -1.3830     0.6710     0.7950 C.3   1 <1>   0.0600 
  7 C       -1.4500    -2.5980    -2.2430 C.3   1 <1>   0.1200 
  8 C       -3.8810    -2.4540    -1.4360 C.3   1 <1>   0.1100 
  9 C       -1.1160    -2.9660     0.0930 C.3   1 <1>   0.1200 
 10 C       -3.3910    -2.2290     1.0030 C.3   1 <1>   0.1100 
 11 O       -0.5760    -2.6410    -1.1550 O.3   1 <1>  -0.5600 
 12 N       -4.3300    -1.9740    -0.1180 N.3   1 <1>  -0.8100 
 13 C       -5.7230    -2.3350     0.1980 C.3   1 <1>   0.2530 
 14 C       -5.9030    -3.8380     0.3380 C.ar  1 <1>  -0.1440 
 15 C       -5.8000    -4.4680     1.5570 C.ar  1 <1>   0.1600 
 16 C       -6.1790    -4.6380    -0.7470 C.ar  1 <1>   0.1600 
 17 N       -5.9270    -5.7650     1.6920 N.ar  1 <1>  -0.6200 
 18 N       -6.3130    -5.9380    -0.6470 N.ar  1 <1>  -0.6200 
 19 C       -6.1700    -6.4360     0.5760 C.ar  1 <1>   0.7200 
 20 N       -6.2780    -7.7710     0.7500 N.pl3 1 <1>  -0.8690 
 21 C       -6.8930    -8.7150    -0.1830 C.3   1 <1>   0.2890 
 22 C       -8.3290    -8.9550     0.2650 C.3   1 <1>  -0.2400 
 23 C       -6.0780   -10.0010    -0.1480 C.3   1 <1>  -0.2400 
 24 H       -2.9790    -1.3820    -3.0060 H     1 <1>   0.0800 
 25 H       -1.4830    -1.6770     1.7310 H     1 <1>   0.0800 
 26 H       -0.3880     0.4930     1.1620 H     1 <1>   0.0800 
 27 H       -2.0470     0.8530     1.6200 H     1 <1>   0.0800 
 28 H       -1.3650     1.5460     0.1670 H     1 <1>   0.0800 
 29 H       -0.8760    -2.2130    -3.0680 H     1 <1>   0.0800 
 30 H       -1.7440    -3.6050    -2.4850 H     1 <1>   0.0800 
 31 H       -3.6660    -3.5080    -1.3790 H     1 <1>   0.0800 
 32 H       -4.6940    -2.3330    -2.1310 H     1 <1>   0.0800 
 33 H       -1.7090    -3.8570    -0.0130 H     1 <1>   0.0800 
 34 H       -0.2840    -3.2100     0.7290 H     1 <1>   0.0800 
 35 H       -3.7400    -1.6730     1.8560 H     1 <1>   0.0800 
 36 H       -3.4150    -3.2700     1.2730 H     1 <1>   0.0800 
 37 H       -6.0160    -1.8450     1.1110 H     1 <1>   0.0800 
 38 H       -6.3680    -1.9630    -0.5800 H     1 <1>   0.0800 
 39 H       -5.6030    -3.8920     2.4450 H     1 <1>   0.1500 
 40 H       -6.2890    -4.2010    -1.7240 H     1 <1>   0.1500 
 41 H       -6.2790    -8.0440     1.7290 H     1 <1>   0.4000 
 42 H       -6.8850    -8.3140    -1.1840 H     1 <1>   0.0800 
 43 H       -8.3560    -9.3570     1.2620 H     1 <1>   0.0800 
 44 H       -8.8080    -9.6490    -0.4010 H     1 <1>   0.0800 
 45 H       -8.8770    -8.0300     0.2390 H     1 <1>   0.0800 
 46 H       -6.0730   -10.4220     0.8410 H     1 <1>   0.0800 
 47 H       -5.0680    -9.7970    -0.4530 H     1 <1>   0.0800 
 48 H       -6.4990   -10.7190    -0.8270 H     1 <1>   0.0800 
@<TRIPOS>BOND
  1   1   2  2   
  2   2   3  am  
  3   2   4  1   
  4   3   5  1   
  5   3   6  1   
  6   4   7  1   
  7   4   8  1   
  8   4  24  1   
  9   5   9  1   
 10   5  10  1   
 11   5  25  1   
 12   6  26  1   
 13   6  27  1   
 14   6  28  1   
 15   7  11  1   
 16   7  29  1   
 17   7  30  1   
 18   8  12  1   
 19   8  31  1   
 20   8  32  1   
 21   9  11  1   
 22   9  33  1   
 23   9  34  1   
 24  10  12  1   
 25  10  35  1   
 26  10  36  1   
 27  12  13  1   
 28  13  14  1   
 29  13  37  1   
 30  13  38  1   
 31  14  15  ar  
 32  14  16  ar  
 33  15  17  ar  
 34  15  39  1   
 35  16  18  ar  
 36  16  40  1   
 37  17  19  ar  
 38  18  19  ar  
 39  19  20  1   
 40  20  21  1   
 41  20  41  1   
 42  21  22  1   
 43  21  23  1   
 44  21  42  1   
 45  22  43  1   
 46  22  44  1   
 47  22  45  1   
 48  23  46  1   
 49  23  47  1   
 50  23  48  1   
@<TRIPOS>SUBSTRUCTURE
  1 ****  14 GROUP 4 **** **** 0

# MOE 2024.06 (io_trps.svl 2023.06)
