@<TRIPOS>MOLECULE
NONAME
38 40 1 0 0 
SMALL
USER_CHARGES


@<TRIPOS>ATOM
  1 F       -1.5110     1.1990     3.4340 F     1 <1>  -0.1900 
  2 C       -2.1920     1.5530     2.3800 C.ar  1 <1>   0.1900 
  3 C       -2.0520     2.8210     1.8840 C.ar  1 <1>  -0.1500 
  4 C       -3.0400     0.6130     1.8030 C.ar  1 <1>  -0.1500 
  5 C       -2.7820     3.2200     0.7440 C.ar  1 <1>   0.0000 
  6 C       -3.7620     0.9780     0.6940 C.ar  1 <1>  -0.1500 
  7 C       -3.6460     2.2710     0.1520 C.ar  1 <1>   0.3610 
  8 C       -2.6900     4.5250     0.1710 C.ar  1 <1>   0.1000 
  9 N       -4.3720     2.6310    -0.9620 N.ar  1 <1>  -0.1790 
 10 N       -1.8790     5.4580     0.7140 N.pl3 1 <1>  -0.8690 
 11 C       -3.4580     4.7950    -0.9630 C.ar  1 <1>  -0.1500 
 12 C       -4.2890     3.8540    -1.5150 C.ar  1 <1>   0.2180 
 13 C       -1.6780     6.8940     0.3400 C.3   1 <1>   0.2890 
 14 C       -5.1270     4.1530    -2.7470 C.3   1 <1>  -0.0970 
 15 C       -0.4090     7.0550    -0.4860 C.3   1 <1>   0.2000 
 16 C       -1.3090     7.6900     1.5870 C.3   1 <1>   0.1200 
 17 O       -0.5380     8.2180    -1.2610 O.3   1 <1>  -0.5600 
 18 C        0.6820     7.2300     0.5860 C.3   1 <1>   0.1200 
 19 O        0.0340     7.3990     1.8170 O.3   1 <1>  -0.5600 
 20 C        0.3970     8.3520    -2.2870 C.3   1 <1>   0.0400 
 21 H       -1.3820     3.5030     2.3750 H     1 <1>   0.1500 
 22 H       -3.1090    -0.3700     2.2400 H     1 <1>   0.1500 
 23 H       -4.4210     0.2590     0.2400 H     1 <1>   0.1500 
 24 H       -4.9920     1.9290    -1.3710 H     1 <1>   0.4570 
 25 H       -1.2840     5.2340     1.5250 H     1 <1>   0.4000 
 26 H       -3.3920     5.7670    -1.4150 H     1 <1>   0.1500 
 27 H       -2.5450     7.2990    -0.1490 H     1 <1>   0.0800 
 28 H       -4.9620     5.1620    -3.0820 H     1 <1>   0.0800 
 29 H       -6.1740     4.0420    -2.5260 H     1 <1>   0.0800 
 30 H       -4.8640     3.4880    -3.5520 H     1 <1>   0.0800 
 31 H       -0.2410     6.2140    -1.1350 H     1 <1>   0.0800 
 32 H       -1.8960     7.4200     2.4460 H     1 <1>   0.0800 
 33 H       -1.3920     8.7470     1.3990 H     1 <1>   0.0800 
 34 H        1.2950     8.0940     0.4010 H     1 <1>   0.0800 
 35 H        1.2950     6.3500     0.6610 H     1 <1>   0.0800 
 36 H        0.1930     9.2720    -2.8060 H     1 <1>   0.0800 
 37 H        0.3000     7.5250    -2.9690 H     1 <1>   0.0800 
 38 H        1.3890     8.3870    -1.8720 H     1 <1>   0.0800 
@<TRIPOS>BOND
  1   1   2  1   
  2   2   3  ar  
  3   2   4  ar  
  4   3   5  ar  
  5   3  21  1   
  6   4   6  ar  
  7   4  22  1   
  8   5   7  ar  
  9   5   8  ar  
 10   6   7  ar  
 11   6  23  1   
 12   7   9  ar  
 13   8  10  1   
 14   8  11  ar  
 15   9  12  ar  
 16   9  24  1   
 17  10  13  1   
 18  10  25  1   
 19  11  12  ar  
 20  11  26  1   
 21  12  14  1   
 22  13  15  1   
 23  13  16  1   
 24  13  27  1   
 25  14  28  1   
 26  14  29  1   
 27  14  30  1   
 28  15  17  1   
 29  15  18  1   
 30  15  31  1   
 31  16  19  1   
 32  16  32  1   
 33  16  33  1   
 34  17  20  1   
 35  18  19  1   
 36  18  34  1   
 37  18  35  1   
 38  20  36  1   
 39  20  37  1   
 40  20  38  1   
@<TRIPOS>SUBSTRUCTURE
  1 ****   8 GROUP 4 **** **** 0

# MOE 2024.06 (io_trps.svl 2023.06)
