@<TRIPOS>MOLECULE
NONAME
43 45 1 0 0 
SMALL
USER_CHARGES


@<TRIPOS>ATOM
  1 S       -0.7350     0.6650     1.0190 S.3   1 <1>  -0.2860 
  2 C        0.0180    -0.9200     0.6470 C.2   1 <1>   0.2420 
  3 C        0.5590     1.5860     1.9880 C.3   1 <1>   0.1310 
  4 N       -0.6250    -1.8380    -0.0580 N.pl3 1 <1>   0.0330 
  5 N        1.1970    -1.2870     1.0050 N.2   1 <1>  -0.3380 
  6 C        1.0750     2.7780     1.1900 C.2   1 <1>   0.5690 
  7 C        0.2720    -2.8270    -0.1200 C.2   1 <1>   0.0060 
  8 N        1.3600    -2.5180     0.5050 N.2   1 <1>  -0.3380 
  9 O        0.6300     3.8650     1.4780 O.2   1 <1>  -0.5700 
 10 N        2.0190     2.6380     0.1990 N.am  1 <1>  -0.6600 
 11 C        0.0270    -4.1450    -0.8340 C.3   1 <1>   0.0200 
 12 C        2.3790     3.8050    -0.6710 C.3   1 <1>   0.1400 
 13 C        2.6350     1.3350    -0.1900 C.3   1 <1>   0.0600 
 14 C       -0.1230    -3.9440    -2.3460 C.3   1 <1>  -0.2400 
 15 C        3.2000     4.8700     0.0740 C.3   1 <1>   0.2000 
 16 O        3.6500     5.8330    -0.8740 O.3   1 <1>  -0.3630 
 17 C        4.4640     4.3390     0.7860 C.3   1 <1>  -0.0170 
 18 C        4.9720     6.0240    -0.7400 C.ar  1 <1>   0.0830 
 19 C        5.5370     5.2080     0.2030 C.ar  1 <1>  -0.1430 
 20 C        5.7280     6.9340    -1.4550 C.ar  1 <1>  -0.1500 
 21 C        6.8910     5.2750     0.4720 C.ar  1 <1>  -0.1500 
 22 C        7.0880     7.0090    -1.1940 C.ar  1 <1>  -0.1500 
 23 C        7.6650     6.1840    -0.2350 C.ar  1 <1>  -0.1500 
 24 H        1.3490     0.9110     2.2500 H     1 <1>   0.0800 
 25 H        0.0790     1.9310     2.8840 H     1 <1>   0.0800 
 26 H       -1.5650    -1.7780    -0.4480 H     1 <1>   0.2700 
 27 H       -0.8550    -4.6110    -0.4340 H     1 <1>   0.0800 
 28 H        0.8600    -4.8010    -0.6460 H     1 <1>   0.0800 
 29 H        1.4720     4.2610    -1.0270 H     1 <1>   0.0800 
 30 H        2.9400     3.4640    -1.5240 H     1 <1>   0.0800 
 31 H        2.8750     0.7540     0.6820 H     1 <1>   0.0800 
 32 H        3.5460     1.4960    -0.7400 H     1 <1>   0.0800 
 33 H        1.9510     0.7800    -0.8080 H     1 <1>   0.0800 
 34 H       -0.9750    -3.3270    -2.5670 H     1 <1>   0.0800 
 35 H       -0.2520    -4.8950    -2.8310 H     1 <1>   0.0800 
 36 H        0.7600    -3.4740    -2.7430 H     1 <1>   0.0800 
 37 H        2.5740     5.3930     0.7760 H     1 <1>   0.0800 
 38 H        4.6540     3.3060     0.5590 H     1 <1>   0.0800 
 39 H        4.3820     4.4660     1.8490 H     1 <1>   0.0800 
 40 H        5.2590     7.5620    -2.1900 H     1 <1>   0.1500 
 41 H        7.3360     4.6350     1.2140 H     1 <1>   0.1500 
 42 H        7.6980     7.7100    -1.7360 H     1 <1>   0.1500 
 43 H        8.7210     6.2510    -0.0400 H     1 <1>   0.1500 
@<TRIPOS>BOND
  1   1   2  1   
  2   1   3  1   
  3   2   4  1   
  4   2   5  2   
  5   3   6  1   
  6   3  24  1   
  7   3  25  1   
  8   4   7  1   
  9   4  26  1   
 10   5   8  1   
 11   6   9  2   
 12   6  10  am  
 13   7   8  2   
 14   7  11  1   
 15  10  12  1   
 16  10  13  1   
 17  11  14  1   
 18  11  27  1   
 19  11  28  1   
 20  12  15  1   
 21  12  29  1   
 22  12  30  1   
 23  13  31  1   
 24  13  32  1   
 25  13  33  1   
 26  14  34  1   
 27  14  35  1   
 28  14  36  1   
 29  15  16  1   
 30  15  17  1   
 31  15  37  1   
 32  16  18  1   
 33  17  19  1   
 34  17  38  1   
 35  17  39  1   
 36  18  19  ar  
 37  18  20  ar  
 38  19  21  ar  
 39  20  22  ar  
 40  20  40  1   
 41  21  23  ar  
 42  21  41  1   
 43  22  23  ar  
 44  22  42  1   
 45  23  43  1   
@<TRIPOS>SUBSTRUCTURE
  1 ****  10 GROUP 4 **** **** 0

# MOE 2024.06 (io_trps.svl 2023.06)
