@<TRIPOS>MOLECULE
NONAME
56 59 1 0 0 
SMALL
USER_CHARGES


@<TRIPOS>ATOM
  1 O        2.4090     2.2290    -1.6280 O.co2 1 <1>  -0.9000 
  2 C        2.5740     1.2310    -0.9200 C.2   1 <1>   0.9060 
  3 O        1.9740     1.1030     0.1510 O.co2 1 <1>  -0.9000 
  4 C        3.8040     0.3350    -1.1770 C.3   1 <1>  -0.1060 
  5 C        4.7100     0.5730     0.0450 C.3   1 <1>   0.4230 
  6 C        4.5950     0.7910    -2.4450 C.3   1 <1>  -0.1600 
  7 C        3.4400    -1.1650    -1.3330 C.3   1 <1>  -0.1600 
  8 N        4.0970    -0.0400     1.2760 N.4   1 <1>  -0.9590 
  9 C        4.9640     2.1050     0.1840 C.3   1 <1>   0.3430 
 10 C        5.4190     2.0850    -2.2870 C.3   1 <1>   0.3430 
 11 C        2.9660    -1.8050    -0.0190 C.3   1 <1>  -0.1600 
 12 C        3.9090    -1.5080     1.1480 C.3   1 <1>   0.3430 
 13 C        4.7590     0.3310     2.5610 C.3   1 <1>   0.2630 
 14 N        4.9570     2.8780    -1.1240 N.4   1 <1>  -0.9590 
 15 C        5.5790     4.2320    -1.0620 C.3   1 <1>   0.4860 
 16 C        5.7620     4.6740     0.3850 C.ar  1 <1>  -0.1440 
 17 C        6.9900     4.6130     1.0510 C.ar  1 <1>  -0.1440 
 18 C        4.6290     5.1100     1.0610 C.ar  1 <1>  -0.1500 
 19 C        7.0360     4.9680     2.3930 C.ar  1 <1>  -0.1500 
 20 C        8.3250     4.2210     0.3970 C.3   1 <1>   0.2390 
 21 C        4.6960     5.4650     2.3940 C.ar  1 <1>  -0.1500 
 22 C        5.9010     5.3880     3.0620 C.ar  1 <1>  -0.1500 
 23 N        8.3590     2.9090    -0.3070 N.pl3 1 <1>   0.3140 
 24 N        7.9970     1.7240     0.2430 N.2   1 <1>  -0.7070 
 25 C        8.8930     2.7170    -1.5320 C.2   1 <1>  -0.3020 
 26 C        8.3540     0.8250    -0.6250 C.2   1 <1>   0.1390 
 27 C        8.9080     1.3880    -1.7650 C.2   1 <1>  -0.1500 
 28 H        5.6600     0.0990    -0.1330 H     1 <1>   0.0800 
 29 H        3.9010     0.9270    -3.2570 H     1 <1>   0.0800 
 30 H        5.2770     0.0230    -2.7610 H     1 <1>   0.0800 
 31 H        2.6680    -1.2710    -2.0780 H     1 <1>   0.0800 
 32 H        4.2980    -1.7170    -1.6760 H     1 <1>   0.0800 
 33 H        3.1160     0.3560     1.2520 H     1 <1>   0.4500 
 34 H        5.8880     2.2570     0.7060 H     1 <1>   0.0800 
 35 H        4.1780     2.5100     0.8010 H     1 <1>   0.0800 
 36 H        5.3330     2.6680    -3.1900 H     1 <1>   0.0800 
 37 H        6.4570     1.8310    -2.1490 H     1 <1>   0.0800 
 38 H        2.8900    -2.8700    -0.1480 H     1 <1>   0.0800 
 39 H        1.9790    -1.4490     0.2280 H     1 <1>   0.0800 
 40 H        4.8600    -1.9870     0.9810 H     1 <1>   0.0800 
 41 H        3.4800    -1.9030     2.0550 H     1 <1>   0.0800 
 42 H        5.7820    -0.0070     2.5680 H     1 <1>   0.0800 
 43 H        4.2370    -0.1210     3.3890 H     1 <1>   0.0800 
 44 H        4.7430     1.4000     2.6980 H     1 <1>   0.0800 
 45 H        3.9280     3.0160    -1.3250 H     1 <1>   0.4500 
 46 H        6.5370     4.2150    -1.5520 H     1 <1>   0.0800 
 47 H        4.9530     4.9400    -1.5800 H     1 <1>   0.0800 
 48 H        3.6760     5.1670     0.5580 H     1 <1>   0.1500 
 49 H        7.9630     4.9300     2.9410 H     1 <1>   0.1500 
 50 H        9.0950     4.1880     1.1460 H     1 <1>   0.0800 
 51 H        8.6020     4.9860    -0.3040 H     1 <1>   0.0800 
 52 H        3.8120     5.8000     2.9100 H     1 <1>   0.1500 
 53 H        5.9570     5.6640     4.1020 H     1 <1>   0.1500 
 54 H        9.2590     3.5150    -2.1540 H     1 <1>   0.1500 
 55 H        8.2400    -0.2370    -0.4720 H     1 <1>   0.1500 
 56 H        9.2800     0.8540    -2.6240 H     1 <1>   0.1500 
@<TRIPOS>BOND
  1   1   2  ar  
  2   2   3  ar  
  3   2   4  1   
  4   4   5  1   
  5   4   6  1   
  6   4   7  1   
  7   5   8  1   
  8   5   9  1   
  9   5  28  1   
 10   6  10  1   
 11   6  29  1   
 12   6  30  1   
 13   7  11  1   
 14   7  31  1   
 15   7  32  1   
 16   8  12  1   
 17   8  13  1   
 18   8  33  1   
 19   9  14  1   
 20   9  34  1   
 21   9  35  1   
 22  10  14  1   
 23  10  36  1   
 24  10  37  1   
 25  11  12  1   
 26  11  38  1   
 27  11  39  1   
 28  12  40  1   
 29  12  41  1   
 30  13  42  1   
 31  13  43  1   
 32  13  44  1   
 33  14  15  1   
 34  14  45  1   
 35  15  16  1   
 36  15  46  1   
 37  15  47  1   
 38  16  17  ar  
 39  16  18  ar  
 40  17  19  ar  
 41  17  20  1   
 42  18  21  ar  
 43  18  48  1   
 44  19  22  ar  
 45  19  49  1   
 46  20  23  1   
 47  20  50  1   
 48  20  51  1   
 49  21  22  ar  
 50  21  52  1   
 51  22  53  1   
 52  23  24  1   
 53  23  25  1   
 54  24  26  2   
 55  25  27  2   
 56  25  54  1   
 57  26  27  1   
 58  26  55  1   
 59  27  56  1   
@<TRIPOS>SUBSTRUCTURE
  1 ****   9 GROUP 4 **** **** 0

# MOE 2024.06 (io_trps.svl 2023.06)
