@<TRIPOS>MOLECULE
NONAME
39 40 1 0 0 
SMALL
USER_CHARGES


@<TRIPOS>ATOM
  1 N       -0.2230     1.0960     2.1210 N.1   1 <1>  -0.5570 
  2 C       -1.1230     1.5650     1.5980 C.1   1 <1>   0.4840 
  3 C       -2.2740     2.1100     0.9480 C.ar  1 <1>   0.0730 
  4 C       -2.1710     3.2150     0.0930 C.ar  1 <1>   0.4100 
  5 C       -3.5210     1.5570     1.1670 C.ar  1 <1>  -0.1500 
  6 N       -3.2230     3.7710    -0.4980 N.ar  1 <1>  -0.6200 
  7 N       -0.9480     3.8120    -0.1870 N.pl3 1 <1>  -0.8380 
  8 C       -4.6120     2.1260     0.5420 C.ar  1 <1>  -0.1430 
  9 C       -4.4050     3.2340    -0.2730 C.ar  1 <1>   0.1670 
 10 C       -0.8590     5.3060    -0.2720 C.3   1 <1>   0.2090 
 11 C       -0.0040     3.0870    -1.0820 C.3   1 <1>   0.2090 
 12 C       -5.9930     1.5200     0.7670 C.3   1 <1>  -0.0960 
 13 C       -5.5590     3.9180    -0.9840 C.3   1 <1>  -0.0970 
 14 C       -1.3690     5.9570     1.0130 C.3   1 <1>   0.0960 
 15 C       -0.3820     3.3040    -2.5450 C.3   1 <1>  -0.2400 
 16 N       -0.9750     7.3760     1.0610 N.pl3 1 <1>   0.3140 
 17 N       -1.1150     8.2090     0.0100 N.2   1 <1>  -0.7070 
 18 C       -0.4400     8.0190     2.1190 C.2   1 <1>  -0.3020 
 19 C       -0.6690     9.3540     0.4280 C.2   1 <1>   0.1390 
 20 C       -0.2300     9.2980     1.7440 C.2   1 <1>  -0.1500 
 21 H       -3.6320     0.7040     1.8140 H     1 <1>   0.1500 
 22 H       -1.4390     5.6590    -1.1090 H     1 <1>   0.0800 
 23 H        0.1690     5.5900    -0.4230 H     1 <1>   0.0800 
 24 H       -0.0330     2.0330    -0.8650 H     1 <1>   0.0800 
 25 H        1.0000     3.4320    -0.9020 H     1 <1>   0.0800 
 26 H       -5.9230     0.5810     1.2870 H     1 <1>   0.0800 
 27 H       -6.4810     1.3440    -0.1740 H     1 <1>   0.0800 
 28 H       -6.5960     2.1890     1.3550 H     1 <1>   0.0800 
 29 H       -5.2740     4.9120    -1.2810 H     1 <1>   0.0800 
 30 H       -6.4150     3.9960    -0.3410 H     1 <1>   0.0800 
 31 H       -5.8200     3.3610    -1.8640 H     1 <1>   0.0800 
 32 H       -0.9470     5.4560     1.8630 H     1 <1>   0.0800 
 33 H       -2.4400     5.9000     1.0530 H     1 <1>   0.0800 
 34 H       -1.3960     2.9900    -2.7160 H     1 <1>   0.0800 
 35 H        0.2660     2.7230    -3.1750 H     1 <1>   0.0800 
 36 H       -0.2800     4.3380    -2.8170 H     1 <1>   0.0800 
 37 H       -0.2430     7.5410     3.0610 H     1 <1>   0.1500 
 38 H       -0.6470    10.2400    -0.1850 H     1 <1>   0.1500 
 39 H        0.1800    10.1140     2.3120 H     1 <1>   0.1500 
@<TRIPOS>BOND
  1   1   2  3   
  2   2   3  1   
  3   3   4  ar  
  4   3   5  ar  
  5   4   6  ar  
  6   4   7  1   
  7   5   8  ar  
  8   5  21  1   
  9   6   9  ar  
 10   7  10  1   
 11   7  11  1   
 12   8   9  ar  
 13   8  12  1   
 14   9  13  1   
 15  10  14  1   
 16  10  22  1   
 17  10  23  1   
 18  11  15  1   
 19  11  24  1   
 20  11  25  1   
 21  12  26  1   
 22  12  27  1   
 23  12  28  1   
 24  13  29  1   
 25  13  30  1   
 26  13  31  1   
 27  14  16  1   
 28  14  32  1   
 29  14  33  1   
 30  15  34  1   
 31  15  35  1   
 32  15  36  1   
 33  16  17  1   
 34  16  18  1   
 35  17  19  2   
 36  18  20  2   
 37  18  37  1   
 38  19  20  1   
 39  19  38  1   
 40  20  39  1   
@<TRIPOS>SUBSTRUCTURE
  1 ****   4 GROUP 4 **** **** 0

# MOE 2024.06 (io_trps.svl 2023.06)
