@<TRIPOS>MOLECULE
NONAME
49 52 1 0 0 
SMALL
USER_CHARGES


@<TRIPOS>ATOM
  1 CL       0.0730    -1.8230    -1.1720 Cl    1 <1>  -0.1770 
  2 C        1.5970    -1.1280    -0.6550 C.ar  1 <1>   0.1770 
  3 C        2.3600    -1.7410     0.3440 C.ar  1 <1>   0.0530 
  4 C        1.9940     0.0490    -1.2610 C.ar  1 <1>  -0.1500 
  5 C        1.9700    -2.9730     0.9840 C.2   1 <1>   0.0870 
  6 C        3.5450    -1.1050     0.7160 C.ar  1 <1>  -0.1500 
  7 C        3.1770     0.6540    -0.8760 C.ar  1 <1>  -0.1500 
  8 O        1.4840    -3.9720     0.2650 O.3   1 <1>  -0.2800 
  9 C        2.0000    -3.3550     2.2880 C.2   1 <1>  -0.1500 
 10 C        3.9500     0.0740     0.1160 C.ar  1 <1>  -0.1500 
 11 C        1.1690    -4.9650     1.0670 C.2   1 <1>  -0.0400 
 12 C        1.4740    -4.6480     2.3440 C.2   1 <1>  -0.1500 
 13 C        0.5270    -6.1870     0.4420 C.3   1 <1>   0.5230 
 14 N       -0.5220    -5.7140    -0.5090 N.4   1 <1>  -0.9590 
 15 C       -1.6330    -5.0030     0.2000 C.3   1 <1>   0.4230 
 16 C       -0.9170    -6.7810    -1.4760 C.3   1 <1>   0.2630 
 17 C       -2.5720    -5.9500     0.9530 C.3   1 <1>  -0.1600 
 18 C       -2.5360    -4.2640    -0.7880 C.3   1 <1>  -0.1600 
 19 C       -3.7380    -6.2680     0.0040 C.3   1 <1>  -0.0800 
 20 C       -3.7310    -5.1850    -1.0820 C.3   1 <1>  -0.0800 
 21 C       -5.1330    -6.2430     0.6450 C.3   1 <1>  -0.1600 
 22 C       -5.1080    -4.5080    -1.0340 C.3   1 <1>  -0.1600 
 23 C       -6.0120    -5.5490    -0.3870 C.3   1 <1>   0.2000 
 24 O       -7.0810    -4.9390     0.2270 O.3   1 <1>  -0.6800 
 25 H        1.3810     0.4910    -2.0270 H     1 <1>   0.1500 
 26 H        4.1600    -1.5440     1.4820 H     1 <1>   0.1500 
 27 H        3.4950     1.5710    -1.3430 H     1 <1>   0.1500 
 28 H        2.3460    -2.7840     3.1330 H     1 <1>   0.1500 
 29 H        4.8710     0.5440     0.4190 H     1 <1>   0.1500 
 30 H        1.3500    -5.2250     3.2460 H     1 <1>   0.1500 
 31 H        0.1040    -6.8230     1.2010 H     1 <1>   0.0800 
 32 H        1.2830    -6.7370    -0.0930 H     1 <1>   0.0800 
 33 H       -0.0360    -4.9630    -1.0290 H     1 <1>   0.4500 
 34 H       -1.2070    -4.2870     0.8860 H     1 <1>   0.0800 
 35 H       -1.4190    -7.5850    -0.9640 H     1 <1>   0.0800 
 36 H       -0.0460    -7.1770    -1.9740 H     1 <1>   0.0800 
 37 H       -1.5810    -6.3800    -2.2230 H     1 <1>   0.0800 
 38 H       -2.0900    -6.8400     1.3120 H     1 <1>   0.0800 
 39 H       -2.9430    -5.4100     1.8060 H     1 <1>   0.0800 
 40 H       -2.8790    -3.3700    -0.2970 H     1 <1>   0.0800 
 41 H       -2.0210    -3.9670    -1.6840 H     1 <1>   0.0800 
 42 H       -3.5870    -7.2270    -0.4640 H     1 <1>   0.0800 
 43 H       -3.6110    -5.6570    -2.0430 H     1 <1>   0.0800 
 44 H       -5.1280    -5.6700     1.5560 H     1 <1>   0.0800 
 45 H       -5.4920    -7.2360     0.8510 H     1 <1>   0.0800 
 46 H       -5.4570    -4.2490    -2.0180 H     1 <1>   0.0800 
 47 H       -5.0800    -3.6260    -0.4190 H     1 <1>   0.0800 
 48 H       -6.3820    -6.2500    -1.1170 H     1 <1>   0.0800 
 49 H       -6.7730    -4.2830     0.8790 H     1 <1>   0.4000 
@<TRIPOS>BOND
  1   1   2  1   
  2   2   3  ar  
  3   2   4  ar  
  4   3   5  1   
  5   3   6  ar  
  6   4   7  ar  
  7   4  25  1   
  8   5   8  1   
  9   5   9  2   
 10   6  10  ar  
 11   6  26  1   
 12   7  10  ar  
 13   7  27  1   
 14   8  11  1   
 15   9  12  1   
 16   9  28  1   
 17  10  29  1   
 18  11  12  2   
 19  11  13  1   
 20  12  30  1   
 21  13  14  1   
 22  13  31  1   
 23  13  32  1   
 24  14  15  1   
 25  14  16  1   
 26  14  33  1   
 27  15  17  1   
 28  15  18  1   
 29  15  34  1   
 30  16  35  1   
 31  16  36  1   
 32  16  37  1   
 33  17  19  1   
 34  17  38  1   
 35  17  39  1   
 36  18  20  1   
 37  18  40  1   
 38  18  41  1   
 39  19  20  1   
 40  19  21  1   
 41  19  42  1   
 42  20  22  1   
 43  20  43  1   
 44  21  23  1   
 45  21  44  1   
 46  21  45  1   
 47  22  23  1   
 48  22  46  1   
 49  22  47  1   
 50  23  24  1   
 51  23  48  1   
 52  24  49  1   
@<TRIPOS>SUBSTRUCTURE
  1 ****  15 GROUP 4 **** **** 0

# MOE 2024.06 (io_trps.svl 2023.06)
