@<TRIPOS>MOLECULE
Untitled Document
51 53 1 0 0 
SMALL
USER_CHARGES


@<TRIPOS>ATOM
  1 CL       0.9830     4.5550     1.8450 Cl    1 <1>  -0.1770 
  2 C        2.6390     4.0400     1.6500 C.ar  1 <1>   0.1770 
  3 C        3.6720     4.8510     2.0770 C.ar  1 <1>  -0.1500 
  4 C        2.8960     2.8150     1.0650 C.ar  1 <1>  -0.1500 
  5 C        4.9790     4.4220     1.9170 C.ar  1 <1>  -0.1500 
  6 C        4.2090     2.4010     0.9080 C.ar  1 <1>  -0.1500 
  7 C        5.2720     3.1930     1.3330 C.ar  1 <1>  -0.0090 
  8 S        6.9870     2.6550     1.0870 S.o2  1 <1>   1.4470 
  9 O        7.0550     1.2120     1.0060 O.2   1 <1>  -0.6500 
 10 O        7.8890     3.3540     1.9730 O.2   1 <1>  -0.6500 
 11 N        7.3250     3.2190    -0.4560 N.am  1 <1>  -0.9140 
 12 C        8.7510     3.1880    -0.7490 C.3   1 <1>   0.1960 
 13 C        9.0820     3.6520    -2.1950 C.3   1 <1>   0.0000 
 14 C        8.8720     2.4830    -3.1720 C.3   1 <1>  -0.1600 
 15 C       10.6000     3.8780    -2.3080 C.3   1 <1>  -0.1600 
 16 C        8.2720     4.8960    -2.6630 C.3   1 <1>  -0.0170 
 17 C       10.1240     1.6050    -3.0760 C.3   1 <1>  -0.1600 
 18 C       11.2210     2.4890    -2.4740 C.3   1 <1>  -0.1600 
 19 C        7.8720     5.8820    -1.5680 C.ar  1 <1>  -0.1430 
 20 C        8.8120     6.5240    -0.7790 C.ar  1 <1>  -0.1500 
 21 C        6.5250     6.1210    -1.3370 C.ar  1 <1>  -0.1500 
 22 C        8.4090     7.3650     0.2460 C.ar  1 <1>  -0.1500 
 23 C        6.1250     6.9660    -0.3190 C.ar  1 <1>  -0.1500 
 24 C        7.0630     7.5870     0.4870 C.ar  1 <1>  -0.1430 
 25 C        6.6140     8.5120     1.6190 C.3   1 <1>  -0.1230 
 26 C        5.4530     7.9810     2.4380 C.2   1 <1>   0.9060 
 27 O        5.6860     7.3330     3.4630 O.co2 1 <1>  -0.9000 
 28 O        4.2980     8.2140     2.0630 O.co2 1 <1>  -0.9000 
 29 H        3.4710     5.8120     2.5280 H     1 <1>   0.1500 
 30 H        2.0780     2.2000     0.7380 H     1 <1>   0.1500 
 31 H        5.7760     5.0670     2.2580 H     1 <1>   0.1500 
 32 H        4.4160     1.4480     0.4480 H     1 <1>   0.1500 
 33 H        7.1150     4.2220    -0.4040 H     1 <1>   0.4200 
 34 H        9.1230     2.1900    -0.5870 H     1 <1>   0.0800 
 35 H        9.2570     3.8360    -0.0520 H     1 <1>   0.0800 
 36 H        8.8000     2.8590    -4.1790 H     1 <1>   0.0800 
 37 H        7.9770     1.9270    -2.9500 H     1 <1>   0.0800 
 38 H       11.0110     4.3930    -1.4580 H     1 <1>   0.0800 
 39 H       10.8220     4.4500    -3.1920 H     1 <1>   0.0800 
 40 H        7.3670     4.5400    -3.1230 H     1 <1>   0.0800 
 41 H        8.8060     5.4280    -3.4300 H     1 <1>   0.0800 
 42 H       10.4060     1.2380    -4.0470 H     1 <1>   0.0800 
 43 H        9.9380     0.7640    -2.4290 H     1 <1>   0.0800 
 44 H       11.5110     2.0990    -1.5130 H     1 <1>   0.0800 
 45 H       12.0900     2.5260    -3.1090 H     1 <1>   0.0800 
 46 H        9.8620     6.3720    -0.9470 H     1 <1>   0.1500 
 47 H        5.7680     5.6500    -1.9400 H     1 <1>   0.1500 
 48 H        9.1470     7.8470     0.8620 H     1 <1>   0.1500 
 49 H        5.0740     7.1390    -0.1460 H     1 <1>   0.1500 
 50 H        6.3130     9.4540     1.2050 H     1 <1>   0.0800 
 51 H        7.4250     8.6880     2.2970 H     1 <1>   0.0800 
@<TRIPOS>BOND
  1   1   2  1   
  2   2   3  ar  
  3   2   4  ar  
  4   3   5  ar  
  5   3  29  1   
  6   4   6  ar  
  7   4  30  1   
  8   5   7  ar  
  9   5  31  1   
 10   6   7  ar  
 11   6  32  1   
 12   7   8  1   
 13   8   9  2   
 14   8  10  2   
 15   8  11  am  
 16  11  12  1   
 17  11  33  1   
 18  12  13  1   
 19  12  34  1   
 20  12  35  1   
 21  13  14  1   
 22  13  15  1   
 23  13  16  1   
 24  14  17  1   
 25  14  36  1   
 26  14  37  1   
 27  15  18  1   
 28  15  38  1   
 29  15  39  1   
 30  16  19  1   
 31  16  40  1   
 32  16  41  1   
 33  17  18  1   
 34  17  42  1   
 35  17  43  1   
 36  18  44  1   
 37  18  45  1   
 38  19  20  ar  
 39  19  21  ar  
 40  20  22  ar  
 41  20  46  1   
 42  21  23  ar  
 43  21  47  1   
 44  22  24  ar  
 45  22  48  1   
 46  23  24  ar  
 47  23  49  1   
 48  24  25  1   
 49  25  26  1   
 50  25  50  1   
 51  25  51  1   
 52  26  27  ar  
 53  26  28  ar  
@<TRIPOS>SUBSTRUCTURE
  1 ****  11 GROUP 4 **** **** 0

# MOE 2024.06 (io_trps.svl 2023.06)
