@<TRIPOS>MOLECULE
NONAME
61 65 1 0 0 
SMALL
USER_CHARGES


@<TRIPOS>ATOM
  1 O       -0.5970     0.2420     0.8530 O.2   1 <1>  -0.5700 
  2 C       -1.5890     0.9000     0.5980 C.2   1 <1>   0.5440 
  3 N       -2.7740     0.2360     0.3660 N.am  1 <1>  -0.6600 
  4 C       -1.4990     2.3420     0.5210 C.ar  1 <1>   0.0860 
  5 C       -3.9240     0.8160    -0.3760 C.3   1 <1>   0.1400 
  6 C       -2.8670    -1.2480     0.3700 C.3   1 <1>   0.1400 
  7 C       -0.5420     2.9570    -0.2870 C.ar  1 <1>  -0.1500 
  8 C       -2.3550     3.1730     1.2450 C.ar  1 <1>  -0.1500 
  9 C       -4.9270    -0.3300    -0.4890 C.3   1 <1>   0.2000 
 10 C       -4.0440    -1.5820    -0.5560 C.3   1 <1>  -0.0800 
 11 C       -0.4490     4.3320    -0.3950 C.ar  1 <1>  -0.1440 
 12 C       -2.2700     4.5460     1.1460 C.ar  1 <1>  -0.1500 
 13 O       -5.6840    -0.3540     0.6740 O.3   1 <1>  -0.6800 
 14 C       -4.7690    -2.8990    -0.2090 C.3   1 <1>  -0.0170 
 15 C       -1.3240     5.1480     0.3240 C.ar  1 <1>   0.1000 
 16 C        0.6100     4.9500    -1.2960 C.3   1 <1>  -0.0970 
 17 C       -3.9750    -4.1980    -0.4030 C.ar  1 <1>  -0.1430 
 18 N       -1.2510     6.5290     0.2360 N.pl3 1 <1>  -0.8380 
 19 C       -4.5090    -5.4230     0.0690 C.ar  1 <1>   0.0000 
 20 C       -2.7590    -4.2550    -1.0270 C.ar  1 <1>  -0.1500 
 21 C       -0.6270     7.2530     1.3800 C.3   1 <1>   0.2090 
 22 C       -2.4200     7.2610    -0.3310 C.3   1 <1>   0.2090 
 23 C       -3.7420    -6.6000    -0.1140 C.ar  1 <1>   0.3100 
 24 C       -5.7660    -5.5510     0.7090 C.ar  1 <1>  -0.1500 
 25 C       -2.0840    -5.4750    -1.1600 C.ar  1 <1>   0.1600 
 26 C       -0.3650     8.7250     1.0150 C.3   1 <1>   0.1200 
 27 C       -2.0580     8.7310    -0.6060 C.3   1 <1>   0.1200 
 28 N       -2.5340    -6.6090    -0.7280 N.ar  1 <1>  -0.6200 
 29 C       -4.2460    -7.8240     0.3540 C.ar  1 <1>  -0.1500 
 30 C       -6.2300    -6.7600     1.1510 C.ar  1 <1>  -0.1500 
 31 O       -1.5310     9.3430     0.5410 O.3   1 <1>  -0.5600 
 32 C       -5.4620    -7.9130     0.9750 C.ar  1 <1>  -0.1500 
 33 H       -4.3510     1.6630     0.1330 H     1 <1>   0.0800 
 34 H       -3.5930     1.1140    -1.3560 H     1 <1>   0.0800 
 35 H       -1.9490    -1.6920     0.0250 H     1 <1>   0.0800 
 36 H       -3.0600    -1.5820     1.3750 H     1 <1>   0.0800 
 37 H        0.1370     2.3260    -0.8330 H     1 <1>   0.1500 
 38 H       -3.0860     2.7280     1.8960 H     1 <1>   0.1500 
 39 H       -5.5930    -0.2280    -1.3290 H     1 <1>   0.0800 
 40 H       -3.6710    -1.6440    -1.5630 H     1 <1>   0.0800 
 41 H       -2.9360     5.1700     1.7130 H     1 <1>   0.1500 
 42 H       -5.0780    -0.3020     1.4410 H     1 <1>   0.4000 
 43 H       -5.6610    -2.9630    -0.8090 H     1 <1>   0.0800 
 44 H       -5.0770    -2.8490     0.8200 H     1 <1>   0.0800 
 45 H        1.1850     4.1950    -1.8000 H     1 <1>   0.0800 
 46 H        1.2750     5.5570    -0.7090 H     1 <1>   0.0800 
 47 H        0.1380     5.5750    -2.0330 H     1 <1>   0.0800 
 48 H       -2.2720    -3.3930    -1.4380 H     1 <1>   0.1500 
 49 H       -1.2800     7.2090     2.2340 H     1 <1>   0.0800 
 50 H        0.3000     6.7740     1.6400 H     1 <1>   0.0800 
 51 H       -2.7260     6.7860    -1.2470 H     1 <1>   0.0800 
 52 H       -3.2420     7.2230     0.3610 H     1 <1>   0.0800 
 53 H       -6.3810    -4.6830     0.8530 H     1 <1>   0.1500 
 54 H       -1.1280    -5.4670    -1.6540 H     1 <1>   0.1500 
 55 H        0.3930     8.7900     0.2540 H     1 <1>   0.0800 
 56 H       -0.0340     9.2680     1.8820 H     1 <1>   0.0800 
 57 H       -2.9340     9.2810    -0.8980 H     1 <1>   0.0800 
 58 H       -1.3290     8.7940    -1.3950 H     1 <1>   0.0800 
 59 H       -3.6380    -8.6970     0.2040 H     1 <1>   0.1500 
 60 H       -7.1870    -6.8400     1.6370 H     1 <1>   0.1500 
 61 H       -5.8360    -8.8590     1.3280 H     1 <1>   0.1500 
@<TRIPOS>BOND
  1   1   2  2   
  2   2   3  am  
  3   2   4  1   
  4   3   5  1   
  5   3   6  1   
  6   4   7  ar  
  7   4   8  ar  
  8   5   9  1   
  9   5  33  1   
 10   5  34  1   
 11   6  10  1   
 12   6  35  1   
 13   6  36  1   
 14   7  11  ar  
 15   7  37  1   
 16   8  12  ar  
 17   8  38  1   
 18   9  10  1   
 19   9  13  1   
 20   9  39  1   
 21  10  14  1   
 22  10  40  1   
 23  11  15  ar  
 24  11  16  1   
 25  12  15  ar  
 26  12  41  1   
 27  13  42  1   
 28  14  17  1   
 29  14  43  1   
 30  14  44  1   
 31  15  18  1   
 32  16  45  1   
 33  16  46  1   
 34  16  47  1   
 35  17  19  ar  
 36  17  20  ar  
 37  18  21  1   
 38  18  22  1   
 39  19  23  ar  
 40  19  24  ar  
 41  20  25  ar  
 42  20  48  1   
 43  21  26  1   
 44  21  49  1   
 45  21  50  1   
 46  22  27  1   
 47  22  51  1   
 48  22  52  1   
 49  23  28  ar  
 50  23  29  ar  
 51  24  30  ar  
 52  24  53  1   
 53  25  28  ar  
 54  25  54  1   
 55  26  31  1   
 56  26  55  1   
 57  26  56  1   
 58  27  31  1   
 59  27  57  1   
 60  27  58  1   
 61  29  32  ar  
 62  29  59  1   
 63  30  32  ar  
 64  30  60  1   
 65  32  61  1   
@<TRIPOS>SUBSTRUCTURE
  1 ****   3 GROUP 4 **** **** 0

# MOE 2024.06 (io_trps.svl 2023.06)
