@<TRIPOS>MOLECULE
NONAME
51 54 1 0 0 
SMALL
USER_CHARGES


@<TRIPOS>ATOM
  1 S       -0.8300     1.3950     2.0170 S.3   1 <1>  -0.0800 
  2 C        0.2910     0.2770     1.2710 C.2   1 <1>   0.1980 
  3 C       -0.0010     2.7030     1.2320 C.2   1 <1>  -0.1100 
  4 N        1.1730     0.8400     0.5450 N.2   1 <1>  -0.5650 
  5 C        0.1280    -1.2070     1.5920 C.3   1 <1>   0.2900 
  6 C        1.0250     2.2290     0.4950 C.2   1 <1>   0.1730 
  7 N       -0.7120    -1.9460     0.6150 N.3   1 <1>  -0.8100 
  8 C        1.9460     3.0180    -0.3090 C.ar  1 <1>   0.0540 
  9 C       -0.5070    -3.4030     0.7540 C.3   1 <1>   0.1100 
 10 C       -2.1370    -1.5860     0.7620 C.3   1 <1>   0.1100 
 11 C        3.1810     2.5120    -0.7160 C.ar  1 <1>  -0.1500 
 12 C        1.6320     4.3190    -0.7040 C.ar  1 <1>  -0.1500 
 13 C       -1.3250    -4.1780    -0.3100 C.3   1 <1>   0.4230 
 14 C       -2.9920    -2.3380    -0.2650 C.3   1 <1>  -0.1600 
 15 C        4.0610     3.2640    -1.4730 C.ar  1 <1>  -0.1500 
 16 C        2.5060     5.0790    -1.4600 C.ar  1 <1>  -0.1500 
 17 N       -1.0970    -5.6640    -0.3060 N.4   1 <1>  -0.9590 
 18 C       -2.8250    -3.8740    -0.1420 C.3   1 <1>  -0.1060 
 19 C        3.7250     4.5530    -1.8460 C.ar  1 <1>  -0.1500 
 20 C       -1.8080    -6.3380    -1.4230 C.3   1 <1>   0.3430 
 21 C        0.3180    -6.1010    -0.1850 C.3   1 <1>   0.2630 
 22 C       -3.2880    -4.3750     1.2410 C.2   1 <1>   0.9060 
 23 C       -3.6270    -4.5620    -1.2730 C.3   1 <1>  -0.1600 
 24 C       -3.3120    -6.0640    -1.3450 C.3   1 <1>  -0.1600 
 25 O       -2.7330    -5.3710     1.7370 O.co2 1 <1>  -0.9000 
 26 O       -4.1940    -3.7880     1.8300 O.co2 1 <1>  -0.9000 
 27 H       -0.3650     3.6980     1.4040 H     1 <1>   0.1500 
 28 H       -0.2740    -1.3210     2.5840 H     1 <1>   0.0800 
 29 H        1.1170    -1.6310     1.5890 H     1 <1>   0.0800 
 30 H        0.5380    -3.6040     0.6110 H     1 <1>   0.0800 
 31 H       -0.7890    -3.7160     1.7460 H     1 <1>   0.0800 
 32 H       -2.4800    -1.8140     1.7600 H     1 <1>   0.0800 
 33 H       -2.2650    -0.5310     0.5970 H     1 <1>   0.0800 
 34 H        3.4560     1.5110    -0.4340 H     1 <1>   0.1500 
 35 H        0.6880     4.7470    -0.4230 H     1 <1>   0.1500 
 36 H       -1.0170    -3.7980    -1.2680 H     1 <1>   0.0800 
 37 H       -4.0250    -2.0750    -0.1080 H     1 <1>   0.0800 
 38 H       -2.7170    -2.0010    -1.2490 H     1 <1>   0.0800 
 39 H        5.0060     2.8460    -1.7720 H     1 <1>   0.1500 
 40 H        2.2390     6.0800    -1.7510 H     1 <1>   0.1500 
 41 H       -1.6160    -5.9320     0.5740 H     1 <1>   0.4500 
 42 H        4.4080     5.1410    -2.4350 H     1 <1>   0.1500 
 43 H       -1.4250    -5.9780    -2.3630 H     1 <1>   0.0800 
 44 H       -1.6430    -7.4020    -1.3700 H     1 <1>   0.0800 
 45 H        0.8920    -5.7420    -1.0230 H     1 <1>   0.0800 
 46 H        0.3710    -7.1770    -0.1570 H     1 <1>   0.0800 
 47 H        0.7470    -5.7180     0.7260 H     1 <1>   0.0800 
 48 H       -4.6810    -4.4240    -1.0950 H     1 <1>   0.0800 
 49 H       -3.3890    -4.1060    -2.2180 H     1 <1>   0.0800 
 50 H       -3.7940    -6.4890    -2.2070 H     1 <1>   0.0800 
 51 H       -3.7140    -6.5610    -0.4790 H     1 <1>   0.0800 
@<TRIPOS>BOND
  1   1   2  1   
  2   1   3  1   
  3   2   4  2   
  4   2   5  1   
  5   3   6  2   
  6   3  27  1   
  7   4   6  1   
  8   5   7  1   
  9   5  28  1   
 10   5  29  1   
 11   6   8  1   
 12   7   9  1   
 13   7  10  1   
 14   8  11  ar  
 15   8  12  ar  
 16   9  13  1   
 17   9  30  1   
 18   9  31  1   
 19  10  14  1   
 20  10  32  1   
 21  10  33  1   
 22  11  15  ar  
 23  11  34  1   
 24  12  16  ar  
 25  12  35  1   
 26  13  17  1   
 27  13  18  1   
 28  13  36  1   
 29  14  18  1   
 30  14  37  1   
 31  14  38  1   
 32  15  19  ar  
 33  15  39  1   
 34  16  19  ar  
 35  16  40  1   
 36  17  20  1   
 37  17  21  1   
 38  17  41  1   
 39  18  22  1   
 40  18  23  1   
 41  19  42  1   
 42  20  24  1   
 43  20  43  1   
 44  20  44  1   
 45  21  45  1   
 46  21  46  1   
 47  21  47  1   
 48  22  25  ar  
 49  22  26  ar  
 50  23  24  1   
 51  23  48  1   
 52  23  49  1   
 53  24  50  1   
 54  24  51  1   
@<TRIPOS>SUBSTRUCTURE
  1 ****   7 GROUP 4 **** **** 0

# MOE 2024.06 (io_trps.svl 2023.06)
