@<TRIPOS>MOLECULE
NONAME
43 45 1 0 0 
SMALL
USER_CHARGES


@<TRIPOS>ATOM
  1 S       -0.5060     0.2070    -1.7000 S.o2  1 <1>   1.3330 
  2 O       -1.1210    -0.6560    -2.6810 O.2   1 <1>  -0.6500 
  3 O        0.0420     1.4840    -2.0960 O.2   1 <1>  -0.6500 
  4 N       -1.6260     0.4810    -0.4610 N.am  1 <1>  -0.8490 
  5 C        0.7890    -0.6880    -0.8690 C.3   1 <1>  -0.1350 
  6 C       -2.5440     1.5880    -0.7750 C.3   1 <1>   0.1960 
  7 C       -2.3980    -0.7200    -0.0870 C.3   1 <1>   0.1960 
  8 C       -3.2420     2.0980     0.5080 C.3   1 <1>   0.1440 
  9 C       -3.6010    -0.4000     0.8250 C.3   1 <1>  -0.1600 
 10 C       -4.5330     2.7810     0.0920 C.ar  1 <1>   0.1670 
 11 C       -3.4640     0.9570     1.5330 C.3   1 <1>  -0.1600 
 12 C       -2.4490     3.2660     1.1520 C.3   1 <1>  -0.1600 
 13 N       -5.6250     2.1710    -0.2960 N.ar  1 <1>  -0.6200 
 14 C       -4.4230     4.1370     0.1500 C.ar  1 <1>  -0.1430 
 15 C       -3.0540     4.5720     0.6100 C.3   1 <1>  -0.0170 
 16 C       -6.6420     2.9720    -0.6230 C.ar  1 <1>   0.7200 
 17 C       -5.5190     4.8820    -0.2060 C.ar  1 <1>   0.1600 
 18 N       -6.6350     4.3090    -0.5920 N.ar  1 <1>  -0.6200 
 19 N       -7.8100     2.3610    -1.0350 N.pl3 1 <1>  -0.8380 
 20 C       -7.8520     0.9270    -1.4350 C.3   1 <1>   0.1290 
 21 C       -9.0990     3.0990    -1.1260 C.3   1 <1>   0.1290 
 22 H        1.5930    -0.8820    -1.5520 H     1 <1>   0.0800 
 23 H        0.4220    -1.6240    -0.4980 H     1 <1>   0.0800 
 24 H        1.1670    -0.1100    -0.0490 H     1 <1>   0.0800 
 25 H       -3.2800     1.2430    -1.4840 H     1 <1>   0.0800 
 26 H       -2.0180     2.4080    -1.2330 H     1 <1>   0.0800 
 27 H       -1.7430    -1.4020     0.4260 H     1 <1>   0.0800 
 28 H       -2.7690    -1.2170    -0.9690 H     1 <1>   0.0800 
 29 H       -3.7210    -1.1860     1.5490 H     1 <1>   0.0800 
 30 H       -4.4940    -0.3870     0.2240 H     1 <1>   0.0800 
 31 H       -4.3360     1.1590     2.1300 H     1 <1>   0.0800 
 32 H       -2.6150     0.8970     2.1910 H     1 <1>   0.0800 
 33 H       -1.3930     3.1960     0.9550 H     1 <1>   0.0800 
 34 H       -2.5970     3.2530     2.2180 H     1 <1>   0.0800 
 35 H       -2.4880     4.9340    -0.2310 H     1 <1>   0.0800 
 36 H       -3.1090     5.3300     1.3710 H     1 <1>   0.0800 
 37 H       -5.4810     5.9560    -0.1750 H     1 <1>   0.1500 
 38 H       -6.9000     0.6180    -1.8300 H     1 <1>   0.0800 
 39 H       -8.5980     0.7770    -2.1960 H     1 <1>   0.0800 
 40 H       -8.0880     0.3220    -0.5780 H     1 <1>   0.0800 
 41 H       -9.1220     3.9080    -0.4160 H     1 <1>   0.0800 
 42 H       -9.9200     2.4390    -0.9110 H     1 <1>   0.0800 
 43 H       -9.2130     3.5010    -2.1170 H     1 <1>   0.0800 
@<TRIPOS>BOND
  1   1   2  2   
  2   1   3  2   
  3   1   4  am  
  4   1   5  1   
  5   4   6  1   
  6   4   7  1   
  7   5  22  1   
  8   5  23  1   
  9   5  24  1   
 10   6   8  1   
 11   6  25  1   
 12   6  26  1   
 13   7   9  1   
 14   7  27  1   
 15   7  28  1   
 16   8  10  1   
 17   8  11  1   
 18   8  12  1   
 19   9  11  1   
 20   9  29  1   
 21   9  30  1   
 22  10  13  ar  
 23  10  14  ar  
 24  11  31  1   
 25  11  32  1   
 26  12  15  1   
 27  12  33  1   
 28  12  34  1   
 29  13  16  ar  
 30  14  15  1   
 31  14  17  ar  
 32  15  35  1   
 33  15  36  1   
 34  16  18  ar  
 35  16  19  1   
 36  17  18  ar  
 37  17  37  1   
 38  19  20  1   
 39  19  21  1   
 40  20  38  1   
 41  20  39  1   
 42  20  40  1   
 43  21  41  1   
 44  21  42  1   
 45  21  43  1   
@<TRIPOS>SUBSTRUCTURE
  1 ****   8 GROUP 4 **** **** 0

# MOE 2024.06 (io_trps.svl 2023.06)
