@<TRIPOS>MOLECULE
NONAME
56 58 1 0 0 
SMALL
USER_CHARGES


@<TRIPOS>ATOM
  1 O       -0.7330     0.7800     0.3200 O.2   1 <1>  -0.5700 
  2 C       -1.4640     1.7280     0.1800 C.2   1 <1>   0.5690 
  3 N       -2.7970     1.7130    -0.1120 N.am  1 <1>  -0.4770 
  4 C       -0.9530     3.1330     0.3300 C.3   1 <1>  -0.0990 
  5 C       -3.6450     0.6000    -0.2960 C.ar  1 <1>   0.1170 
  6 C       -3.3220     3.0920    -0.1920 C.3   1 <1>   0.1400 
  7 C       -2.2420     3.9590     0.4710 C.3   1 <1>  -0.0190 
  8 C       -4.6990     0.6490    -1.2050 C.ar  1 <1>  -0.1500 
  9 C       -3.4620    -0.5720     0.4310 C.ar  1 <1>  -0.1500 
 10 C       -2.1550     5.3670    -0.1020 C.2   1 <1>   0.5690 
 11 C       -5.5420    -0.4340    -1.3730 C.ar  1 <1>  -0.1500 
 12 C       -4.3000    -1.6600     0.2650 C.ar  1 <1>  -0.1500 
 13 O       -3.0760     5.7830    -0.7610 O.2   1 <1>  -0.5700 
 14 N       -1.0330     6.1000     0.1710 N.am  1 <1>  -0.4940 
 15 C       -5.3540    -1.5950    -0.6420 C.ar  1 <1>   0.0830 
 16 C       -0.6190     7.3820    -0.2650 C.2   1 <1>  -0.0880 
 17 O       -6.2330    -2.6070    -0.8770 O.3   1 <1>  -0.3630 
 18 N       -1.3880     8.4780    -0.5250 N.pl3 1 <1>   0.3140 
 19 C        0.6640     7.7620    -0.4770 C.2   1 <1>  -0.1810 
 20 C       -6.1740    -3.8450    -0.2040 C.3   1 <1>   0.2000 
 21 N       -0.6290     9.5340    -0.8880 N.2   1 <1>  -0.7070 
 22 C       -2.8390     8.6530    -0.3740 C.3   1 <1>   0.0160 
 23 C        0.5880     9.0980    -0.8590 C.2   1 <1>   0.1080 
 24 C        1.9260     6.9250    -0.3420 C.3   1 <1>   0.0210 
 25 C       -6.9170    -4.8590    -1.0690 C.3   1 <1>  -0.2400 
 26 C       -6.8420    -3.6970     1.1650 C.3   1 <1>  -0.2400 
 27 C        1.7580     9.9890    -1.2130 C.3   1 <1>  -0.0590 
 28 C        2.4800     7.0150     1.0810 C.3   1 <1>  -0.2400 
 29 H       -0.4100     3.3900    -0.5620 H     1 <1>   0.0800 
 30 H       -0.3180     3.2170     1.1930 H     1 <1>   0.0800 
 31 H       -4.2650     3.1780     0.3200 H     1 <1>   0.0800 
 32 H       -3.4470     3.3550    -1.2300 H     1 <1>   0.0800 
 33 H       -2.4900     4.0410     1.5140 H     1 <1>   0.0800 
 34 H       -4.8640     1.5310    -1.7930 H     1 <1>   0.1500 
 35 H       -2.6520    -0.6360     1.1350 H     1 <1>   0.1500 
 36 H       -6.3540    -0.3890    -2.0760 H     1 <1>   0.1500 
 37 H       -4.1150    -2.5390     0.8500 H     1 <1>   0.1500 
 38 H       -0.3110     5.6100     0.6980 H     1 <1>   0.3700 
 39 H       -5.1450    -4.1470    -0.1140 H     1 <1>   0.0800 
 40 H       -3.1780     8.1020     0.4820 H     1 <1>   0.0800 
 41 H       -3.3270     8.2940    -1.2600 H     1 <1>   0.0800 
 42 H       -3.0560     9.6960    -0.2420 H     1 <1>   0.0800 
 43 H        2.6640     7.2700    -1.0450 H     1 <1>   0.0800 
 44 H        1.7050     5.9010    -0.5830 H     1 <1>   0.0800 
 45 H       -7.9410    -4.5600    -1.2030 H     1 <1>   0.0800 
 46 H       -6.8980    -5.8270    -0.6010 H     1 <1>   0.0800 
 47 H       -6.4410    -4.9370    -2.0300 H     1 <1>   0.0800 
 48 H       -7.8640    -3.3850     1.0470 H     1 <1>   0.0800 
 49 H       -6.3220    -2.9740     1.7660 H     1 <1>   0.0800 
 50 H       -6.8280    -4.6380     1.6830 H     1 <1>   0.0800 
 51 H        2.5490     9.8650    -0.4990 H     1 <1>   0.0800 
 52 H        1.4440    11.0170    -1.2070 H     1 <1>   0.0800 
 53 H        2.1150     9.7410    -2.1940 H     1 <1>   0.0800 
 54 H        2.7230     8.0350     1.3190 H     1 <1>   0.0800 
 55 H        3.3700     6.4180     1.1710 H     1 <1>   0.0800 
 56 H        1.7520     6.6630     1.7890 H     1 <1>   0.0800 
@<TRIPOS>BOND
  1   1   2  2   
  2   2   3  am  
  3   2   4  1   
  4   3   5  1   
  5   3   6  1   
  6   4   7  1   
  7   4  29  1   
  8   4  30  1   
  9   5   8  ar  
 10   5   9  ar  
 11   6   7  1   
 12   6  31  1   
 13   6  32  1   
 14   7  10  1   
 15   7  33  1   
 16   8  11  ar  
 17   8  34  1   
 18   9  12  ar  
 19   9  35  1   
 20  10  13  2   
 21  10  14  am  
 22  11  15  ar  
 23  11  36  1   
 24  12  15  ar  
 25  12  37  1   
 26  14  16  1   
 27  14  38  1   
 28  15  17  1   
 29  16  18  1   
 30  16  19  2   
 31  17  20  1   
 32  18  21  1   
 33  18  22  1   
 34  19  23  1   
 35  19  24  1   
 36  20  25  1   
 37  20  26  1   
 38  20  39  1   
 39  21  23  2   
 40  22  40  1   
 41  22  41  1   
 42  22  42  1   
 43  23  27  1   
 44  24  28  1   
 45  24  43  1   
 46  24  44  1   
 47  25  45  1   
 48  25  46  1   
 49  25  47  1   
 50  26  48  1   
 51  26  49  1   
 52  26  50  1   
 53  27  51  1   
 54  27  52  1   
 55  27  53  1   
 56  28  54  1   
 57  28  55  1   
 58  28  56  1   
@<TRIPOS>SUBSTRUCTURE
  1 ****   6 GROUP 4 **** **** 0

# MOE 2024.06 (io_trps.svl 2023.06)
