@<TRIPOS>MOLECULE
NONAME
46 48 1 0 0 
SMALL
USER_CHARGES


@<TRIPOS>ATOM
  1 O       -1.0650     0.9150     0.0470 O.co2 1 <1>  -0.9000 
  2 C       -1.1730     0.0030    -0.7800 C.2   1 <1>   0.9060 
  3 O       -0.2150    -0.4050    -1.4490 O.co2 1 <1>  -0.9000 
  4 C       -2.5400    -0.6040    -1.0220 C.3   1 <1>  -0.1220 
  5 C       -2.7560    -1.9540    -0.3390 C.ar  1 <1>  -0.1440 
  6 C       -3.8170    -2.1480     0.5290 C.ar  1 <1>  -0.1500 
  7 C       -1.8810    -2.9980    -0.5850 C.ar  1 <1>  -0.1500 
  8 C       -4.0070    -3.3760     1.1380 C.ar  1 <1>  -0.1500 
  9 C       -2.0640    -4.2270     0.0220 C.ar  1 <1>  -0.1500 
 10 C       -3.1360    -4.4240     0.8800 C.ar  1 <1>  -0.1440 
 11 C       -3.3620    -5.7720     1.5260 C.3   1 <1>   0.4870 
 12 N       -3.8360    -6.7200     0.4780 N.4   1 <1>  -0.9590 
 13 C       -5.1740    -6.2900    -0.0430 C.3   1 <1>   0.3430 
 14 C       -4.0070    -8.0960     1.0420 C.3   1 <1>   0.3430 
 15 C       -6.1990    -7.1480     0.7030 C.3   1 <1>   0.2000 
 16 C       -5.4810    -8.4860     0.8510 C.3   1 <1>  -0.0800 
 17 O       -6.3790    -6.6100     1.9740 O.3   1 <1>  -0.6800 
 18 C       -5.6790    -9.3840    -0.3870 C.3   1 <1>  -0.0170 
 19 C       -4.7780   -10.6060    -0.3220 C.ar  1 <1>  -0.1430 
 20 C       -4.9540   -11.5920     0.6290 C.ar  1 <1>  -0.1500 
 21 C       -3.7340   -10.7940    -1.2080 C.ar  1 <1>  -0.1500 
 22 C       -4.0910   -12.6750     0.6630 C.ar  1 <1>   0.1600 
 23 C       -2.9290   -11.9150    -1.0890 C.ar  1 <1>   0.1600 
 24 N       -3.0770   -12.8510    -0.1680 N.ar  1 <1>  -0.6200 
 25 H       -3.2700     0.1070    -0.6870 H     1 <1>   0.0800 
 26 H       -2.6540    -0.7210    -2.0810 H     1 <1>   0.0800 
 27 H       -4.4900    -1.3330     0.7350 H     1 <1>   0.1500 
 28 H       -1.0440    -2.8360    -1.2470 H     1 <1>   0.1500 
 29 H       -4.8380    -3.4970     1.8120 H     1 <1>   0.1500 
 30 H       -1.3540    -5.0080    -0.1840 H     1 <1>   0.1500 
 31 H       -4.0980    -5.6850     2.3100 H     1 <1>   0.0800 
 32 H       -2.4380    -6.1200     1.9570 H     1 <1>   0.0800 
 33 H       -3.1470    -6.6900    -0.2830 H     1 <1>   0.4500 
 34 H       -5.3610    -5.2400     0.1060 H     1 <1>   0.0800 
 35 H       -5.2330    -6.5060    -1.0960 H     1 <1>   0.0800 
 36 H       -3.3500    -8.8000     0.5590 H     1 <1>   0.0800 
 37 H       -3.7830    -8.0880     2.0970 H     1 <1>   0.0800 
 38 H       -7.1510    -7.1980     0.2030 H     1 <1>   0.0800 
 39 H       -5.8340    -9.0220     1.7150 H     1 <1>   0.0800 
 40 H       -7.1680    -6.9950     2.4140 H     1 <1>   0.4000 
 41 H       -5.4700    -8.8390    -1.2920 H     1 <1>   0.0800 
 42 H       -6.7040    -9.7100    -0.4380 H     1 <1>   0.0800 
 43 H       -5.7540   -11.5390     1.3460 H     1 <1>   0.1500 
 44 H       -3.5340   -10.0900    -1.9950 H     1 <1>   0.1500 
 45 H       -4.2410   -13.4360     1.4100 H     1 <1>   0.1500 
 46 H       -2.1200   -12.0510    -1.7880 H     1 <1>   0.1500 
@<TRIPOS>BOND
  1   1   2  ar  
  2   2   3  ar  
  3   2   4  1   
  4   4   5  1   
  5   4  25  1   
  6   4  26  1   
  7   5   6  ar  
  8   5   7  ar  
  9   6   8  ar  
 10   6  27  1   
 11   7   9  ar  
 12   7  28  1   
 13   8  10  ar  
 14   8  29  1   
 15   9  10  ar  
 16   9  30  1   
 17  10  11  1   
 18  11  12  1   
 19  11  31  1   
 20  11  32  1   
 21  12  13  1   
 22  12  14  1   
 23  12  33  1   
 24  13  15  1   
 25  13  34  1   
 26  13  35  1   
 27  14  16  1   
 28  14  36  1   
 29  14  37  1   
 30  15  16  1   
 31  15  17  1   
 32  15  38  1   
 33  16  18  1   
 34  16  39  1   
 35  17  40  1   
 36  18  19  1   
 37  18  41  1   
 38  18  42  1   
 39  19  20  ar  
 40  19  21  ar  
 41  20  22  ar  
 42  20  43  1   
 43  21  23  ar  
 44  21  44  1   
 45  22  24  ar  
 46  22  45  1   
 47  23  24  ar  
 48  23  46  1   
@<TRIPOS>SUBSTRUCTURE
  1 ****  12 GROUP 4 **** **** 0

# MOE 2024.06 (io_trps.svl 2023.06)
