@<TRIPOS>MOLECULE
NONAME
44 47 1 0 0 
SMALL
USER_CHARGES


@<TRIPOS>ATOM
  1 S       -0.6670     0.0640    -1.1480 S.3   1 <1>  -0.0800 
  2 C       -1.5400    -1.1340    -0.2170 C.ar  1 <1>   0.0400 
  3 C       -1.3120     1.3220    -0.1000 C.2   1 <1>   0.1980 
  4 C       -2.2250    -0.4750     0.7850 C.ar  1 <1>   0.2270 
  5 C       -1.5810    -2.5020    -0.3970 C.ar  1 <1>  -0.1500 
  6 N       -2.0780     0.9070     0.8240 N.2   1 <1>  -0.5650 
  7 C       -0.8950     2.7420    -0.4010 C.3   1 <1>  -0.0600 
  8 C       -2.9880    -1.2360     1.6580 C.ar  1 <1>  -0.1500 
  9 C       -2.3560    -3.2740     0.4680 C.ar  1 <1>   0.0860 
 10 C       -3.0440    -2.6110     1.4990 C.ar  1 <1>  -0.1500 
 11 C       -2.4330    -4.7130     0.3050 C.2   1 <1>   0.5440 
 12 O       -1.4170    -5.3520     0.1060 O.2   1 <1>  -0.5700 
 13 N       -3.6330    -5.3870     0.3480 N.am  1 <1>  -0.6600 
 14 C       -4.9550    -4.7730     0.0630 C.3   1 <1>   0.1400 
 15 C       -3.7060    -6.8640     0.2170 C.3   1 <1>   0.1400 
 16 C       -5.7940    -5.9110    -0.5170 C.3   1 <1>   0.2000 
 17 C       -5.1930    -7.1880     0.0630 C.3   1 <1>  -0.0800 
 18 O       -7.1270    -5.8010    -0.1570 O.3   1 <1>  -0.6800 
 19 C       -5.4650    -8.4280    -0.8020 C.3   1 <1>   0.0200 
 20 C       -4.7890    -9.6540    -0.2200 C.2   1 <1>  -0.0400 
 21 O       -5.1430   -10.0980     0.9570 O.3   1 <1>  -0.0190 
 22 C       -3.8150   -10.4490    -0.6860 C.2   1 <1>  -0.1500 
 23 N       -4.4550   -11.1460     1.3050 N.2   1 <1>  -0.4100 
 24 C       -3.6470   -11.3820     0.3340 C.2   1 <1>   0.1080 
 25 C       -2.6510   -12.5190     0.3130 C.3   1 <1>  -0.0590 
 26 H       -1.0220    -2.9690    -1.1890 H     1 <1>   0.1500 
 27 H       -1.3530     3.4120     0.3040 H     1 <1>   0.0800 
 28 H       -1.2080     3.0110    -1.3930 H     1 <1>   0.0800 
 29 H        0.1730     2.8320    -0.3270 H     1 <1>   0.0800 
 30 H       -3.5190    -0.7390     2.4490 H     1 <1>   0.1500 
 31 H       -3.6260    -3.1970     2.1880 H     1 <1>   0.1500 
 32 H       -5.3840    -4.4150     0.9820 H     1 <1>   0.0800 
 33 H       -4.8600    -3.9680    -0.6450 H     1 <1>   0.0800 
 34 H       -3.1520    -7.1650    -0.6570 H     1 <1>   0.0800 
 35 H       -3.2840    -7.3440     1.0840 H     1 <1>   0.0800 
 36 H       -5.7290    -5.8970    -1.5920 H     1 <1>   0.0800 
 37 H       -5.5840    -7.3520     1.0530 H     1 <1>   0.0800 
 38 H       -7.2310    -5.8990     0.8100 H     1 <1>   0.4000 
 39 H       -5.1020    -8.2660    -1.8010 H     1 <1>   0.0800 
 40 H       -6.5250    -8.6050    -0.8570 H     1 <1>   0.0800 
 41 H       -3.2710   -10.4080    -1.6110 H     1 <1>   0.1500 
 42 H       -2.8470   -13.1610    -0.5260 H     1 <1>   0.0800 
 43 H       -2.7310   -13.0940     1.2180 H     1 <1>   0.0800 
 44 H       -1.6530   -12.1290     0.2370 H     1 <1>   0.0800 
@<TRIPOS>BOND
  1   1   2  1   
  2   1   3  1   
  3   2   4  ar  
  4   2   5  ar  
  5   3   6  2   
  6   3   7  1   
  7   4   6  1   
  8   4   8  ar  
  9   5   9  ar  
 10   5  26  1   
 11   7  27  1   
 12   7  28  1   
 13   7  29  1   
 14   8  10  ar  
 15   8  30  1   
 16   9  10  ar  
 17   9  11  1   
 18  10  31  1   
 19  11  12  2   
 20  11  13  am  
 21  13  14  1   
 22  13  15  1   
 23  14  16  1   
 24  14  32  1   
 25  14  33  1   
 26  15  17  1   
 27  15  34  1   
 28  15  35  1   
 29  16  17  1   
 30  16  18  1   
 31  16  36  1   
 32  17  19  1   
 33  17  37  1   
 34  18  38  1   
 35  19  20  1   
 36  19  39  1   
 37  19  40  1   
 38  20  21  1   
 39  20  22  2   
 40  21  23  1   
 41  22  24  1   
 42  22  41  1   
 43  23  24  2   
 44  24  25  1   
 45  25  42  1   
 46  25  43  1   
 47  25  44  1   
@<TRIPOS>SUBSTRUCTURE
  1 ****  13 GROUP 4 **** **** 0

# MOE 2024.06 (io_trps.svl 2023.06)
