@<TRIPOS>MOLECULE
NONAME
45 47 1 0 0 
SMALL
USER_CHARGES


@<TRIPOS>ATOM
  1 S       -2.6310    -1.2480     0.2070 S.3   1 <1>  -0.0800 
  2 C       -1.4850    -2.3800     0.8450 C.2   1 <1>   0.4420 
  3 C       -1.7660    -0.0100     1.0540 C.2   1 <1>   0.1980 
  4 N       -0.6090    -1.8180     1.5940 N.2   1 <1>  -0.3380 
  5 N       -1.6560    -3.6960     0.4820 N.am  1 <1>  -0.4940 
  6 N       -0.7740    -0.4640     1.7080 N.2   1 <1>  -0.3380 
  7 C       -2.2610     1.4230     0.9540 C.3   1 <1>   0.3000 
  8 C       -0.9430    -4.8130     0.8000 C.2   1 <1>   0.5690 
  9 O       -2.4770     1.7750    -0.3830 O.3   1 <1>  -0.5600 
 10 O        0.0350    -4.8240     1.5020 O.2   1 <1>  -0.5700 
 11 C       -1.4580    -6.1290     0.2140 C.3   1 <1>   0.1710 
 12 C       -2.8750     3.0950    -0.5680 C.3   1 <1>   0.0400 
 13 N       -2.4190    -5.9460    -0.9250 N.3   1 <1>  -0.8100 
 14 C       -3.2560    -7.1500    -1.1320 C.3   1 <1>   0.1100 
 15 C       -1.6840    -5.6350    -2.1640 C.3   1 <1>   0.0300 
 16 C       -4.3800    -7.2750    -0.0910 C.3   1 <1>   0.2000 
 17 O       -5.1530    -8.4120    -0.4270 O.3   1 <1>  -0.3630 
 18 C       -5.2770    -6.0260    -0.0490 C.3   1 <1>   0.1200 
 19 C       -6.3690    -8.5270     0.1640 C.ar  1 <1>   0.0820 
 20 O       -6.3610    -6.2250     0.8400 O.3   1 <1>  -0.3630 
 21 C       -6.9650    -7.4400     0.8080 C.ar  1 <1>   0.0820 
 22 C       -7.0180    -9.7490     0.1270 C.ar  1 <1>  -0.1500 
 23 C       -8.1950    -7.5920     1.4240 C.ar  1 <1>  -0.1500 
 24 C       -8.2520    -9.8940     0.7400 C.ar  1 <1>  -0.1500 
 25 C       -8.8380    -8.8190     1.3900 C.ar  1 <1>  -0.1500 
 26 H       -2.4150    -3.9000    -0.1710 H     1 <1>   0.3700 
 27 H       -1.5240     2.0860     1.3720 H     1 <1>   0.0800 
 28 H       -3.1880     1.5240     1.4900 H     1 <1>   0.0800 
 29 H       -1.9360    -6.6530     1.0200 H     1 <1>   0.0800 
 30 H       -0.6160    -6.7210    -0.1020 H     1 <1>   0.0800 
 31 H       -3.0170     3.2560    -1.6230 H     1 <1>   0.0800 
 32 H       -2.1050     3.7550    -0.2040 H     1 <1>   0.0800 
 33 H       -3.8020     3.2670    -0.0490 H     1 <1>   0.0800 
 34 H       -2.6410    -8.0340    -1.1070 H     1 <1>   0.0800 
 35 H       -3.7220    -7.0920    -2.1020 H     1 <1>   0.0800 
 36 H       -1.0660    -4.7630    -2.0310 H     1 <1>   0.0800 
 37 H       -2.3780    -5.4340    -2.9640 H     1 <1>   0.0800 
 38 H       -1.0560    -6.4630    -2.4500 H     1 <1>   0.0800 
 39 H       -3.9640    -7.4540     0.8830 H     1 <1>   0.0800 
 40 H       -5.6780    -5.8190    -1.0250 H     1 <1>   0.0800 
 41 H       -4.7250    -5.1710     0.2940 H     1 <1>   0.0800 
 42 H       -6.5560   -10.5780    -0.3770 H     1 <1>   0.1500 
 43 H       -8.6430    -6.7520     1.9230 H     1 <1>   0.1500 
 44 H       -8.7560   -10.8450     0.7130 H     1 <1>   0.1500 
 45 H       -9.7950    -8.9360     1.8680 H     1 <1>   0.1500 
@<TRIPOS>BOND
  1   1   2  1   
  2   1   3  1   
  3   2   4  2   
  4   2   5  1   
  5   3   6  2   
  6   3   7  1   
  7   4   6  1   
  8   5   8  am  
  9   5  26  1   
 10   7   9  1   
 11   7  27  1   
 12   7  28  1   
 13   8  10  2   
 14   8  11  1   
 15   9  12  1   
 16  11  13  1   
 17  11  29  1   
 18  11  30  1   
 19  12  31  1   
 20  12  32  1   
 21  12  33  1   
 22  13  14  1   
 23  13  15  1   
 24  14  16  1   
 25  14  34  1   
 26  14  35  1   
 27  15  36  1   
 28  15  37  1   
 29  15  38  1   
 30  16  17  1   
 31  16  18  1   
 32  16  39  1   
 33  17  19  1   
 34  18  20  1   
 35  18  40  1   
 36  18  41  1   
 37  19  21  ar  
 38  19  22  ar  
 39  20  21  1   
 40  21  23  ar  
 41  22  24  ar  
 42  22  42  1   
 43  23  25  ar  
 44  23  43  1   
 45  24  25  ar  
 46  24  44  1   
 47  25  45  1   
@<TRIPOS>SUBSTRUCTURE
  1 ****  18 GROUP 4 **** **** 0

# MOE 2024.06 (io_trps.svl 2023.06)
