@<TRIPOS>MOLECULE
NONAME
46 48 1 0 0 
SMALL
USER_CHARGES


@<TRIPOS>ATOM
  1 N       -0.0850     1.5330     0.8370 N.ar  1 <1>  -0.6200 
  2 C        0.8080     2.1650     0.1060 C.ar  1 <1>   0.7710 
  3 C       -0.7170     0.5030     0.3010 C.ar  1 <1>   0.4100 
  4 N        1.1020     1.7980    -1.1570 N.ar  1 <1>  -0.1790 
  5 N        1.4040     3.2020     0.7170 N.pl3 1 <1>  -0.8690 
  6 N       -1.6590    -0.1260     1.0570 N.pl3 1 <1>  -0.8380 
  7 C       -0.4270     0.0710    -1.0100 C.ar  1 <1>  -0.1500 
  8 C        0.4950     0.7400    -1.7400 C.ar  1 <1>   0.2110 
  9 C        2.4920     4.1300     0.2990 C.3   1 <1>   0.3890 
 10 C       -2.7730    -0.9500     0.5030 C.3   1 <1>   0.1290 
 11 C       -1.7250     0.0260     2.5430 C.3   1 <1>   0.1290 
 12 C        2.3580     4.4580    -1.1780 C.2   1 <1>   0.0060 
 13 N        2.9180     3.7570    -2.1030 N.2   1 <1>  -0.3380 
 14 N        1.6040     5.4400    -1.6890 N.pl3 1 <1>   0.0480 
 15 N        2.5050     4.2460    -3.2660 N.2   1 <1>  -0.3380 
 16 C        1.7410     5.2500    -3.0020 C.2   1 <1>   0.0360 
 17 C        0.7780     6.4590    -1.0070 C.3   1 <1>   0.0960 
 18 C        1.6070     7.7050    -0.6860 C.3   1 <1>  -0.0170 
 19 C        0.7620     8.6610     0.1350 C.ar  1 <1>  -0.1430 
 20 C       -0.0790     9.5650    -0.4960 C.ar  1 <1>  -0.1500 
 21 C        0.8130     8.6310     1.5200 C.ar  1 <1>  -0.1500 
 22 C       -0.8640    10.4270     0.2500 C.ar  1 <1>  -0.1500 
 23 C        0.0280     9.4920     2.2670 C.ar  1 <1>  -0.1500 
 24 C       -0.8120    10.3900     1.6320 C.ar  1 <1>  -0.1500 
 25 H        1.7880     2.3710    -1.6630 H     1 <1>   0.4570 
 26 H        1.1030     3.3180     1.6900 H     1 <1>   0.4000 
 27 H       -0.9340    -0.7870    -1.4060 H     1 <1>   0.1500 
 28 H        0.7660     0.4690    -2.7490 H     1 <1>   0.1500 
 29 H        3.4480     3.6680     0.4830 H     1 <1>   0.0800 
 30 H        2.4420     5.0340     0.8820 H     1 <1>   0.0800 
 31 H       -2.9780    -0.6830    -0.5190 H     1 <1>   0.0800 
 32 H       -3.6720    -0.7850     1.0730 H     1 <1>   0.0800 
 33 H       -2.5150    -1.9940     0.5550 H     1 <1>   0.0800 
 34 H       -0.7750     0.3380     2.9410 H     1 <1>   0.0800 
 35 H       -1.9840    -0.9140     2.9990 H     1 <1>   0.0800 
 36 H       -2.4690     0.7590     2.8010 H     1 <1>   0.0800 
 37 H        1.2600     5.8670    -3.7430 H     1 <1>   0.1500 
 38 H        0.3780     6.0410    -0.1010 H     1 <1>   0.0800 
 39 H       -0.0470     6.7270    -1.6430 H     1 <1>   0.0800 
 40 H        1.9170     8.1890    -1.5960 H     1 <1>   0.0800 
 41 H        2.4870     7.4390    -0.1280 H     1 <1>   0.0800 
 42 H       -0.1300     9.6090    -1.5700 H     1 <1>   0.1500 
 43 H        1.4620     7.9430     2.0320 H     1 <1>   0.1500 
 44 H       -1.5150    11.1270    -0.2430 H     1 <1>   0.1500 
 45 H        0.0700     9.4670     3.3420 H     1 <1>   0.1500 
 46 H       -1.4220    11.0600     2.2130 H     1 <1>   0.1500 
@<TRIPOS>BOND
  1   1   2  ar  
  2   1   3  ar  
  3   2   4  ar  
  4   2   5  1   
  5   3   6  1   
  6   3   7  ar  
  7   4   8  ar  
  8   4  25  1   
  9   5   9  1   
 10   5  26  1   
 11   6  10  1   
 12   6  11  1   
 13   7   8  ar  
 14   7  27  1   
 15   8  28  1   
 16   9  12  1   
 17   9  29  1   
 18   9  30  1   
 19  10  31  1   
 20  10  32  1   
 21  10  33  1   
 22  11  34  1   
 23  11  35  1   
 24  11  36  1   
 25  12  13  2   
 26  12  14  1   
 27  13  15  1   
 28  14  16  1   
 29  14  17  1   
 30  15  16  2   
 31  16  37  1   
 32  17  18  1   
 33  17  38  1   
 34  17  39  1   
 35  18  19  1   
 36  18  40  1   
 37  18  41  1   
 38  19  20  ar  
 39  19  21  ar  
 40  20  22  ar  
 41  20  42  1   
 42  21  23  ar  
 43  21  43  1   
 44  22  24  ar  
 45  22  44  1   
 46  23  24  ar  
 47  23  45  1   
 48  24  46  1   
@<TRIPOS>SUBSTRUCTURE
  1 ****   5 GROUP 4 **** **** 0

# MOE 2024.06 (io_trps.svl 2023.06)
