@<TRIPOS>MOLECULE
NONAME
45 48 1 0 0 
SMALL
USER_CHARGES


@<TRIPOS>ATOM
  1 O       -0.5060    -0.4710     1.2820 O.2   1 <1>  -0.5700 
  2 C       -1.4970     0.1810     1.0540 C.2   1 <1>   0.5690 
  3 N       -2.5890    -0.3800     0.4460 N.am  1 <1>  -0.6600 
  4 C       -1.5030     1.6450     1.4730 C.3   1 <1>  -0.0040 
  5 C       -3.8540     0.3000     0.0730 C.3   1 <1>   0.1400 
  6 C       -2.6030    -1.7970     0.0150 C.3   1 <1>   0.1400 
  7 C       -1.1200     2.5930     0.3250 C.3   1 <1>  -0.1950 
  8 C       -4.6160    -0.7230    -0.7700 C.3   1 <1>   0.2000 
  9 C       -4.0520    -2.0870    -0.3770 C.3   1 <1>  -0.0800 
 10 C        0.3160     2.8610     0.0100 C.3   1 <1>  -0.2000 
 11 C       -0.5410     3.9420     0.6090 C.3   1 <1>  -0.2000 
 12 O       -5.9770    -0.6810    -0.5130 O.3   1 <1>  -0.6800 
 13 C       -4.1850    -3.1330    -1.4970 C.3   1 <1>  -0.0170 
 14 C       -3.6450    -4.4880    -1.0500 C.ar  1 <1>  -0.1440 
 15 C       -4.3840    -5.3580    -0.2140 C.ar  1 <1>   0.0000 
 16 C       -2.4060    -4.8970    -1.4490 C.ar  1 <1>  -0.1500 
 17 C       -3.7770    -6.5830     0.1600 C.ar  1 <1>   0.3100 
 18 C       -5.6850    -5.0890     0.2720 C.ar  1 <1>  -0.1500 
 19 C       -1.9020    -6.1330    -1.0260 C.ar  1 <1>   0.1600 
 20 N       -2.5400    -6.9540    -0.2550 N.ar  1 <1>  -0.6200 
 21 C       -4.4810    -7.4610     0.9990 C.ar  1 <1>  -0.1500 
 22 C       -6.3440    -5.9690     1.0870 C.ar  1 <1>  -0.1500 
 23 C       -5.7370    -7.1700     1.4580 C.ar  1 <1>  -0.1500 
 24 H       -2.4730     1.9070     1.8510 H     1 <1>   0.0800 
 25 H       -0.8050     1.7620     2.2820 H     1 <1>   0.0800 
 26 H       -4.4010     0.5450     0.9660 H     1 <1>   0.0800 
 27 H       -3.6560     1.1870    -0.5010 H     1 <1>   0.0800 
 28 H       -1.9410    -1.9070    -0.8270 H     1 <1>   0.0800 
 29 H       -2.2720    -2.4440     0.8110 H     1 <1>   0.0800 
 30 H       -1.7870     2.5160    -0.5160 H     1 <1>   0.1000 
 31 H       -4.4610    -0.5200    -1.8160 H     1 <1>   0.0800 
 32 H       -4.5510    -2.4370     0.5090 H     1 <1>   0.0800 
 33 H        1.0740     2.3970     0.6180 H     1 <1>   0.1000 
 34 H        0.6110     2.9420    -1.0220 H     1 <1>   0.1000 
 35 H       -0.8300     4.7730    -0.0120 H     1 <1>   0.1000 
 36 H       -0.3510     4.2350     1.6270 H     1 <1>   0.1000 
 37 H       -6.1540    -0.8910     0.4240 H     1 <1>   0.4000 
 38 H       -3.6430    -2.7970    -2.3640 H     1 <1>   0.0800 
 39 H       -5.2140    -3.2280    -1.7940 H     1 <1>   0.0800 
 40 H       -1.7880    -4.2910    -2.0860 H     1 <1>   0.1500 
 41 H       -6.1740    -4.1740    -0.0040 H     1 <1>   0.1500 
 42 H       -0.9190    -6.4160    -1.3630 H     1 <1>   0.1500 
 43 H       -3.9940    -8.3800     1.2690 H     1 <1>   0.1500 
 44 H       -7.3350    -5.7510     1.4490 H     1 <1>   0.1500 
 45 H       -6.2640    -7.8540     2.1000 H     1 <1>   0.1500 
@<TRIPOS>BOND
  1   1   2  2   
  2   2   3  am  
  3   2   4  1   
  4   3   5  1   
  5   3   6  1   
  6   4   7  1   
  7   4  24  1   
  8   4  25  1   
  9   5   8  1   
 10   5  26  1   
 11   5  27  1   
 12   6   9  1   
 13   6  28  1   
 14   6  29  1   
 15   7  10  1   
 16   7  11  1   
 17   7  30  1   
 18   8   9  1   
 19   8  12  1   
 20   8  31  1   
 21   9  13  1   
 22   9  32  1   
 23  10  11  1   
 24  10  33  1   
 25  10  34  1   
 26  11  35  1   
 27  11  36  1   
 28  12  37  1   
 29  13  14  1   
 30  13  38  1   
 31  13  39  1   
 32  14  15  ar  
 33  14  16  ar  
 34  15  17  ar  
 35  15  18  ar  
 36  16  19  ar  
 37  16  40  1   
 38  17  20  ar  
 39  17  21  ar  
 40  18  22  ar  
 41  18  41  1   
 42  19  20  ar  
 43  19  42  1   
 44  21  23  ar  
 45  21  43  1   
 46  22  23  ar  
 47  22  44  1   
 48  23  45  1   
@<TRIPOS>SUBSTRUCTURE
  1 ****   6 GROUP 4 **** **** 0

# MOE 2024.06 (io_trps.svl 2023.06)
