@<TRIPOS>MOLECULE
NONAME
47 49 1 0 0 
SMALL
USER_CHARGES


@<TRIPOS>ATOM
  1 O        0.2080     0.8000     1.1160 O.2   1 <1>  -0.5700 
  2 C        0.2300     1.9360     0.7030 C.2   1 <1>   0.5690 
  3 N       -0.8730     2.7490     0.7640 N.am  1 <1>  -0.6600 
  4 C        1.5220     2.4600     0.0990 C.3   1 <1>  -0.0990 
  5 C       -2.1440     2.2730     1.3840 C.3   1 <1>   0.1400 
  6 C       -0.9450     4.1150     0.1580 C.3   1 <1>   0.1400 
  7 C        2.7070     1.5330     0.3690 C.3   1 <1>   0.1200 
  8 C       -3.2580     2.1530     0.3200 C.3   1 <1>   0.0000 
  9 C       -2.3910     4.5150    -0.1870 C.3   1 <1>  -0.1600 
 10 O        3.8610     2.1170    -0.1940 O.3   1 <1>  -0.3630 
 11 C       -4.6270     2.0530     1.0170 C.3   1 <1>   0.2000 
 12 C       -3.1800     3.3110    -0.7270 C.3   1 <1>  -0.1600 
 13 C       -3.2090     0.8030    -0.4130 C.3   1 <1>  -0.1600 
 14 C        5.0690     1.5050    -0.1050 C.ar  1 <1>   0.0820 
 15 O       -5.1430     3.2890     1.3610 O.3   1 <1>  -0.6800 
 16 C       -5.5570     1.3320     0.0400 C.3   1 <1>  -0.1600 
 17 C       -4.6350     0.5730    -0.9260 C.3   1 <1>  -0.1600 
 18 C        5.2720     0.2790     0.5250 C.ar  1 <1>  -0.1500 
 19 C        6.1450     2.1600    -0.6830 C.ar  1 <1>  -0.1500 
 20 C        6.5410    -0.2740     0.5700 C.ar  1 <1>  -0.1500 
 21 C        7.4120     1.6060    -0.6370 C.ar  1 <1>  -0.1500 
 22 C        7.6100     0.3880    -0.0100 C.ar  1 <1>  -0.1500 
 23 H        1.3890     2.5540    -0.9620 H     1 <1>   0.0800 
 24 H        1.7380     3.4220     0.5220 H     1 <1>   0.0800 
 25 H       -2.0010     1.3310     1.8860 H     1 <1>   0.0800 
 26 H       -2.4400     2.9870     2.1340 H     1 <1>   0.0800 
 27 H       -0.5210     4.8320     0.8400 H     1 <1>   0.0800 
 28 H       -0.3660     4.1270    -0.7490 H     1 <1>   0.0800 
 29 H        2.5490     0.5720    -0.0910 H     1 <1>   0.0800 
 30 H        2.8630     1.4170     1.4270 H     1 <1>   0.0800 
 31 H       -2.8730     4.9040     0.6940 H     1 <1>   0.0800 
 32 H       -2.3740     5.3040    -0.9180 H     1 <1>   0.0800 
 33 H       -4.5400     1.4690     1.9190 H     1 <1>   0.0800 
 34 H       -2.6640     2.9690    -1.6070 H     1 <1>   0.0800 
 35 H       -4.1580     3.6190    -1.0480 H     1 <1>   0.0800 
 36 H       -2.4770     0.7760    -1.2020 H     1 <1>   0.0800 
 37 H       -2.9660     0.0210     0.2860 H     1 <1>   0.0800 
 38 H       -5.2070     3.8460     0.5640 H     1 <1>   0.4000 
 39 H       -6.1910     0.6480     0.5760 H     1 <1>   0.0800 
 40 H       -6.1660     2.0280    -0.5100 H     1 <1>   0.0800 
 41 H       -4.8710    -0.4780    -0.9600 H     1 <1>   0.0800 
 42 H       -4.7340     0.9830    -1.9170 H     1 <1>   0.0800 
 43 H        4.4620    -0.2560     0.9820 H     1 <1>   0.1500 
 44 H        5.9830     3.1060    -1.1670 H     1 <1>   0.1500 
 45 H        6.6960    -1.2210     1.0560 H     1 <1>   0.1500 
 46 H        8.2420     2.1210    -1.0880 H     1 <1>   0.1500 
 47 H        8.5950    -0.0450     0.0270 H     1 <1>   0.1500 
@<TRIPOS>BOND
  1   1   2  2   
  2   2   3  am  
  3   2   4  1   
  4   3   5  1   
  5   3   6  1   
  6   4   7  1   
  7   4  23  1   
  8   4  24  1   
  9   5   8  1   
 10   5  25  1   
 11   5  26  1   
 12   6   9  1   
 13   6  27  1   
 14   6  28  1   
 15   7  10  1   
 16   7  29  1   
 17   7  30  1   
 18   8  11  1   
 19   8  12  1   
 20   8  13  1   
 21   9  12  1   
 22   9  31  1   
 23   9  32  1   
 24  10  14  1   
 25  11  15  1   
 26  11  16  1   
 27  11  33  1   
 28  12  34  1   
 29  12  35  1   
 30  13  17  1   
 31  13  36  1   
 32  13  37  1   
 33  14  18  ar  
 34  14  19  ar  
 35  15  38  1   
 36  16  17  1   
 37  16  39  1   
 38  16  40  1   
 39  17  41  1   
 40  17  42  1   
 41  18  20  ar  
 42  18  43  1   
 43  19  21  ar  
 44  19  44  1   
 45  20  22  ar  
 46  20  45  1   
 47  21  22  ar  
 48  21  46  1   
 49  22  47  1   
@<TRIPOS>SUBSTRUCTURE
  1 ****   2 GROUP 4 **** **** 0

# MOE 2024.06 (io_trps.svl 2023.06)
