@<TRIPOS>MOLECULE
NONAME
39 41 1 0 0 
SMALL
USER_CHARGES


@<TRIPOS>ATOM
  1 F       -1.7740    -0.6230     0.0460 F     1 <1>  -0.3400 
  2 C       -1.6200    -1.5930     0.9460 C.3   1 <1>   0.8560 
  3 F       -0.7110    -1.1290     1.8010 F     1 <1>  -0.3400 
  4 N       -1.1200    -2.8450     0.2820 N.pl3 1 <1>   0.3140 
  5 N       -1.7790    -4.0270     0.3420 N.2   1 <1>  -0.7070 
  6 C        0.0140    -2.9710    -0.4420 C.2   1 <1>  -0.3020 
  7 C       -1.0530    -4.8950    -0.3480 C.2   1 <1>   0.2030 
  8 C        0.0850    -4.2510    -0.8530 C.2   1 <1>  -0.1500 
  9 C       -1.3220    -6.3150    -0.5900 C.2   1 <1>   0.7160 
 10 O       -0.5150    -6.9800    -1.2210 O.2   1 <1>  -0.5700 
 11 N       -2.4560    -6.9720    -0.1450 N.am  1 <1>  -0.6600 
 12 C       -3.6120    -6.3510     0.5470 C.3   1 <1>   0.1400 
 13 C       -2.6850    -8.4200    -0.3550 C.3   1 <1>   0.1400 
 14 C       -4.6470    -7.4690     0.6740 C.3   1 <1>   0.2000 
 15 C       -3.8620    -8.7740     0.5540 C.3   1 <1>  -0.0800 
 16 O       -5.3040    -7.4200     1.8930 O.3   1 <1>  -0.6800 
 17 C       -4.7160    -9.9400     0.0340 C.3   1 <1>  -0.0170 
 18 C       -3.8890   -11.2110    -0.0860 C.ar  1 <1>  -0.1430 
 19 C       -3.3490   -11.6260    -1.2870 C.ar  1 <1>  -0.1500 
 20 C       -3.6340   -12.0130     1.0070 C.ar  1 <1>  -0.1500 
 21 C       -2.5970   -12.7880    -1.3330 C.ar  1 <1>   0.1600 
 22 C       -2.8690   -13.1580     0.8530 C.ar  1 <1>   0.1600 
 23 N       -2.3430   -13.5630    -0.2920 N.ar  1 <1>  -0.6200 
 24 H       -2.5480    -1.7390     1.4660 H     1 <1>   0.0800 
 25 H        0.6900    -2.1530    -0.6170 H     1 <1>   0.1500 
 26 H        0.8460    -4.7250    -1.4490 H     1 <1>   0.1500 
 27 H       -3.2970    -6.0000     1.5150 H     1 <1>   0.0800 
 28 H       -4.0020    -5.5340    -0.0340 H     1 <1>   0.0800 
 29 H       -2.9310    -8.5850    -1.3900 H     1 <1>   0.0800 
 30 H       -1.8060    -8.9910    -0.1030 H     1 <1>   0.0800 
 31 H       -5.3790    -7.3760    -0.1100 H     1 <1>   0.0800 
 32 H       -3.4520    -9.0330     1.5140 H     1 <1>   0.0800 
 33 H       -4.6650    -7.4970     2.6270 H     1 <1>   0.4000 
 34 H       -5.1380    -9.6900    -0.9240 H     1 <1>   0.0800 
 35 H       -5.5350   -10.1120     0.7120 H     1 <1>   0.0800 
 36 H       -3.5030   -11.0600    -2.1870 H     1 <1>   0.1500 
 37 H       -4.0210   -11.7590     1.9760 H     1 <1>   0.1500 
 38 H       -2.1820   -13.0970    -2.2780 H     1 <1>   0.1500 
 39 H       -2.6790   -13.7720     1.7160 H     1 <1>   0.1500 
@<TRIPOS>BOND
  1   1   2  1   
  2   2   3  1   
  3   2   4  1   
  4   2  24  1   
  5   4   5  1   
  6   4   6  1   
  7   5   7  2   
  8   6   8  2   
  9   6  25  1   
 10   7   8  1   
 11   7   9  1   
 12   8  26  1   
 13   9  10  2   
 14   9  11  am  
 15  11  12  1   
 16  11  13  1   
 17  12  14  1   
 18  12  27  1   
 19  12  28  1   
 20  13  15  1   
 21  13  29  1   
 22  13  30  1   
 23  14  15  1   
 24  14  16  1   
 25  14  31  1   
 26  15  17  1   
 27  15  32  1   
 28  16  33  1   
 29  17  18  1   
 30  17  34  1   
 31  17  35  1   
 32  18  19  ar  
 33  18  20  ar  
 34  19  21  ar  
 35  19  36  1   
 36  20  22  ar  
 37  20  37  1   
 38  21  23  ar  
 39  21  38  1   
 40  22  23  ar  
 41  22  39  1   
@<TRIPOS>SUBSTRUCTURE
  1 ****  11 GROUP 4 **** **** 0

# MOE 2024.06 (io_trps.svl 2023.06)
