@<TRIPOS>MOLECULE
NONAME
52 55 1 0 0 
SMALL
USER_CHARGES


@<TRIPOS>ATOM
  1 S       -0.1430    -0.0720     1.2950 S.3   1 <1>  -0.3320 
  2 C        1.2680     0.8180     0.6080 C.ar  1 <1>   0.1020 
  3 C       -0.5070    -1.4560     0.1290 C.3   1 <1>   0.0700 
  4 C        1.7630     1.8740     1.3530 C.ar  1 <1>  -0.1500 
  5 C        1.8370     0.4690    -0.6090 C.ar  1 <1>  -0.1500 
  6 C       -1.6820    -2.2500     0.6950 C.3   1 <1>  -0.0990 
  7 C        2.8450     2.5920     0.8750 C.ar  1 <1>   0.0830 
  8 C        2.9250     1.1870    -1.0830 C.ar  1 <1>  -0.1500 
  9 C       -1.9730    -3.4530    -0.1720 C.2   1 <1>   0.5690 
 10 O        3.3120     3.6360     1.6060 O.3   1 <1>  -0.3630 
 11 C        3.4340     2.2410    -0.3430 C.ar  1 <1>   0.0830 
 12 O       -2.1200    -3.3020    -1.3590 O.2   1 <1>  -0.5700 
 13 N       -2.0630    -4.6720     0.4100 N.am  1 <1>  -0.7300 
 14 C        4.1910     4.5320     0.9520 C.3   1 <1>   0.1200 
 15 O        4.5110     2.9150    -0.8220 O.3   1 <1>  -0.3630 
 16 C       -2.3370    -5.9320    -0.3140 C.3   1 <1>   0.2200 
 17 C        5.1950     3.7560     0.0880 C.3   1 <1>   0.1200 
 18 C       -3.7770    -6.3480    -0.0630 C.3   1 <1>  -0.0800 
 19 C       -1.5680    -7.0730     0.3400 C.3   1 <1>   0.1200 
 20 C       -3.6750    -7.1050     1.2680 C.3   1 <1>   0.1200 
 21 C       -4.3140    -7.2360    -1.2010 C.3   1 <1>  -0.0170 
 22 O       -2.3330    -7.4630     1.4400 O.3   1 <1>  -0.5600 
 23 C       -5.7650    -7.6250    -0.9660 C.ar  1 <1>  -0.1440 
 24 C       -6.7940    -6.7240    -1.1470 C.ar  1 <1>  -0.1500 
 25 C       -6.1310    -8.8930    -0.5610 C.ar  1 <1>  -0.1500 
 26 C       -8.1010    -7.1200    -0.9170 C.ar  1 <1>   0.1600 
 27 C       -7.4690    -9.1880    -0.3590 C.ar  1 <1>   0.1600 
 28 N       -8.4630    -8.3310    -0.5250 N.ar  1 <1>  -0.6200 
 29 H       -0.7490    -1.0250    -0.8270 H     1 <1>   0.0800 
 30 H        0.3800    -2.0600     0.0580 H     1 <1>   0.0800 
 31 H        1.3130     2.1370     2.2910 H     1 <1>   0.1500 
 32 H        1.4550    -0.3440    -1.1950 H     1 <1>   0.1500 
 33 H       -1.4510    -2.5670     1.6950 H     1 <1>   0.0800 
 34 H       -2.5560    -1.6270     0.7230 H     1 <1>   0.0800 
 35 H        3.3830     0.9330    -2.0210 H     1 <1>   0.1500 
 36 H       -1.9690    -4.7840     1.4220 H     1 <1>   0.3700 
 37 H        3.6020     5.1920     0.3400 H     1 <1>   0.0800 
 38 H        4.6990     5.1070     1.7050 H     1 <1>   0.0800 
 39 H       -2.0990    -5.8250    -1.3600 H     1 <1>   0.0800 
 40 H        5.8220     3.1380     0.7070 H     1 <1>   0.0800 
 41 H        5.8110     4.4280    -0.4810 H     1 <1>   0.0800 
 42 H       -4.4170    -5.4880     0.0320 H     1 <1>   0.0800 
 43 H       -0.5850    -6.7800     0.6660 H     1 <1>   0.0800 
 44 H       -1.4950    -7.9160    -0.3240 H     1 <1>   0.0800 
 45 H       -4.2780    -7.9950     1.2940 H     1 <1>   0.0800 
 46 H       -3.9480    -6.4670     2.0910 H     1 <1>   0.0800 
 47 H       -3.7130    -8.1240    -1.2990 H     1 <1>   0.0800 
 48 H       -4.2510    -6.6990    -2.1320 H     1 <1>   0.0800 
 49 H       -6.5930    -5.7170    -1.4660 H     1 <1>   0.1500 
 50 H       -5.3910    -9.6560    -0.4010 H     1 <1>   0.1500 
 51 H       -8.8910    -6.4030    -1.0640 H     1 <1>   0.1500 
 52 H       -7.7350   -10.1820    -0.0430 H     1 <1>   0.1500 
@<TRIPOS>BOND
  1   1   2  1   
  2   1   3  1   
  3   2   4  ar  
  4   2   5  ar  
  5   3   6  1   
  6   3  29  1   
  7   3  30  1   
  8   4   7  ar  
  9   4  31  1   
 10   5   8  ar  
 11   5  32  1   
 12   6   9  1   
 13   6  33  1   
 14   6  34  1   
 15   7  10  1   
 16   7  11  ar  
 17   8  11  ar  
 18   8  35  1   
 19   9  12  2   
 20   9  13  am  
 21  10  14  1   
 22  11  15  1   
 23  13  16  1   
 24  13  36  1   
 25  14  17  1   
 26  14  37  1   
 27  14  38  1   
 28  15  17  1   
 29  16  18  1   
 30  16  19  1   
 31  16  39  1   
 32  17  40  1   
 33  17  41  1   
 34  18  20  1   
 35  18  21  1   
 36  18  42  1   
 37  19  22  1   
 38  19  43  1   
 39  19  44  1   
 40  20  22  1   
 41  20  45  1   
 42  20  46  1   
 43  21  23  1   
 44  21  47  1   
 45  21  48  1   
 46  23  24  ar  
 47  23  25  ar  
 48  24  26  ar  
 49  24  49  1   
 50  25  27  ar  
 51  25  50  1   
 52  26  28  ar  
 53  26  51  1   
 54  27  28  ar  
 55  27  52  1   
@<TRIPOS>SUBSTRUCTURE
  1 ****   9 GROUP 4 **** **** 0

# MOE 2024.06 (io_trps.svl 2023.06)
