@<TRIPOS>MOLECULE
NONAME
36 37 1 0 0 
SMALL
USER_CHARGES


@<TRIPOS>ATOM
  1 S       -0.7710     0.3610    -1.1690 S.o2  1 <1>   1.4470 
  2 O       -0.9080    -0.7360    -2.1030 O.2   1 <1>  -0.6500 
  3 O       -1.0890     1.6900    -1.6520 O.2   1 <1>  -0.6500 
  4 N       -1.8200     0.0670     0.1350 N.am  1 <1>  -0.8490 
  5 C        0.8950     0.3530    -0.4250 C.ar  1 <1>  -0.0090 
  6 C       -1.5290    -1.1360     0.9370 C.3   1 <1>   0.1960 
  7 C       -3.2440     0.2410    -0.2010 C.3   1 <1>   0.1960 
  8 C        1.3690     1.3620     0.4210 C.ar  1 <1>  -0.1440 
  9 C        1.7390    -0.7240    -0.6820 C.ar  1 <1>  -0.1500 
 10 C       -1.9950    -2.4370     0.2760 C.3   1 <1>  -0.1860 
 11 C       -4.0840    -1.0310    -0.0220 C.3   1 <1>  -0.1600 
 12 C        2.6460     1.2830     0.9610 C.ar  1 <1>  -0.1500 
 13 C        0.5150     2.5700     0.7840 C.3   1 <1>  -0.0970 
 14 C        3.0080    -0.8030    -0.1400 C.ar  1 <1>  -0.1500 
 15 C       -2.0160    -3.4600     1.3890 C.2   1 <1>   0.9060 
 16 C       -3.3080    -2.2490    -0.5120 C.3   1 <1>   0.2000 
 17 C        3.4650     0.2060     0.6820 C.ar  1 <1>  -0.1500 
 18 O       -0.9350    -3.9120     1.7710 O.co2 1 <1>  -0.9000 
 19 O       -3.0880    -3.7680     1.9270 O.co2 1 <1>  -0.9000 
 20 O       -4.1310    -3.3470    -0.3920 O.3   1 <1>  -0.6800 
 21 H       -0.4790    -1.2050     1.1690 H     1 <1>   0.0800 
 22 H       -2.0420    -1.0320     1.8800 H     1 <1>   0.0800 
 23 H       -3.6520     1.0200     0.4190 H     1 <1>   0.0800 
 24 H       -3.3380     0.5660    -1.2250 H     1 <1>   0.0800 
 25 H        1.3950    -1.5240    -1.3160 H     1 <1>   0.1500 
 26 H       -1.2400    -2.7590    -0.4150 H     1 <1>   0.0800 
 27 H       -4.9980    -0.9330    -0.5770 H     1 <1>   0.0800 
 28 H       -4.3310    -1.1560     1.0180 H     1 <1>   0.0800 
 29 H        3.0110     2.0610     1.6070 H     1 <1>   0.1500 
 30 H        0.9760     3.1530     1.5600 H     1 <1>   0.0800 
 31 H       -0.4510     2.2570     1.1370 H     1 <1>   0.0800 
 32 H        0.3830     3.2010    -0.0780 H     1 <1>   0.0800 
 33 H        3.6340    -1.6520    -0.3570 H     1 <1>   0.1500 
 34 H       -3.0880    -2.1290    -1.5600 H     1 <1>   0.0800 
 35 H        4.4510     0.1510     1.1080 H     1 <1>   0.1500 
 36 H       -3.9900    -3.6920     0.5420 H     1 <1>   0.4000 
@<TRIPOS>BOND
  1   1   2  2   
  2   1   3  2   
  3   1   4  am  
  4   1   5  1   
  5   4   6  1   
  6   4   7  1   
  7   5   8  ar  
  8   5   9  ar  
  9   6  10  1   
 10   6  21  1   
 11   6  22  1   
 12   7  11  1   
 13   7  23  1   
 14   7  24  1   
 15   8  12  ar  
 16   8  13  1   
 17   9  14  ar  
 18   9  25  1   
 19  10  15  1   
 20  10  16  1   
 21  10  26  1   
 22  11  16  1   
 23  11  27  1   
 24  11  28  1   
 25  12  17  ar  
 26  12  29  1   
 27  13  30  1   
 28  13  31  1   
 29  13  32  1   
 30  14  17  ar  
 31  14  33  1   
 32  15  18  ar  
 33  15  19  ar  
 34  16  20  1   
 35  16  34  1   
 36  17  35  1   
 37  20  36  1   
@<TRIPOS>SUBSTRUCTURE
  1 ****   6 GROUP 4 **** **** 0

# MOE 2024.06 (io_trps.svl 2023.06)
