@<TRIPOS>MOLECULE
NONAME
39 41 1 0 0 
SMALL
USER_CHARGES


@<TRIPOS>ATOM
  1 CL      -3.2460     0.9440    -3.2260 Cl    1 <1>  -0.1230 
  2 C       -3.1770     0.9150    -1.4720 C.2   1 <1>   0.1230 
  3 C       -3.2420    -0.2060    -0.6370 C.2   1 <1>   0.2030 
  4 C       -3.0470     1.9940    -0.6840 C.2   1 <1>  -0.3020 
  5 N       -3.1540     0.1930     0.6270 N.2   1 <1>  -0.7070 
  6 C       -3.3850    -1.5880    -1.0590 C.2   1 <1>   0.7160 
  7 N       -3.0360     1.5300     0.5800 N.pl3 1 <1>   0.3140 
  8 O       -3.5420    -1.9220    -2.2200 O.2   1 <1>  -0.5700 
  9 N       -3.3600    -2.5690    -0.1100 N.am  1 <1>  -0.7300 
 10 C       -2.9100     2.3430     1.7960 C.3   1 <1>   0.0160 
 11 C       -3.5690    -4.0150    -0.3380 C.3   1 <1>   0.2200 
 12 C       -4.9970    -4.3730     0.0320 C.3   1 <1>  -0.0800 
 13 C       -2.7590    -4.8270     0.6720 C.3   1 <1>   0.1200 
 14 C       -4.8820    -4.5790     1.5430 C.3   1 <1>   0.1200 
 15 C       -5.4680    -5.6460    -0.6970 C.3   1 <1>  -0.0160 
 16 O       -3.5810    -5.0270     1.7860 O.3   1 <1>  -0.5600 
 17 C       -6.9090    -5.9820    -0.3470 C.ar  1 <1>  -0.1430 
 18 C       -7.9670    -5.2670    -0.8710 C.ar  1 <1>  -0.1500 
 19 C       -7.2350    -7.0130     0.5110 C.ar  1 <1>  -0.1500 
 20 C       -9.2630    -5.6050    -0.5180 C.ar  1 <1>   0.1600 
 21 C       -8.5660    -7.2690     0.7990 C.ar  1 <1>   0.1600 
 22 N       -9.5880    -6.5890     0.3060 N.ar  1 <1>  -0.6200 
 23 H       -2.9650     3.0310    -0.9450 H     1 <1>   0.1500 
 24 H       -3.2760    -2.2580     0.8620 H     1 <1>   0.3700 
 25 H       -3.7280     3.0370     1.8430 H     1 <1>   0.0800 
 26 H       -1.9780     2.8760     1.7690 H     1 <1>   0.0800 
 27 H       -2.9320     1.7000     2.6560 H     1 <1>   0.0800 
 28 H       -3.3170    -4.2690    -1.3540 H     1 <1>   0.0800 
 29 H       -5.6750    -3.5700    -0.1990 H     1 <1>   0.0800 
 30 H       -1.8570    -4.3260     0.9750 H     1 <1>   0.0800 
 31 H       -2.5190    -5.7960     0.2710 H     1 <1>   0.0800 
 32 H       -5.5830    -5.2960     1.9330 H     1 <1>   0.0800 
 33 H       -5.0040    -3.6440     2.0610 H     1 <1>   0.0800 
 34 H       -4.8310    -6.4770    -0.4470 H     1 <1>   0.0800 
 35 H       -5.4000    -5.4930    -1.7600 H     1 <1>   0.0800 
 36 H       -7.7960    -4.4510    -1.5490 H     1 <1>   0.1500 
 37 H       -6.4680    -7.6180     0.9600 H     1 <1>   0.1500 
 38 H      -10.0760    -5.0360    -0.9350 H     1 <1>   0.1500 
 39 H       -8.8010    -8.0770     1.4700 H     1 <1>   0.1500 
@<TRIPOS>BOND
  1   1   2  1   
  2   2   3  1   
  3   2   4  2   
  4   3   5  2   
  5   3   6  1   
  6   4   7  1   
  7   4  23  1   
  8   5   7  1   
  9   6   8  2   
 10   6   9  am  
 11   7  10  1   
 12   9  11  1   
 13   9  24  1   
 14  10  25  1   
 15  10  26  1   
 16  10  27  1   
 17  11  12  1   
 18  11  13  1   
 19  11  28  1   
 20  12  14  1   
 21  12  15  1   
 22  12  29  1   
 23  13  16  1   
 24  13  30  1   
 25  13  31  1   
 26  14  16  1   
 27  14  32  1   
 28  14  33  1   
 29  15  17  1   
 30  15  34  1   
 31  15  35  1   
 32  17  18  ar  
 33  17  19  ar  
 34  18  20  ar  
 35  18  36  1   
 36  19  21  ar  
 37  19  37  1   
 38  20  22  ar  
 39  20  38  1   
 40  21  22  ar  
 41  21  39  1   
@<TRIPOS>SUBSTRUCTURE
  1 ****  12 GROUP 4 **** **** 0

# MOE 2024.06 (io_trps.svl 2023.06)
