@<TRIPOS>MOLECULE
NONAME
41 42 1 0 0 
SMALL
USER_CHARGES


@<TRIPOS>ATOM
  1 CL      -3.1880    -1.6430    -4.3150 Cl    1 <1>  -0.1770 
  2 C       -2.9370    -2.1690    -2.6700 C.ar  1 <1>   0.1770 
  3 C       -3.3020    -3.4520    -2.3080 C.ar  1 <1>  -0.1500 
  4 C       -2.3780    -1.2940    -1.7570 C.ar  1 <1>  -0.1500 
  5 C       -3.1070    -3.8750    -1.0020 C.ar  1 <1>  -0.1440 
  6 C       -2.1820    -1.7170    -0.4530 C.ar  1 <1>  -0.1500 
  7 C       -2.5460    -3.0010    -0.0800 C.ar  1 <1>  -0.1500 
  8 C       -3.5060    -5.2800    -0.5780 C.3   1 <1>  -0.0160 
  9 C       -4.8990    -5.2690     0.0490 C.3   1 <1>   0.1400 
 10 N       -5.2900    -6.6440     0.4240 N.am  1 <1>  -0.7300 
 11 C       -5.3020    -7.1590     1.6810 C.2   1 <1>   0.5690 
 12 O       -4.9510    -6.5180     2.6420 O.2   1 <1>  -0.5700 
 13 C       -5.7600    -8.6100     1.8700 C.3   1 <1>   0.1710 
 14 N       -6.5820    -9.1620     0.7470 N.3   1 <1>  -0.8100 
 15 C       -6.6640   -10.6400     0.8470 C.3   1 <1>   0.2540 
 16 C       -7.9360    -8.5730     0.7630 C.3   1 <1>   0.0300 
 17 C       -7.2890   -11.2920    -0.3840 C.ar  1 <1>   0.1670 
 18 N       -8.1310   -12.2950    -0.1740 N.ar  1 <1>  -0.6200 
 19 C       -6.9520   -10.8250    -1.6530 C.ar  1 <1>   0.1600 
 20 C       -8.6070   -12.7870    -1.3060 C.ar  1 <1>   0.1600 
 21 N       -7.4280   -11.3170    -2.7860 N.ar  1 <1>  -0.6200 
 22 C       -8.2670   -12.3140    -2.5680 C.ar  1 <1>   0.1600 
 23 H       -3.7340    -4.1030    -3.0460 H     1 <1>   0.1500 
 24 H       -2.1020    -0.3020    -2.0650 H     1 <1>   0.1500 
 25 H       -1.7480    -1.0480     0.2710 H     1 <1>   0.1500 
 26 H       -2.3900    -3.3190     0.9370 H     1 <1>   0.1500 
 27 H       -2.7960    -5.6540     0.1390 H     1 <1>   0.0800 
 28 H       -3.4980    -5.9320    -1.4330 H     1 <1>   0.0800 
 29 H       -5.6160    -4.8700    -0.6470 H     1 <1>   0.0800 
 30 H       -4.8940    -4.6410     0.9250 H     1 <1>   0.0800 
 31 H       -5.6440    -7.2610    -0.3150 H     1 <1>   0.3700 
 32 H       -6.3090    -8.6770     2.7940 H     1 <1>   0.0800 
 33 H       -4.8670    -9.1990     1.9790 H     1 <1>   0.0800 
 34 H       -7.2360   -10.9130     1.7190 H     1 <1>   0.0800 
 35 H       -5.6750   -11.0490     0.9630 H     1 <1>   0.0800 
 36 H       -7.8820    -7.5000     0.6970 H     1 <1>   0.0800 
 37 H       -8.4530    -8.8360     1.6710 H     1 <1>   0.0800 
 38 H       -8.5100    -8.9290    -0.0760 H     1 <1>   0.0800 
 39 H       -6.2590   -10.0060    -1.7290 H     1 <1>   0.1500 
 40 H       -9.3010   -13.6050    -1.2320 H     1 <1>   0.1500 
 41 H       -8.7090   -12.7820    -3.4300 H     1 <1>   0.1500 
@<TRIPOS>BOND
  1   1   2  1   
  2   2   3  ar  
  3   2   4  ar  
  4   3   5  ar  
  5   3  23  1   
  6   4   6  ar  
  7   4  24  1   
  8   5   7  ar  
  9   5   8  1   
 10   6   7  ar  
 11   6  25  1   
 12   7  26  1   
 13   8   9  1   
 14   8  27  1   
 15   8  28  1   
 16   9  10  1   
 17   9  29  1   
 18   9  30  1   
 19  10  11  am  
 20  10  31  1   
 21  11  12  2   
 22  11  13  1   
 23  13  14  1   
 24  13  32  1   
 25  13  33  1   
 26  14  15  1   
 27  14  16  1   
 28  15  17  1   
 29  15  34  1   
 30  15  35  1   
 31  16  36  1   
 32  16  37  1   
 33  16  38  1   
 34  17  18  ar  
 35  17  19  ar  
 36  18  20  ar  
 37  19  21  ar  
 38  19  39  1   
 39  20  22  ar  
 40  20  40  1   
 41  21  22  ar  
 42  22  41  1   
@<TRIPOS>SUBSTRUCTURE
  1 ****  10 GROUP 4 **** **** 0

# MOE 2024.06 (io_trps.svl 2023.06)
