@<TRIPOS>MOLECULE
NONAME
47 49 1 0 0 
SMALL
USER_CHARGES


@<TRIPOS>ATOM
  1 S       -0.1440     0.0770     1.8040 S.o2  1 <1>   1.2040 
  2 O        0.8060    -0.8770     2.3360 O.2   1 <1>  -0.6500 
  3 O       -0.9850     0.8280     2.7100 O.2   1 <1>  -0.6500 
  4 C       -1.1660    -0.7210     0.5430 C.ar  1 <1>  -0.0090 
  5 C        0.7800     1.2480     0.8270 C.3   1 <1>  -0.0550 
  6 C       -2.4050    -0.1990     0.1900 C.ar  1 <1>  -0.1500 
  7 C       -0.7230    -1.8560    -0.1270 C.ar  1 <1>  -0.1500 
  8 C        1.7090     2.0760     1.7080 C.3   1 <1>   0.1100 
  9 C       -3.1750    -0.7840    -0.8000 C.ar  1 <1>  -0.1500 
 10 C       -1.4870    -2.4480    -1.1180 C.ar  1 <1>  -0.1500 
 11 N        2.4420     3.0450     0.8800 N.3   1 <1>  -0.8100 
 12 C       -2.7150    -1.9110    -1.4570 C.ar  1 <1>  -0.1500 
 13 C        3.6180     2.4360     0.2330 C.3   1 <1>   0.1100 
 14 C        2.8110     4.2310     1.6680 C.3   1 <1>   0.1100 
 15 C        4.2690     3.4400    -0.7180 C.3   1 <1>  -0.1600 
 16 C        3.4410     5.2890     0.7610 C.3   1 <1>  -0.1600 
 17 C        4.6590     4.7120     0.0320 C.3   1 <1>   0.2000 
 18 O        5.1320     5.6430    -0.9180 O.3   1 <1>  -0.3630 
 19 C        5.8440     6.7590    -0.5880 C.ar  1 <1>   0.0830 
 20 C        6.0960     7.7030    -1.5790 C.ar  1 <1>   0.1900 
 21 C        6.3410     7.0110     0.6890 C.ar  1 <1>  -0.1500 
 22 F        5.6490     7.5040    -2.7950 F     1 <1>  -0.1900 
 23 C        6.8070     8.8630    -1.3380 C.ar  1 <1>  -0.1500 
 24 C        7.0560     8.1720     0.9450 C.ar  1 <1>  -0.1500 
 25 C        7.2900     9.0970    -0.0620 C.ar  1 <1>  -0.1500 
 26 H        0.1040     1.9130     0.3250 H     1 <1>   0.0800 
 27 H        1.3540     0.7220     0.0920 H     1 <1>   0.0800 
 28 H       -2.7760     0.6760     0.6980 H     1 <1>   0.1500 
 29 H        0.2300    -2.2870     0.1320 H     1 <1>   0.1500 
 30 H        2.3950     1.4410     2.2440 H     1 <1>   0.0800 
 31 H        1.1030     2.5980     2.4320 H     1 <1>   0.0800 
 32 H       -4.1330    -0.3650    -1.0580 H     1 <1>   0.1500 
 33 H       -1.1270    -3.3280    -1.6240 H     1 <1>   0.1500 
 34 H       -3.3110    -2.3690    -2.2270 H     1 <1>   0.1500 
 35 H        3.3210     1.5690    -0.3320 H     1 <1>   0.0800 
 36 H        4.3280     2.1240     0.9820 H     1 <1>   0.0800 
 37 H        3.4990     3.9530     2.4500 H     1 <1>   0.0800 
 38 H        1.9280     4.6490     2.1240 H     1 <1>   0.0800 
 39 H        3.5710     3.6790    -1.5010 H     1 <1>   0.0800 
 40 H        5.1440     3.0010    -1.1590 H     1 <1>   0.0800 
 41 H        3.7280     6.1360     1.3560 H     1 <1>   0.0800 
 42 H        2.7080     5.6090     0.0430 H     1 <1>   0.0800 
 43 H        5.4520     4.4790     0.7190 H     1 <1>   0.0800 
 44 H        6.1860     6.3230     1.4960 H     1 <1>   0.1500 
 45 H        6.9760     9.5640    -2.1350 H     1 <1>   0.1500 
 46 H        7.4350     8.3590     1.9350 H     1 <1>   0.1500 
 47 H        7.8470     9.9940     0.1480 H     1 <1>   0.1500 
@<TRIPOS>BOND
  1   1   2  2   
  2   1   3  2   
  3   1   4  1   
  4   1   5  1   
  5   4   6  ar  
  6   4   7  ar  
  7   5   8  1   
  8   5  26  1   
  9   5  27  1   
 10   6   9  ar  
 11   6  28  1   
 12   7  10  ar  
 13   7  29  1   
 14   8  11  1   
 15   8  30  1   
 16   8  31  1   
 17   9  12  ar  
 18   9  32  1   
 19  10  12  ar  
 20  10  33  1   
 21  11  13  1   
 22  11  14  1   
 23  12  34  1   
 24  13  15  1   
 25  13  35  1   
 26  13  36  1   
 27  14  16  1   
 28  14  37  1   
 29  14  38  1   
 30  15  17  1   
 31  15  39  1   
 32  15  40  1   
 33  16  17  1   
 34  16  41  1   
 35  16  42  1   
 36  17  18  1   
 37  17  43  1   
 38  18  19  1   
 39  19  20  ar  
 40  19  21  ar  
 41  20  22  1   
 42  20  23  ar  
 43  21  24  ar  
 44  21  44  1   
 45  23  25  ar  
 46  23  45  1   
 47  24  25  ar  
 48  24  46  1   
 49  25  47  1   
@<TRIPOS>SUBSTRUCTURE
  1 ****  11 GROUP 4 **** **** 0

# MOE 2024.06 (io_trps.svl 2023.06)
