@<TRIPOS>MOLECULE
NONAME
56 59 1 0 0 
SMALL
USER_CHARGES


@<TRIPOS>ATOM
  1 O       -0.5740     1.2630    -2.1320 O.2   1 <1>  -0.5700 
  2 C       -0.3040     2.4250    -1.9420 C.2   1 <1>   0.5690 
  3 N       -0.9050     3.1970    -0.9680 N.am  1 <1>  -0.5090 
  4 C        0.7790     3.0370    -2.8400 C.3   1 <1>   0.1810 
  5 C       -0.3170     4.5340    -0.6370 C.3   1 <1>   0.3640 
  6 C       -1.7740     2.5960     0.0840 C.3   1 <1>   0.0490 
  7 O        1.4110     4.1610    -2.2680 O.3   1 <1>  -0.5600 
  8 C       -1.3460     5.5500    -0.1480 C.ar  1 <1>  -0.1440 
  9 C        0.4890     5.1230    -1.8120 C.3   1 <1>   0.2610 
 10 C       -2.8600     1.6260    -0.2710 C.3   1 <1>  -0.2000 
 11 C       -3.2130     3.0040     0.1810 C.3   1 <1>  -0.2000 
 12 C       -1.2310     6.0680     1.1350 C.ar  1 <1>   0.1600 
 13 C       -2.3780     5.9980    -0.9510 C.ar  1 <1>  -0.1500 
 14 C        1.2030     6.3990    -1.3620 C.2   1 <1>   0.5690 
 15 N       -2.0200     6.9920     1.6580 N.ar  1 <1>  -0.6200 
 16 C       -3.2310     6.9360    -0.4110 C.ar  1 <1>  -0.1500 
 17 O        0.7490     7.4740    -1.6770 O.2   1 <1>  -0.5700 
 18 N        2.3120     6.3120    -0.5750 N.am  1 <1>  -0.7300 
 19 C       -3.0150     7.3890     0.8790 C.ar  1 <1>   0.1600 
 20 C        3.1630     7.4400    -0.0830 C.3   1 <1>   0.1400 
 21 C        2.4620     8.3210     0.9780 C.3   1 <1>   0.3430 
 22 N        1.3770     9.1620     0.3930 N.4   1 <1>  -0.9590 
 23 C        1.8930    10.4000    -0.2560 C.3   1 <1>   0.3430 
 24 C        0.2770     9.4350     1.3590 C.3   1 <1>   0.3430 
 25 C        0.7590    11.0990    -1.0060 C.3   1 <1>  -0.1600 
 26 C       -0.8790    10.1220     0.6300 C.3   1 <1>  -0.1600 
 27 C       -0.4290    11.4020    -0.0850 C.3   1 <1>  -0.1600 
 28 H        0.3440     3.3290    -3.7790 H     1 <1>   0.0800 
 29 H        1.5380     2.2990    -3.0310 H     1 <1>   0.0800 
 30 H        0.3810     4.3670     0.1650 H     1 <1>   0.0800 
 31 H       -1.2340     2.4040     0.9960 H     1 <1>   0.1000 
 32 H       -0.1670     5.3750    -2.6270 H     1 <1>   0.0800 
 33 H       -3.0230     1.3670    -1.3030 H     1 <1>   0.1000 
 34 H       -3.0520     0.8020     0.3930 H     1 <1>   0.1000 
 35 H       -3.6540     3.1230     1.1540 H     1 <1>   0.1000 
 36 H       -3.6540     3.6510    -0.5540 H     1 <1>   0.1000 
 37 H       -0.4420     5.7080     1.7720 H     1 <1>   0.1500 
 38 H       -2.5250     5.6300    -1.9530 H     1 <1>   0.1500 
 39 H       -4.0620     7.3110    -0.9820 H     1 <1>   0.1500 
 40 H        2.7680     5.3890    -0.5560 H     1 <1>   0.3700 
 41 H       -3.6950     8.1170     1.2880 H     1 <1>   0.1500 
 42 H        4.0500     7.0190     0.3600 H     1 <1>   0.0800 
 43 H        3.4750     8.0440    -0.9170 H     1 <1>   0.0800 
 44 H        3.1900     8.9600     1.4510 H     1 <1>   0.0800 
 45 H        2.0540     7.6730     1.7360 H     1 <1>   0.0800 
 46 H        0.9510     8.6000    -0.3750 H     1 <1>   0.4500 
 47 H        2.2930    11.0650     0.4920 H     1 <1>   0.0800 
 48 H        2.6780    10.1540    -0.9530 H     1 <1>   0.0800 
 49 H       -0.0760     8.5130     1.7920 H     1 <1>   0.0800 
 50 H        0.6330    10.0710     2.1530 H     1 <1>   0.0800 
 51 H        1.1270    12.0170    -1.4290 H     1 <1>   0.0800 
 52 H        0.4390    10.4730    -1.8230 H     1 <1>   0.0800 
 53 H       -1.2960     9.4360    -0.0860 H     1 <1>   0.0800 
 54 H       -1.6520    10.3580     1.3410 H     1 <1>   0.0800 
 55 H       -1.2450    11.8040    -0.6610 H     1 <1>   0.0800 
 56 H       -0.1430    12.1420     0.6440 H     1 <1>   0.0800 
@<TRIPOS>BOND
  1   1   2  2   
  2   2   3  am  
  3   2   4  1   
  4   3   5  1   
  5   3   6  1   
  6   4   7  1   
  7   4  28  1   
  8   4  29  1   
  9   5   8  1   
 10   5   9  1   
 11   5  30  1   
 12   6  10  1   
 13   6  11  1   
 14   6  31  1   
 15   7   9  1   
 16   8  12  ar  
 17   8  13  ar  
 18   9  14  1   
 19   9  32  1   
 20  10  11  1   
 21  10  33  1   
 22  10  34  1   
 23  11  35  1   
 24  11  36  1   
 25  12  15  ar  
 26  12  37  1   
 27  13  16  ar  
 28  13  38  1   
 29  14  17  2   
 30  14  18  am  
 31  15  19  ar  
 32  16  19  ar  
 33  16  39  1   
 34  18  20  1   
 35  18  40  1   
 36  19  41  1   
 37  20  21  1   
 38  20  42  1   
 39  20  43  1   
 40  21  22  1   
 41  21  44  1   
 42  21  45  1   
 43  22  23  1   
 44  22  24  1   
 45  22  46  1   
 46  23  25  1   
 47  23  47  1   
 48  23  48  1   
 49  24  26  1   
 50  24  49  1   
 51  24  50  1   
 52  25  27  1   
 53  25  51  1   
 54  25  52  1   
 55  26  27  1   
 56  26  53  1   
 57  26  54  1   
 58  27  55  1   
 59  27  56  1   
@<TRIPOS>SUBSTRUCTURE
  1 ****   8 GROUP 4 **** **** 0

# MOE 2024.06 (io_trps.svl 2023.06)
