@<TRIPOS>MOLECULE
NONAME
41 43 1 0 0 
SMALL
USER_CHARGES


@<TRIPOS>ATOM
  1 O        2.1220    -0.7440     0.7610 O.2   1 <1>  -0.5700 
  2 C        1.9640    -0.8420    -0.4390 C.2   1 <1>   0.7160 
  3 N        2.6120     0.0170    -1.2760 N.am  1 <1>  -0.4930 
  4 C        1.1020    -1.8560    -0.9900 C.2   1 <1>  -0.0860 
  5 C        3.4760     1.0950    -1.0260 C.2   1 <1>   0.3520 
  6 C        0.6550    -2.0440    -2.2630 C.2   1 <1>  -0.0100 
  7 C        0.5130    -2.9140    -0.2680 C.2   1 <1>  -0.1500 
  8 N        4.1340     1.5960    -1.9960 N.2   1 <1>  -0.4100 
  9 C        3.7890     1.8200     0.1380 C.2   1 <1>   0.3520 
 10 O       -0.1250    -3.0930    -2.3460 O.3   1 <1>  -0.2800 
 11 C       -0.2230    -3.6270    -1.1460 C.2   1 <1>  -0.0400 
 12 O        4.8130     2.5600    -1.4540 O.3   1 <1>   0.2420 
 13 N        4.6320     2.7270    -0.1800 N.2   1 <1>  -0.4100 
 14 N        3.2890     1.6270     1.4390 N.am  1 <1>  -0.4930 
 15 C       -1.0820    -4.8710    -0.9670 C.3   1 <1>   0.2900 
 16 C        3.3720     2.3610     2.5760 C.2   1 <1>   0.5690 
 17 N       -1.3030    -5.1830     0.4580 N.3   1 <1>  -0.8100 
 18 O        2.8510     1.9590     3.5840 O.2   1 <1>  -0.5700 
 19 C        4.0920     3.6890     2.6270 C.3   1 <1>  -0.1790 
 20 C       -1.8030    -6.5600     0.6320 C.3   1 <1>   0.1100 
 21 C       -2.2540    -4.2370     1.0810 C.3   1 <1>   0.1100 
 22 C       -2.0810    -6.8620     2.1160 C.3   1 <1>   0.1200 
 23 C       -2.5150    -4.6080     2.5520 C.3   1 <1>   0.1200 
 24 O       -2.9750    -5.9260     2.6490 O.3   1 <1>  -0.5600 
 25 H        2.5370    -0.2000    -2.2660 H     1 <1>   0.3700 
 26 H        0.8410    -1.4780    -3.1580 H     1 <1>   0.1500 
 27 H        0.6450    -3.0960     0.7850 H     1 <1>   0.1500 
 28 H        2.7650     0.7510     1.5680 H     1 <1>   0.3700 
 29 H       -0.5730    -5.6920    -1.4410 H     1 <1>   0.0800 
 30 H       -2.0270    -4.7310    -1.4620 H     1 <1>   0.0800 
 31 H        3.6830     4.3570     1.8930 H     1 <1>   0.0800 
 32 H        5.1390     3.5420     2.4390 H     1 <1>   0.0800 
 33 H        3.9740     4.1300     3.6000 H     1 <1>   0.0800 
 34 H       -1.0690    -7.2560     0.2660 H     1 <1>   0.0800 
 35 H       -2.7120    -6.6990     0.0710 H     1 <1>   0.0800 
 36 H       -3.1900    -4.2470     0.5500 H     1 <1>   0.0800 
 37 H       -1.8580    -3.2380     1.0410 H     1 <1>   0.0800 
 38 H       -1.1680    -6.8300     2.6840 H     1 <1>   0.0800 
 39 H       -2.5240    -7.8360     2.2220 H     1 <1>   0.0800 
 40 H       -3.2680    -3.9650     2.9710 H     1 <1>   0.0800 
 41 H       -1.6130    -4.5130     3.1300 H     1 <1>   0.0800 
@<TRIPOS>BOND
  1   1   2  2   
  2   2   3  am  
  3   2   4  1   
  4   3   5  1   
  5   3  25  1   
  6   4   6  2   
  7   4   7  1   
  8   5   8  2   
  9   5   9  1   
 10   6  10  1   
 11   6  26  1   
 12   7  11  2   
 13   7  27  1   
 14   8  12  1   
 15   9  13  2   
 16   9  14  1   
 17  10  11  1   
 18  11  15  1   
 19  12  13  1   
 20  14  16  am  
 21  14  28  1   
 22  15  17  1   
 23  15  29  1   
 24  15  30  1   
 25  16  18  2   
 26  16  19  1   
 27  17  20  1   
 28  17  21  1   
 29  19  31  1   
 30  19  32  1   
 31  19  33  1   
 32  20  22  1   
 33  20  34  1   
 34  20  35  1   
 35  21  23  1   
 36  21  36  1   
 37  21  37  1   
 38  22  24  1   
 39  22  38  1   
 40  22  39  1   
 41  23  24  1   
 42  23  40  1   
 43  23  41  1   
@<TRIPOS>SUBSTRUCTURE
  1 ****   2 GROUP 4 **** **** 0

# MOE 2024.06 (io_trps.svl 2023.06)
