@<TRIPOS>MOLECULE
NONAME
61 63 1 0 0 
SMALL
USER_CHARGES


@<TRIPOS>ATOM
  1 O        2.5000    -1.2550    -1.4710 O.2   1 <1>  -0.5700 
  2 C        1.5270    -1.1950    -0.7520 C.2   1 <1>   0.5690 
  3 N        0.2990    -0.8730    -1.2630 N.am  1 <1>  -0.6600 
  4 C        1.7330    -1.4300     0.7510 C.3   1 <1>  -0.0190 
  5 C        0.0890    -0.6430    -2.7100 C.3   1 <1>   0.1400 
  6 C       -0.9630    -0.6740    -0.5130 C.3   1 <1>   0.1400 
  7 C        2.6780    -0.3820     1.4070 C.3   1 <1>  -0.0190 
  8 C        2.1980    -2.8870     1.0040 C.3   1 <1>  -0.1600 
  9 C       -1.2580     0.0610    -2.7970 C.3   1 <1>  -0.1600 
 10 C       -2.0280    -0.4390    -1.5790 C.3   1 <1>  -0.1600 
 11 C        2.5500     1.0190     0.8060 C.2   1 <1>   0.5690 
 12 C        4.1350    -0.8840     1.4440 C.3   1 <1>  -0.1600 
 13 C        2.9880    -3.0240     2.3110 C.3   1 <1>  -0.1600 
 14 O        1.9880     1.8850     1.4350 O.2   1 <1>  -0.5700 
 15 N        3.0960     1.2950    -0.4010 N.am  1 <1>  -0.7300 
 16 C        4.2700    -2.1720     2.2810 C.3   1 <1>  -0.1600 
 17 C        2.7320     2.4510    -1.2400 C.3   1 <1>   0.2840 
 18 C        3.9560     3.2800    -1.6210 C.ar  1 <1>  -0.1440 
 19 C        4.8740     3.7910    -0.6980 C.ar  1 <1>  -0.1440 
 20 C        4.1370     3.5510    -2.9700 C.ar  1 <1>  -0.1500 
 21 C        5.9390     4.5590    -1.1500 C.ar  1 <1>  -0.1500 
 22 C        4.7910     3.5470     0.8040 C.3   1 <1>   0.4860 
 23 C        5.2010     4.3160    -3.4080 C.ar  1 <1>  -0.1500 
 24 C        6.1040     4.8230    -2.4960 C.ar  1 <1>  -0.1500 
 25 N        3.5840     4.1770     1.4170 N.4   1 <1>  -0.9590 
 26 C        3.2880     5.5430     0.8870 C.3   1 <1>   0.2630 
 27 C        3.6630     4.1650     2.9040 C.3   1 <1>   0.2630 
 28 H        0.7900    -1.3190     1.2490 H     1 <1>   0.0800 
 29 H        0.8810    -0.0470    -3.1290 H     1 <1>   0.0800 
 30 H        0.0520    -1.5950    -3.2120 H     1 <1>   0.0800 
 31 H       -1.2010    -1.5390     0.0830 H     1 <1>   0.0800 
 32 H       -0.8680     0.1940     0.1180 H     1 <1>   0.0800 
 33 H        2.3700    -0.2870     2.4340 H     1 <1>   0.0800 
 34 H        1.3420    -3.5400     1.0190 H     1 <1>   0.0800 
 35 H        2.8330    -3.2140     0.1970 H     1 <1>   0.0800 
 36 H       -1.1050     1.1240    -2.7240 H     1 <1>   0.0800 
 37 H       -1.7640    -0.1570    -3.7220 H     1 <1>   0.0800 
 38 H       -2.5040    -1.3770    -1.8100 H     1 <1>   0.0800 
 39 H       -2.7770     0.2600    -1.2510 H     1 <1>   0.0800 
 40 H        4.4620    -1.0870     0.4370 H     1 <1>   0.0800 
 41 H        4.7840    -0.1280     1.8500 H     1 <1>   0.0800 
 42 H        2.3650    -2.7120     3.1320 H     1 <1>   0.0800 
 43 H        3.2470    -4.0560     2.4770 H     1 <1>   0.0800 
 44 H        3.4180     0.4820    -0.9540 H     1 <1>   0.3700 
 45 H        5.0770    -2.7580     1.8740 H     1 <1>   0.0800 
 46 H        4.5370    -1.9210     3.2930 H     1 <1>   0.0800 
 47 H        2.2490     2.0780    -2.1270 H     1 <1>   0.0800 
 48 H        2.0180     3.0750    -0.7320 H     1 <1>   0.0800 
 49 H        3.4480     3.1660    -3.7040 H     1 <1>   0.1500 
 50 H        6.6630     4.9600    -0.4600 H     1 <1>   0.1500 
 51 H        5.6760     3.9520     1.2660 H     1 <1>   0.0800 
 52 H        4.7820     2.4860     0.9910 H     1 <1>   0.0800 
 53 H        5.3270     4.5160    -4.4590 H     1 <1>   0.1500 
 54 H        6.9340     5.4180    -2.8370 H     1 <1>   0.1500 
 55 H        2.8000     3.5340     1.1720 H     1 <1>   0.4500 
 56 H        4.1020     6.2140     1.1060 H     1 <1>   0.0800 
 57 H        2.3870     5.9300     1.3350 H     1 <1>   0.0800 
 58 H        3.1500     5.5090    -0.1820 H     1 <1>   0.0800 
 59 H        4.4870     4.7710     3.2430 H     1 <1>   0.0800 
 60 H        3.8000     3.1560     3.2590 H     1 <1>   0.0800 
 61 H        2.7500     4.5500     3.3270 H     1 <1>   0.0800 
@<TRIPOS>BOND
  1   1   2  2   
  2   2   3  am  
  3   2   4  1   
  4   3   5  1   
  5   3   6  1   
  6   4   7  1   
  7   4   8  1   
  8   4  28  1   
  9   5   9  1   
 10   5  29  1   
 11   5  30  1   
 12   6  10  1   
 13   6  31  1   
 14   6  32  1   
 15   7  11  1   
 16   7  12  1   
 17   7  33  1   
 18   8  13  1   
 19   8  34  1   
 20   8  35  1   
 21   9  10  1   
 22   9  36  1   
 23   9  37  1   
 24  10  38  1   
 25  10  39  1   
 26  11  14  2   
 27  11  15  am  
 28  12  16  1   
 29  12  40  1   
 30  12  41  1   
 31  13  16  1   
 32  13  42  1   
 33  13  43  1   
 34  15  17  1   
 35  15  44  1   
 36  16  45  1   
 37  16  46  1   
 38  17  18  1   
 39  17  47  1   
 40  17  48  1   
 41  18  19  ar  
 42  18  20  ar  
 43  19  21  ar  
 44  19  22  1   
 45  20  23  ar  
 46  20  49  1   
 47  21  24  ar  
 48  21  50  1   
 49  22  25  1   
 50  22  51  1   
 51  22  52  1   
 52  23  24  ar  
 53  23  53  1   
 54  24  54  1   
 55  25  26  1   
 56  25  27  1   
 57  25  55  1   
 58  26  56  1   
 59  26  57  1   
 60  26  58  1   
 61  27  59  1   
 62  27  60  1   
 63  27  61  1   
@<TRIPOS>SUBSTRUCTURE
  1 ****  15 GROUP 4 **** **** 0

# MOE 2024.06 (io_trps.svl 2023.06)
