@<TRIPOS>MOLECULE
NONAME
54 55 1 0 0 
SMALL
USER_CHARGES


@<TRIPOS>ATOM
  1 O        0.7060    -0.4710     0.9670 O.2   1 <1>  -0.5700 
  2 C        0.8270    -0.5180    -0.2350 C.2   1 <1>   0.5690 
  3 N        1.3070     0.5190    -0.9930 N.am  1 <1>  -0.5470 
  4 C        0.4080    -1.8380    -0.9070 C.3   1 <1>   0.4040 
  5 C        1.7260     1.7990    -0.5890 C.ar  1 <1>   0.1170 
  6 N       -0.5030    -2.6730    -0.0310 N.4   1 <1>  -0.9590 
  7 C        2.6690     2.4670    -1.3620 C.ar  1 <1>  -0.1500 
  8 C        1.2260     2.4400     0.5410 C.ar  1 <1>  -0.1500 
  9 C       -0.4380    -4.1270    -0.3820 C.3   1 <1>   0.3430 
 10 C       -1.8960    -2.1200    -0.0140 C.3   1 <1>   0.2630 
 11 C        3.1080     3.7310    -1.0120 C.ar  1 <1>  -0.1500 
 12 C        1.6650     3.7040     0.8920 C.ar  1 <1>  -0.1500 
 13 C       -1.0900    -5.0180     0.6770 C.3   1 <1>   0.0210 
 14 C        2.6140     4.3610     0.1210 C.ar  1 <1>   0.1170 
 15 C       -0.8310    -6.4570     0.2900 C.2   1 <1>  -0.1810 
 16 N        3.0650     5.6390     0.4810 N.am  1 <1>  -0.4770 
 17 C        0.2810    -7.2220     0.6390 C.2   1 <1>   0.1080 
 18 C       -1.5930    -7.2790    -0.4670 C.2   1 <1>  -0.3320 
 19 C        4.0840     5.8770     1.3730 C.2   1 <1>   0.5690 
 20 C        2.3860     6.7920    -0.1630 C.3   1 <1>   0.0600 
 21 N        0.2300    -8.4110     0.1360 N.2   1 <1>  -0.7070 
 22 C        1.4430    -6.7840     1.5050 C.3   1 <1>  -0.0590 
 23 N       -0.9300    -8.4540    -0.5390 N.pl3 1 <1>   0.3000 
 24 C       -2.9340    -7.0610    -1.1490 C.3   1 <1>  -0.0600 
 25 O        4.4500     6.9930     1.6540 O.2   1 <1>  -0.5700 
 26 C        4.7880     4.7130     2.0340 C.3   1 <1>  -0.1790 
 27 H        1.4530     0.3530    -1.9890 H     1 <1>   0.3700 
 28 H        1.3090    -2.3920    -1.1120 H     1 <1>   0.0800 
 29 H       -0.0770    -1.6250    -1.8430 H     1 <1>   0.0800 
 30 H       -0.1190    -2.5340     0.9240 H     1 <1>   0.4500 
 31 H        3.0740     2.0030    -2.2430 H     1 <1>   0.1500 
 32 H        0.4880     1.9620     1.1580 H     1 <1>   0.1500 
 33 H        0.5930    -4.4280    -0.4770 H     1 <1>   0.0800 
 34 H       -0.9180    -4.3030    -1.3310 H     1 <1>   0.0800 
 35 H       -2.3480    -2.2010    -0.9890 H     1 <1>   0.0800 
 36 H       -1.8790    -1.0800     0.2770 H     1 <1>   0.0800 
 37 H       -2.5050    -2.6560     0.6950 H     1 <1>   0.0800 
 38 H        3.8410     4.2380    -1.6140 H     1 <1>   0.1500 
 39 H        1.2740     4.1890     1.7680 H     1 <1>   0.1500 
 40 H       -2.1490    -4.8490     0.7200 H     1 <1>   0.0800 
 41 H       -0.6670    -4.8280     1.6470 H     1 <1>   0.0800 
 42 H        1.5370     6.4590    -0.7330 H     1 <1>   0.0800 
 43 H        3.0780     7.2960    -0.8160 H     1 <1>   0.0800 
 44 H        2.0540     7.4830     0.5930 H     1 <1>   0.0800 
 45 H        1.8610    -5.8660     1.1390 H     1 <1>   0.0800 
 46 H        2.2080    -7.5400     1.4920 H     1 <1>   0.0800 
 47 H        1.1110    -6.6530     2.5180 H     1 <1>   0.0800 
 48 H       -1.2380    -9.3000    -1.0340 H     1 <1>   0.2700 
 49 H       -3.2960    -6.0630    -0.9830 H     1 <1>   0.0800 
 50 H       -3.6600    -7.7530    -0.7600 H     1 <1>   0.0800 
 51 H       -2.8410    -7.2190    -2.2100 H     1 <1>   0.0800 
 52 H        5.2220     4.0770     1.2860 H     1 <1>   0.0800 
 53 H        4.0870     4.1500     2.6210 H     1 <1>   0.0800 
 54 H        5.5670     5.0770     2.6770 H     1 <1>   0.0800 
@<TRIPOS>BOND
  1   1   2  2   
  2   2   3  am  
  3   2   4  1   
  4   3   5  1   
  5   3  27  1   
  6   4   6  1   
  7   4  28  1   
  8   4  29  1   
  9   5   7  ar  
 10   5   8  ar  
 11   6   9  1   
 12   6  10  1   
 13   6  30  1   
 14   7  11  ar  
 15   7  31  1   
 16   8  12  ar  
 17   8  32  1   
 18   9  13  1   
 19   9  33  1   
 20   9  34  1   
 21  10  35  1   
 22  10  36  1   
 23  10  37  1   
 24  11  14  ar  
 25  11  38  1   
 26  12  14  ar  
 27  12  39  1   
 28  13  15  1   
 29  13  40  1   
 30  13  41  1   
 31  14  16  1   
 32  15  17  1   
 33  15  18  2   
 34  16  19  am  
 35  16  20  1   
 36  17  21  2   
 37  17  22  1   
 38  18  23  1   
 39  18  24  1   
 40  19  25  2   
 41  19  26  1   
 42  20  42  1   
 43  20  43  1   
 44  20  44  1   
 45  21  23  1   
 46  22  45  1   
 47  22  46  1   
 48  22  47  1   
 49  23  48  1   
 50  24  49  1   
 51  24  50  1   
 52  24  51  1   
 53  26  52  1   
 54  26  53  1   
 55  26  54  1   
@<TRIPOS>SUBSTRUCTURE
  1 ****   2 GROUP 4 **** **** 0

# MOE 2024.06 (io_trps.svl 2023.06)
