@<TRIPOS>MOLECULE
NONAME
43 44 1 0 0 
SMALL
USER_CHARGES


@<TRIPOS>ATOM
  1 F        0.2690    -0.9170     1.0730 F     1 <1>  -0.1900 
  2 C       -0.4490    -1.9840     0.8270 C.ar  1 <1>   0.1900 
  3 C        0.0440    -3.0510     0.0680 C.ar  1 <1>   0.0820 
  4 C       -1.7220    -2.0050     1.3600 C.ar  1 <1>  -0.1500 
  5 O        1.2780    -3.1480    -0.5080 O.3   1 <1>  -0.3630 
  6 C       -0.7940    -4.1360    -0.1330 C.ar  1 <1>  -0.1500 
  7 C       -2.5300    -3.1050     1.1410 C.ar  1 <1>  -0.1500 
  8 C        2.2320    -2.1110    -0.4600 C.3   1 <1>   0.0400 
  9 C       -2.0890    -4.1960     0.3880 C.ar  1 <1>   0.0530 
 10 C       -2.9250    -5.3510     0.1500 C.2   1 <1>   0.0870 
 11 O       -2.3730    -6.5150    -0.0970 O.3   1 <1>  -0.0190 
 12 C       -4.2680    -5.5430     0.1050 C.2   1 <1>  -0.2330 
 13 N       -3.2500    -7.4610    -0.3020 N.2   1 <1>  -0.4100 
 14 C       -4.4080    -6.9030    -0.1850 C.2   1 <1>   0.3720 
 15 C       -5.3200    -4.5960     0.2840 C.2   1 <1>   1.0330 
 16 N       -5.6170    -7.6120    -0.3420 N.pl3 1 <1>  -0.8210 
 17 O       -5.8740    -4.0750    -0.7000 O.co2 1 <1>  -0.9000 
 18 O       -5.6670    -4.2390     1.4230 O.co2 1 <1>  -0.9000 
 19 C       -5.5140    -9.1000    -0.5300 C.3   1 <1>   0.2090 
 20 C       -6.6250    -6.9440    -1.2240 C.3   1 <1>   0.1290 
 21 C       -6.7650    -9.8310    -0.0120 C.3   1 <1>   0.2000 
 22 O       -7.1180    -9.2550     1.2000 O.3   1 <1>  -0.6800 
 23 C       -6.5180   -11.3380     0.1630 C.3   1 <1>   0.1200 
 24 O       -7.7320   -12.0300     0.2040 O.3   1 <1>  -0.5600 
 25 C       -7.6100   -13.3640     0.5730 C.3   1 <1>   0.0400 
 26 H       -2.0810    -1.1730     1.9390 H     1 <1>   0.1500 
 27 H       -0.4270    -4.9600    -0.7180 H     1 <1>   0.1500 
 28 H       -3.5180    -3.1150     1.5680 H     1 <1>   0.1500 
 29 H        3.0970    -2.4260    -1.0150 H     1 <1>   0.0800 
 30 H        2.5030    -1.9320     0.5660 H     1 <1>   0.0800 
 31 H        1.8120    -1.2280    -0.9080 H     1 <1>   0.0800 
 32 H       -4.6660    -9.4730     0.0180 H     1 <1>   0.0800 
 33 H       -5.3570    -9.3240    -1.5700 H     1 <1>   0.0800 
 34 H       -7.2770    -6.3320    -0.6240 H     1 <1>   0.0800 
 35 H       -7.2200    -7.6640    -1.7550 H     1 <1>   0.0800 
 36 H       -6.1310    -6.3110    -1.9420 H     1 <1>   0.0800 
 37 H       -7.5750    -9.6780    -0.7020 H     1 <1>   0.0800 
 38 H       -6.8020    -8.3190     1.1530 H     1 <1>   0.4000 
 39 H       -5.9710   -11.5130     1.0740 H     1 <1>   0.0800 
 40 H       -5.9590   -11.7200    -0.6730 H     1 <1>   0.0800 
 41 H       -8.5910   -13.8060     0.5550 H     1 <1>   0.0800 
 42 H       -7.2060   -13.4200     1.5690 H     1 <1>   0.0800 
 43 H       -6.9690   -13.8710    -0.1280 H     1 <1>   0.0800 
@<TRIPOS>BOND
  1   1   2  1   
  2   2   3  ar  
  3   2   4  ar  
  4   3   5  1   
  5   3   6  ar  
  6   4   7  ar  
  7   4  26  1   
  8   5   8  1   
  9   6   9  ar  
 10   6  27  1   
 11   7   9  ar  
 12   7  28  1   
 13   8  29  1   
 14   8  30  1   
 15   8  31  1   
 16   9  10  1   
 17  10  11  1   
 18  10  12  2   
 19  11  13  1   
 20  12  14  1   
 21  12  15  1   
 22  13  14  2   
 23  14  16  1   
 24  15  17  ar  
 25  15  18  ar  
 26  16  19  1   
 27  16  20  1   
 28  19  21  1   
 29  19  32  1   
 30  19  33  1   
 31  20  34  1   
 32  20  35  1   
 33  20  36  1   
 34  21  22  1   
 35  21  23  1   
 36  21  37  1   
 37  22  38  1   
 38  23  24  1   
 39  23  39  1   
 40  23  40  1   
 41  24  25  1   
 42  25  41  1   
 43  25  42  1   
 44  25  43  1   
@<TRIPOS>SUBSTRUCTURE
  1 ****  12 GROUP 4 **** **** 0

# MOE 2024.06 (io_trps.svl 2023.06)
