@<TRIPOS>MOLECULE
NONAME
53 56 1 0 0 
SMALL
USER_CHARGES


@<TRIPOS>ATOM
  1 O       -0.5720     0.4320    -0.8230 O.3   1 <1>  -0.2800 
  2 C       -0.8110     1.4860    -1.5690 C.2   1 <1>   0.4250 
  3 C       -0.6570    -0.5130    -1.7180 C.2   1 <1>   0.2980 
  4 N       -1.0060     1.1970    -2.8100 N.2   1 <1>  -0.3380 
  5 C       -0.8300     2.8050    -0.9700 C.ar  1 <1>   0.0530 
  6 N       -0.9030    -0.1080    -2.9020 N.2   1 <1>  -0.3380 
  7 C       -0.4300    -1.9650    -1.2980 C.3   1 <1>   0.2900 
  8 C       -0.5800     3.0010     0.3910 C.ar  1 <1>  -0.1500 
  9 C       -1.1020     3.9410    -1.7370 C.ar  1 <1>  -0.1500 
 10 N       -1.5610    -2.5840    -0.5600 N.3   1 <1>  -0.8100 
 11 C       -0.6010     4.2630     0.9560 C.ar  1 <1>  -0.1500 
 12 C       -1.1230     5.2060    -1.1770 C.ar  1 <1>  -0.1500 
 13 C       -1.3240    -4.0170    -0.3130 C.3   1 <1>   0.1100 
 14 C       -1.9210    -1.8620     0.6760 C.3   1 <1>   0.1100 
 15 C       -0.8720     5.3690     0.1730 C.ar  1 <1>  -0.1500 
 16 C       -2.6400    -4.7570     0.0620 C.3   1 <1>   0.0000 
 17 C       -2.8700    -2.6830     1.5640 C.3   1 <1>  -0.1600 
 18 C       -3.6090    -3.7300     0.7290 C.3   1 <1>   0.2000 
 19 C       -3.3530    -5.2540    -1.2200 C.3   1 <1>   0.1200 
 20 C       -2.3200    -5.9390     1.0300 C.3   1 <1>  -0.0170 
 21 O       -4.5660    -4.3380     1.5280 O.3   1 <1>  -0.6800 
 22 O       -2.5370    -6.0580    -2.0070 O.3   1 <1>  -0.6800 
 23 C       -1.3690    -7.0110     0.5020 C.ar  1 <1>  -0.1430 
 24 C        0.0070    -6.8530     0.5830 C.ar  1 <1>  -0.1500 
 25 C       -1.8810    -8.1750    -0.0530 C.ar  1 <1>  -0.1500 
 26 C        0.8560    -7.8290     0.0910 C.ar  1 <1>  -0.1500 
 27 C       -1.0340    -9.1520    -0.5460 C.ar  1 <1>  -0.1500 
 28 C        0.3360    -8.9780    -0.4770 C.ar  1 <1>  -0.1500 
 29 H        0.4620    -2.0150    -0.7000 H     1 <1>   0.0800 
 30 H       -0.2570    -2.5340    -2.1960 H     1 <1>   0.0800 
 31 H       -0.3660     2.1550     1.0190 H     1 <1>   0.1500 
 32 H       -1.2990     3.8320    -2.7900 H     1 <1>   0.1500 
 33 H       -0.4040     4.3870     2.0080 H     1 <1>   0.1500 
 34 H       -1.3360     6.0630    -1.7920 H     1 <1>   0.1500 
 35 H       -0.8780    -4.4740    -1.1810 H     1 <1>   0.0800 
 36 H       -0.6160    -4.1000     0.4920 H     1 <1>   0.0800 
 37 H       -1.0350    -1.6090     1.2350 H     1 <1>   0.0800 
 38 H       -2.4170    -0.9470     0.3990 H     1 <1>   0.0800 
 39 H       -0.8890     6.3530     0.6110 H     1 <1>   0.1500 
 40 H       -3.5740    -2.0140     2.0270 H     1 <1>   0.0800 
 41 H       -2.2980    -3.1610     2.3380 H     1 <1>   0.0800 
 42 H       -4.1480    -3.2030    -0.0420 H     1 <1>   0.0800 
 43 H       -3.6490    -4.4180    -1.8320 H     1 <1>   0.0800 
 44 H       -4.2330    -5.8200    -0.9640 H     1 <1>   0.0800 
 45 H       -1.9060    -5.5470     1.9420 H     1 <1>   0.0800 
 46 H       -3.2360    -6.4350     1.2990 H     1 <1>   0.0800 
 47 H       -4.1730    -4.6160     2.3760 H     1 <1>   0.4000 
 48 H       -2.0770    -6.7240    -1.4470 H     1 <1>   0.4000 
 49 H        0.4330    -5.9740     1.0310 H     1 <1>   0.1500 
 50 H       -2.9460    -8.3300    -0.1100 H     1 <1>   0.1500 
 51 H        1.9220    -7.6970     0.1520 H     1 <1>   0.1500 
 52 H       -1.4410   -10.0480    -0.9810 H     1 <1>   0.1500 
 53 H        0.9960    -9.7370    -0.8600 H     1 <1>   0.1500 
@<TRIPOS>BOND
  1   1   2  1   
  2   1   3  1   
  3   2   4  2   
  4   2   5  1   
  5   3   6  2   
  6   3   7  1   
  7   4   6  1   
  8   5   8  ar  
  9   5   9  ar  
 10   7  10  1   
 11   7  29  1   
 12   7  30  1   
 13   8  11  ar  
 14   8  31  1   
 15   9  12  ar  
 16   9  32  1   
 17  10  13  1   
 18  10  14  1   
 19  11  15  ar  
 20  11  33  1   
 21  12  15  ar  
 22  12  34  1   
 23  13  16  1   
 24  13  35  1   
 25  13  36  1   
 26  14  17  1   
 27  14  37  1   
 28  14  38  1   
 29  15  39  1   
 30  16  18  1   
 31  16  19  1   
 32  16  20  1   
 33  17  18  1   
 34  17  40  1   
 35  17  41  1   
 36  18  21  1   
 37  18  42  1   
 38  19  22  1   
 39  19  43  1   
 40  19  44  1   
 41  20  23  1   
 42  20  45  1   
 43  20  46  1   
 44  21  47  1   
 45  22  48  1   
 46  23  24  ar  
 47  23  25  ar  
 48  24  26  ar  
 49  24  49  1   
 50  25  27  ar  
 51  25  50  1   
 52  26  28  ar  
 53  26  51  1   
 54  27  28  ar  
 55  27  52  1   
 56  28  53  1   
@<TRIPOS>SUBSTRUCTURE
  1 ****  10 GROUP 4 **** **** 0

# MOE 2024.06 (io_trps.svl 2023.06)
