@<TRIPOS>MOLECULE
NONAME
50 52 1 0 0 
SMALL
USER_CHARGES


@<TRIPOS>ATOM
  1 O        0.7130     0.3680    -1.5560 O.3   1 <1>  -0.5600 
  2 C        1.8570    -0.4220    -1.3510 C.3   1 <1>   0.2000 
  3 C        1.0150     1.6760    -1.9490 C.3   1 <1>   0.1200 
  4 C        2.7400     0.2060    -0.2360 C.3   1 <1>   0.3340 
  5 C        1.3730    -1.8460    -1.0280 C.3   1 <1>   0.1200 
  6 C        1.8700     2.3760    -0.8810 C.3   1 <1>   0.1100 
  7 N        3.0920     1.6080    -0.5740 N.3   1 <1>  -0.8100 
  8 C        3.9980    -0.6350    -0.0050 C.ar  1 <1>  -0.1440 
  9 O        2.3950    -2.7790    -1.1870 O.3   1 <1>  -0.6800 
 10 C        3.8770     2.2540     0.5050 C.3   1 <1>   0.2530 
 11 C        5.0410    -0.6150    -0.9200 C.ar  1 <1>  -0.1500 
 12 C        4.1000    -1.4450     1.1170 C.ar  1 <1>  -0.1500 
 13 C        4.3290     3.6640     0.1240 C.ar  1 <1>  -0.1430 
 14 C        6.1630    -1.4010    -0.7250 C.ar  1 <1>  -0.1500 
 15 C        5.2210    -2.2330     1.3140 C.ar  1 <1>  -0.1500 
 16 C        5.4550     3.8370    -0.6790 C.ar  1 <1>   0.0820 
 17 C        3.6320     4.7800     0.5840 C.ar  1 <1>   0.0820 
 18 C        6.2520    -2.2130     0.3910 C.ar  1 <1>  -0.1500 
 19 O        6.1250     2.7260    -1.0870 O.3   1 <1>  -0.3620 
 20 C        5.8650     5.1200    -1.0320 C.ar  1 <1>  -0.1500 
 21 O        2.5450     4.5750     1.3790 O.3   1 <1>  -0.3630 
 22 C        4.0540     6.0580     0.2230 C.ar  1 <1>  -0.1500 
 23 C        7.1760     2.7850    -2.0240 C.3   1 <1>   0.0400 
 24 C        5.1650     6.2230    -0.5830 C.ar  1 <1>  -0.1500 
 25 C        1.8290     5.6450     1.9550 C.3   1 <1>   0.0400 
 26 H        2.4030    -0.4480    -2.2780 H     1 <1>   0.0800 
 27 H        1.5400     1.6450    -2.8880 H     1 <1>   0.0800 
 28 H        0.0880     2.2020    -2.0870 H     1 <1>   0.0800 
 29 H        2.1620     0.2110     0.6710 H     1 <1>   0.0800 
 30 H        0.5830    -2.1250    -1.7030 H     1 <1>   0.0800 
 31 H        1.0150    -1.9050    -0.0160 H     1 <1>   0.0800 
 32 H        1.2820     2.5100     0.0120 H     1 <1>   0.0800 
 33 H        2.1400     3.3500    -1.2510 H     1 <1>   0.0800 
 34 H        3.2150    -2.4770    -0.7310 H     1 <1>   0.4000 
 35 H        3.2960     2.2770     1.4100 H     1 <1>   0.0800 
 36 H        4.7570     1.6710     0.7130 H     1 <1>   0.0800 
 37 H        4.9780     0.0270    -1.7840 H     1 <1>   0.1500 
 38 H        3.3070    -1.4710     1.8440 H     1 <1>   0.1500 
 39 H        6.9650    -1.3760    -1.4410 H     1 <1>   0.1500 
 40 H        5.2930    -2.8610     2.1850 H     1 <1>   0.1500 
 41 H        7.1240    -2.8250     0.5430 H     1 <1>   0.1500 
 42 H        6.7270     5.2800    -1.6500 H     1 <1>   0.1500 
 43 H        3.5350     6.9350     0.5560 H     1 <1>   0.1500 
 44 H        7.4930     1.7790    -2.2300 H     1 <1>   0.0800 
 45 H        7.9900     3.3450    -1.6000 H     1 <1>   0.0800 
 46 H        6.8130     3.2470    -2.9240 H     1 <1>   0.0800 
 47 H        5.4860     7.2120    -0.8590 H     1 <1>   0.1500 
 48 H        1.0450     5.2320     2.5630 H     1 <1>   0.0800 
 49 H        1.4050     6.2440     1.1690 H     1 <1>   0.0800 
 50 H        2.4990     6.2240     2.5660 H     1 <1>   0.0800 
@<TRIPOS>BOND
  1   1   2  1   
  2   1   3  1   
  3   2   4  1   
  4   2   5  1   
  5   2  26  1   
  6   3   6  1   
  7   3  27  1   
  8   3  28  1   
  9   4   7  1   
 10   4   8  1   
 11   4  29  1   
 12   5   9  1   
 13   5  30  1   
 14   5  31  1   
 15   6   7  1   
 16   6  32  1   
 17   6  33  1   
 18   7  10  1   
 19   8  11  ar  
 20   8  12  ar  
 21   9  34  1   
 22  10  13  1   
 23  10  35  1   
 24  10  36  1   
 25  11  14  ar  
 26  11  37  1   
 27  12  15  ar  
 28  12  38  1   
 29  13  16  ar  
 30  13  17  ar  
 31  14  18  ar  
 32  14  39  1   
 33  15  18  ar  
 34  15  40  1   
 35  16  19  1   
 36  16  20  ar  
 37  17  21  1   
 38  17  22  ar  
 39  18  41  1   
 40  19  23  1   
 41  20  24  ar  
 42  20  42  1   
 43  21  25  1   
 44  22  24  ar  
 45  22  43  1   
 46  23  44  1   
 47  23  45  1   
 48  23  46  1   
 49  24  47  1   
 50  25  48  1   
 51  25  49  1   
 52  25  50  1   
@<TRIPOS>SUBSTRUCTURE
  1 ****   7 GROUP 4 **** **** 0

# MOE 2024.06 (io_trps.svl 2023.06)
