@<TRIPOS>MOLECULE
NONAME
45 47 1 0 0 
SMALL
USER_CHARGES


@<TRIPOS>ATOM
  1 S       -2.3610    -0.2130     0.5700 S.3   1 <1>  -0.4600 
  2 C       -2.7840    -0.2700    -1.2140 C.3   1 <1>   0.1310 
  3 C       -0.5810    -0.5600     0.6030 C.3   1 <1>   0.0700 
  4 C       -2.6940    -1.6830    -1.7790 C.2   1 <1>   0.5690 
  5 C       -0.3050    -1.4140     1.8360 C.3   1 <1>  -0.2400 
  6 O       -2.7280    -1.8380    -2.9750 O.2   1 <1>  -0.5700 
  7 N       -2.5660    -2.7320    -0.9290 N.am  1 <1>  -0.7300 
  8 C       -2.3620    -4.1480    -1.3050 C.3   1 <1>   0.2200 
  9 C       -3.3200    -5.0640    -0.5530 C.3   1 <1>  -0.0800 
 10 C       -1.0270    -4.6150    -0.7440 C.3   1 <1>   0.1200 
 11 C       -2.6030    -5.2710     0.7890 C.3   1 <1>   0.1200 
 12 C       -4.7680    -4.5440    -0.4230 C.3   1 <1>  -0.0160 
 13 O       -1.2690    -4.8980     0.6000 O.3   1 <1>  -0.5600 
 14 C       -5.7790    -5.4960     0.2310 C.ar  1 <1>  -0.1440 
 15 C       -7.0660    -5.0170     0.5850 C.ar  1 <1>   0.0000 
 16 C       -5.5180    -6.8120     0.4920 C.ar  1 <1>  -0.1500 
 17 C       -7.9650    -5.9190     1.2050 C.ar  1 <1>   0.3100 
 18 C       -7.5180    -3.6950     0.3550 C.ar  1 <1>  -0.1500 
 19 C       -6.4830    -7.6220     1.1030 C.ar  1 <1>   0.1600 
 20 N       -7.6590    -7.2160     1.4580 N.ar  1 <1>  -0.6200 
 21 C       -9.2410    -5.4660     1.5770 C.ar  1 <1>  -0.1500 
 22 C       -8.7690    -3.2850     0.7280 C.ar  1 <1>  -0.1500 
 23 C       -9.6440    -4.1790     1.3490 C.ar  1 <1>  -0.1500 
 24 H       -3.7880     0.1000    -1.3120 H     1 <1>   0.0800 
 25 H       -2.1050     0.3840    -1.7280 H     1 <1>   0.0800 
 26 H       -0.3200    -1.0820    -0.3010 H     1 <1>   0.0800 
 27 H       -0.0690     0.3850     0.6470 H     1 <1>   0.0800 
 28 H       -0.8420    -2.3440     1.7780 H     1 <1>   0.0800 
 29 H       -0.6050    -0.8900     2.7260 H     1 <1>   0.0800 
 30 H        0.7460    -1.6310     1.9030 H     1 <1>   0.0800 
 31 H       -2.4600    -2.5300     0.0720 H     1 <1>   0.3700 
 32 H       -2.4200    -4.2700    -2.3740 H     1 <1>   0.0800 
 33 H       -3.3330    -6.0020    -1.0790 H     1 <1>   0.0800 
 34 H       -0.2560    -3.8690    -0.8260 H     1 <1>   0.0800 
 35 H       -0.7090    -5.5260    -1.2220 H     1 <1>   0.0800 
 36 H       -2.6330    -6.2970     1.1110 H     1 <1>   0.0800 
 37 H       -3.0120    -4.6390     1.5580 H     1 <1>   0.0800 
 38 H       -5.1290    -4.2910    -1.4040 H     1 <1>   0.0800 
 39 H       -4.7450    -3.6390     0.1580 H     1 <1>   0.0800 
 40 H       -4.5860    -7.2820     0.2490 H     1 <1>   0.1500 
 41 H       -6.8690    -2.9880    -0.1260 H     1 <1>   0.1500 
 42 H       -6.2290    -8.6510     1.2920 H     1 <1>   0.1500 
 43 H       -9.8970    -6.1730     2.0500 H     1 <1>   0.1500 
 44 H       -9.0960    -2.2750     0.5480 H     1 <1>   0.1500 
 45 H      -10.6260    -3.8450     1.6390 H     1 <1>   0.1500 
@<TRIPOS>BOND
  1   1   2  1   
  2   1   3  1   
  3   2   4  1   
  4   2  24  1   
  5   2  25  1   
  6   3   5  1   
  7   3  26  1   
  8   3  27  1   
  9   4   6  2   
 10   4   7  am  
 11   5  28  1   
 12   5  29  1   
 13   5  30  1   
 14   7   8  1   
 15   7  31  1   
 16   8   9  1   
 17   8  10  1   
 18   8  32  1   
 19   9  11  1   
 20   9  12  1   
 21   9  33  1   
 22  10  13  1   
 23  10  34  1   
 24  10  35  1   
 25  11  13  1   
 26  11  36  1   
 27  11  37  1   
 28  12  14  1   
 29  12  38  1   
 30  12  39  1   
 31  14  15  ar  
 32  14  16  ar  
 33  15  17  ar  
 34  15  18  ar  
 35  16  19  ar  
 36  16  40  1   
 37  17  20  ar  
 38  17  21  ar  
 39  18  22  ar  
 40  18  41  1   
 41  19  20  ar  
 42  19  42  1   
 43  21  23  ar  
 44  21  43  1   
 45  22  23  ar  
 46  22  44  1   
 47  23  45  1   
@<TRIPOS>SUBSTRUCTURE
  1 ****  12 GROUP 4 **** **** 0

# MOE 2024.06 (io_trps.svl 2023.06)
