@<TRIPOS>MOLECULE
NONAME
46 47 1 0 0 
SMALL
USER_CHARGES


@<TRIPOS>ATOM
  1 CL       0.1650     0.1770    -0.0470 Cl    1 <1>  -0.1770 
  2 C        1.3760    -1.0610    -0.3360 C.ar  1 <1>   0.1770 
  3 C        1.1720    -2.3730     0.0730 C.ar  1 <1>   0.4100 
  4 C        2.5450    -0.7540    -0.9740 C.ar  1 <1>   0.1600 
  5 N        2.0920    -3.2950    -0.1560 N.ar  1 <1>  -0.6200 
  6 N        0.0170    -2.7610     0.7190 N.pl3 1 <1>  -0.8690 
  7 N        3.4730    -1.6680    -1.2040 N.ar  1 <1>  -0.6200 
  8 C        3.1840    -2.8870    -0.7790 C.ar  1 <1>   0.4770 
  9 C       -0.2370    -4.1020     1.2810 C.3   1 <1>   0.2090 
 10 C        4.2380    -3.9370    -1.0330 C.3   1 <1>  -0.0970 
 11 C       -0.9780    -4.9330     0.2300 C.3   1 <1>  -0.1600 
 12 C       -1.2270    -6.3930     0.6550 C.3   1 <1>  -0.0800 
 13 C        0.0860    -7.1810     0.8020 C.3   1 <1>  -0.1600 
 14 C       -2.1220    -7.0880    -0.3810 C.3   1 <1>  -0.1600 
 15 C       -0.1570    -8.6650     1.0760 C.3   1 <1>   0.3430 
 16 C       -2.3200    -8.5710    -0.0720 C.3   1 <1>   0.3430 
 17 N       -0.9960    -9.2660    -0.0080 N.4   1 <1>  -0.9590 
 18 C       -1.1300   -10.7480     0.1190 C.3   1 <1>   0.4230 
 19 C        0.2520   -11.4050     0.1210 C.3   1 <1>  -0.2400 
 20 C       -1.9360   -11.3050    -1.0570 C.3   1 <1>  -0.2400 
 21 H        2.7300     0.2540    -1.3010 H     1 <1>   0.1500 
 22 H       -0.6990    -2.0470     0.8880 H     1 <1>   0.4000 
 23 H       -0.8280    -4.0090     2.1750 H     1 <1>   0.0800 
 24 H        0.7010    -4.5600     1.5420 H     1 <1>   0.0800 
 25 H        3.8010    -4.9180    -1.0200 H     1 <1>   0.0800 
 26 H        4.9910    -3.8760    -0.2700 H     1 <1>   0.0800 
 27 H        4.6950    -3.7720    -1.9910 H     1 <1>   0.0800 
 28 H       -0.4060    -4.9180    -0.6820 H     1 <1>   0.0800 
 29 H       -1.9220    -4.4530     0.0350 H     1 <1>   0.0800 
 30 H       -1.7410    -6.3910     1.6030 H     1 <1>   0.0800 
 31 H        0.6620    -6.7840     1.6200 H     1 <1>   0.0800 
 32 H        0.6830    -7.0780    -0.0870 H     1 <1>   0.0800 
 33 H       -1.7000    -6.9870    -1.3660 H     1 <1>   0.0800 
 34 H       -3.0860    -6.6090    -0.3970 H     1 <1>   0.0800 
 35 H       -0.6520    -8.7810     2.0260 H     1 <1>   0.0800 
 36 H        0.7980    -9.1610     1.1300 H     1 <1>   0.0800 
 37 H       -2.9340    -9.0010    -0.8460 H     1 <1>   0.0800 
 38 H       -2.8360    -8.6800     0.8690 H     1 <1>   0.0800 
 39 H       -0.5160    -9.0860    -0.8970 H     1 <1>   0.4500 
 40 H       -1.6370   -10.9910     1.0410 H     1 <1>   0.0800 
 41 H        0.8270   -11.1020    -0.7370 H     1 <1>   0.0800 
 42 H        0.1450   -12.4750     0.0860 H     1 <1>   0.0800 
 43 H        0.7950   -11.1830     1.0210 H     1 <1>   0.0800 
 44 H       -1.5180   -10.9910    -1.9970 H     1 <1>   0.0800 
 45 H       -2.9690   -11.0140    -1.0020 H     1 <1>   0.0800 
 46 H       -1.9210   -12.3800    -1.0300 H     1 <1>   0.0800 
@<TRIPOS>BOND
  1   1   2  1   
  2   2   3  ar  
  3   2   4  ar  
  4   3   5  ar  
  5   3   6  1   
  6   4   7  ar  
  7   4  21  1   
  8   5   8  ar  
  9   6   9  1   
 10   6  22  1   
 11   7   8  ar  
 12   8  10  1   
 13   9  11  1   
 14   9  23  1   
 15   9  24  1   
 16  10  25  1   
 17  10  26  1   
 18  10  27  1   
 19  11  12  1   
 20  11  28  1   
 21  11  29  1   
 22  12  13  1   
 23  12  14  1   
 24  12  30  1   
 25  13  15  1   
 26  13  31  1   
 27  13  32  1   
 28  14  16  1   
 29  14  33  1   
 30  14  34  1   
 31  15  17  1   
 32  15  35  1   
 33  15  36  1   
 34  16  17  1   
 35  16  37  1   
 36  16  38  1   
 37  17  18  1   
 38  17  39  1   
 39  18  19  1   
 40  18  20  1   
 41  18  40  1   
 42  19  41  1   
 43  19  42  1   
 44  19  43  1   
 45  20  44  1   
 46  20  45  1   
 47  20  46  1   
@<TRIPOS>SUBSTRUCTURE
  1 ****  11 GROUP 4 **** **** 0

# MOE 2024.06 (io_trps.svl 2023.06)
