@<TRIPOS>MOLECULE
NONAME
43 45 1 0 0 
SMALL
USER_CHARGES


@<TRIPOS>ATOM
  1 CL      -0.6900     0.0260     0.6270 Cl    1 <1>  -0.1770 
  2 C       -2.1230     1.0100     0.3920 C.ar  1 <1>   0.1770 
  3 C       -2.1740     2.3410     0.7910 C.ar  1 <1>   0.1660 
  4 C       -3.2130     0.4250    -0.2140 C.ar  1 <1>  -0.1500 
  5 N       -3.2360     3.1150     0.6170 N.ar  1 <1>  -0.6200 
  6 C       -0.9910     3.0190     1.4600 C.3   1 <1>  -0.0960 
  7 C       -4.3150     1.2290    -0.3900 C.ar  1 <1>  -0.1500 
  8 C       -4.2930     2.5560     0.0360 C.ar  1 <1>   0.4100 
  9 N       -5.4140     3.3430    -0.1410 N.pl3 1 <1>  -0.8380 
 10 C       -6.6600     2.9670     0.5790 C.3   1 <1>   0.2090 
 11 C       -5.2490     4.8090    -0.3680 C.3   1 <1>   0.2090 
 12 C       -7.9280     3.3420    -0.2390 C.3   1 <1>   0.0000 
 13 C       -6.6070     5.5260    -0.4590 C.3   1 <1>  -0.1600 
 14 C       -9.1140     3.4390     0.7460 C.3   1 <1>   0.2000 
 15 C       -7.6770     4.6220    -1.0900 C.3   1 <1>  -0.1600 
 16 C       -8.3400     2.1600    -1.1330 C.3   1 <1>  -0.1600 
 17 O      -10.2100     4.0560     0.1310 O.3   1 <1>  -0.5600 
 18 C       -9.4960     1.9820     1.0270 C.3   1 <1>  -0.1600 
 19 C       -9.1300     1.1950    -0.2390 C.3   1 <1>  -0.1600 
 20 C      -11.1040     4.6750     1.0000 C.3   1 <1>   0.0400 
 21 H       -3.1910    -0.6020    -0.5310 H     1 <1>   0.1500 
 22 H       -0.3490     2.3110     1.9460 H     1 <1>   0.0800 
 23 H       -1.3440     3.7140     2.2000 H     1 <1>   0.0800 
 24 H       -0.4260     3.5600     0.7230 H     1 <1>   0.0800 
 25 H       -5.2020     0.8540    -0.8630 H     1 <1>   0.1500 
 26 H       -6.6530     1.9170     0.8100 H     1 <1>   0.0800 
 27 H       -6.6630     3.4990     1.5150 H     1 <1>   0.0800 
 28 H       -4.6630     5.2440     0.4240 H     1 <1>   0.0800 
 29 H       -4.7120     4.9420    -1.2910 H     1 <1>   0.0800 
 30 H       -6.9210     5.8210     0.5270 H     1 <1>   0.0800 
 31 H       -6.4910     6.4220    -1.0410 H     1 <1>   0.0800 
 32 H       -8.8530     3.9870     1.6360 H     1 <1>   0.0800 
 33 H       -7.3150     4.3270    -2.0600 H     1 <1>   0.0800 
 34 H       -8.5820     5.1790    -1.2510 H     1 <1>   0.0800 
 35 H       -8.9970     2.5200    -1.9080 H     1 <1>   0.0800 
 36 H       -7.4910     1.6890    -1.5970 H     1 <1>   0.0800 
 37 H       -8.9080     1.6160     1.8510 H     1 <1>   0.0800 
 38 H      -10.5360     1.8740     1.2770 H     1 <1>   0.0800 
 39 H       -8.5350     0.3340     0.0140 H     1 <1>   0.0800 
 40 H      -10.0180     0.8660    -0.7510 H     1 <1>   0.0800 
 41 H      -11.9120     5.0760     0.4150 H     1 <1>   0.0800 
 42 H      -10.6000     5.4740     1.5160 H     1 <1>   0.0800 
 43 H      -11.4870     3.9530     1.7000 H     1 <1>   0.0800 
@<TRIPOS>BOND
  1   1   2  1   
  2   2   3  ar  
  3   2   4  ar  
  4   3   5  ar  
  5   3   6  1   
  6   4   7  ar  
  7   4  21  1   
  8   5   8  ar  
  9   6  22  1   
 10   6  23  1   
 11   6  24  1   
 12   7   8  ar  
 13   7  25  1   
 14   8   9  1   
 15   9  10  1   
 16   9  11  1   
 17  10  12  1   
 18  10  26  1   
 19  10  27  1   
 20  11  13  1   
 21  11  28  1   
 22  11  29  1   
 23  12  14  1   
 24  12  15  1   
 25  12  16  1   
 26  13  15  1   
 27  13  30  1   
 28  13  31  1   
 29  14  17  1   
 30  14  18  1   
 31  14  32  1   
 32  15  33  1   
 33  15  34  1   
 34  16  19  1   
 35  16  35  1   
 36  16  36  1   
 37  17  20  1   
 38  18  19  1   
 39  18  37  1   
 40  18  38  1   
 41  19  39  1   
 42  19  40  1   
 43  20  41  1   
 44  20  42  1   
 45  20  43  1   
@<TRIPOS>SUBSTRUCTURE
  1 ****   9 GROUP 4 **** **** 0

# MOE 2024.06 (io_trps.svl 2023.06)
