@<TRIPOS>MOLECULE
NONAME
52 54 1 0 0 
SMALL
USER_CHARGES


@<TRIPOS>ATOM
  1 O       -0.2270     0.9450    -0.6740 O.2   1 <1>  -0.5700 
  2 C       -0.1770     2.1470    -0.6160 C.2   1 <1>   0.5690 
  3 N       -0.8690     2.8210     0.3280 N.am  1 <1>  -0.7300 
  4 C        0.6520     2.9340    -1.6320 C.3   1 <1>   0.1810 
  5 C       -0.9020     4.3020     0.4280 C.3   1 <1>   0.3640 
  6 O        0.9850     4.2230    -1.1680 O.3   1 <1>  -0.5600 
  7 C       -2.3570     4.7600     0.4710 C.ar  1 <1>  -0.1440 
  8 C       -0.1240     4.9950    -0.7220 C.3   1 <1>   0.2610 
  9 C       -3.3190     4.1990    -0.3610 C.ar  1 <1>  -0.1500 
 10 C       -2.7340     5.7640     1.3520 C.ar  1 <1>  -0.1500 
 11 C        0.2900     6.4090    -0.2790 C.2   1 <1>   0.5690 
 12 C       -4.6330     4.6290    -0.3060 C.ar  1 <1>  -0.1500 
 13 C       -4.0480     6.1960     1.4060 C.ar  1 <1>  -0.1500 
 14 O       -0.4480     7.3100    -0.6050 O.2   1 <1>  -0.5700 
 15 N        1.4250     6.6660     0.4710 N.am  1 <1>  -0.6600 
 16 C       -4.9990     5.6280     0.5780 C.ar  1 <1>  -0.1500 
 17 C        1.7660     8.0680     0.8940 C.3   1 <1>   0.1400 
 18 C        2.3250     5.5950     1.0020 C.3   1 <1>   0.0600 
 19 C        2.7500     8.8260    -0.0460 C.3   1 <1>   0.0000 
 20 C        2.1040     9.1290    -1.4200 C.3   1 <1>  -0.1600 
 21 C        3.0960    10.1850     0.6130 C.3   1 <1>  -0.1600 
 22 C        4.0270     7.9700    -0.2350 C.3   1 <1>   0.1200 
 23 C        0.9770    10.1650    -1.3180 C.3   1 <1>   0.1200 
 24 C        1.9150    11.1650     0.5910 C.3   1 <1>   0.1200 
 25 O        5.0260     8.6570    -0.9100 O.3   1 <1>  -0.6800 
 26 O        1.4750    11.3240    -0.7210 O.3   1 <1>  -0.5600 
 27 H       -1.4710     2.2960     0.9640 H     1 <1>   0.3700 
 28 H        0.1010     3.0330    -2.5500 H     1 <1>   0.0800 
 29 H        1.5680     2.4090    -1.8300 H     1 <1>   0.0800 
 30 H       -0.4400     4.5710     1.3610 H     1 <1>   0.0800 
 31 H       -0.7840     5.1060    -1.5630 H     1 <1>   0.0800 
 32 H       -3.0570     3.4210    -1.0570 H     1 <1>   0.1500 
 33 H       -2.0090     6.2260     1.9990 H     1 <1>   0.1500 
 34 H       -5.3720     4.1880    -0.9520 H     1 <1>   0.1500 
 35 H       -4.3300     6.9760     2.0910 H     1 <1>   0.1500 
 36 H       -6.0210     5.9630     0.6210 H     1 <1>   0.1500 
 37 H        0.8530     8.6280     0.9860 H     1 <1>   0.0800 
 38 H        2.1900     8.0300     1.8820 H     1 <1>   0.0800 
 39 H        2.9200     5.9650     1.8180 H     1 <1>   0.0800 
 40 H        2.9800     5.2520     0.2200 H     1 <1>   0.0800 
 41 H        1.7530     4.7580     1.3570 H     1 <1>   0.0800 
 42 H        1.7210     8.2280    -1.8630 H     1 <1>   0.0800 
 43 H        2.8360     9.5270    -2.0980 H     1 <1>   0.0800 
 44 H        3.9060    10.6640     0.0910 H     1 <1>   0.0800 
 45 H        3.4230    10.0380     1.6270 H     1 <1>   0.0800 
 46 H        3.8030     7.0870    -0.8080 H     1 <1>   0.0800 
 47 H        4.4310     7.6760     0.7180 H     1 <1>   0.0800 
 48 H        0.1450     9.8050    -0.7390 H     1 <1>   0.0800 
 49 H        0.6220    10.4290    -2.2980 H     1 <1>   0.0800 
 50 H        2.2250    12.1320     0.9480 H     1 <1>   0.0800 
 51 H        1.0910    10.8230     1.1920 H     1 <1>   0.0800 
 52 H        4.6670     9.0560    -1.7260 H     1 <1>   0.4000 
@<TRIPOS>BOND
  1   1   2  2   
  2   2   3  am  
  3   2   4  1   
  4   3   5  1   
  5   3  27  1   
  6   4   6  1   
  7   4  28  1   
  8   4  29  1   
  9   5   7  1   
 10   5   8  1   
 11   5  30  1   
 12   6   8  1   
 13   7   9  ar  
 14   7  10  ar  
 15   8  11  1   
 16   8  31  1   
 17   9  12  ar  
 18   9  32  1   
 19  10  13  ar  
 20  10  33  1   
 21  11  14  2   
 22  11  15  am  
 23  12  16  ar  
 24  12  34  1   
 25  13  16  ar  
 26  13  35  1   
 27  15  17  1   
 28  15  18  1   
 29  16  36  1   
 30  17  19  1   
 31  17  37  1   
 32  17  38  1   
 33  18  39  1   
 34  18  40  1   
 35  18  41  1   
 36  19  20  1   
 37  19  21  1   
 38  19  22  1   
 39  20  23  1   
 40  20  42  1   
 41  20  43  1   
 42  21  24  1   
 43  21  44  1   
 44  21  45  1   
 45  22  25  1   
 46  22  46  1   
 47  22  47  1   
 48  23  26  1   
 49  23  48  1   
 50  23  49  1   
 51  24  26  1   
 52  24  50  1   
 53  24  51  1   
 54  25  52  1   
@<TRIPOS>SUBSTRUCTURE
  1 ****  11 GROUP 4 **** **** 0

# MOE 2024.06 (io_trps.svl 2023.06)
