@<TRIPOS>MOLECULE
NONAME
52 53 1 0 0 
SMALL
USER_CHARGES


@<TRIPOS>ATOM
  1 S        0.2330     0.3970     0.6760 S.o2  1 <1>   1.0900 
  2 O       -0.1780    -0.4130    -0.4470 O.2   1 <1>  -0.6500 
  3 O       -0.1880     0.1010     2.0250 O.2   1 <1>  -0.6500 
  4 C       -0.1110     2.0970     0.3030 C.3   1 <1>  -0.0550 
  5 C        2.0070     0.5770     0.6130 C.3   1 <1>  -0.0550 
  6 C        1.1080     2.6310    -0.4510 C.3   1 <1>   0.1900 
  7 C        2.3300     2.0390     0.2730 C.3   1 <1>  -0.1600 
  8 N        1.1400     4.1080    -0.4450 N.3   1 <1>  -0.8100 
  9 C        2.3660     4.6520    -1.1250 C.3   1 <1>   0.1710 
 10 C       -0.0600     4.6860    -1.0880 C.3   1 <1>   0.0300 
 11 C        2.4990     6.1850    -1.2040 C.2   1 <1>   0.5690 
 12 O        2.5760     6.6720    -2.3100 O.2   1 <1>  -0.5700 
 13 N        2.5420     6.9680    -0.0710 N.am  1 <1>  -0.6600 
 14 C        2.6400     8.4480    -0.1710 C.3   1 <1>   0.1400 
 15 C        2.3950     6.4330     1.3120 C.3   1 <1>   0.0600 
 16 C        4.1020     8.8770    -0.0390 C.3   1 <1>  -0.1600 
 17 C        4.2550    10.3920    -0.2100 C.3   1 <1>   0.0210 
 18 C        5.7120    10.7920    -0.0620 C.2   1 <1>  -0.1810 
 19 C        6.3570    11.1870     1.1100 C.2   1 <1>   0.1080 
 20 C        6.6680    10.8450    -1.0150 C.2   1 <1>  -0.3320 
 21 N        7.6050    11.4670     0.9130 N.2   1 <1>  -0.7070 
 22 C        5.7220    11.2950     2.4770 C.3   1 <1>  -0.0590 
 23 N        7.7970    11.2560    -0.4010 N.pl3 1 <1>   0.3000 
 24 C        6.5980    10.5210    -2.4980 C.3   1 <1>  -0.0600 
 25 H       -0.2230     2.6480     1.2170 H     1 <1>   0.0800 
 26 H       -1.0050     2.1800    -0.2830 H     1 <1>   0.0800 
 27 H        2.3970    -0.0640    -0.1550 H     1 <1>   0.0800 
 28 H        2.4550     0.2990     1.5480 H     1 <1>   0.0800 
 29 H        1.0820     2.2660    -1.4670 H     1 <1>   0.0800 
 30 H        3.2170     2.0860    -0.3320 H     1 <1>   0.0800 
 31 H        2.4910     2.5800     1.1900 H     1 <1>   0.0800 
 32 H        2.4030     4.2730    -2.1310 H     1 <1>   0.0800 
 33 H        3.2450     4.3050    -0.6190 H     1 <1>   0.0800 
 34 H       -0.9540     4.3920    -0.5680 H     1 <1>   0.0800 
 35 H       -0.1280     4.3700    -2.1160 H     1 <1>   0.0800 
 36 H       -0.0210     5.7620    -1.0600 H     1 <1>   0.0800 
 37 H        2.0440     8.9030     0.6010 H     1 <1>   0.0800 
 38 H        2.2520     8.7740    -1.1220 H     1 <1>   0.0800 
 39 H        2.6900     5.4010     1.3600 H     1 <1>   0.0800 
 40 H        1.3670     6.5130     1.6190 H     1 <1>   0.0800 
 41 H        3.0120     6.9920     1.9930 H     1 <1>   0.0800 
 42 H        4.6840     8.3840    -0.7980 H     1 <1>   0.0800 
 43 H        4.4830     8.5890     0.9230 H     1 <1>   0.0800 
 44 H        3.6620    10.9110     0.5220 H     1 <1>   0.0800 
 45 H        3.9030    10.6840    -1.1830 H     1 <1>   0.0800 
 46 H        5.1220    10.4280     2.6760 H     1 <1>   0.0800 
 47 H        5.1100    12.1760     2.5210 H     1 <1>   0.0800 
 48 H        6.4890    11.3660     3.2280 H     1 <1>   0.0800 
 49 H        8.7110    11.3980    -0.8460 H     1 <1>   0.2700 
 50 H        5.6170    10.1720    -2.7640 H     1 <1>   0.0800 
 51 H        7.3070     9.7490    -2.7410 H     1 <1>   0.0800 
 52 H        6.8190    11.3970    -3.0800 H     1 <1>   0.0800 
@<TRIPOS>BOND
  1   1   2  2   
  2   1   3  2   
  3   1   4  1   
  4   1   5  1   
  5   4   6  1   
  6   4  25  1   
  7   4  26  1   
  8   5   7  1   
  9   5  27  1   
 10   5  28  1   
 11   6   7  1   
 12   6   8  1   
 13   6  29  1   
 14   7  30  1   
 15   7  31  1   
 16   8   9  1   
 17   8  10  1   
 18   9  11  1   
 19   9  32  1   
 20   9  33  1   
 21  10  34  1   
 22  10  35  1   
 23  10  36  1   
 24  11  12  2   
 25  11  13  am  
 26  13  14  1   
 27  13  15  1   
 28  14  16  1   
 29  14  37  1   
 30  14  38  1   
 31  15  39  1   
 32  15  40  1   
 33  15  41  1   
 34  16  17  1   
 35  16  42  1   
 36  16  43  1   
 37  17  18  1   
 38  17  44  1   
 39  17  45  1   
 40  18  19  1   
 41  18  20  2   
 42  19  21  2   
 43  19  22  1   
 44  20  23  1   
 45  20  24  1   
 46  21  23  1   
 47  22  46  1   
 48  22  47  1   
 49  22  48  1   
 50  23  49  1   
 51  24  50  1   
 52  24  51  1   
 53  24  52  1   
@<TRIPOS>SUBSTRUCTURE
  1 ****  13 GROUP 4 **** **** 0

# MOE 2024.06 (io_trps.svl 2023.06)
