@<TRIPOS>MOLECULE
NONAME
54 56 1 0 0 
SMALL
USER_CHARGES


@<TRIPOS>ATOM
  1 O        0.3400     1.3520     0.9420 O.2   1 <1>  -0.5700 
  2 C        0.1240     2.4740     0.5640 C.2   1 <1>   0.5690 
  3 N       -0.7970     3.2470     1.1770 N.am  1 <1>  -0.7300 
  4 C        0.8640     3.0370    -0.6490 C.3   1 <1>   0.1810 
  5 C       -1.2000     4.5950     0.6990 C.3   1 <1>   0.3640 
  6 O        0.8780     4.4460    -0.6540 O.3   1 <1>  -0.5600 
  7 C       -2.7030     4.5600     0.4250 C.ar  1 <1>  -0.1440 
  8 C       -0.4070     5.0610    -0.5580 C.3   1 <1>   0.2610 
  9 C       -3.2840     3.5170    -0.2870 C.ar  1 <1>  -0.1500 
 10 C       -3.5140     5.5860     0.8890 C.ar  1 <1>  -0.1500 
 11 C       -0.2550     6.5890    -0.5460 C.2   1 <1>   0.5690 
 12 C       -4.6470     3.5010    -0.5260 C.ar  1 <1>  -0.1500 
 13 C       -4.8770     5.5720     0.6500 C.ar  1 <1>  -0.1500 
 14 O       -1.2170     7.2910    -0.3480 O.2   1 <1>  -0.5700 
 15 N        0.9780     7.1280    -0.7490 N.am  1 <1>  -0.7300 
 16 C       -5.4450     4.5280    -0.0580 C.ar  1 <1>  -0.1500 
 17 C        1.3000     8.5730    -0.7940 C.3   1 <1>   0.1400 
 18 C        1.8530     9.0250     0.5560 C.3   1 <1>  -0.0170 
 19 C        2.2510    10.4910     0.4960 C.ar  1 <1>  -0.1430 
 20 C        3.5690    10.8540     0.2680 C.ar  1 <1>  -0.1500 
 21 C        1.2930    11.4790     0.6650 C.ar  1 <1>  -0.1500 
 22 C        3.9300    12.1900     0.2080 C.ar  1 <1>  -0.1500 
 23 C        1.6500    12.8140     0.6050 C.ar  1 <1>  -0.1500 
 24 C        2.9670    13.1800     0.3770 C.ar  1 <1>   0.0820 
 25 O        3.2320    14.5100     0.3330 O.3   1 <1>  -0.3620 
 26 C        4.5390    14.9870     0.1130 C.3   1 <1>   0.1200 
 27 C        4.4980    16.5160     0.1260 C.3   1 <1>  -0.1600 
 28 C        5.8900    17.1140    -0.1080 C.3   1 <1>  -0.2400 
 29 H       -1.3420     2.8460     1.9410 H     1 <1>   0.3700 
 30 H        0.3940     2.6930    -1.5520 H     1 <1>   0.0800 
 31 H        1.8830     2.6970    -0.6330 H     1 <1>   0.0800 
 32 H       -1.0080     5.2920     1.4970 H     1 <1>   0.0800 
 33 H       -0.9570     4.7940    -1.4420 H     1 <1>   0.0800 
 34 H       -2.6830     2.7050    -0.6580 H     1 <1>   0.1500 
 35 H       -3.0900     6.4130     1.4340 H     1 <1>   0.1500 
 36 H       -5.0880     2.6880    -1.0770 H     1 <1>   0.1500 
 37 H       -5.4950     6.3750     1.0120 H     1 <1>   0.1500 
 38 H        1.7550     6.4690    -0.8730 H     1 <1>   0.3700 
 39 H       -6.5050     4.5170    -0.2440 H     1 <1>   0.1500 
 40 H        2.0240     8.7540    -1.5700 H     1 <1>   0.0800 
 41 H        0.4110     9.1360    -1.0260 H     1 <1>   0.0800 
 42 H        1.1010     8.8890     1.3130 H     1 <1>   0.0800 
 43 H        2.7080     8.4280     0.8170 H     1 <1>   0.0800 
 44 H        4.3230    10.0990     0.1350 H     1 <1>   0.1500 
 45 H        0.2650    11.2140     0.8420 H     1 <1>   0.1500 
 46 H        4.9580    12.4360     0.0300 H     1 <1>   0.1500 
 47 H        0.9100    13.5820     0.7350 H     1 <1>   0.1500 
 48 H        5.1720    14.6170     0.9010 H     1 <1>   0.0800 
 49 H        4.8770    14.6240    -0.8420 H     1 <1>   0.0800 
 50 H        3.8310    16.8570    -0.6460 H     1 <1>   0.0800 
 51 H        4.1230    16.8500     1.0770 H     1 <1>   0.0800 
 52 H        6.2780    16.8050    -1.0630 H     1 <1>   0.0800 
 53 H        6.5700    16.7980     0.6640 H     1 <1>   0.0800 
 54 H        5.8340    18.1890    -0.0940 H     1 <1>   0.0800 
@<TRIPOS>BOND
  1   1   2  2   
  2   2   3  am  
  3   2   4  1   
  4   3   5  1   
  5   3  29  1   
  6   4   6  1   
  7   4  30  1   
  8   4  31  1   
  9   5   7  1   
 10   5   8  1   
 11   5  32  1   
 12   6   8  1   
 13   7   9  ar  
 14   7  10  ar  
 15   8  11  1   
 16   8  33  1   
 17   9  12  ar  
 18   9  34  1   
 19  10  13  ar  
 20  10  35  1   
 21  11  14  2   
 22  11  15  am  
 23  12  16  ar  
 24  12  36  1   
 25  13  16  ar  
 26  13  37  1   
 27  15  17  1   
 28  15  38  1   
 29  16  39  1   
 30  17  18  1   
 31  17  40  1   
 32  17  41  1   
 33  18  19  1   
 34  18  42  1   
 35  18  43  1   
 36  19  20  ar  
 37  19  21  ar  
 38  20  22  ar  
 39  20  44  1   
 40  21  23  ar  
 41  21  45  1   
 42  22  24  ar  
 43  22  46  1   
 44  23  24  ar  
 45  23  47  1   
 46  24  25  1   
 47  25  26  1   
 48  26  27  1   
 49  26  48  1   
 50  26  49  1   
 51  27  28  1   
 52  27  50  1   
 53  27  51  1   
 54  28  52  1   
 55  28  53  1   
 56  28  54  1   
@<TRIPOS>SUBSTRUCTURE
  1 ****  15 GROUP 4 **** **** 0

# MOE 2024.06 (io_trps.svl 2023.06)
