@<TRIPOS>MOLECULE
NONAME
50 52 1 0 0 
SMALL
USER_CHARGES


@<TRIPOS>ATOM
  1 S        0.8390     0.2340    -1.3880 S.o2  1 <1>   1.2040 
  2 O        2.2700     0.3010    -1.5990 O.2   1 <1>  -0.6500 
  3 O       -0.0510     0.0940    -2.5170 O.2   1 <1>  -0.6500 
  4 C        0.4550    -1.0300    -0.1490 C.ar  1 <1>  -0.0090 
  5 C        0.3910     1.7430    -0.5480 C.3   1 <1>  -0.0550 
  6 C        1.4540    -1.5640     0.6640 C.ar  1 <1>  -0.1500 
  7 C       -0.8540    -1.4700     0.0340 C.ar  1 <1>  -0.1500 
  8 C        1.2230     1.9430     0.7160 C.3   1 <1>   0.2090 
  9 C        1.1590    -2.5010     1.6410 C.ar  1 <1>  -0.1500 
 10 C       -1.1680    -2.4070     1.0050 C.ar  1 <1>  -0.1500 
 11 N        1.5100     3.3830     0.8970 N.pl3 1 <1>  -0.8690 
 12 C       -0.1520    -2.9040     1.7950 C.ar  1 <1>   0.1900 
 13 C        2.5250     4.1010     0.3870 C.ar  1 <1>   0.4100 
 14 F       -0.4390    -3.7830     2.7150 F     1 <1>  -0.1900 
 15 N        2.6010     5.3360     0.8190 N.ar  1 <1>  -0.6200 
 16 C        3.4370     3.5760    -0.5480 C.ar  1 <1>  -0.1500 
 17 C        3.5850     6.1020     0.3600 C.ar  1 <1>   0.7710 
 18 C        4.4260     4.3730    -1.0170 C.ar  1 <1>   0.2180 
 19 N        4.4730     5.6390    -0.5400 N.ar  1 <1>  -0.1790 
 20 N        3.7030     7.3850     0.7980 N.pl3 1 <1>  -0.8380 
 21 C        5.4600     3.9210    -2.0330 C.3   1 <1>  -0.0970 
 22 C        2.6420     8.0330     1.6400 C.3   1 <1>   0.2090 
 23 C        4.8310     8.3320     0.5330 C.3   1 <1>   0.2090 
 24 C        2.0720     9.2400     0.8860 C.3   1 <1>  -0.1600 
 25 C        4.3050     9.5300    -0.2630 C.3   1 <1>  -0.1600 
 26 C        3.1680    10.2390     0.4870 C.3   1 <1>  -0.1600 
 27 H       -0.6510     1.7330    -0.2940 H     1 <1>   0.0800 
 28 H        0.5610     2.5630    -1.2190 H     1 <1>   0.0800 
 29 H        2.4770    -1.2510     0.5310 H     1 <1>   0.1500 
 30 H       -1.6390    -1.0820    -0.5960 H     1 <1>   0.1500 
 31 H        2.1580     1.4120     0.6540 H     1 <1>   0.0800 
 32 H        0.6930     1.5650     1.5750 H     1 <1>   0.0800 
 33 H        1.9270    -2.9150     2.2710 H     1 <1>   0.1500 
 34 H       -2.1780    -2.7510     1.1470 H     1 <1>   0.1500 
 35 H        0.9020     3.8800     1.5600 H     1 <1>   0.4000 
 36 H        3.3350     2.5600    -0.8800 H     1 <1>   0.1500 
 37 H        5.1600     6.3090    -0.8550 H     1 <1>   0.4570 
 38 H        5.2850     2.8970    -2.3160 H     1 <1>   0.0800 
 39 H        6.4510     3.9890    -1.6200 H     1 <1>   0.0800 
 40 H        5.4050     4.5260    -2.9210 H     1 <1>   0.0800 
 41 H        3.0750     8.3580     2.5720 H     1 <1>   0.0800 
 42 H        1.8380     7.3580     1.8760 H     1 <1>   0.0800 
 43 H        5.6380     7.8650    -0.0010 H     1 <1>   0.0800 
 44 H        5.2260     8.6780     1.4750 H     1 <1>   0.0800 
 45 H        1.3460     9.7340     1.5080 H     1 <1>   0.0800 
 46 H        1.5600     8.8890     0.0070 H     1 <1>   0.0800 
 47 H        3.9520     9.1960    -1.2230 H     1 <1>   0.0800 
 48 H        5.1060    10.2280    -0.4320 H     1 <1>   0.0800 
 49 H        3.5620    10.7040     1.3750 H     1 <1>   0.0800 
 50 H        2.7470    11.0140    -0.1310 H     1 <1>   0.0800 
@<TRIPOS>BOND
  1   1   2  2   
  2   1   3  2   
  3   1   4  1   
  4   1   5  1   
  5   4   6  ar  
  6   4   7  ar  
  7   5   8  1   
  8   5  27  1   
  9   5  28  1   
 10   6   9  ar  
 11   6  29  1   
 12   7  10  ar  
 13   7  30  1   
 14   8  11  1   
 15   8  31  1   
 16   8  32  1   
 17   9  12  ar  
 18   9  33  1   
 19  10  12  ar  
 20  10  34  1   
 21  11  13  1   
 22  11  35  1   
 23  12  14  1   
 24  13  15  ar  
 25  13  16  ar  
 26  15  17  ar  
 27  16  18  ar  
 28  16  36  1   
 29  17  19  ar  
 30  17  20  1   
 31  18  19  ar  
 32  18  21  1   
 33  19  37  1   
 34  20  22  1   
 35  20  23  1   
 36  21  38  1   
 37  21  39  1   
 38  21  40  1   
 39  22  24  1   
 40  22  41  1   
 41  22  42  1   
 42  23  25  1   
 43  23  43  1   
 44  23  44  1   
 45  24  26  1   
 46  24  45  1   
 47  24  46  1   
 48  25  26  1   
 49  25  47  1   
 50  25  48  1   
 51  26  49  1   
 52  26  50  1   
@<TRIPOS>SUBSTRUCTURE
  1 ****  11 GROUP 4 **** **** 0

# MOE 2024.06 (io_trps.svl 2023.06)
