@<TRIPOS>MOLECULE
NONAME
48 50 1 0 0 
SMALL
USER_CHARGES


@<TRIPOS>ATOM
  1 CL       1.3020    -0.4290    -0.5170 Cl    1 <1>  -0.1770 
  2 C        0.5780    -1.9190     0.0310 C.ar  1 <1>   0.1770 
  3 C        1.3860    -2.9200     0.5310 C.ar  1 <1>  -0.1500 
  4 C       -0.7960    -2.0730    -0.0450 C.ar  1 <1>  -0.1500 
  5 C        0.7770    -4.0840     0.9580 C.ar  1 <1>   0.1900 
  6 C       -1.3840    -3.2520     0.3890 C.ar  1 <1>  -0.1500 
  7 F        1.5390    -5.0320     1.4340 F     1 <1>  -0.1900 
  8 C       -0.5980    -4.2770     0.9020 C.ar  1 <1>  -0.1440 
  9 C       -1.2420    -5.5790     1.3710 C.3   1 <1>   0.0890 
 10 S       -1.7670    -6.6400     0.0170 S.o2  1 <1>   1.3330 
 11 O       -2.9000    -6.0590    -0.6610 O.2   1 <1>  -0.6500 
 12 O       -0.6210    -7.1060    -0.7290 O.2   1 <1>  -0.6500 
 13 N       -2.4280    -7.9640     0.7920 N.am  1 <1>  -0.9140 
 14 C       -2.4580    -9.1380    -0.0510 C.3   1 <1>   0.4190 
 15 C       -3.8640    -9.7170    -0.0200 C.ar  1 <1>  -0.1430 
 16 C       -1.4250   -10.1210     0.4920 C.3   1 <1>  -0.1600 
 17 C       -4.0490   -11.0750     0.2280 C.ar  1 <1>   0.0830 
 18 C       -4.9770    -8.9200    -0.2600 C.ar  1 <1>  -0.1500 
 19 C       -1.6990   -11.5510     0.0160 C.3   1 <1>   0.2800 
 20 O       -3.0050   -11.9210     0.4020 O.3   1 <1>  -0.3630 
 21 C       -5.3240   -11.6090     0.2870 C.ar  1 <1>  -0.1500 
 22 C       -6.2520    -9.4570    -0.2100 C.ar  1 <1>  -0.1500 
 23 C       -0.7500   -12.5300     0.7100 C.3   1 <1>  -0.2400 
 24 C       -1.5840   -11.7120    -1.5060 C.3   1 <1>  -0.2400 
 25 C       -6.4320   -10.8080     0.0740 C.ar  1 <1>   0.0830 
 26 O       -7.6460   -11.4090     0.1490 O.3   1 <1>  -0.3630 
 27 C       -8.8370   -10.6840    -0.0590 C.3   1 <1>   0.0400 
 28 H        2.4510    -2.7980     0.5860 H     1 <1>   0.1500 
 29 H       -1.3980    -1.2750    -0.4440 H     1 <1>   0.1500 
 30 H       -2.4540    -3.3650     0.3170 H     1 <1>   0.1500 
 31 H       -2.0920    -5.3390     1.9780 H     1 <1>   0.0800 
 32 H       -0.5550    -6.1220     1.9900 H     1 <1>   0.0800 
 33 H       -3.4110    -7.7300     0.9060 H     1 <1>   0.4200 
 34 H       -2.2320    -8.9010    -1.0790 H     1 <1>   0.0800 
 35 H       -1.4570   -10.1140     1.5670 H     1 <1>   0.0800 
 36 H       -0.4440    -9.8120     0.1820 H     1 <1>   0.0800 
 37 H       -4.8660    -7.8750    -0.4990 H     1 <1>   0.1500 
 38 H       -5.4540   -12.6540     0.4940 H     1 <1>   0.1500 
 39 H       -7.0900    -8.8120    -0.3960 H     1 <1>   0.1500 
 40 H       -0.8580   -12.4620     1.7770 H     1 <1>   0.0800 
 41 H        0.2700   -12.3050     0.4550 H     1 <1>   0.0800 
 42 H       -0.9640   -13.5380     0.4020 H     1 <1>   0.0800 
 43 H       -2.2970   -11.0970    -2.0230 H     1 <1>   0.0800 
 44 H       -1.7570   -12.7370    -1.7820 H     1 <1>   0.0800 
 45 H       -0.5980   -11.4360    -1.8340 H     1 <1>   0.0800 
 46 H       -9.6640   -11.3620     0.0510 H     1 <1>   0.0800 
 47 H       -8.8290   -10.2770    -1.0540 H     1 <1>   0.0800 
 48 H       -8.9040    -9.9030     0.6780 H     1 <1>   0.0800 
@<TRIPOS>BOND
  1   1   2  1   
  2   2   3  ar  
  3   2   4  ar  
  4   3   5  ar  
  5   3  28  1   
  6   4   6  ar  
  7   4  29  1   
  8   5   7  1   
  9   5   8  ar  
 10   6   8  ar  
 11   6  30  1   
 12   8   9  1   
 13   9  10  1   
 14   9  31  1   
 15   9  32  1   
 16  10  11  2   
 17  10  12  2   
 18  10  13  am  
 19  13  14  1   
 20  13  33  1   
 21  14  15  1   
 22  14  16  1   
 23  14  34  1   
 24  15  17  ar  
 25  15  18  ar  
 26  16  19  1   
 27  16  35  1   
 28  16  36  1   
 29  17  20  1   
 30  17  21  ar  
 31  18  22  ar  
 32  18  37  1   
 33  19  20  1   
 34  19  23  1   
 35  19  24  1   
 36  21  25  ar  
 37  21  38  1   
 38  22  25  ar  
 39  22  39  1   
 40  23  40  1   
 41  23  41  1   
 42  23  42  1   
 43  24  43  1   
 44  24  44  1   
 45  24  45  1   
 46  25  26  1   
 47  26  27  1   
 48  27  46  1   
 49  27  47  1   
 50  27  48  1   
@<TRIPOS>SUBSTRUCTURE
  1 ****  13 GROUP 4 **** **** 0

# MOE 2024.06 (io_trps.svl 2023.06)
