@<TRIPOS>MOLECULE
NONAME
53 56 1 0 0 
SMALL
USER_CHARGES


@<TRIPOS>ATOM
  1 O        0.3050    -3.8230    -2.6700 O.3   1 <1>  -0.3630 
  2 C       -0.1190    -4.0330    -1.4030 C.ar  1 <1>   0.0830 
  3 C        0.2890    -2.4930    -3.1430 C.3   1 <1>   0.0400 
  4 C        0.5380    -3.4870    -0.2790 C.ar  1 <1>   0.0830 
  5 C       -1.2310    -4.8090    -1.2200 C.ar  1 <1>  -0.1500 
  6 O        1.6740    -2.7610    -0.3940 O.3   1 <1>  -0.3630 
  7 C        0.0260    -3.6940     0.9740 C.ar  1 <1>  -0.1500 
  8 C       -1.7620    -5.0560     0.0550 C.ar  1 <1>   0.3100 
  9 C        2.8290    -3.4690    -0.7880 C.3   1 <1>   0.0400 
 10 C       -1.1310    -4.4740     1.1810 C.ar  1 <1>   0.0000 
 11 N       -2.8610    -5.8470     0.1340 N.ar  1 <1>  -0.6200 
 12 C       -1.7030    -4.7170     2.4490 C.ar  1 <1>  -0.1430 
 13 C       -3.3590    -6.0510     1.3230 C.ar  1 <1>   0.4100 
 14 C       -2.8120    -5.5040     2.4950 C.ar  1 <1>  -0.1500 
 15 C       -1.1120    -4.1240     3.7200 C.3   1 <1>  -0.0970 
 16 N       -4.4650    -6.8720     1.4220 N.pl3 1 <1>  -0.8380 
 17 C       -5.6740    -6.6430     0.5650 C.3   1 <1>   0.2090 
 18 C       -4.2820    -8.2430     1.9460 C.3   1 <1>   0.2090 
 19 C       -5.3940    -6.9040    -0.9330 C.3   1 <1>   0.4230 
 20 C       -3.7180    -9.1640     0.8610 C.3   1 <1>  -0.1600 
 21 N       -4.3820    -7.9570    -1.2120 N.4   1 <1>  -0.9590 
 22 C       -6.5820    -7.2980    -1.8010 C.3   1 <1>  -0.1600 
 23 C       -4.5420    -9.2140    -0.4280 C.3   1 <1>   0.3430 
 24 C       -4.4660    -8.1800    -2.6710 C.3   1 <1>   0.3430 
 25 C       -5.9480    -8.0020    -3.0090 C.3   1 <1>  -0.1600 
 26 H        0.4830    -2.5100    -4.2000 H     1 <1>   0.0800 
 27 H        1.0510    -1.9250    -2.6420 H     1 <1>   0.0800 
 28 H       -0.6800    -2.0660    -2.9540 H     1 <1>   0.0800 
 29 H       -1.7220    -5.2380    -2.0700 H     1 <1>   0.1500 
 30 H        0.5290    -3.2530     1.8130 H     1 <1>   0.1500 
 31 H        3.6610    -2.7880    -0.7780 H     1 <1>   0.0800 
 32 H        2.6870    -3.8580    -1.7810 H     1 <1>   0.0800 
 33 H        2.9990    -4.2720    -0.0930 H     1 <1>   0.0800 
 34 H       -3.3060    -5.7290     3.4210 H     1 <1>   0.1500 
 35 H       -1.6890    -4.4080     4.5820 H     1 <1>   0.0800 
 36 H       -1.1060    -3.0500     3.6580 H     1 <1>   0.0800 
 37 H       -0.1040    -4.4730     3.8580 H     1 <1>   0.0800 
 38 H       -6.4760    -7.2750     0.9030 H     1 <1>   0.0800 
 39 H       -6.0000    -5.6240     0.6830 H     1 <1>   0.0800 
 40 H       -3.6010    -8.2180     2.7810 H     1 <1>   0.0800 
 41 H       -5.2250    -8.6190     2.3070 H     1 <1>   0.0800 
 42 H       -5.0020    -5.9810    -1.3300 H     1 <1>   0.0800 
 43 H       -3.6810   -10.1570     1.2700 H     1 <1>   0.0800 
 44 H       -2.7040    -8.8810     0.6380 H     1 <1>   0.0800 
 45 H       -3.4930    -7.5100    -0.9080 H     1 <1>   0.4500 
 46 H       -7.2260    -7.9760    -1.2680 H     1 <1>   0.0800 
 47 H       -7.1510    -6.4320    -2.0900 H     1 <1>   0.0800 
 48 H       -5.5810    -9.3890    -0.2050 H     1 <1>   0.0800 
 49 H       -4.1840   -10.0410    -1.0180 H     1 <1>   0.0800 
 50 H       -3.8880    -7.4260    -3.1820 H     1 <1>   0.0800 
 51 H       -4.1010    -9.1550    -2.9500 H     1 <1>   0.0800 
 52 H       -6.0480    -7.4140    -3.9040 H     1 <1>   0.0800 
 53 H       -6.4100    -8.9600    -3.1770 H     1 <1>   0.0800 
@<TRIPOS>BOND
  1   1   2  1   
  2   1   3  1   
  3   2   4  ar  
  4   2   5  ar  
  5   3  26  1   
  6   3  27  1   
  7   3  28  1   
  8   4   6  1   
  9   4   7  ar  
 10   5   8  ar  
 11   5  29  1   
 12   6   9  1   
 13   7  10  ar  
 14   7  30  1   
 15   8  10  ar  
 16   8  11  ar  
 17   9  31  1   
 18   9  32  1   
 19   9  33  1   
 20  10  12  ar  
 21  11  13  ar  
 22  12  14  ar  
 23  12  15  1   
 24  13  14  ar  
 25  13  16  1   
 26  14  34  1   
 27  15  35  1   
 28  15  36  1   
 29  15  37  1   
 30  16  17  1   
 31  16  18  1   
 32  17  19  1   
 33  17  38  1   
 34  17  39  1   
 35  18  20  1   
 36  18  40  1   
 37  18  41  1   
 38  19  21  1   
 39  19  22  1   
 40  19  42  1   
 41  20  23  1   
 42  20  43  1   
 43  20  44  1   
 44  21  23  1   
 45  21  24  1   
 46  21  45  1   
 47  22  25  1   
 48  22  46  1   
 49  22  47  1   
 50  23  48  1   
 51  23  49  1   
 52  24  25  1   
 53  24  50  1   
 54  24  51  1   
 55  25  52  1   
 56  25  53  1   
@<TRIPOS>SUBSTRUCTURE
  1 ****  11 GROUP 4 **** **** 0

# MOE 2024.06 (io_trps.svl 2023.06)
