@<TRIPOS>MOLECULE
NONAME
43 44 1 0 0 
SMALL
USER_CHARGES


@<TRIPOS>ATOM
  1 S        0.3500     0.0360    -1.2180 S.o2  1 <1>   1.3330 
  2 O        1.6210    -0.5490    -1.5850 O.2   1 <1>  -0.6500 
  3 O       -0.6200     0.3330    -2.2470 O.2   1 <1>  -0.6500 
  4 N       -0.4070    -1.0140    -0.1170 N.am  1 <1>  -0.8490 
  5 C        0.6370     1.5210    -0.2420 C.3   1 <1>  -0.0550 
  6 C       -1.8520    -0.7870     0.0080 C.3   1 <1>   0.1160 
  7 C       -0.1560    -2.4240    -0.4320 C.3   1 <1>   0.1160 
  8 C        1.8620     1.5340     0.7010 C.3   1 <1>  -0.0800 
  9 C        3.2000     1.5280    -0.0430 C.3   1 <1>   0.2200 
 10 C        1.9900     0.3750     1.6970 C.3   1 <1>   0.1200 
 11 N        3.9310     2.7780     0.2630 N.am  1 <1>  -0.7300 
 12 C        3.9250     0.3240     0.5530 C.3   1 <1>   0.1200 
 13 O        3.3570     0.1500     1.8110 O.3   1 <1>  -0.5600 
 14 C        3.7290     3.9650    -0.3780 C.2   1 <1>   0.5440 
 15 O        2.8790     4.0200    -1.2440 O.2   1 <1>  -0.5700 
 16 C        4.4730     5.1450     0.0050 C.ar  1 <1>   0.0860 
 17 C        5.8720     5.2070    -0.0120 C.ar  1 <1>   0.1670 
 18 C        3.7890     6.2790     0.4240 C.ar  1 <1>  -0.1500 
 19 N        6.5840     6.2520     0.3820 N.ar  1 <1>  -0.6200 
 20 C        6.7080     4.0390    -0.5110 C.3   1 <1>  -0.0970 
 21 C        4.5200     7.3740     0.8220 C.ar  1 <1>  -0.1500 
 22 C        5.9000     7.3080     0.7880 C.ar  1 <1>   0.1600 
 23 H        0.7560     2.3440    -0.9210 H     1 <1>   0.0800 
 24 H       -0.2410     1.7270     0.3360 H     1 <1>   0.0800 
 25 H       -2.2580    -1.4120     0.7850 H     1 <1>   0.0800 
 26 H       -2.3510    -1.0150    -0.9200 H     1 <1>   0.0800 
 27 H       -2.0480     0.2400     0.2610 H     1 <1>   0.0800 
 28 H       -0.6420    -3.0610     0.2860 H     1 <1>   0.0800 
 29 H        0.9020    -2.6280    -0.3980 H     1 <1>   0.0800 
 30 H       -0.5200    -2.6580    -1.4190 H     1 <1>   0.0800 
 31 H        1.7890     2.4350     1.2850 H     1 <1>   0.0800 
 32 H        3.0980     1.4240    -1.1110 H     1 <1>   0.0800 
 33 H        1.5490    -0.5370     1.3420 H     1 <1>   0.0800 
 34 H        1.5930     0.6190     2.6670 H     1 <1>   0.0800 
 35 H        4.4690     2.7520     1.1320 H     1 <1>   0.3700 
 36 H        4.9850     0.4720     0.6480 H     1 <1>   0.0800 
 37 H        3.7270    -0.5630    -0.0250 H     1 <1>   0.0800 
 38 H        2.7120     6.2900     0.4330 H     1 <1>   0.1500 
 39 H        6.2100     3.5160    -1.3060 H     1 <1>   0.0800 
 40 H        6.9020     3.3590     0.2970 H     1 <1>   0.0800 
 41 H        7.6500     4.3960    -0.8900 H     1 <1>   0.0800 
 42 H        4.0300     8.2710     1.1560 H     1 <1>   0.1500 
 43 H        6.4700     8.1650     1.1060 H     1 <1>   0.1500 
@<TRIPOS>BOND
  1   1   2  2   
  2   1   3  2   
  3   1   4  am  
  4   1   5  1   
  5   4   6  1   
  6   4   7  1   
  7   5   8  1   
  8   5  23  1   
  9   5  24  1   
 10   6  25  1   
 11   6  26  1   
 12   6  27  1   
 13   7  28  1   
 14   7  29  1   
 15   7  30  1   
 16   8   9  1   
 17   8  10  1   
 18   8  31  1   
 19   9  11  1   
 20   9  12  1   
 21   9  32  1   
 22  10  13  1   
 23  10  33  1   
 24  10  34  1   
 25  11  14  am  
 26  11  35  1   
 27  12  13  1   
 28  12  36  1   
 29  12  37  1   
 30  14  15  2   
 31  14  16  1   
 32  16  17  ar  
 33  16  18  ar  
 34  17  19  ar  
 35  17  20  1   
 36  18  21  ar  
 37  18  38  1   
 38  19  22  ar  
 39  20  39  1   
 40  20  40  1   
 41  20  41  1   
 42  21  22  ar  
 43  21  42  1   
 44  22  43  1   
@<TRIPOS>SUBSTRUCTURE
  1 ****   9 GROUP 4 **** **** 0

# MOE 2024.06 (io_trps.svl 2023.06)
