@<TRIPOS>MOLECULE
NONAME
49 51 1 0 0 
SMALL
USER_CHARGES


@<TRIPOS>ATOM
  1 F       -0.3730    -0.7160     0.4840 F     1 <1>  -0.1900 
  2 C       -1.5630    -1.2480     0.4030 C.ar  1 <1>   0.1900 
  3 C       -2.2690    -1.4820     1.5670 C.ar  1 <1>  -0.1500 
  4 C       -2.0720    -1.5560    -0.8440 C.ar  1 <1>  -0.1500 
  5 C       -3.5310    -2.0450     1.4740 C.ar  1 <1>  -0.1500 
  6 C       -3.3350    -2.1180    -0.9230 C.ar  1 <1>  -0.1500 
  7 C       -4.0680    -2.3630     0.2320 C.ar  1 <1>  -0.1430 
  8 C       -5.4530    -2.9810     0.1400 C.3   1 <1>  -0.0160 
  9 C       -5.3700    -4.5080     0.2610 C.3   1 <1>  -0.1600 
 10 C       -6.7600    -5.1660     0.1720 C.3   1 <1>  -0.0990 
 11 C       -6.7360    -6.6870     0.2680 C.2   1 <1>   0.5690 
 12 O       -5.7630    -7.2360     0.7270 O.2   1 <1>  -0.5700 
 13 N       -7.8210    -7.4050    -0.1500 N.am  1 <1>  -0.6600 
 14 C       -9.1530    -6.8760    -0.5390 C.3   1 <1>   0.1400 
 15 C       -7.8640    -8.8900    -0.0890 C.3   1 <1>   0.1400 
 16 C      -10.1190    -7.9980    -0.1630 C.3   1 <1>   0.2000 
 17 C       -9.3090    -9.2670    -0.4380 C.3   1 <1>  -0.0800 
 18 O      -10.3780    -7.8960     1.1960 O.3   1 <1>  -0.6800 
 19 C       -9.8060   -10.5410     0.2700 C.3   1 <1>   0.0210 
 20 C       -8.9320   -11.7280    -0.0850 C.2   1 <1>   0.1080 
 21 N       -8.8290   -12.1890    -1.2930 N.2   1 <1>  -0.7070 
 22 C       -8.1460   -12.4360     0.8180 C.2   1 <1>  -0.1500 
 23 N       -7.9660   -13.2180    -1.1910 N.pl3 1 <1>   0.3000 
 24 C       -7.5370   -13.3860     0.0780 C.2   1 <1>  -0.3320 
 25 C       -6.5560   -14.4590     0.5110 C.3   1 <1>  -0.0600 
 26 H       -1.8390    -1.2310     2.5190 H     1 <1>   0.1500 
 27 H       -1.4920    -1.3600    -1.7270 H     1 <1>   0.1500 
 28 H       -4.0930    -2.2380     2.3710 H     1 <1>   0.1500 
 29 H       -3.7440    -2.3670    -1.8870 H     1 <1>   0.1500 
 30 H       -6.0730    -2.5860     0.9250 H     1 <1>   0.0800 
 31 H       -5.9050    -2.7130    -0.7990 H     1 <1>   0.0800 
 32 H       -4.9120    -4.7640     1.2020 H     1 <1>   0.0800 
 33 H       -4.7410    -4.8950    -0.5220 H     1 <1>   0.0800 
 34 H       -7.2090    -4.8920    -0.7640 H     1 <1>   0.0800 
 35 H       -7.3790    -4.7950     0.9680 H     1 <1>   0.0800 
 36 H       -9.3970    -5.9600    -0.0310 H     1 <1>   0.0800 
 37 H       -9.1700    -6.7200    -1.6030 H     1 <1>   0.0800 
 38 H       -7.1680    -9.3200    -0.7900 H     1 <1>   0.0800 
 39 H       -7.6060    -9.2110     0.9060 H     1 <1>   0.0800 
 40 H      -11.0520    -7.9570    -0.6980 H     1 <1>   0.0800 
 41 H       -9.3400    -9.4490    -1.4980 H     1 <1>   0.0800 
 42 H       -9.5230    -7.8300     1.6690 H     1 <1>   0.4000 
 43 H      -10.8140   -10.7530    -0.0370 H     1 <1>   0.0800 
 44 H       -9.8030   -10.4100     1.3360 H     1 <1>   0.0800 
 45 H       -8.0600   -12.2440     1.8720 H     1 <1>   0.1500 
 46 H       -7.6910   -13.7830    -2.0030 H     1 <1>   0.2700 
 47 H       -6.3720   -14.3860     1.5690 H     1 <1>   0.0800 
 48 H       -5.6210   -14.3410    -0.0070 H     1 <1>   0.0800 
 49 H       -6.9540   -15.4360     0.3000 H     1 <1>   0.0800 
@<TRIPOS>BOND
  1   1   2  1   
  2   2   3  ar  
  3   2   4  ar  
  4   3   5  ar  
  5   3  26  1   
  6   4   6  ar  
  7   4  27  1   
  8   5   7  ar  
  9   5  28  1   
 10   6   7  ar  
 11   6  29  1   
 12   7   8  1   
 13   8   9  1   
 14   8  30  1   
 15   8  31  1   
 16   9  10  1   
 17   9  32  1   
 18   9  33  1   
 19  10  11  1   
 20  10  34  1   
 21  10  35  1   
 22  11  12  2   
 23  11  13  am  
 24  13  14  1   
 25  13  15  1   
 26  14  16  1   
 27  14  36  1   
 28  14  37  1   
 29  15  17  1   
 30  15  38  1   
 31  15  39  1   
 32  16  17  1   
 33  16  18  1   
 34  16  40  1   
 35  17  19  1   
 36  17  41  1   
 37  18  42  1   
 38  19  20  1   
 39  19  43  1   
 40  19  44  1   
 41  20  21  2   
 42  20  22  1   
 43  21  23  1   
 44  22  24  2   
 45  22  45  1   
 46  23  24  1   
 47  23  46  1   
 48  24  25  1   
 49  25  47  1   
 50  25  48  1   
 51  25  49  1   
@<TRIPOS>SUBSTRUCTURE
  1 ****  11 GROUP 4 **** **** 0

# MOE 2024.06 (io_trps.svl 2023.06)
