@<TRIPOS>MOLECULE
NONAME
58 60 1 0 0 
SMALL
USER_CHARGES


@<TRIPOS>ATOM
  1 O       -2.3360     0.1030     2.1090 O.2   1 <1>  -0.5700 
  2 C       -2.3620     0.6480     1.0230 C.2   1 <1>   0.5440 
  3 N       -2.8510    -0.0340    -0.0660 N.am  1 <1>  -0.6600 
  4 C       -1.8860     1.9970     0.8950 C.ar  1 <1>   0.0860 
  5 C       -2.8570    -1.5330    -0.0570 C.3   1 <1>   0.3640 
  6 C       -3.4100     0.6850    -1.2520 C.3   1 <1>   0.1400 
  7 C       -0.7040     2.3350     0.2540 C.ar  1 <1>   0.1660 
  8 C       -2.6090     3.0560     1.4050 C.ar  1 <1>   0.1600 
  9 C       -1.4320    -1.9940    -0.3790 C.ar  1 <1>  -0.1440 
 10 C       -3.9160    -2.1940    -0.9920 C.3   1 <1>   0.2000 
 11 C       -4.1240    -0.2300    -2.2590 C.3   1 <1>   0.1200 
 12 N       -0.3260     3.5790     0.0940 N.ar  1 <1>  -0.6200 
 13 C        0.2310     1.2740    -0.3040 C.3   1 <1>  -0.0960 
 14 N       -2.2510     4.3080     1.2650 N.ar  1 <1>  -0.6200 
 15 C       -0.6480    -2.5110     0.6430 C.ar  1 <1>  -0.1500 
 16 C       -0.8870    -1.8880    -1.6530 C.ar  1 <1>  -0.1500 
 17 O       -4.7790    -1.2670    -1.6000 O.3   1 <1>  -0.5600 
 18 C       -4.7980    -3.1990    -0.2400 C.3   1 <1>   0.1200 
 19 C       -1.1120     4.5270     0.6060 C.ar  1 <1>   0.7200 
 20 C        0.6530    -2.9190     0.4050 C.ar  1 <1>   0.0830 
 21 C        0.4180    -2.2820    -1.8980 C.ar  1 <1>  -0.1500 
 22 O       -4.0300    -4.2400     0.2760 O.3   1 <1>  -0.6800 
 23 N       -0.7170     5.8340     0.4390 N.pl3 1 <1>  -0.8380 
 24 O        1.3440    -3.4480     1.4430 O.3   1 <1>  -0.3630 
 25 C        1.2020    -2.7810    -0.8740 C.ar  1 <1>   0.0830 
 26 C       -1.6080     6.9840     0.7620 C.3   1 <1>   0.1290 
 27 C        0.6520     6.2020    -0.0190 C.3   1 <1>   0.1290 
 28 C        1.5660    -4.8390     1.3830 C.3   1 <1>   0.0400 
 29 O        2.4830    -3.1080    -1.1790 O.3   1 <1>  -0.3630 
 30 C        3.5050    -2.4510    -0.4600 C.3   1 <1>   0.0400 
 31 H       -3.0820    -1.8560     0.9450 H     1 <1>   0.0800 
 32 H       -4.1210     1.4150    -0.9030 H     1 <1>   0.0800 
 33 H       -2.6230     1.2170    -1.7580 H     1 <1>   0.0800 
 34 H       -3.5180     2.8470     1.9420 H     1 <1>   0.1500 
 35 H       -3.4220    -2.7230    -1.7870 H     1 <1>   0.0800 
 36 H       -3.4330    -0.6490    -2.9670 H     1 <1>   0.0800 
 37 H       -4.8620     0.3320    -2.8040 H     1 <1>   0.0800 
 38 H        0.2350     0.3980     0.3180 H     1 <1>   0.0800 
 39 H        1.2360     1.6540    -0.3480 H     1 <1>   0.0800 
 40 H       -0.0760     1.0000    -1.2960 H     1 <1>   0.0800 
 41 H       -1.0410    -2.5960     1.6410 H     1 <1>   0.1500 
 42 H       -1.4640    -1.4890    -2.4650 H     1 <1>   0.1500 
 43 H       -5.5360    -3.6230    -0.9000 H     1 <1>   0.0800 
 44 H       -5.2910    -2.7140     0.5850 H     1 <1>   0.0800 
 45 H        0.8390    -2.1940    -2.8830 H     1 <1>   0.1500 
 46 H       -3.6850    -4.8130    -0.4360 H     1 <1>   0.4000 
 47 H       -1.3970     7.8110     0.1070 H     1 <1>   0.0800 
 48 H       -1.4490     7.2870     1.7820 H     1 <1>   0.0800 
 49 H       -2.6420     6.7110     0.6360 H     1 <1>   0.0800 
 50 H        0.9700     7.1110     0.4590 H     1 <1>   0.0800 
 51 H        0.6480     6.3440    -1.0860 H     1 <1>   0.0800 
 52 H        1.3580     5.4280     0.2270 H     1 <1>   0.0800 
 53 H        2.0920    -5.1340     2.2730 H     1 <1>   0.0800 
 54 H        2.1560    -5.0660     0.5130 H     1 <1>   0.0800 
 55 H        0.6160    -5.3390     1.3320 H     1 <1>   0.0800 
 56 H        4.4340    -2.6100    -0.9760 H     1 <1>   0.0800 
 57 H        3.5650    -2.8630     0.5310 H     1 <1>   0.0800 
 58 H        3.2810    -1.4000    -0.4160 H     1 <1>   0.0800 
@<TRIPOS>BOND
  1   1   2  2   
  2   2   3  am  
  3   2   4  1   
  4   3   5  1   
  5   3   6  1   
  6   4   7  ar  
  7   4   8  ar  
  8   5   9  1   
  9   5  10  1   
 10   5  31  1   
 11   6  11  1   
 12   6  32  1   
 13   6  33  1   
 14   7  12  ar  
 15   7  13  1   
 16   8  14  ar  
 17   8  34  1   
 18   9  15  ar  
 19   9  16  ar  
 20  10  17  1   
 21  10  18  1   
 22  10  35  1   
 23  11  17  1   
 24  11  36  1   
 25  11  37  1   
 26  12  19  ar  
 27  13  38  1   
 28  13  39  1   
 29  13  40  1   
 30  14  19  ar  
 31  15  20  ar  
 32  15  41  1   
 33  16  21  ar  
 34  16  42  1   
 35  18  22  1   
 36  18  43  1   
 37  18  44  1   
 38  19  23  1   
 39  20  24  1   
 40  20  25  ar  
 41  21  25  ar  
 42  21  45  1   
 43  22  46  1   
 44  23  26  1   
 45  23  27  1   
 46  24  28  1   
 47  25  29  1   
 48  26  47  1   
 49  26  48  1   
 50  26  49  1   
 51  27  50  1   
 52  27  51  1   
 53  27  52  1   
 54  28  53  1   
 55  28  54  1   
 56  28  55  1   
 57  29  30  1   
 58  30  56  1   
 59  30  57  1   
 60  30  58  1   
@<TRIPOS>SUBSTRUCTURE
  1 ****   3 GROUP 4 **** **** 0

# MOE 2024.06 (io_trps.svl 2023.06)
