@<TRIPOS>MOLECULE
NONAME
53 55 1 0 0 
SMALL
USER_CHARGES


@<TRIPOS>ATOM
  1 O       -0.7280     1.3530     1.0990 O.2   1 <1>  -0.5700 
  2 C       -0.2590     2.2620     0.4590 C.2   1 <1>   0.5690 
  3 N       -0.8530     2.6720    -0.6880 N.am  1 <1>  -0.7300 
  4 C        1.0330     2.9470     0.9310 C.3   1 <1>   0.1710 
  5 C       -0.4000     3.8530    -1.4650 C.3   1 <1>   0.1400 
  6 N        1.3090     4.2810     0.3090 N.3   1 <1>  -0.8100 
  7 C        1.0660     4.2140    -1.1490 C.3   1 <1>   0.1100 
  8 C        2.6590     4.7440     0.6460 C.3   1 <1>   0.1100 
  9 C        2.7560     6.2620     0.4720 C.3   1 <1>  -0.1600 
 10 C        4.0990     6.7820     0.9750 C.3   1 <1>   0.2090 
 11 N        4.1380     8.2510     0.7810 N.pl3 1 <1>  -0.8690 
 12 C        5.1660     8.9900     0.3110 C.ar  1 <1>   0.4100 
 13 N        6.2940     8.3630     0.0440 N.ar  1 <1>  -0.6200 
 14 C        5.0190    10.3860     0.1330 C.ar  1 <1>  -0.1430 
 15 C        7.3210     9.0760    -0.3920 C.ar  1 <1>   0.7710 
 16 C        6.0990    11.0930    -0.2960 C.ar  1 <1>   0.2180 
 17 C        3.6820    11.0700     0.4290 C.3   1 <1>  -0.0170 
 18 N        7.2360    10.4060    -0.5520 N.ar  1 <1>  -0.1790 
 19 N        8.5000     8.4550    -0.6810 N.pl3 1 <1>  -0.8380 
 20 C        6.0980    12.6030    -0.5100 C.3   1 <1>  -0.0170 
 21 C        3.6050    12.4920    -0.1440 C.3   1 <1>  -0.1600 
 22 C        9.6850     9.0470    -1.3800 C.3   1 <1>   0.1290 
 23 C        8.7040     7.0020    -0.3640 C.3   1 <1>   0.1290 
 24 C        4.8870    13.2770     0.1490 C.3   1 <1>  -0.1600 
 25 H       -1.7430     2.2350    -0.9340 H     1 <1>   0.3700 
 26 H        1.8450     2.2760     0.7160 H     1 <1>   0.0800 
 27 H        0.9740     3.0650     1.9980 H     1 <1>   0.0800 
 28 H       -1.0280     4.6930    -1.2210 H     1 <1>   0.0800 
 29 H       -0.5000     3.6510    -2.5170 H     1 <1>   0.0800 
 30 H        1.2820     5.1630    -1.6040 H     1 <1>   0.0800 
 31 H        1.7160     3.4790    -1.5940 H     1 <1>   0.0800 
 32 H        3.3910     4.2410     0.0350 H     1 <1>   0.0800 
 33 H        2.8620     4.5090     1.6780 H     1 <1>   0.0800 
 34 H        1.9630     6.7240     1.0320 H     1 <1>   0.0800 
 35 H        2.6590     6.5190    -0.5660 H     1 <1>   0.0800 
 36 H        4.9000     6.3090     0.4320 H     1 <1>   0.0800 
 37 H        4.2160     6.5600     2.0220 H     1 <1>   0.0800 
 38 H        3.2720     8.7140     1.0650 H     1 <1>   0.4000 
 39 H        3.5450    11.1100     1.4970 H     1 <1>   0.0800 
 40 H        2.8720    10.4950     0.0130 H     1 <1>   0.0800 
 41 H        8.0870    10.8580    -0.8540 H     1 <1>   0.4570 
 42 H        6.0770    12.8030    -1.5680 H     1 <1>   0.0800 
 43 H        6.9950    13.0390    -0.1040 H     1 <1>   0.0800 
 44 H        2.7580    13.0030     0.2830 H     1 <1>   0.0800 
 45 H        3.4500    12.4410    -1.2090 H     1 <1>   0.0800 
 46 H        9.4290     9.9410    -1.9190 H     1 <1>   0.0800 
 47 H       10.0760     8.3400    -2.0930 H     1 <1>   0.0800 
 48 H       10.4590     9.2690    -0.6640 H     1 <1>   0.0800 
 49 H        8.0620     6.6790     0.4380 H     1 <1>   0.0800 
 50 H        9.7220     6.8250    -0.0590 H     1 <1>   0.0800 
 51 H        8.4920     6.4060    -1.2350 H     1 <1>   0.0800 
 52 H        4.7900    14.2860    -0.2160 H     1 <1>   0.0800 
 53 H        5.0350    13.3280     1.2150 H     1 <1>   0.0800 
@<TRIPOS>BOND
  1   1   2  2   
  2   2   3  am  
  3   2   4  1   
  4   3   5  1   
  5   3  25  1   
  6   4   6  1   
  7   4  26  1   
  8   4  27  1   
  9   5   7  1   
 10   5  28  1   
 11   5  29  1   
 12   6   7  1   
 13   6   8  1   
 14   7  30  1   
 15   7  31  1   
 16   8   9  1   
 17   8  32  1   
 18   8  33  1   
 19   9  10  1   
 20   9  34  1   
 21   9  35  1   
 22  10  11  1   
 23  10  36  1   
 24  10  37  1   
 25  11  12  1   
 26  11  38  1   
 27  12  13  ar  
 28  12  14  ar  
 29  13  15  ar  
 30  14  16  ar  
 31  14  17  1   
 32  15  18  ar  
 33  15  19  1   
 34  16  18  ar  
 35  16  20  1   
 36  17  21  1   
 37  17  39  1   
 38  17  40  1   
 39  18  41  1   
 40  19  22  1   
 41  19  23  1   
 42  20  24  1   
 43  20  42  1   
 44  20  43  1   
 45  21  24  1   
 46  21  44  1   
 47  21  45  1   
 48  22  46  1   
 49  22  47  1   
 50  22  48  1   
 51  23  49  1   
 52  23  50  1   
 53  23  51  1   
 54  24  52  1   
 55  24  53  1   
@<TRIPOS>SUBSTRUCTURE
  1 ****  11 GROUP 4 **** **** 0

# MOE 2024.06 (io_trps.svl 2023.06)
