@<TRIPOS>MOLECULE
NONAME
42 44 1 0 0 
SMALL
USER_CHARGES


@<TRIPOS>ATOM
  1 CL       0.6270     3.1920     2.5490 Cl    1 <1>  -0.1770 
  2 C        0.7740     3.3920     0.8190 C.ar  1 <1>   0.1770 
  3 C        1.7000     2.6600     0.0830 C.ar  1 <1>  -0.1440 
  4 C       -0.0800     4.2950     0.2140 C.ar  1 <1>  -0.1500 
  5 C        1.7220     2.8380    -1.2970 C.ar  1 <1>  -0.1500 
  6 C        2.6690     1.6840     0.7500 C.3   1 <1>   0.3640 
  7 C       -0.0320     4.4720    -1.1570 C.ar  1 <1>  -0.1500 
  8 C        0.8670     3.7380    -1.9110 C.ar  1 <1>  -0.1500 
  9 N        2.4060     0.3370     0.1900 N.am  1 <1>  -0.7300 
 10 C        4.1470     2.1100     0.5230 C.3   1 <1>   0.2610 
 11 C        3.3790    -0.5440    -0.1300 C.2   1 <1>   0.5690 
 12 O        5.0390     1.0350     0.7790 O.3   1 <1>  -0.5600 
 13 C        4.5270     3.3490     1.3550 C.2   1 <1>   0.5690 
 14 O        3.1020    -1.6470    -0.5260 O.2   1 <1>  -0.5700 
 15 C        4.8450    -0.1130    -0.0220 C.3   1 <1>   0.1810 
 16 O        3.8410     3.6270     2.3120 O.2   1 <1>  -0.5700 
 17 N        5.6000     4.1460     1.0080 N.am  1 <1>  -0.6600 
 18 C        6.5730     3.8320    -0.0820 C.3   1 <1>   0.1400 
 19 C        5.9010     5.3910     1.7730 C.3   1 <1>   0.1400 
 20 C        6.3500     4.7250    -1.3120 C.3   1 <1>   0.1400 
 21 C        5.4680     6.6190     0.9760 C.3   1 <1>  -0.0990 
 22 N        6.8000     6.1220    -1.0890 N.am  1 <1>  -0.7300 
 23 C        6.4660     6.9820    -0.1000 C.2   1 <1>   0.5690 
 24 O        6.9790     8.0700    -0.0710 O.2   1 <1>  -0.5700 
 25 H       -0.7780     4.8500     0.8140 H     1 <1>   0.1500 
 26 H        2.4020     2.2700    -1.9100 H     1 <1>   0.1500 
 27 H        2.4910     1.6330     1.8090 H     1 <1>   0.0800 
 28 H       -0.6950     5.1730    -1.6350 H     1 <1>   0.1500 
 29 H        0.8970     3.8670    -2.9800 H     1 <1>   0.1500 
 30 H        1.4340     0.0280     0.1490 H     1 <1>   0.3700 
 31 H        4.2640     2.3730    -0.5110 H     1 <1>   0.0800 
 32 H        5.2280     0.0910    -1.0040 H     1 <1>   0.0800 
 33 H        5.4170    -0.9130     0.4130 H     1 <1>   0.0800 
 34 H        7.5780     3.9640     0.2810 H     1 <1>   0.0800 
 35 H        6.4810     2.8030    -0.3750 H     1 <1>   0.0800 
 36 H        5.3750     5.3830     2.7130 H     1 <1>   0.0800 
 37 H        6.9530     5.4420     1.9960 H     1 <1>   0.0800 
 38 H        5.3090     4.7200    -1.5860 H     1 <1>   0.0800 
 39 H        6.9120     4.3200    -2.1350 H     1 <1>   0.0800 
 40 H        5.3960     7.4520     1.6520 H     1 <1>   0.0800 
 41 H        4.4960     6.4650     0.5460 H     1 <1>   0.0800 
 42 H        7.4640     6.5000    -1.7690 H     1 <1>   0.3700 
@<TRIPOS>BOND
  1   1   2  1   
  2   2   3  ar  
  3   2   4  ar  
  4   3   5  ar  
  5   3   6  1   
  6   4   7  ar  
  7   4  25  1   
  8   5   8  ar  
  9   5  26  1   
 10   6   9  1   
 11   6  10  1   
 12   6  27  1   
 13   7   8  ar  
 14   7  28  1   
 15   8  29  1   
 16   9  11  am  
 17   9  30  1   
 18  10  12  1   
 19  10  13  1   
 20  10  31  1   
 21  11  14  2   
 22  11  15  1   
 23  12  15  1   
 24  13  16  2   
 25  13  17  am  
 26  15  32  1   
 27  15  33  1   
 28  17  18  1   
 29  17  19  1   
 30  18  20  1   
 31  18  34  1   
 32  18  35  1   
 33  19  21  1   
 34  19  36  1   
 35  19  37  1   
 36  20  22  1   
 37  20  38  1   
 38  20  39  1   
 39  21  23  1   
 40  21  40  1   
 41  21  41  1   
 42  22  23  am  
 43  22  42  1   
 44  23  24  2   
@<TRIPOS>SUBSTRUCTURE
  1 ****  10 GROUP 4 **** **** 0

# MOE 2024.06 (io_trps.svl 2023.06)
