@<TRIPOS>MOLECULE
NONAME
51 53 1 0 0 
SMALL
USER_CHARGES


@<TRIPOS>ATOM
  1 O       -1.6220     0.6620    -1.2720 O.2   1 <1>  -0.5700 
  2 C       -1.9400     0.6670    -0.0940 C.2   1 <1>   0.5440 
  3 N       -2.9460    -0.1890     0.2940 N.am  1 <1>  -0.6600 
  4 C       -1.3150     1.5880     0.8590 C.ar  1 <1>   0.3960 
  5 C       -2.9570    -1.6250    -0.1150 C.3   1 <1>   0.3640 
  6 C       -4.3240     0.3660     0.3830 C.3   1 <1>   0.1400 
  7 N       -2.1010     2.4980     1.4660 N.ar  1 <1>  -0.6200 
  8 C        0.0630     1.5140     1.1280 C.ar  1 <1>  -0.1430 
  9 C       -1.5510    -2.2370    -0.1380 C.ar  1 <1>  -0.1430 
 10 C       -3.7740    -1.8000    -1.4170 C.3   1 <1>   0.2000 
 11 C       -5.0870     0.1010    -0.9280 C.3   1 <1>   0.1200 
 12 C       -1.5250     3.3240     2.3160 C.ar  1 <1>   0.1600 
 13 C        0.6400     2.3920     2.0230 C.ar  1 <1>  -0.1500 
 14 C        0.9580     0.4710     0.4660 C.3   1 <1>  -0.0960 
 15 C       -1.0630    -2.8330     1.0150 C.ar  1 <1>  -0.1500 
 16 C       -0.7430    -2.2230    -1.2650 C.ar  1 <1>  -0.1500 
 17 O       -5.0730    -1.2650    -1.2490 O.3   1 <1>  -0.5600 
 18 C       -3.9080    -3.2790    -1.8150 C.3   1 <1>   0.1200 
 19 C       -0.1800     3.3170     2.6260 C.ar  1 <1>  -0.1500 
 20 C        0.1930    -3.4160     1.0610 C.ar  1 <1>   0.0830 
 21 C        0.5170    -2.7940    -1.2400 C.ar  1 <1>  -0.1500 
 22 O       -4.8590    -3.4000    -2.8150 O.3   1 <1>  -0.6800 
 23 O        0.5110    -3.9640     2.2690 O.3   1 <1>  -0.3630 
 24 C        1.0090    -3.3920    -0.0830 C.ar  1 <1>   0.0830 
 25 C        1.4540    -5.0040     2.3970 C.3   1 <1>   0.0400 
 26 O        2.2650    -3.9270    -0.0450 O.3   1 <1>  -0.3630 
 27 C        3.1550    -3.8390    -1.1360 C.3   1 <1>   0.0400 
 28 H       -3.5010    -2.1580     0.6460 H     1 <1>   0.0800 
 29 H       -4.8450    -0.0890     1.2070 H     1 <1>   0.0800 
 30 H       -4.2870     1.4270     0.5600 H     1 <1>   0.0800 
 31 H       -3.2930    -1.2650    -2.2180 H     1 <1>   0.0800 
 32 H       -4.6370     0.6490    -1.7390 H     1 <1>   0.0800 
 33 H       -6.1130     0.4070    -0.8310 H     1 <1>   0.0800 
 34 H       -2.1580     4.0520     2.7950 H     1 <1>   0.1500 
 35 H        1.6920     2.3610     2.2510 H     1 <1>   0.1500 
 36 H        1.9860     0.6000     0.7500 H     1 <1>   0.0800 
 37 H        0.8960     0.5430    -0.6050 H     1 <1>   0.0800 
 38 H        0.6520    -0.5140     0.7660 H     1 <1>   0.0800 
 39 H       -1.6610    -2.8510     1.9080 H     1 <1>   0.1500 
 40 H       -1.0800    -1.7530    -2.1740 H     1 <1>   0.1500 
 41 H       -4.2340    -3.8650    -0.9730 H     1 <1>   0.0800 
 42 H       -2.9770    -3.6760    -2.1810 H     1 <1>   0.0800 
 43 H        0.2180     4.0240     3.3310 H     1 <1>   0.1500 
 44 H        1.0970    -2.7510    -2.1410 H     1 <1>   0.1500 
 45 H       -5.5750    -2.7580    -2.6120 H     1 <1>   0.4000 
 46 H        1.3220    -5.4590     3.3610 H     1 <1>   0.0800 
 47 H        2.4420    -4.5870     2.3250 H     1 <1>   0.0800 
 48 H        1.2860    -5.7290     1.6200 H     1 <1>   0.0800 
 49 H        4.0840    -4.2950    -0.8460 H     1 <1>   0.0800 
 50 H        3.3170    -2.8020    -1.3720 H     1 <1>   0.0800 
 51 H        2.7360    -4.3660    -1.9730 H     1 <1>   0.0800 
@<TRIPOS>BOND
  1   1   2  2   
  2   2   3  am  
  3   2   4  1   
  4   3   5  1   
  5   3   6  1   
  6   4   7  ar  
  7   4   8  ar  
  8   5   9  1   
  9   5  10  1   
 10   5  28  1   
 11   6  11  1   
 12   6  29  1   
 13   6  30  1   
 14   7  12  ar  
 15   8  13  ar  
 16   8  14  1   
 17   9  15  ar  
 18   9  16  ar  
 19  10  17  1   
 20  10  18  1   
 21  10  31  1   
 22  11  17  1   
 23  11  32  1   
 24  11  33  1   
 25  12  19  ar  
 26  12  34  1   
 27  13  19  ar  
 28  13  35  1   
 29  14  36  1   
 30  14  37  1   
 31  14  38  1   
 32  15  20  ar  
 33  15  39  1   
 34  16  21  ar  
 35  16  40  1   
 36  18  22  1   
 37  18  41  1   
 38  18  42  1   
 39  19  43  1   
 40  20  23  1   
 41  20  24  ar  
 42  21  24  ar  
 43  21  44  1   
 44  22  45  1   
 45  23  25  1   
 46  24  26  1   
 47  25  46  1   
 48  25  47  1   
 49  25  48  1   
 50  26  27  1   
 51  27  49  1   
 52  27  50  1   
 53  27  51  1   
@<TRIPOS>SUBSTRUCTURE
  1 ****   9 GROUP 4 **** **** 0

# MOE 2024.06 (io_trps.svl 2023.06)
