@<TRIPOS>MOLECULE
NONAME
54 56 1 0 0 
SMALL
USER_CHARGES


@<TRIPOS>ATOM
  1 O        0.2690     0.0500    -1.9220 O.2   1 <1>  -0.5700 
  2 C        0.9000    -0.7480    -1.2650 C.2   1 <1>   0.5690 
  3 N        1.9430    -0.3460    -0.4650 N.am  1 <1>  -0.6600 
  4 C        0.4890    -2.2280    -1.3750 C.3   1 <1>   0.1710 
  5 C        2.7460    -1.2540     0.4100 C.3   1 <1>   0.1400 
  6 C        2.3190     1.0920    -0.3220 C.3   1 <1>   0.1400 
  7 N        0.0860    -2.8950    -0.0990 N.3   1 <1>  -0.8100 
  8 C        4.2510    -0.9310     0.3110 C.3   1 <1>   0.2000 
  9 C        3.8490     1.2720    -0.3870 C.3   1 <1>   0.2000 
 10 C       -0.1810    -4.3250    -0.3300 C.3   1 <1>   0.1100 
 11 C       -1.0730    -2.2040     0.4930 C.3   1 <1>   0.0300 
 12 O        4.4770     0.4290     0.5330 O.3   1 <1>  -0.5600 
 13 C        5.0680    -1.6940     1.3510 C.3   1 <1>  -0.2400 
 14 C        4.2730     2.6980    -0.0430 C.3   1 <1>  -0.2400 
 15 C       -0.0070    -5.1330     0.9580 C.3   1 <1>   0.0200 
 16 C       -0.2800    -6.6000     0.6870 C.2   1 <1>   0.0060 
 17 N        0.5690    -7.3940     0.1360 N.2   1 <1>  -0.5650 
 18 N       -1.4610    -7.1920     1.0010 N.pl3 1 <1>   0.0330 
 19 C       -0.0760    -8.5940     0.0760 C.ar  1 <1>   0.2270 
 20 C       -1.3450    -8.4860     0.6100 C.ar  1 <1>  -0.1520 
 21 C        0.3650    -9.8150    -0.4250 C.ar  1 <1>  -0.1500 
 22 C       -2.2070    -9.5830     0.6620 C.ar  1 <1>  -0.1500 
 23 C       -0.4720   -10.9090    -0.3830 C.ar  1 <1>   0.0820 
 24 C       -1.7650   -10.7890     0.1650 C.ar  1 <1>  -0.1500 
 25 O        0.0170   -12.0760    -0.8880 O.3   1 <1>  -0.3620 
 26 C       -0.7520   -13.2570    -0.8720 C.3   1 <1>   0.0400 
 27 H        1.3240    -2.7560    -1.7980 H     1 <1>   0.0800 
 28 H       -0.3220    -2.2940    -2.0790 H     1 <1>   0.0800 
 29 H        2.4210    -1.1330     1.4280 H     1 <1>   0.0800 
 30 H        2.5960    -2.2820     0.1380 H     1 <1>   0.0800 
 31 H        1.8620     1.6780    -1.0990 H     1 <1>   0.0800 
 32 H        1.9570     1.4550     0.6230 H     1 <1>   0.0800 
 33 H        4.6100    -1.1750    -0.6750 H     1 <1>   0.0800 
 34 H        4.2030     1.0210    -1.3730 H     1 <1>   0.0800 
 35 H       -1.1710    -4.4620    -0.7300 H     1 <1>   0.0800 
 36 H        0.5220    -4.7150    -1.0490 H     1 <1>   0.0800 
 37 H       -1.3530    -2.6660     1.4220 H     1 <1>   0.0800 
 38 H       -1.9120    -2.2290    -0.1810 H     1 <1>   0.0800 
 39 H       -0.8250    -1.1770     0.6980 H     1 <1>   0.0800 
 40 H        4.7460    -1.4320     2.3420 H     1 <1>   0.0800 
 41 H        6.1100    -1.4550     1.2420 H     1 <1>   0.0800 
 42 H        4.9440    -2.7530     1.2140 H     1 <1>   0.0800 
 43 H        3.9570     2.9510     0.9530 H     1 <1>   0.0800 
 44 H        3.8300     3.3910    -0.7350 H     1 <1>   0.0800 
 45 H        5.3420     2.7850    -0.1090 H     1 <1>   0.0800 
 46 H       -0.6670    -4.7770     1.7260 H     1 <1>   0.0800 
 47 H        1.0070    -5.0280     1.3010 H     1 <1>   0.0800 
 48 H       -2.2750    -6.7630     1.4470 H     1 <1>   0.2700 
 49 H        1.3530    -9.8860    -0.8370 H     1 <1>   0.1500 
 50 H       -3.1920    -9.4810     1.0830 H     1 <1>   0.1500 
 51 H       -2.4230   -11.6350     0.2020 H     1 <1>   0.1500 
 52 H       -0.1640   -14.0430    -1.3100 H     1 <1>   0.0800 
 53 H       -1.6440   -13.1020    -1.4530 H     1 <1>   0.0800 
 54 H       -0.9910   -13.5050     0.1480 H     1 <1>   0.0800 
@<TRIPOS>BOND
  1   1   2  2   
  2   2   3  am  
  3   2   4  1   
  4   3   5  1   
  5   3   6  1   
  6   4   7  1   
  7   4  27  1   
  8   4  28  1   
  9   5   8  1   
 10   5  29  1   
 11   5  30  1   
 12   6   9  1   
 13   6  31  1   
 14   6  32  1   
 15   7  10  1   
 16   7  11  1   
 17   8  12  1   
 18   8  13  1   
 19   8  33  1   
 20   9  12  1   
 21   9  14  1   
 22   9  34  1   
 23  10  15  1   
 24  10  35  1   
 25  10  36  1   
 26  11  37  1   
 27  11  38  1   
 28  11  39  1   
 29  13  40  1   
 30  13  41  1   
 31  13  42  1   
 32  14  43  1   
 33  14  44  1   
 34  14  45  1   
 35  15  16  1   
 36  15  46  1   
 37  15  47  1   
 38  16  17  2   
 39  16  18  1   
 40  17  19  1   
 41  18  20  1   
 42  18  48  1   
 43  19  20  ar  
 44  19  21  ar  
 45  20  22  ar  
 46  21  23  ar  
 47  21  49  1   
 48  22  24  ar  
 49  22  50  1   
 50  23  24  ar  
 51  23  25  1   
 52  24  51  1   
 53  25  26  1   
 54  26  52  1   
 55  26  53  1   
 56  26  54  1   
@<TRIPOS>SUBSTRUCTURE
  1 ****  10 GROUP 4 **** **** 0

# MOE 2024.06 (io_trps.svl 2023.06)
