@<TRIPOS>MOLECULE
NONAME
40 42 1 0 0 
SMALL
USER_CHARGES


@<TRIPOS>ATOM
  1 O        3.1990    -0.3660     1.0530 O.2   1 <1>  -0.5700 
  2 C        2.5230    -0.8090     0.1380 C.2   1 <1>   0.7160 
  3 N        2.0190     0.0110    -0.8310 N.am  1 <1>  -0.4930 
  4 C        2.2190    -2.2280     0.0530 C.2   1 <1>   0.1410 
  5 C        2.0660     1.4210    -0.9530 C.2   1 <1>   0.0630 
  6 N        1.4250    -2.7490    -0.9230 N.2   1 <1>  -0.5650 
  7 C        2.6420    -3.2270     0.8820 C.2   1 <1>  -0.3020 
  8 C        0.9770     2.2590    -1.1960 C.2   1 <1>   0.1080 
  9 C        3.1290     2.2530    -0.8820 C.2   1 <1>  -0.3320 
 10 C        1.3870    -4.0260    -0.6700 C.2   1 <1>   0.3120 
 11 N        2.1250    -4.3790     0.4400 N.pl3 1 <1>   0.3340 
 12 N        1.3180     3.5070    -1.2670 N.2   1 <1>  -0.7070 
 13 C       -0.4560     1.8040    -1.3620 C.3   1 <1>  -0.0590 
 14 N        2.6480     3.5100    -1.0610 N.pl3 1 <1>   0.3140 
 15 C        4.5980     1.9190    -0.6550 C.3   1 <1>  -0.0600 
 16 N        0.6920    -4.9520    -1.4130 N.2   1 <1>  -0.5760 
 17 C        2.1900    -5.6990     0.8440 C.2   1 <1>  -0.1810 
 18 C        3.4080     4.7760    -1.0420 C.3   1 <1>   0.0960 
 19 C        0.7600    -6.1800    -1.0260 C.2   1 <1>   0.3760 
 20 C        1.5040    -6.6100     0.1100 C.2   1 <1>  -0.1360 
 21 C        3.5590     5.3050     0.3920 C.3   1 <1>  -0.1600 
 22 C        4.3510     6.6170     0.4250 C.3   1 <1>  -0.2400 
 23 H        1.4180    -0.4850    -1.4920 H     1 <1>   0.3700 
 24 H        3.2750    -3.1520     1.7460 H     1 <1>   0.1500 
 25 H       -0.6890     1.0500    -0.6330 H     1 <1>   0.0800 
 26 H       -0.5960     1.4040    -2.3490 H     1 <1>   0.0800 
 27 H       -1.1190     2.6380    -1.2240 H     1 <1>   0.0800 
 28 H        4.7530     0.8570    -0.6970 H     1 <1>   0.0800 
 29 H        4.9090     2.2680     0.3130 H     1 <1>   0.0800 
 30 H        5.2100     2.3740    -1.4120 H     1 <1>   0.0800 
 31 H        2.7780    -5.9220     1.7160 H     1 <1>   0.1500 
 32 H        2.8760     5.4910    -1.6420 H     1 <1>   0.0800 
 33 H        4.3710     4.6090    -1.4860 H     1 <1>   0.0800 
 34 H        0.2300    -6.9320    -1.5830 H     1 <1>   0.0600 
 35 H        1.4960    -7.6580     0.3490 H     1 <1>   0.1500 
 36 H        4.0630     4.5710     0.9960 H     1 <1>   0.0800 
 37 H        2.5790     5.4700     0.8080 H     1 <1>   0.0800 
 38 H        5.3410     6.4720     0.0300 H     1 <1>   0.0800 
 39 H        4.4360     6.9670     1.4390 H     1 <1>   0.0800 
 40 H        3.8500     7.3730    -0.1550 H     1 <1>   0.0800 
@<TRIPOS>BOND
  1   1   2  2   
  2   2   3  am  
  3   2   4  1   
  4   3   5  1   
  5   3  23  1   
  6   4   6  1   
  7   4   7  2   
  8   5   8  1   
  9   5   9  2   
 10   6  10  2   
 11   7  11  1   
 12   7  24  1   
 13   8  12  2   
 14   8  13  1   
 15   9  14  1   
 16   9  15  1   
 17  10  11  1   
 18  10  16  1   
 19  11  17  1   
 20  12  14  1   
 21  13  25  1   
 22  13  26  1   
 23  13  27  1   
 24  14  18  1   
 25  15  28  1   
 26  15  29  1   
 27  15  30  1   
 28  16  19  2   
 29  17  20  2   
 30  17  31  1   
 31  18  21  1   
 32  18  32  1   
 33  18  33  1   
 34  19  20  1   
 35  19  34  1   
 36  20  35  1   
 37  21  22  1   
 38  21  36  1   
 39  21  37  1   
 40  22  38  1   
 41  22  39  1   
 42  22  40  1   
@<TRIPOS>SUBSTRUCTURE
  1 ****   3 GROUP 4 **** **** 0

# MOE 2024.06 (io_trps.svl 2023.06)
