@<TRIPOS>MOLECULE
NONAME
41 43 1 0 0 
SMALL
USER_CHARGES


@<TRIPOS>ATOM
  1 O       -2.5720    -0.0220    -1.9000 O.2   1 <1>  -0.5700 
  2 C       -2.5230     0.5980    -0.8470 C.2   1 <1>   0.7160 
  3 N       -2.7590    -0.1270     0.3110 N.am  1 <1>  -0.6600 
  4 C       -2.2580     2.0390    -0.8880 C.2   1 <1>   0.2030 
  5 C       -2.8320    -1.6160     0.2630 C.3   1 <1>   0.3200 
  6 C       -3.2610     0.4620     1.5910 C.3   1 <1>   0.1400 
  7 N       -2.0910     2.8580     0.1440 N.2   1 <1>  -0.7070 
  8 C       -2.1430     2.7460    -2.0870 C.2   1 <1>  -0.1500 
  9 C       -4.2530    -2.0500    -0.0480 C.2   1 <1>   0.0060 
 10 C       -4.6680     1.0490     1.4150 C.3   1 <1>   0.1200 
 11 N       -1.8790     4.0750    -0.3890 N.pl3 1 <1>   0.6010 
 12 C       -1.9040     4.0360    -1.7610 C.2   1 <1>  -0.0260 
 13 N       -5.0560    -2.6330     0.7850 N.2   1 <1>  -0.5650 
 14 N       -4.7990    -1.8290    -1.2620 N.pl3 1 <1>   0.0330 
 15 O       -5.2560     1.2180     2.6600 O.3   1 <1>  -0.6800 
 16 C       -1.6590     5.2880     0.2550 C.2   1 <1>  -0.1690 
 17 N       -1.7140     5.1450    -2.5590 N.2   1 <1>  -0.5760 
 18 C       -6.1860    -2.8070     0.0710 C.2   1 <1>   0.0770 
 19 C       -6.0480    -2.3200    -1.1820 C.2   1 <1>  -0.3020 
 20 C       -1.4720     6.3820    -0.5300 C.2   1 <1>  -0.1360 
 21 C       -1.6460     5.3110     1.7770 C.3   1 <1>  -0.1020 
 22 C       -1.5060     6.2640    -1.9510 C.2   1 <1>   0.3750 
 23 C       -1.2890     7.5130    -2.7760 C.3   1 <1>  -0.1790 
 24 H       -2.5270    -2.0300     1.2080 H     1 <1>   0.0800 
 25 H       -2.1640    -1.9990    -0.4900 H     1 <1>   0.0800 
 26 H       -2.5860     1.2210     1.9420 H     1 <1>   0.0800 
 27 H       -3.3030    -0.3090     2.3400 H     1 <1>   0.0800 
 28 H       -2.2290     2.3380    -3.0780 H     1 <1>   0.1500 
 29 H       -5.2960     0.3880     0.8430 H     1 <1>   0.0800 
 30 H       -4.6190     2.0120     0.9370 H     1 <1>   0.0800 
 31 H       -4.3290    -1.3530    -2.0450 H     1 <1>   0.2700 
 32 H       -5.5220     0.3500     3.0250 H     1 <1>   0.4000 
 33 H       -7.0520    -3.2800     0.5030 H     1 <1>   0.1500 
 34 H       -6.7490    -2.2960    -1.9960 H     1 <1>   0.1500 
 35 H       -1.2960     7.3560    -0.1130 H     1 <1>   0.1500 
 36 H       -0.8700     4.6640     2.1480 H     1 <1>   0.0800 
 37 H       -2.5910     4.9630     2.1580 H     1 <1>   0.0800 
 38 H       -1.4700     6.3060     2.1460 H     1 <1>   0.0800 
 39 H       -2.0500     8.2370    -2.5500 H     1 <1>   0.0800 
 40 H       -1.3380     7.2780    -3.8250 H     1 <1>   0.0800 
 41 H       -0.3230     7.9300    -2.5620 H     1 <1>   0.0800 
@<TRIPOS>BOND
  1   1   2  2   
  2   2   3  am  
  3   2   4  1   
  4   3   5  1   
  5   3   6  1   
  6   4   7  2   
  7   4   8  1   
  8   5   9  1   
  9   5  24  1   
 10   5  25  1   
 11   6  10  1   
 12   6  26  1   
 13   6  27  1   
 14   7  11  1   
 15   8  12  2   
 16   8  28  1   
 17   9  13  2   
 18   9  14  1   
 19  10  15  1   
 20  10  29  1   
 21  10  30  1   
 22  11  12  1   
 23  11  16  1   
 24  12  17  1   
 25  13  18  1   
 26  14  19  1   
 27  14  31  1   
 28  15  32  1   
 29  16  20  2   
 30  16  21  1   
 31  17  22  2   
 32  18  19  2   
 33  18  33  1   
 34  19  34  1   
 35  20  22  1   
 36  20  35  1   
 37  21  36  1   
 38  21  37  1   
 39  21  38  1   
 40  22  23  1   
 41  23  39  1   
 42  23  40  1   
 43  23  41  1   
@<TRIPOS>SUBSTRUCTURE
  1 ****   4 GROUP 4 **** **** 0

# MOE 2024.06 (io_trps.svl 2023.06)
