@<TRIPOS>MOLECULE
NONAME
46 49 1 0 0 
SMALL
USER_CHARGES


@<TRIPOS>ATOM
  1 S       -1.2580     0.4000    -0.9380 S.3   1 <1>  -0.0800 
  2 C       -0.6060    -1.2370    -0.8770 C.ar  1 <1>   0.2970 
  3 C       -2.8340    -0.1510    -0.3640 C.2   1 <1>  -0.1100 
  4 N        0.6340    -1.5360    -1.1950 N.ar  1 <1>  -0.5670 
  5 C       -1.5680    -2.1190    -0.4550 C.ar  1 <1>   0.0000 
  6 C       -2.8250    -1.4800    -0.1580 C.2   1 <1>  -0.1500 
  7 C        0.9000    -2.8210    -1.0660 C.ar  1 <1>   0.4770 
  8 C       -1.1540    -3.4480    -0.3840 C.ar  1 <1>   0.4100 
  9 N        0.0850    -3.7940    -0.6790 N.ar  1 <1>  -0.6200 
 10 C        2.3100    -3.2470    -1.4020 C.3   1 <1>  -0.0960 
 11 N       -2.0140    -4.4650    -0.0270 N.pl3 1 <1>  -0.8380 
 12 C       -1.4630    -5.6130     0.7560 C.3   1 <1>   0.2090 
 13 C       -3.0850    -4.8330    -0.9980 C.3   1 <1>   0.2090 
 14 C       -2.5900    -6.4290     1.4210 C.3   1 <1>   0.3430 
 15 C       -4.1910    -5.6720    -0.3250 C.3   1 <1>   0.3430 
 16 N       -3.6500    -6.8590     0.4400 N.4   1 <1>  -0.9590 
 17 C       -4.7600    -7.6130     1.1170 C.3   1 <1>   0.4860 
 18 C       -5.7090    -8.2680     0.1120 C.ar  1 <1>   0.1670 
 19 N       -6.5920    -7.4490    -0.4470 N.ar  1 <1>  -0.6200 
 20 C       -5.6180    -9.6310    -0.1670 C.ar  1 <1>  -0.1430 
 21 C       -7.4280    -8.0010    -1.3130 C.ar  1 <1>   0.1600 
 22 C       -6.4970   -10.1790    -1.0800 C.ar  1 <1>  -0.1500 
 23 C       -4.5960   -10.5490     0.4970 C.3   1 <1>  -0.0970 
 24 C       -7.4190    -9.3380    -1.6600 C.ar  1 <1>  -0.1500 
 25 H       -3.5970     0.5970    -0.2390 H     1 <1>   0.1500 
 26 H       -3.6550    -2.0590     0.2020 H     1 <1>   0.1500 
 27 H        2.8890    -2.4090    -1.7430 H     1 <1>   0.0800 
 28 H        2.2860    -3.9920    -2.1750 H     1 <1>   0.0800 
 29 H        2.7770    -3.6600    -0.5280 H     1 <1>   0.0800 
 30 H       -0.7990    -5.2370     1.5160 H     1 <1>   0.0800 
 31 H       -0.8870    -6.2470     0.1030 H     1 <1>   0.0800 
 32 H       -2.6500    -5.3940    -1.8080 H     1 <1>   0.0800 
 33 H       -3.5210    -3.9430    -1.4180 H     1 <1>   0.0800 
 34 H       -3.0350    -5.8140     2.1860 H     1 <1>   0.0800 
 35 H       -2.1580    -7.2920     1.9000 H     1 <1>   0.0800 
 36 H       -4.8730    -6.0060    -1.0900 H     1 <1>   0.0800 
 37 H       -4.7430    -5.0330     0.3440 H     1 <1>   0.0800 
 38 H       -3.2290    -7.4890    -0.2550 H     1 <1>   0.4500 
 39 H       -5.3320    -6.9420     1.7360 H     1 <1>   0.0800 
 40 H       -4.3460    -8.3760     1.7530 H     1 <1>   0.0800 
 41 H       -8.1600    -7.3570    -1.7720 H     1 <1>   0.1500 
 42 H       -6.4770   -11.2260    -1.3360 H     1 <1>   0.1500 
 43 H       -3.5960   -10.1910     0.3310 H     1 <1>   0.0800 
 44 H       -4.6590   -11.5440     0.0920 H     1 <1>   0.0800 
 45 H       -4.7830   -10.6140     1.5550 H     1 <1>   0.0800 
 46 H       -8.1300    -9.7160    -2.3740 H     1 <1>   0.1500 
@<TRIPOS>BOND
  1   1   2  1   
  2   1   3  1   
  3   2   4  ar  
  4   2   5  ar  
  5   3   6  2   
  6   3  25  1   
  7   4   7  ar  
  8   5   6  1   
  9   5   8  ar  
 10   6  26  1   
 11   7   9  ar  
 12   7  10  1   
 13   8   9  ar  
 14   8  11  1   
 15  10  27  1   
 16  10  28  1   
 17  10  29  1   
 18  11  12  1   
 19  11  13  1   
 20  12  14  1   
 21  12  30  1   
 22  12  31  1   
 23  13  15  1   
 24  13  32  1   
 25  13  33  1   
 26  14  16  1   
 27  14  34  1   
 28  14  35  1   
 29  15  16  1   
 30  15  36  1   
 31  15  37  1   
 32  16  17  1   
 33  16  38  1   
 34  17  18  1   
 35  17  39  1   
 36  17  40  1   
 37  18  19  ar  
 38  18  20  ar  
 39  19  21  ar  
 40  20  22  ar  
 41  20  23  1   
 42  21  24  ar  
 43  21  41  1   
 44  22  24  ar  
 45  22  42  1   
 46  23  43  1   
 47  23  44  1   
 48  23  45  1   
 49  24  46  1   
@<TRIPOS>SUBSTRUCTURE
  1 ****  13 GROUP 4 **** **** 0

# MOE 2024.06 (io_trps.svl 2023.06)
