@<TRIPOS>MOLECULE
NONAME
43 45 1 0 0 
SMALL
USER_CHARGES


@<TRIPOS>ATOM
  1 O        0.4230     0.0190     2.4910 O.3   1 <1>  -0.6800 
  2 C        0.7540    -0.4030     1.2100 C.3   1 <1>   0.2000 
  3 C        1.4600    -1.7530     1.3340 C.3   1 <1>  -0.0800 
  4 C        1.8460     0.5360     0.6630 C.3   1 <1>   0.3430 
  5 C        2.8470    -1.3050     1.8020 C.3   1 <1>   0.3430 
  6 C        1.4570    -2.5040    -0.0280 C.3   1 <1>  -0.0170 
  7 N        3.1520    -0.1490     0.9300 N.4   1 <1>  -0.9590 
  8 C        2.7820    -3.1540    -0.4080 C.ar  1 <1>   0.1670 
  9 C        4.2060     0.7530     1.4410 C.3   1 <1>   0.5240 
 10 N        3.7120    -2.3440    -0.9020 N.ar  1 <1>  -0.6200 
 11 C        2.9620    -4.5260    -0.2410 C.ar  1 <1>   0.1600 
 12 C        4.4870     1.7830     0.3730 C.2   1 <1>  -0.1810 
 13 C        4.8110    -3.0050    -1.2420 C.ar  1 <1>   0.1600 
 14 N        4.0700    -5.1730    -0.5510 N.ar  1 <1>  -0.6200 
 15 C        5.0520     1.5260    -0.8710 C.2   1 <1>   0.1390 
 16 C        4.2590     3.1160     0.3750 C.2   1 <1>  -0.3020 
 17 C        4.9850    -4.3730    -1.0690 C.ar  1 <1>   0.1600 
 18 N        5.1590     2.5990    -1.5860 N.2   1 <1>  -0.7070 
 19 N        4.6770     3.5910    -0.8160 N.pl3 1 <1>   0.3140 
 20 C        4.6470     4.9950    -1.2780 C.3   1 <1>   0.0960 
 21 C        5.8120     5.7980    -0.6880 C.3   1 <1>  -0.2400 
 22 H       -0.4120    -0.3910     2.8020 H     1 <1>   0.4000 
 23 H       -0.1380    -0.4070     0.6050 H     1 <1>   0.0800 
 24 H        1.0030    -2.3790     2.0810 H     1 <1>   0.0800 
 25 H        1.7900     1.4920     1.1570 H     1 <1>   0.0800 
 26 H        1.7260     0.6760    -0.3990 H     1 <1>   0.0800 
 27 H        3.5850    -2.0850     1.7090 H     1 <1>   0.0800 
 28 H        2.7870    -0.9830     2.8300 H     1 <1>   0.0800 
 29 H        1.1990    -1.8330    -0.8300 H     1 <1>   0.0800 
 30 H        0.6840    -3.2530    -0.0090 H     1 <1>   0.0800 
 31 H        3.4830    -0.5620     0.0360 H     1 <1>   0.4500 
 32 H        3.8730     1.2400     2.3430 H     1 <1>   0.0800 
 33 H        5.1040     0.1980     1.6540 H     1 <1>   0.0800 
 34 H        2.1600    -5.1170     0.1650 H     1 <1>   0.1500 
 35 H        5.6180    -2.4430    -1.6800 H     1 <1>   0.1500 
 36 H        5.3700     0.5590    -1.2250 H     1 <1>   0.1500 
 37 H        3.8380     3.7520     1.1330 H     1 <1>   0.1500 
 38 H        5.9150    -4.8220    -1.3720 H     1 <1>   0.1500 
 39 H        4.7090     4.9960    -2.3520 H     1 <1>   0.0800 
 40 H        3.7080     5.4310    -0.9900 H     1 <1>   0.0800 
 41 H        6.7490     5.3600    -0.9860 H     1 <1>   0.0800 
 42 H        5.7530     5.8180     0.3860 H     1 <1>   0.0800 
 43 H        5.7790     6.8100    -1.0520 H     1 <1>   0.0800 
@<TRIPOS>BOND
  1   1   2  1   
  2   1  22  1   
  3   2   3  1   
  4   2   4  1   
  5   2  23  1   
  6   3   5  1   
  7   3   6  1   
  8   3  24  1   
  9   4   7  1   
 10   4  25  1   
 11   4  26  1   
 12   5   7  1   
 13   5  27  1   
 14   5  28  1   
 15   6   8  1   
 16   6  29  1   
 17   6  30  1   
 18   7   9  1   
 19   7  31  1   
 20   8  10  ar  
 21   8  11  ar  
 22   9  12  1   
 23   9  32  1   
 24   9  33  1   
 25  10  13  ar  
 26  11  14  ar  
 27  11  34  1   
 28  12  15  1   
 29  12  16  2   
 30  13  17  ar  
 31  13  35  1   
 32  14  17  ar  
 33  15  18  2   
 34  15  36  1   
 35  16  19  1   
 36  16  37  1   
 37  17  38  1   
 38  18  19  1   
 39  19  20  1   
 40  20  21  1   
 41  20  39  1   
 42  20  40  1   
 43  21  41  1   
 44  21  42  1   
 45  21  43  1   
@<TRIPOS>SUBSTRUCTURE
  1 ****   7 GROUP 4 **** **** 0

# MOE 2024.06 (io_trps.svl 2023.06)
