@<TRIPOS>MOLECULE
NONAME
52 55 1 0 0 
SMALL
USER_CHARGES


@<TRIPOS>ATOM
  1 O       -1.4630     1.3770    -1.8410 O.2   1 <1>  -0.5700 
  2 C       -1.4400     1.9620    -0.7870 C.2   1 <1>   0.5690 
  3 N       -2.3770     1.9080     0.2090 N.am  1 <1>  -0.4770 
  4 C       -0.3010     2.8760    -0.4220 C.3   1 <1>  -0.0990 
  5 C       -3.5960     1.2050     0.2230 C.ar  1 <1>   0.1170 
  6 C       -1.9650     2.7490     1.3530 C.3   1 <1>   0.1400 
  7 C       -0.8130     3.6090     0.8230 C.3   1 <1>  -0.1600 
  8 C       -4.1220     0.6980     1.4100 C.ar  1 <1>  -0.1500 
  9 C       -4.3260     0.9950    -0.9430 C.ar  1 <1>  -0.1500 
 10 C       -5.3290     0.0260     1.4270 C.ar  1 <1>  -0.1500 
 11 C       -5.5300     0.3190    -0.9240 C.ar  1 <1>  -0.1500 
 12 C       -6.0720    -0.1720     0.2640 C.ar  1 <1>   0.0860 
 13 C       -7.3450    -0.8650     0.2990 C.2   1 <1>   0.5440 
 14 O       -7.4320    -1.9150     0.9100 O.2   1 <1>  -0.5700 
 15 N       -8.4700    -0.3650    -0.3270 N.am  1 <1>  -0.6600 
 16 C       -9.6780    -1.2050    -0.5610 C.3   1 <1>   0.1400 
 17 C       -8.6630     1.0720    -0.6650 C.3   1 <1>   0.1400 
 18 C      -10.8450    -0.6600     0.2640 C.3   1 <1>  -0.1600 
 19 C       -9.8190     1.6320     0.1670 C.3   1 <1>  -0.1600 
 20 C      -11.1060     0.8200    -0.0320 C.3   1 <1>   0.4180 
 21 O      -11.4970     0.8890    -1.3830 O.3   1 <1>  -0.5600 
 22 C      -12.2230     1.3340     0.8720 C.2   1 <1>  -0.2880 
 23 C      -12.1990     2.0290    -1.7950 C.3   1 <1>   0.1200 
 24 C      -13.3390     1.9190     0.4290 C.2   1 <1>  -0.2760 
 25 C      -13.5410     2.1330    -1.0590 C.3   1 <1>  -0.0220 
 26 C      -14.4730     2.3960     1.3180 C.3   1 <1>  -0.1020 
 27 H       -0.0800     3.5530    -1.2270 H     1 <1>   0.0800 
 28 H        0.5630     2.2790    -0.1950 H     1 <1>   0.0800 
 29 H       -1.6230     2.1150     2.1520 H     1 <1>   0.0800 
 30 H       -2.7860     3.3580     1.6920 H     1 <1>   0.0800 
 31 H       -1.1990     4.5730     0.5410 H     1 <1>   0.0800 
 32 H       -0.0430     3.7450     1.5620 H     1 <1>   0.0800 
 33 H       -3.5820     0.8180     2.3300 H     1 <1>   0.1500 
 34 H       -3.9450     1.3630    -1.8790 H     1 <1>   0.1500 
 35 H       -5.7150    -0.3650     2.3530 H     1 <1>   0.1500 
 36 H       -6.0660     0.1610    -1.8440 H     1 <1>   0.1500 
 37 H       -9.4890    -2.2300    -0.2910 H     1 <1>   0.0800 
 38 H       -9.9270    -1.1780    -1.6080 H     1 <1>   0.0800 
 39 H       -8.8880     1.1610    -1.7140 H     1 <1>   0.0800 
 40 H       -7.7750     1.6420    -0.4580 H     1 <1>   0.0800 
 41 H      -10.6140    -0.7860     1.3060 H     1 <1>   0.0800 
 42 H      -11.7350    -1.2250     0.0560 H     1 <1>   0.0800 
 43 H       -9.9890     2.6620    -0.0790 H     1 <1>   0.0800 
 44 H       -9.5400     1.5960     1.2040 H     1 <1>   0.0800 
 45 H      -12.0220     1.1680     1.9150 H     1 <1>   0.1500 
 46 H      -12.3600     1.9500    -2.8560 H     1 <1>   0.0800 
 47 H      -11.5940     2.8960    -1.6000 H     1 <1>   0.0800 
 48 H      -14.2250     1.3980    -1.4440 H     1 <1>   0.0800 
 49 H      -13.9570     3.1080    -1.2430 H     1 <1>   0.0800 
 50 H      -15.3850     1.8910     1.0570 H     1 <1>   0.0800 
 51 H      -14.6150     3.4560     1.2030 H     1 <1>   0.0800 
 52 H      -14.2530     2.1920     2.3510 H     1 <1>   0.0800 
@<TRIPOS>BOND
  1   1   2  2   
  2   2   3  am  
  3   2   4  1   
  4   3   5  1   
  5   3   6  1   
  6   4   7  1   
  7   4  27  1   
  8   4  28  1   
  9   5   8  ar  
 10   5   9  ar  
 11   6   7  1   
 12   6  29  1   
 13   6  30  1   
 14   7  31  1   
 15   7  32  1   
 16   8  10  ar  
 17   8  33  1   
 18   9  11  ar  
 19   9  34  1   
 20  10  12  ar  
 21  10  35  1   
 22  11  12  ar  
 23  11  36  1   
 24  12  13  1   
 25  13  14  2   
 26  13  15  am  
 27  15  16  1   
 28  15  17  1   
 29  16  18  1   
 30  16  37  1   
 31  16  38  1   
 32  17  19  1   
 33  17  39  1   
 34  17  40  1   
 35  18  20  1   
 36  18  41  1   
 37  18  42  1   
 38  19  20  1   
 39  19  43  1   
 40  19  44  1   
 41  20  21  1   
 42  20  22  1   
 43  21  23  1   
 44  22  24  2   
 45  22  45  1   
 46  23  25  1   
 47  23  46  1   
 48  23  47  1   
 49  24  25  1   
 50  24  26  1   
 51  25  48  1   
 52  25  49  1   
 53  26  50  1   
 54  26  51  1   
 55  26  52  1   
@<TRIPOS>SUBSTRUCTURE
  1 ****  17 GROUP 4 **** **** 0

# MOE 2024.06 (io_trps.svl 2023.06)
