@<TRIPOS>MOLECULE
NONAME
43 44 1 0 0 
SMALL
USER_CHARGES


@<TRIPOS>ATOM
  1 O       -0.3380     0.0800     0.0350 O.2   1 <1>  -0.5700 
  2 C       -1.3330     0.7000     0.3420 C.2   1 <1>   0.5690 
  3 N       -2.5420     0.0720     0.5110 N.am  1 <1>  -0.6600 
  4 C       -1.2020     2.2180     0.5290 C.3   1 <1>   0.1810 
  5 C       -2.6790    -1.4150     0.3870 C.3   1 <1>   0.1400 
  6 C       -3.8510     0.7510     0.7670 C.3   1 <1>   0.1400 
  7 O        0.1310     2.6280     0.5010 O.3   1 <1>  -0.6800 
  8 C       -3.8160    -1.7920    -0.5790 C.3   1 <1>   0.3440 
  9 C       -4.9240     0.2720    -0.2400 C.3   1 <1>   0.2000 
 10 O       -4.9970    -1.1300    -0.2120 O.3   1 <1>  -0.5600 
 11 C       -4.0520    -3.2990    -0.5690 C.ar  1 <1>  -0.1440 
 12 C       -6.3480     0.8630    -0.0050 C.3   1 <1>   0.0000 
 13 C       -4.9110    -3.8910     0.3480 C.ar  1 <1>  -0.1500 
 14 C       -3.3860    -4.1040    -1.4830 C.ar  1 <1>  -0.1500 
 15 C       -6.9350     0.4430     1.3550 C.3   1 <1>  -0.2400 
 16 C       -7.2970     0.3670    -1.1120 C.3   1 <1>  -0.2400 
 17 C       -6.3240     2.4020    -0.0700 C.3   1 <1>  -0.2400 
 18 C       -5.1010    -5.2620     0.3520 C.ar  1 <1>  -0.1500 
 19 C       -3.5750    -5.4760    -1.4800 C.ar  1 <1>  -0.1500 
 20 C       -4.4320    -6.0560    -0.5620 C.ar  1 <1>  -0.1500 
 21 H       -1.6140     2.5130     1.4760 H     1 <1>   0.0800 
 22 H       -1.7170     2.7270    -0.2650 H     1 <1>   0.0800 
 23 H       -1.7630    -1.8560     0.0340 H     1 <1>   0.0800 
 24 H       -2.8900    -1.8340     1.3550 H     1 <1>   0.0800 
 25 H       -4.1690     0.5200     1.7680 H     1 <1>   0.0800 
 26 H       -3.7430     1.8150     0.6890 H     1 <1>   0.0800 
 27 H        0.6710     1.8440     0.2450 H     1 <1>   0.4000 
 28 H       -3.5600    -1.4810    -1.5770 H     1 <1>   0.0800 
 29 H       -4.6090     0.5570    -1.2300 H     1 <1>   0.0800 
 30 H       -5.4390    -3.2810     1.0610 H     1 <1>   0.1500 
 31 H       -2.7150    -3.6690    -2.2030 H     1 <1>   0.1500 
 32 H       -7.9410     0.8100     1.4610 H     1 <1>   0.0800 
 33 H       -6.3540     0.8300     2.1710 H     1 <1>   0.0800 
 34 H       -6.9620    -0.6300     1.4370 H     1 <1>   0.0800 
 35 H       -8.2800     0.7860    -0.9910 H     1 <1>   0.0800 
 36 H       -7.3860    -0.7050    -1.0810 H     1 <1>   0.0800 
 37 H       -6.9270     0.6450    -2.0830 H     1 <1>   0.0800 
 38 H       -7.3240     2.7940    -0.0110 H     1 <1>   0.0800 
 39 H       -5.8900     2.7350    -0.9970 H     1 <1>   0.0800 
 40 H       -5.7630     2.8210     0.7450 H     1 <1>   0.0800 
 41 H       -5.7700    -5.7080     1.0660 H     1 <1>   0.1500 
 42 H       -3.0550    -6.0920    -2.1920 H     1 <1>   0.1500 
 43 H       -4.5790    -7.1210    -0.5590 H     1 <1>   0.1500 
@<TRIPOS>BOND
  1   1   2  2   
  2   2   3  am  
  3   2   4  1   
  4   3   5  1   
  5   3   6  1   
  6   4   7  1   
  7   4  21  1   
  8   4  22  1   
  9   5   8  1   
 10   5  23  1   
 11   5  24  1   
 12   6   9  1   
 13   6  25  1   
 14   6  26  1   
 15   7  27  1   
 16   8  10  1   
 17   8  11  1   
 18   8  28  1   
 19   9  10  1   
 20   9  12  1   
 21   9  29  1   
 22  11  13  ar  
 23  11  14  ar  
 24  12  15  1   
 25  12  16  1   
 26  12  17  1   
 27  13  18  ar  
 28  13  30  1   
 29  14  19  ar  
 30  14  31  1   
 31  15  32  1   
 32  15  33  1   
 33  15  34  1   
 34  16  35  1   
 35  16  36  1   
 36  16  37  1   
 37  17  38  1   
 38  17  39  1   
 39  17  40  1   
 40  18  20  ar  
 41  18  41  1   
 42  19  20  ar  
 43  19  42  1   
 44  20  43  1   
@<TRIPOS>SUBSTRUCTURE
  1 ****   8 GROUP 4 **** **** 0

# MOE 2024.06 (io_trps.svl 2023.06)
