@<TRIPOS>MOLECULE
NONAME
45 46 1 0 0 
SMALL
USER_CHARGES


@<TRIPOS>ATOM
  1 S        0.4440     0.0350     0.9440 S.o2  1 <1>   1.3330 
  2 O       -0.5860     0.1120     1.9550 O.2   1 <1>  -0.6500 
  3 O        1.8350     0.0940     1.3330 O.2   1 <1>  -0.6500 
  4 N        0.2140    -1.3890     0.0500 N.am  1 <1>  -0.8490 
  5 C        0.1180     1.3180    -0.2620 C.3   1 <1>  -0.0550 
  6 C       -0.2510    -2.5000     0.8850 C.3   1 <1>   0.1160 
  7 C        1.3990    -1.7980    -0.7110 C.3   1 <1>   0.1160 
  8 C        0.1620     2.7350     0.3340 C.3   1 <1>  -0.0800 
  9 C       -0.2360     3.8030    -0.6800 C.3   1 <1>   0.2000 
 10 C        1.5480     3.1760     0.8140 C.3   1 <1>   0.1400 
 11 O       -1.6150     3.9000    -0.7550 O.3   1 <1>  -0.6800 
 12 C        0.4010     5.0960    -0.1760 C.3   1 <1>   0.1400 
 13 N        1.5690     4.6450     0.6170 N.am  1 <1>  -0.6600 
 14 C        2.6660     5.4210     0.9070 C.2   1 <1>   0.5440 
 15 O        3.6630     4.8810     1.3480 O.2   1 <1>  -0.5700 
 16 C        2.6370     6.8540     0.6890 C.ar  1 <1>   0.0860 
 17 C        3.4270     7.4860    -0.2840 C.ar  1 <1>  -0.1440 
 18 C        1.7840     7.6470     1.4580 C.ar  1 <1>  -0.1500 
 19 C        3.3450     8.8560    -0.4710 C.ar  1 <1>  -0.1500 
 20 C        4.3850     6.6730    -1.1450 C.3   1 <1>  -0.0970 
 21 C        1.7010     9.0130     1.2700 C.ar  1 <1>  -0.1500 
 22 C        2.4820     9.6150     0.3020 C.ar  1 <1>   0.0820 
 23 O        2.3960    10.9380     0.1230 O.3   1 <1>  -0.5330 
 24 H        0.8260     1.2460    -1.0640 H     1 <1>   0.0800 
 25 H       -0.8600     1.1550    -0.6730 H     1 <1>   0.0800 
 26 H       -0.4010    -3.3810     0.2850 H     1 <1>   0.0800 
 27 H       -1.1890    -2.2460     1.3490 H     1 <1>   0.0800 
 28 H        0.4700    -2.7150     1.6570 H     1 <1>   0.0800 
 29 H        1.1670    -2.6500    -1.3270 H     1 <1>   0.0800 
 30 H        2.2050    -2.0570    -0.0430 H     1 <1>   0.0800 
 31 H        1.7260    -0.9960    -1.3500 H     1 <1>   0.0800 
 32 H       -0.5000     2.7870     1.1830 H     1 <1>   0.0800 
 33 H        0.1430     3.5730    -1.6620 H     1 <1>   0.0800 
 34 H        2.3300     2.7320     0.2200 H     1 <1>   0.0800 
 35 H        1.7100     2.9290     1.8510 H     1 <1>   0.0800 
 36 H       -1.9980     4.0490     0.1310 H     1 <1>   0.4000 
 37 H       -0.2750     5.6340     0.4660 H     1 <1>   0.0800 
 38 H        0.7130     5.7180    -0.9970 H     1 <1>   0.0800 
 39 H        1.1820     7.1770     2.2160 H     1 <1>   0.1500 
 40 H        3.9520     9.3370    -1.2160 H     1 <1>   0.1500 
 41 H        4.8570     7.2860    -1.8910 H     1 <1>   0.0800 
 42 H        3.8570     5.8790    -1.6420 H     1 <1>   0.0800 
 43 H        5.1520     6.2400    -0.5270 H     1 <1>   0.0800 
 44 H        1.0400     9.6160     1.8660 H     1 <1>   0.1500 
 45 H        2.9940    11.2800    -0.5650 H     1 <1>   0.4500 
@<TRIPOS>BOND
  1   1   2  2   
  2   1   3  2   
  3   1   4  am  
  4   1   5  1   
  5   4   6  1   
  6   4   7  1   
  7   5   8  1   
  8   5  24  1   
  9   5  25  1   
 10   6  26  1   
 11   6  27  1   
 12   6  28  1   
 13   7  29  1   
 14   7  30  1   
 15   7  31  1   
 16   8   9  1   
 17   8  10  1   
 18   8  32  1   
 19   9  11  1   
 20   9  12  1   
 21   9  33  1   
 22  10  13  1   
 23  10  34  1   
 24  10  35  1   
 25  11  36  1   
 26  12  13  1   
 27  12  37  1   
 28  12  38  1   
 29  13  14  am  
 30  14  15  2   
 31  14  16  1   
 32  16  17  ar  
 33  16  18  ar  
 34  17  19  ar  
 35  17  20  1   
 36  18  21  ar  
 37  18  39  1   
 38  19  22  ar  
 39  19  40  1   
 40  20  41  1   
 41  20  42  1   
 42  20  43  1   
 43  21  22  ar  
 44  21  44  1   
 45  22  23  1   
 46  23  45  1   
@<TRIPOS>SUBSTRUCTURE
  1 ****  13 GROUP 4 **** **** 0

# MOE 2024.06 (io_trps.svl 2023.06)
