@<TRIPOS>MOLECULE
NONAME
53 55 1 0 0 
SMALL
USER_CHARGES


@<TRIPOS>ATOM
  1 S        1.0960     0.0870     0.1130 S.o2  1 <1>   1.3330 
  2 O        1.8870     0.5020     1.2500 O.2   1 <1>  -0.6500 
  3 O        1.7560    -0.3660    -1.0910 O.2   1 <1>  -0.6500 
  4 N        0.0310    -1.1280     0.6310 N.am  1 <1>  -0.8490 
  5 C       -0.0060     1.4200    -0.3510 C.3   1 <1>  -0.0550 
  6 C       -0.4180    -0.9580     2.0170 C.3   1 <1>   0.1160 
  7 C        0.5940    -2.4700     0.4510 C.3   1 <1>   0.1160 
  8 C        0.7330     2.6350    -0.9460 C.3   1 <1>  -0.0800 
  9 C       -0.1880     3.7130    -1.5210 C.3   1 <1>   0.2000 
 10 C        1.6210     3.3880     0.0560 C.3   1 <1>   0.1400 
 11 O       -1.2230     3.9510    -0.6290 O.3   1 <1>  -0.6800 
 12 C        0.6970     4.9550    -1.5610 C.3   1 <1>   0.1400 
 13 N        1.5640     4.8160    -0.3610 N.am  1 <1>  -0.6600 
 14 C        2.0700     5.8210     0.4290 C.2   1 <1>   0.5690 
 15 O        2.4550     5.5740     1.5490 O.2   1 <1>  -0.5700 
 16 C        2.1060     7.2820    -0.0530 C.3   1 <1>   0.2700 
 17 N        3.4910     7.8660    -0.2370 N.pl3 1 <1>  -0.5690 
 18 C        4.0640     8.6310     0.8060 C.ar  1 <1>   0.1000 
 19 C        4.1370     7.7690    -1.4600 C.2   1 <1>  -0.0380 
 20 C        5.1740     9.4550     0.5340 C.ar  1 <1>   0.0860 
 21 C        3.5770     8.6030     2.1210 C.ar  1 <1>  -0.1500 
 22 C        5.2250     8.5320    -1.7230 C.2   1 <1>  -0.1360 
 23 C        3.6360     6.7920    -2.5150 C.3   1 <1>  -0.1020 
 24 C        5.7560     9.4360    -0.7780 C.2   1 <1>   0.4690 
 25 C        5.7000    10.2580     1.5540 C.ar  1 <1>  -0.1500 
 26 C        4.1160     9.3930     3.1120 C.ar  1 <1>  -0.1500 
 27 O        6.6940    10.1620    -1.0890 O.2   1 <1>  -0.5700 
 28 C        5.1790    10.2350     2.8270 C.ar  1 <1>  -0.1500 
 29 H       -0.6990     1.0500    -1.0820 H     1 <1>   0.0800 
 30 H       -0.5740     1.7270     0.5060 H     1 <1>   0.0800 
 31 H       -1.1530    -1.7060     2.2610 H     1 <1>   0.0800 
 32 H       -0.8660     0.0120     2.1470 H     1 <1>   0.0800 
 33 H        0.4140    -1.0490     2.6970 H     1 <1>   0.0800 
 34 H       -0.1110    -3.2170     0.7710 H     1 <1>   0.0800 
 35 H        1.5050    -2.5730     1.0190 H     1 <1>   0.0800 
 36 H        0.8150    -2.6410    -0.5900 H     1 <1>   0.0800 
 37 H        1.3670     2.2880    -1.7450 H     1 <1>   0.0800 
 38 H       -0.6090     3.4560    -2.4790 H     1 <1>   0.0800 
 39 H        2.6370     3.0280     0.0330 H     1 <1>   0.0800 
 40 H        1.2420     3.2950     1.0600 H     1 <1>   0.0800 
 41 H       -0.8480     4.2900     0.2100 H     1 <1>   0.4000 
 42 H        0.1050     5.8530    -1.5450 H     1 <1>   0.0800 
 43 H        1.3100     4.9330    -2.4450 H     1 <1>   0.0800 
 44 H        1.5580     7.8770     0.6520 H     1 <1>   0.0800 
 45 H        1.5710     7.3730    -0.9750 H     1 <1>   0.0800 
 46 H        2.7740     7.9480     2.3950 H     1 <1>   0.1500 
 47 H        5.7420     8.4890    -2.6620 H     1 <1>   0.1500 
 48 H        3.5970     5.8000    -2.1040 H     1 <1>   0.0800 
 49 H        4.3040     6.7720    -3.3570 H     1 <1>   0.0800 
 50 H        2.6660     7.0820    -2.8720 H     1 <1>   0.0800 
 51 H        6.5350    10.8990     1.3300 H     1 <1>   0.1500 
 52 H        3.7180     9.3560     4.1120 H     1 <1>   0.1500 
 53 H        5.5950    10.8560     3.6010 H     1 <1>   0.1500 
@<TRIPOS>BOND
  1   1   2  2   
  2   1   3  2   
  3   1   4  am  
  4   1   5  1   
  5   4   6  1   
  6   4   7  1   
  7   5   8  1   
  8   5  29  1   
  9   5  30  1   
 10   6  31  1   
 11   6  32  1   
 12   6  33  1   
 13   7  34  1   
 14   7  35  1   
 15   7  36  1   
 16   8   9  1   
 17   8  10  1   
 18   8  37  1   
 19   9  11  1   
 20   9  12  1   
 21   9  38  1   
 22  10  13  1   
 23  10  39  1   
 24  10  40  1   
 25  11  41  1   
 26  12  13  1   
 27  12  42  1   
 28  12  43  1   
 29  13  14  am  
 30  14  15  2   
 31  14  16  1   
 32  16  17  1   
 33  16  44  1   
 34  16  45  1   
 35  17  18  1   
 36  17  19  1   
 37  18  20  ar  
 38  18  21  ar  
 39  19  22  2   
 40  19  23  1   
 41  20  24  1   
 42  20  25  ar  
 43  21  26  ar  
 44  21  46  1   
 45  22  24  1   
 46  22  47  1   
 47  23  48  1   
 48  23  49  1   
 49  23  50  1   
 50  24  27  2   
 51  25  28  ar  
 52  25  51  1   
 53  26  28  ar  
 54  26  52  1   
 55  28  53  1   
@<TRIPOS>SUBSTRUCTURE
  1 ****  14 GROUP 4 **** **** 0

# MOE 2024.06 (io_trps.svl 2023.06)
