@<TRIPOS>MOLECULE
NONAME
49 51 1 0 0 
SMALL
USER_CHARGES


@<TRIPOS>ATOM
  1 O       -0.9460     0.0160    -1.0280 O.2   1 <1>  -0.5700 
  2 C       -1.6490     0.7230    -0.3310 C.2   1 <1>   0.5440 
  3 N       -2.8430     0.2240     0.1440 N.am  1 <1>  -0.6600 
  4 C       -1.2070     2.0730    -0.0260 C.ar  1 <1>   0.0860 
  5 C       -3.1410    -1.2450     0.1700 C.3   1 <1>   0.1400 
  6 C       -3.9740     1.0780     0.6100 C.3   1 <1>   0.1400 
  7 C       -1.2230     2.5720     1.2760 C.ar  1 <1>  -0.1500 
  8 C       -0.7370     2.9180    -1.0290 C.ar  1 <1>  -0.1500 
  9 C       -4.4070    -1.5430    -0.6460 C.3   1 <1>   0.2000 
 10 C       -5.2440     0.7620    -0.1920 C.3   1 <1>  -0.1600 
 11 C       -0.8060     3.8590     1.5620 C.ar  1 <1>  -0.1500 
 12 C       -0.3180     4.2060    -0.7500 C.ar  1 <1>  -0.1500 
 13 O       -4.6710    -2.9030    -0.5990 O.3   1 <1>  -0.6800 
 14 C       -5.6340    -0.7430    -0.1370 C.3   1 <1>  -0.1060 
 15 C       -0.3520     4.6880     0.5480 C.ar  1 <1>  -0.1430 
 16 C       -5.9690    -1.1960     1.2990 C.2   1 <1>   0.9060 
 17 C       -6.8450    -1.0280    -1.0660 C.3   1 <1>  -0.0170 
 18 C        0.1080     6.1040     0.8520 C.3   1 <1>   0.2640 
 19 O       -6.0360    -2.4130     1.5360 O.co2 1 <1>  -0.9000 
 20 O       -6.1550    -0.3690     2.1990 O.co2 1 <1>  -0.9000 
 21 C       -7.9900    -0.0210    -0.9760 C.ar  1 <1>  -0.1430 
 22 O        1.4690     6.1590     0.6380 O.3   1 <1>  -0.6800 
 23 C       -8.2560     0.8340    -2.0360 C.ar  1 <1>  -0.1500 
 24 C       -8.7790     0.0510     0.1620 C.ar  1 <1>  -0.1500 
 25 C       -9.2960     1.7460    -1.9600 C.ar  1 <1>  -0.1500 
 26 C       -9.8160     0.9630     0.2420 C.ar  1 <1>  -0.1500 
 27 C      -10.0770     1.8110    -0.8200 C.ar  1 <1>  -0.1500 
 28 H       -2.3190    -1.8020    -0.2410 H     1 <1>   0.0800 
 29 H       -3.2870    -1.5520     1.1910 H     1 <1>   0.0800 
 30 H       -4.1410     0.8980     1.6590 H     1 <1>   0.0800 
 31 H       -3.7430     2.1200     0.4860 H     1 <1>   0.0800 
 32 H       -1.5690     1.9330     2.0710 H     1 <1>   0.1500 
 33 H       -0.7010     2.5470    -2.0390 H     1 <1>   0.1500 
 34 H       -4.2040    -1.3010    -1.6750 H     1 <1>   0.0800 
 35 H       -6.0450     1.3560     0.2130 H     1 <1>   0.0800 
 36 H       -5.0970     1.0680    -1.2120 H     1 <1>   0.0800 
 37 H       -0.8370     4.2100     2.5800 H     1 <1>   0.1500 
 38 H        0.0430     4.8350    -1.5470 H     1 <1>   0.1500 
 39 H       -5.1880    -3.0430     0.2540 H     1 <1>   0.4000 
 40 H       -6.5020    -1.0590    -2.0840 H     1 <1>   0.0800 
 41 H       -7.2360    -2.0070    -0.8470 H     1 <1>   0.0800 
 42 H       -0.0830     6.3670     1.8780 H     1 <1>   0.0800 
 43 H       -0.3670     6.8200     0.2030 H     1 <1>   0.0800 
 44 H        1.8580     5.2960     0.8790 H     1 <1>   0.4000 
 45 H       -7.6530     0.7930    -2.9240 H     1 <1>   0.1500 
 46 H       -8.5800    -0.6000     0.9980 H     1 <1>   0.1500 
 47 H       -9.4940     2.4040    -2.7860 H     1 <1>   0.1500 
 48 H      -10.4130     1.0080     1.1350 H     1 <1>   0.1500 
 49 H      -10.8830     2.5200    -0.7560 H     1 <1>   0.1500 
@<TRIPOS>BOND
  1   1   2  2   
  2   2   3  am  
  3   2   4  1   
  4   3   5  1   
  5   3   6  1   
  6   4   7  ar  
  7   4   8  ar  
  8   5   9  1   
  9   5  28  1   
 10   5  29  1   
 11   6  10  1   
 12   6  30  1   
 13   6  31  1   
 14   7  11  ar  
 15   7  32  1   
 16   8  12  ar  
 17   8  33  1   
 18   9  13  1   
 19   9  14  1   
 20   9  34  1   
 21  10  14  1   
 22  10  35  1   
 23  10  36  1   
 24  11  15  ar  
 25  11  37  1   
 26  12  15  ar  
 27  12  38  1   
 28  13  39  1   
 29  14  16  1   
 30  14  17  1   
 31  15  18  1   
 32  16  19  ar  
 33  16  20  ar  
 34  17  21  1   
 35  17  40  1   
 36  17  41  1   
 37  18  22  1   
 38  18  42  1   
 39  18  43  1   
 40  21  23  ar  
 41  21  24  ar  
 42  22  44  1   
 43  23  25  ar  
 44  23  45  1   
 45  24  26  ar  
 46  24  46  1   
 47  25  27  ar  
 48  25  47  1   
 49  26  27  ar  
 50  26  48  1   
 51  27  49  1   
@<TRIPOS>SUBSTRUCTURE
  1 ****   6 GROUP 4 **** **** 0

# MOE 2024.06 (io_trps.svl 2023.06)
