@<TRIPOS>MOLECULE
NONAME
45 47 1 0 0 
SMALL
USER_CHARGES


@<TRIPOS>ATOM
  1 F        0.3480    -0.8980    -1.5560 F     1 <1>  -0.1900 
  2 C        1.0300    -1.4360    -0.5760 C.ar  1 <1>   0.1900 
  3 C        0.8890    -2.7930    -0.3020 C.ar  1 <1>   0.0830 
  4 C        1.8720    -0.6160     0.1500 C.ar  1 <1>  -0.1500 
  5 O        0.0350    -3.5310    -1.0630 O.3   1 <1>  -0.3630 
  6 C        1.6350    -3.3260     0.7480 C.ar  1 <1>  -0.1500 
  7 C        2.6040    -1.1630     1.1910 C.ar  1 <1>  -0.1500 
  8 C       -0.1880    -4.9000    -0.7940 C.3   1 <1>   0.1200 
  9 C        2.4840    -2.5130     1.4850 C.ar  1 <1>  -0.1500 
 10 C       -1.2680    -5.4190    -1.7420 C.3   1 <1>   0.2090 
 11 N       -1.4200    -6.8930    -1.5930 N.pl3 1 <1>  -0.8690 
 12 C       -2.1790    -7.4710    -0.6020 C.ar  1 <1>   0.4100 
 13 N       -2.5560    -6.7160     0.4120 N.ar  1 <1>  -0.6200 
 14 C       -2.5270    -8.7970    -0.6680 C.ar  1 <1>  -0.1500 
 15 C       -3.2840    -7.3240     1.3270 C.ar  1 <1>   0.4700 
 16 C       -3.2850    -9.3270     0.3480 C.ar  1 <1>   0.4100 
 17 N       -3.6780    -8.5810     1.3650 N.ar  1 <1>  -0.6200 
 18 N       -3.6530   -10.6570     0.3420 N.pl3 1 <1>  -0.8380 
 19 C       -4.9330   -11.0550     0.9900 C.3   1 <1>   0.2090 
 20 C       -2.5800   -11.6790     0.4300 C.3   1 <1>   0.2090 
 21 C       -5.4450   -12.3450     0.3490 C.3   1 <1>  -0.1600 
 22 C       -3.0620   -12.9740    -0.2250 C.3   1 <1>  -0.1600 
 23 C       -4.3730   -13.4320     0.4140 C.3   1 <1>   0.2000 
 24 O       -4.8280   -14.5370    -0.2700 O.3   1 <1>  -0.6800 
 25 H        1.9490     0.4280    -0.0960 H     1 <1>   0.1500 
 26 H        1.5710    -4.3660     1.0090 H     1 <1>   0.1500 
 27 H        3.2650    -0.5420     1.7700 H     1 <1>   0.1500 
 28 H       -0.5160    -4.9990     0.2260 H     1 <1>   0.0800 
 29 H        0.7330    -5.4300    -0.9520 H     1 <1>   0.0800 
 30 H        3.0550    -2.9340     2.2950 H     1 <1>   0.1500 
 31 H       -0.9890    -5.1940    -2.7560 H     1 <1>   0.0800 
 32 H       -2.2040    -4.9330    -1.5210 H     1 <1>   0.0800 
 33 H       -1.3590    -7.4100    -2.4720 H     1 <1>   0.4000 
 34 H       -2.2250    -9.4090    -1.4900 H     1 <1>   0.1500 
 35 H       -3.5990    -6.7110     2.1550 H     1 <1>   0.1500 
 36 H       -5.6640   -10.2720     0.8640 H     1 <1>   0.0800 
 37 H       -4.7690   -11.1980     2.0440 H     1 <1>   0.0800 
 38 H       -2.3450   -11.8550     1.4660 H     1 <1>   0.0800 
 39 H       -1.6890   -11.3290    -0.0630 H     1 <1>   0.0800 
 40 H       -5.7060   -12.1350    -0.6720 H     1 <1>   0.0800 
 41 H       -6.3250   -12.6720     0.8720 H     1 <1>   0.0800 
 42 H       -2.3130   -13.7340    -0.0980 H     1 <1>   0.0800 
 43 H       -3.2000   -12.7930    -1.2760 H     1 <1>   0.0800 
 44 H       -4.2040   -13.7260     1.4370 H     1 <1>   0.0800 
 45 H       -5.0090   -14.2960    -1.1980 H     1 <1>   0.4000 
@<TRIPOS>BOND
  1   1   2  1   
  2   2   3  ar  
  3   2   4  ar  
  4   3   5  1   
  5   3   6  ar  
  6   4   7  ar  
  7   4  25  1   
  8   5   8  1   
  9   6   9  ar  
 10   6  26  1   
 11   7   9  ar  
 12   7  27  1   
 13   8  10  1   
 14   8  28  1   
 15   8  29  1   
 16   9  30  1   
 17  10  11  1   
 18  10  31  1   
 19  10  32  1   
 20  11  12  1   
 21  11  33  1   
 22  12  13  ar  
 23  12  14  ar  
 24  13  15  ar  
 25  14  16  ar  
 26  14  34  1   
 27  15  17  ar  
 28  15  35  1   
 29  16  17  ar  
 30  16  18  1   
 31  18  19  1   
 32  18  20  1   
 33  19  21  1   
 34  19  36  1   
 35  19  37  1   
 36  20  22  1   
 37  20  38  1   
 38  20  39  1   
 39  21  23  1   
 40  21  40  1   
 41  21  41  1   
 42  22  23  1   
 43  22  42  1   
 44  22  43  1   
 45  23  24  1   
 46  23  44  1   
 47  24  45  1   
@<TRIPOS>SUBSTRUCTURE
  1 ****  12 GROUP 4 **** **** 0

# MOE 2024.06 (io_trps.svl 2023.06)
