@<TRIPOS>MOLECULE
NONAME
45 47 1 0 0 
SMALL
USER_CHARGES


@<TRIPOS>ATOM
  1 O        1.0890    -1.4830     1.2990 O.3   1 <1>  -0.5600 
  2 C        0.3690    -2.6480     1.5490 C.3   1 <1>   0.1200 
  3 C        0.8440    -0.8470     0.0930 C.3   1 <1>   0.1200 
  4 C        0.9580    -3.8350     0.7590 C.3   1 <1>   0.4230 
  5 C        1.5440    -1.5980    -1.0470 C.3   1 <1>  -0.0800 
  6 N        0.4550    -3.9260    -0.6830 N.4   1 <1>  -0.9590 
  7 C        2.5140    -3.8240     0.8880 C.3   1 <1>   0.3430 
  8 C        0.6970    -2.7560    -1.6000 C.3   1 <1>   0.3430 
  9 C        3.0140    -1.9130    -0.7050 C.3   1 <1>   0.3430 
 10 C       -0.9910    -4.3130    -0.7330 C.3   1 <1>   0.5240 
 11 N        3.3030    -3.3370    -0.3160 N.4   1 <1>  -0.9590 
 12 C       -1.1170    -5.6500    -0.0480 C.2   1 <1>  -0.1810 
 13 C        4.7690    -3.4520    -0.0120 C.3   1 <1>   0.2630 
 14 C       -1.6860    -5.8620     1.2020 C.2   1 <1>   0.1390 
 15 C       -0.7170    -6.8770    -0.4560 C.2   1 <1>  -0.3020 
 16 N       -1.6110    -7.1010     1.5590 N.2   1 <1>  -0.7070 
 17 N       -1.0380    -7.7440     0.5270 N.pl3 1 <1>   0.3140 
 18 C       -0.8460    -9.2120     0.5340 C.3   1 <1>   0.0960 
 19 C       -1.9120    -9.9140    -0.3170 C.3   1 <1>  -0.2400 
 20 H        0.4730    -2.8450     2.6030 H     1 <1>   0.0800 
 21 H       -0.6750    -2.4840     1.3490 H     1 <1>   0.0800 
 22 H       -0.2200    -0.7520    -0.0600 H     1 <1>   0.0800 
 23 H        1.2540     0.1470     0.1810 H     1 <1>   0.0800 
 24 H        0.6270    -4.7180     1.2810 H     1 <1>   0.0800 
 25 H        1.5880    -0.8800    -1.8470 H     1 <1>   0.0800 
 26 H        0.9020    -4.7570    -1.0900 H     1 <1>   0.4500 
 27 H        2.8260    -4.8290     1.1190 H     1 <1>   0.0800 
 28 H        2.7720    -3.2220     1.7450 H     1 <1>   0.0800 
 29 H        1.1600    -3.1150    -2.5060 H     1 <1>   0.0800 
 30 H       -0.2560    -2.3410    -1.8920 H     1 <1>   0.0800 
 31 H        3.3240    -1.2560     0.0940 H     1 <1>   0.0800 
 32 H        3.6180    -1.6660    -1.5650 H     1 <1>   0.0800 
 33 H       -1.6080    -3.5790    -0.2400 H     1 <1>   0.0800 
 34 H       -1.3210    -4.4100    -1.7550 H     1 <1>   0.0800 
 35 H        3.1250    -3.9470    -1.1230 H     1 <1>   0.4500 
 36 H        5.0320    -2.8240     0.8250 H     1 <1>   0.0800 
 37 H        5.3580    -3.1480    -0.8630 H     1 <1>   0.0800 
 38 H        5.0280    -4.4710     0.2310 H     1 <1>   0.0800 
 39 H       -2.1390    -5.1100     1.8300 H     1 <1>   0.1500 
 40 H       -0.2450    -7.2030    -1.3670 H     1 <1>   0.1500 
 41 H        0.1360    -9.4350     0.1590 H     1 <1>   0.0800 
 42 H       -0.9100    -9.5550     1.5510 H     1 <1>   0.0800 
 43 H       -1.8500    -9.5990    -1.3430 H     1 <1>   0.0800 
 44 H       -2.8930    -9.6940     0.0660 H     1 <1>   0.0800 
 45 H       -1.7650   -10.9790    -0.2780 H     1 <1>   0.0800 
@<TRIPOS>BOND
  1   1   2  1   
  2   1   3  1   
  3   2   4  1   
  4   2  20  1   
  5   2  21  1   
  6   3   5  1   
  7   3  22  1   
  8   3  23  1   
  9   4   6  1   
 10   4   7  1   
 11   4  24  1   
 12   5   8  1   
 13   5   9  1   
 14   5  25  1   
 15   6   8  1   
 16   6  10  1   
 17   6  26  1   
 18   7  11  1   
 19   7  27  1   
 20   7  28  1   
 21   8  29  1   
 22   8  30  1   
 23   9  11  1   
 24   9  31  1   
 25   9  32  1   
 26  10  12  1   
 27  10  33  1   
 28  10  34  1   
 29  11  13  1   
 30  11  35  1   
 31  12  14  1   
 32  12  15  2   
 33  13  36  1   
 34  13  37  1   
 35  13  38  1   
 36  14  16  2   
 37  14  39  1   
 38  15  17  1   
 39  15  40  1   
 40  16  17  1   
 41  17  18  1   
 42  18  19  1   
 43  18  41  1   
 44  18  42  1   
 45  19  43  1   
 46  19  44  1   
 47  19  45  1   
@<TRIPOS>SUBSTRUCTURE
  1 ****   6 GROUP 4 **** **** 0

# MOE 2024.06 (io_trps.svl 2023.06)
