@<TRIPOS>MOLECULE
NONAME
48 50 1 0 0 
SMALL
USER_CHARGES


@<TRIPOS>ATOM
  1 S       -2.2780     0.9120    -1.1300 S.3   1 <1>  -0.0800 
  2 C       -0.8680     1.0760    -0.1080 C.2   1 <1>   0.1980 
  3 C       -1.8190     2.3670    -1.9510 C.2   1 <1>  -0.1100 
  4 N       -0.1550     2.0960    -0.3720 N.2   1 <1>  -0.5650 
  5 C       -0.6230     0.0230     0.9700 C.3   1 <1>   0.1000 
  6 C       -0.6730     2.8640    -1.4350 C.2   1 <1>   0.1410 
  7 C       -0.4060    -1.3680     0.3590 C.3   1 <1>  -0.2400 
  8 C       -1.7640    -0.0080     1.9960 C.3   1 <1>  -0.2400 
  9 C       -0.0420     4.0980    -1.9080 C.2   1 <1>   0.7160 
 10 O       -0.7570     4.9540    -2.4020 O.2   1 <1>  -0.5700 
 11 N        1.3170     4.3550    -1.8380 N.am  1 <1>  -0.6600 
 12 C        2.3640     3.3360    -1.5150 C.3   1 <1>   0.1400 
 13 C        1.8690     5.7150    -2.0870 C.3   1 <1>   0.1400 
 14 C        2.8680     3.4660    -0.0700 C.3   1 <1>   0.1400 
 15 C        1.8310     6.5600    -0.8080 C.3   1 <1>  -0.1600 
 16 N        3.3620     4.8500     0.2270 N.am  1 <1>  -0.6600 
 17 C        2.2810     5.8450     0.4770 C.3   1 <1>   0.1400 
 18 C        4.7060     5.1600     0.1810 C.2   1 <1>   0.6160 
 19 O        5.5100     4.2720    -0.0370 O.2   1 <1>  -0.5700 
 20 C        5.1860     6.4840     0.4360 C.2   1 <1>   0.0290 
 21 C        5.3000     7.3830    -0.6690 C.2   1 <1>   0.6160 
 22 C        5.5490     6.9180     1.6880 C.2   1 <1>  -0.1500 
 23 O        4.9780     7.1200    -1.8180 O.2   1 <1>  -0.5700 
 24 N        5.7740     8.6470    -0.4330 N.am  1 <1>  -0.5390 
 25 C        6.0260     8.2320     1.8800 C.2   1 <1>  -0.1500 
 26 C        6.1340     9.0770     0.8190 C.2   1 <1>  -0.0410 
 27 H       -2.4470     2.7280    -2.7440 H     1 <1>   0.1500 
 28 H        0.2790     0.3030     1.4870 H     1 <1>   0.0800 
 29 H       -1.2950    -1.7100    -0.1390 H     1 <1>   0.0800 
 30 H       -0.1480    -2.0750     1.1270 H     1 <1>   0.0800 
 31 H        0.3970    -1.3320    -0.3560 H     1 <1>   0.0800 
 32 H       -2.6840    -0.3200     1.5350 H     1 <1>   0.0800 
 33 H       -1.9050     0.9720     2.4160 H     1 <1>   0.0800 
 34 H       -1.5290    -0.6910     2.7930 H     1 <1>   0.0800 
 35 H        3.2000     3.4590    -2.1830 H     1 <1>   0.0800 
 36 H        1.9840     2.3440    -1.6760 H     1 <1>   0.0800 
 37 H        1.3080     6.2060    -2.8640 H     1 <1>   0.0800 
 38 H        2.8870     5.6320    -2.4310 H     1 <1>   0.0800 
 39 H        3.6570     2.7510     0.0860 H     1 <1>   0.0800 
 40 H        2.0750     3.2130     0.6100 H     1 <1>   0.0800 
 41 H        0.8260     6.9140    -0.6630 H     1 <1>   0.0800 
 42 H        2.4400     7.4300    -0.9620 H     1 <1>   0.0800 
 43 H        1.4330     5.3310     0.8980 H     1 <1>   0.0800 
 44 H        2.6050     6.5700     1.2020 H     1 <1>   0.0800 
 45 H        5.4820     6.2590     2.5380 H     1 <1>   0.1500 
 46 H        5.8480     9.2350    -1.2650 H     1 <1>   0.3700 
 47 H        6.3040     8.5440     2.8730 H     1 <1>   0.1500 
 48 H        6.4990    10.0880     0.9230 H     1 <1>   0.1500 
@<TRIPOS>BOND
  1   1   2  1   
  2   1   3  1   
  3   2   4  2   
  4   2   5  1   
  5   3   6  2   
  6   3  27  1   
  7   4   6  1   
  8   5   7  1   
  9   5   8  1   
 10   5  28  1   
 11   6   9  1   
 12   7  29  1   
 13   7  30  1   
 14   7  31  1   
 15   8  32  1   
 16   8  33  1   
 17   8  34  1   
 18   9  10  2   
 19   9  11  am  
 20  11  12  1   
 21  11  13  1   
 22  12  14  1   
 23  12  35  1   
 24  12  36  1   
 25  13  15  1   
 26  13  37  1   
 27  13  38  1   
 28  14  16  1   
 29  14  39  1   
 30  14  40  1   
 31  15  17  1   
 32  15  41  1   
 33  15  42  1   
 34  16  17  1   
 35  16  18  am  
 36  17  43  1   
 37  17  44  1   
 38  18  19  2   
 39  18  20  1   
 40  20  21  1   
 41  20  22  2   
 42  21  23  2   
 43  21  24  am  
 44  22  25  1   
 45  22  45  1   
 46  24  26  1   
 47  24  46  1   
 48  25  26  2   
 49  25  47  1   
 50  26  48  1   
@<TRIPOS>SUBSTRUCTURE
  1 ****  14 GROUP 4 **** **** 0

# MOE 2024.06 (io_trps.svl 2023.06)
