@<TRIPOS>MOLECULE
NONAME
46 48 1 0 0 
SMALL
USER_CHARGES


@<TRIPOS>ATOM
  1 O        3.6580    -2.1100    -0.7760 O.2   1 <1>  -0.5700 
  2 C        2.8160    -1.7420     0.0080 C.2   1 <1>   0.5690 
  3 N        2.6090    -0.4090     0.1950 N.am  1 <1>  -0.6600 
  4 C        2.0320    -2.7580     0.8160 C.3   1 <1>  -0.0990 
  5 C        3.3110     0.2410     1.3570 C.3   1 <1>   0.2200 
  6 C        2.3080     0.4200    -1.0140 C.3   1 <1>   0.1400 
  7 C        0.7080    -3.1260     0.1260 C.3   1 <1>  -0.1600 
  8 C        2.6990     1.5960     1.7510 C.3   1 <1>   0.1200 
  9 C        4.8330     0.3820     1.0850 C.3   1 <1>   0.3430 
 10 C        3.1930     1.6680    -1.1990 C.3   1 <1>  -0.0800 
 11 C       -0.0830    -4.1700     0.9260 C.3   1 <1>   0.0210 
 12 O        3.2830     2.6300     1.0160 O.3   1 <1>  -0.5600 
 13 N        5.1880     0.2720    -0.3740 N.4   1 <1>  -0.9590 
 14 C        2.7820     2.8170    -0.2640 C.3   1 <1>   0.1200 
 15 C        4.7180     1.4270    -1.2020 C.3   1 <1>   0.3430 
 16 C       -1.4060    -4.5240     0.2680 C.2   1 <1>  -0.1810 
 17 C        6.6410     0.0110    -0.5700 C.3   1 <1>   0.2630 
 18 C       -2.3720    -5.3650     0.8160 C.2   1 <1>   0.1390 
 19 C       -1.9270    -4.1430    -0.9190 C.2   1 <1>  -0.3020 
 20 N       -3.4080    -5.4990     0.0460 N.2   1 <1>  -0.7070 
 21 N       -3.1300    -4.7410    -1.0300 N.pl3 1 <1>   0.3000 
 22 H        2.6350    -3.6410     0.9300 H     1 <1>   0.0800 
 23 H        1.8310    -2.3610     1.7930 H     1 <1>   0.0800 
 24 H        3.1900    -0.4010     2.2130 H     1 <1>   0.0800 
 25 H        2.4020    -0.1970    -1.8930 H     1 <1>   0.0800 
 26 H        1.2760     0.7250    -0.9630 H     1 <1>   0.0800 
 27 H        0.1060    -2.2400     0.0110 H     1 <1>   0.0800 
 28 H        0.9170    -3.5190    -0.8550 H     1 <1>   0.0800 
 29 H        2.9220     1.7960     2.7840 H     1 <1>   0.0800 
 30 H        1.6290     1.6070     1.6300 H     1 <1>   0.0800 
 31 H        5.3350    -0.4040     1.6240 H     1 <1>   0.0800 
 32 H        5.1860     1.3200     1.4830 H     1 <1>   0.0800 
 33 H        2.9580     2.0360    -2.1810 H     1 <1>   0.0800 
 34 H       -0.2840    -3.7910     1.9130 H     1 <1>   0.0800 
 35 H        0.5020    -5.0680     1.0260 H     1 <1>   0.0800 
 36 H        4.6600    -0.5670    -0.7080 H     1 <1>   0.4500 
 37 H        1.7110     2.9270    -0.2110 H     1 <1>   0.0800 
 38 H        3.1930     3.7450    -0.6240 H     1 <1>   0.0800 
 39 H        5.2120     2.3280    -0.8750 H     1 <1>   0.0800 
 40 H        5.0180     1.2490    -2.2220 H     1 <1>   0.0800 
 41 H        7.2240     0.8470    -0.2180 H     1 <1>   0.0800 
 42 H        6.8530    -0.1440    -1.6160 H     1 <1>   0.0800 
 43 H        6.9360    -0.8730    -0.0290 H     1 <1>   0.0800 
 44 H       -2.2830    -5.8560     1.7710 H     1 <1>   0.1500 
 45 H       -1.5260    -3.4970    -1.6770 H     1 <1>   0.1500 
 46 H       -3.7800    -4.6550    -1.8210 H     1 <1>   0.2700 
@<TRIPOS>BOND
  1   1   2  2   
  2   2   3  am  
  3   2   4  1   
  4   3   5  1   
  5   3   6  1   
  6   4   7  1   
  7   4  22  1   
  8   4  23  1   
  9   5   8  1   
 10   5   9  1   
 11   5  24  1   
 12   6  10  1   
 13   6  25  1   
 14   6  26  1   
 15   7  11  1   
 16   7  27  1   
 17   7  28  1   
 18   8  12  1   
 19   8  29  1   
 20   8  30  1   
 21   9  13  1   
 22   9  31  1   
 23   9  32  1   
 24  10  14  1   
 25  10  15  1   
 26  10  33  1   
 27  11  16  1   
 28  11  34  1   
 29  11  35  1   
 30  12  14  1   
 31  13  15  1   
 32  13  17  1   
 33  13  36  1   
 34  14  37  1   
 35  14  38  1   
 36  15  39  1   
 37  15  40  1   
 38  16  18  1   
 39  16  19  2   
 40  17  41  1   
 41  17  42  1   
 42  17  43  1   
 43  18  20  2   
 44  18  44  1   
 45  19  21  1   
 46  19  45  1   
 47  20  21  1   
 48  21  46  1   
@<TRIPOS>SUBSTRUCTURE
  1 ****   2 GROUP 4 **** **** 0

# MOE 2024.06 (io_trps.svl 2023.06)
