@<TRIPOS>MOLECULE
NONAME
45 48 1 0 0 
SMALL
USER_CHARGES


@<TRIPOS>ATOM
  1 O       -0.3400     0.2560     1.5110 O.2   1 <1>  -0.5700 
  2 C       -1.1410     0.9100     0.8740 C.2   1 <1>   0.6160 
  3 N       -2.1230     0.2610     0.1650 N.am  1 <1>  -0.6600 
  4 C       -1.0600     2.3450     0.8960 C.2   1 <1>   0.0290 
  5 C       -3.2930     0.9130    -0.4800 C.3   1 <1>   0.1400 
  6 C       -2.2800    -1.2150     0.1650 C.3   1 <1>   0.1400 
  7 C       -0.7370     3.1460    -0.1710 C.2   1 <1>  -0.1690 
  8 C       -1.3470     2.9580     2.1530 C.2   1 <1>   0.3760 
  9 C       -4.1170    -0.2380    -1.0540 C.3   1 <1>   0.2000 
 10 C       -3.7390    -1.4620    -0.2230 C.3   1 <1>  -0.0800 
 11 N       -0.7540     4.5140     0.0310 N.pl3 1 <1>   0.6010 
 12 C       -0.3440     2.6430    -1.5600 C.3   1 <1>  -0.1020 
 13 N       -1.3710     4.2330     2.3580 N.2   1 <1>  -0.5760 
 14 O       -5.4750     0.0100    -0.9570 O.3   1 <1>  -0.6800 
 15 C       -3.9650    -2.7900    -0.9610 C.3   1 <1>   0.0210 
 16 N       -0.5180     5.5070    -0.8580 N.2   1 <1>  -0.7070 
 17 C       -1.0750     5.0230     1.2700 C.2   1 <1>  -0.0260 
 18 C       -3.4670    -3.9620    -0.1390 C.2   1 <1>   0.1080 
 19 C       -0.6840     6.6040    -0.1740 C.2   1 <1>   0.1390 
 20 C       -1.0290     6.3720     1.1460 C.2   1 <1>  -0.1500 
 21 N       -3.9050    -4.2210     1.0540 N.2   1 <1>  -0.7070 
 22 C       -2.4970    -4.8700    -0.5510 C.2   1 <1>  -0.1500 
 23 N       -3.2200    -5.3150     1.4390 N.pl3 1 <1>   0.3000 
 24 C       -2.3590    -5.7250     0.4840 C.2   1 <1>  -0.3320 
 25 C       -1.4440    -6.9280     0.6220 C.3   1 <1>  -0.0600 
 26 H       -3.8550     1.4520     0.2630 H     1 <1>   0.0800 
 27 H       -2.9770     1.5780    -1.2640 H     1 <1>   0.0800 
 28 H       -1.6090    -1.6390    -0.5610 H     1 <1>   0.0800 
 29 H       -2.0610    -1.6330     1.1350 H     1 <1>   0.0800 
 30 H       -1.5640     2.3020     2.9790 H     1 <1>   0.0600 
 31 H       -3.8710    -0.3750    -2.0940 H     1 <1>   0.0800 
 32 H       -4.3080    -1.4680     0.6900 H     1 <1>   0.0800 
 33 H        0.6290     3.0230    -1.8220 H     1 <1>   0.0800 
 34 H       -1.0500     2.9950    -2.2920 H     1 <1>   0.0800 
 35 H       -0.3070     1.5700    -1.6040 H     1 <1>   0.0800 
 36 H       -5.7700    -0.0640    -0.0280 H     1 <1>   0.4000 
 37 H       -3.4570    -2.7790    -1.9080 H     1 <1>   0.0800 
 38 H       -5.0160    -2.9230    -1.1460 H     1 <1>   0.0800 
 39 H       -0.5620     7.5850    -0.6050 H     1 <1>   0.1500 
 40 H       -1.2190     7.1040     1.9090 H     1 <1>   0.1500 
 41 H       -1.9830    -4.8690    -1.4950 H     1 <1>   0.1500 
 42 H       -3.3620    -5.7550     2.3560 H     1 <1>   0.2700 
 43 H       -0.8560    -7.0500    -0.2710 H     1 <1>   0.0800 
 44 H       -2.0230    -7.8210     0.7750 H     1 <1>   0.0800 
 45 H       -0.7760    -6.7940     1.4550 H     1 <1>   0.0800 
@<TRIPOS>BOND
  1   1   2  2   
  2   2   3  am  
  3   2   4  1   
  4   3   5  1   
  5   3   6  1   
  6   4   7  2   
  7   4   8  1   
  8   5   9  1   
  9   5  26  1   
 10   5  27  1   
 11   6  10  1   
 12   6  28  1   
 13   6  29  1   
 14   7  11  1   
 15   7  12  1   
 16   8  13  2   
 17   8  30  1   
 18   9  10  1   
 19   9  14  1   
 20   9  31  1   
 21  10  15  1   
 22  10  32  1   
 23  11  16  1   
 24  11  17  1   
 25  12  33  1   
 26  12  34  1   
 27  12  35  1   
 28  13  17  1   
 29  14  36  1   
 30  15  18  1   
 31  15  37  1   
 32  15  38  1   
 33  16  19  2   
 34  17  20  2   
 35  18  21  2   
 36  18  22  1   
 37  19  20  1   
 38  19  39  1   
 39  20  40  1   
 40  21  23  1   
 41  22  24  2   
 42  22  41  1   
 43  23  24  1   
 44  23  42  1   
 45  24  25  1   
 46  25  43  1   
 47  25  44  1   
 48  25  45  1   
@<TRIPOS>SUBSTRUCTURE
  1 ****   3 GROUP 4 **** **** 0

# MOE 2024.06 (io_trps.svl 2023.06)
