@<TRIPOS>MOLECULE
NONAME
52 55 1 0 0 
SMALL
USER_CHARGES


@<TRIPOS>ATOM
  1 S        0.2850     0.1840     1.8710 S.o2  1 <1>   1.4470 
  2 O       -0.1680    -0.8810     2.7390 O.2   1 <1>  -0.6500 
  3 O        0.5420     1.4950     2.4290 O.2   1 <1>  -0.6500 
  4 N       -0.8910     0.3850     0.6670 N.am  1 <1>  -0.8490 
  5 C        1.7310    -0.3930     0.9400 C.ar  1 <1>  -0.0090 
  6 C       -2.2360     0.5150     1.2510 C.3   1 <1>   0.1960 
  7 C       -0.6010     1.5310    -0.2000 C.3   1 <1>   0.1960 
  8 C        2.9670     0.2340     1.0640 C.ar  1 <1>  -0.1500 
  9 C        1.6350    -1.4790     0.0760 C.ar  1 <1>  -0.1500 
 10 C       -3.3260     0.4890     0.1610 C.3   1 <1>   0.0000 
 11 C       -1.5900     1.5770    -1.3690 C.3   1 <1>  -0.1600 
 12 C        4.0700    -0.2050     0.3520 C.ar  1 <1>  -0.1500 
 13 C        2.7320    -1.9270    -0.6400 C.ar  1 <1>  -0.1500 
 14 C       -4.7260     0.5770     0.7980 C.3   1 <1>   0.2000 
 15 C       -3.0450     1.6130    -0.8750 C.3   1 <1>  -0.1600 
 16 C       -3.4090    -0.8840    -0.5340 C.3   1 <1>  -0.1600 
 17 C        3.9560    -1.2960    -0.5000 C.ar  1 <1>   0.0820 
 18 O       -5.1130     1.8740     1.0810 O.3   1 <1>  -0.6800 
 19 C       -5.6940    -0.0600    -0.1980 C.3   1 <1>  -0.1600 
 20 C       -4.8430    -0.9990    -1.0630 C.3   1 <1>  -0.1600 
 21 O        5.0060    -1.7630    -1.2200 O.3   1 <1>  -0.1650 
 22 C        6.2690    -1.7520    -0.7250 C.ar  1 <1>   0.0820 
 23 C        7.3060    -1.4110    -1.5790 C.ar  1 <1>  -0.1500 
 24 C        6.5400    -2.0860     0.5970 C.ar  1 <1>  -0.1500 
 25 C        8.6090    -1.3860    -1.1110 C.ar  1 <1>  -0.1500 
 26 C        7.8430    -2.0610     1.0620 C.ar  1 <1>  -0.1500 
 27 C        8.8760    -1.7090     0.2090 C.ar  1 <1>  -0.1500 
 28 H       -2.4140    -0.2970     1.9360 H     1 <1>   0.0800 
 29 H       -2.3030     1.4340     1.8110 H     1 <1>   0.0800 
 30 H       -0.6650     2.4470     0.3670 H     1 <1>   0.0800 
 31 H        0.3990     1.4500    -0.5930 H     1 <1>   0.0800 
 32 H        3.0670     1.0780     1.7260 H     1 <1>   0.1500 
 33 H        0.6860    -1.9770    -0.0340 H     1 <1>   0.1500 
 34 H       -1.3930     2.4530    -1.9610 H     1 <1>   0.0800 
 35 H       -1.4240     0.7220    -1.9990 H     1 <1>   0.0800 
 36 H        5.0130     0.3030     0.4570 H     1 <1>   0.1500 
 37 H        2.6430    -2.7670    -1.3060 H     1 <1>   0.1500 
 38 H       -4.7460     0.0190     1.7190 H     1 <1>   0.0800 
 39 H       -3.7160     1.5410    -1.7120 H     1 <1>   0.0800 
 40 H       -3.1980     2.5720    -0.4120 H     1 <1>   0.0800 
 41 H       -2.6820    -1.0130    -1.3150 H     1 <1>   0.0800 
 42 H       -3.2490    -1.6610     0.1950 H     1 <1>   0.0800 
 43 H       -5.1810     2.3820     0.2510 H     1 <1>   0.4000 
 44 H       -6.4570    -0.6080     0.3270 H     1 <1>   0.0800 
 45 H       -6.1560     0.6850    -0.8230 H     1 <1>   0.0800 
 46 H       -5.1930    -2.0160    -1.0050 H     1 <1>   0.0800 
 47 H       -4.8810    -0.6790    -2.0900 H     1 <1>   0.0800 
 48 H        7.0910    -1.1640    -2.6030 H     1 <1>   0.1500 
 49 H        5.7390    -2.3690     1.2570 H     1 <1>   0.1500 
 50 H        9.4140    -1.1180    -1.7730 H     1 <1>   0.1500 
 51 H        8.0540    -2.3170     2.0860 H     1 <1>   0.1500 
 52 H        9.8890    -1.6890     0.5730 H     1 <1>   0.1500 
@<TRIPOS>BOND
  1   1   2  2   
  2   1   3  2   
  3   1   4  am  
  4   1   5  1   
  5   4   6  1   
  6   4   7  1   
  7   5   8  ar  
  8   5   9  ar  
  9   6  10  1   
 10   6  28  1   
 11   6  29  1   
 12   7  11  1   
 13   7  30  1   
 14   7  31  1   
 15   8  12  ar  
 16   8  32  1   
 17   9  13  ar  
 18   9  33  1   
 19  10  14  1   
 20  10  15  1   
 21  10  16  1   
 22  11  15  1   
 23  11  34  1   
 24  11  35  1   
 25  12  17  ar  
 26  12  36  1   
 27  13  17  ar  
 28  13  37  1   
 29  14  18  1   
 30  14  19  1   
 31  14  38  1   
 32  15  39  1   
 33  15  40  1   
 34  16  20  1   
 35  16  41  1   
 36  16  42  1   
 37  17  21  1   
 38  18  43  1   
 39  19  20  1   
 40  19  44  1   
 41  19  45  1   
 42  20  46  1   
 43  20  47  1   
 44  21  22  1   
 45  22  23  ar  
 46  22  24  ar  
 47  23  25  ar  
 48  23  48  1   
 49  24  26  ar  
 50  24  49  1   
 51  25  27  ar  
 52  25  50  1   
 53  26  27  ar  
 54  26  51  1   
 55  27  52  1   
@<TRIPOS>SUBSTRUCTURE
  1 ****   5 GROUP 4 **** **** 0

# MOE 2024.06 (io_trps.svl 2023.06)
