@<TRIPOS>MOLECULE
NONAME
57 61 1 0 0 
SMALL
USER_CHARGES


@<TRIPOS>ATOM
  1 O        0.4630    -0.3650    -1.0830 O.3   1 <1>  -0.5600 
  2 C        1.6100    -0.8170    -0.3970 C.3   1 <1>   0.4240 
  3 C       -0.7780    -0.7760    -0.6030 C.3   1 <1>   0.1200 
  4 C        1.4560    -2.2840     0.0610 C.ar  1 <1>  -0.1440 
  5 C        1.8540     0.1140     0.8010 C.3   1 <1>  -0.1600 
  6 C        2.7630    -0.6870    -1.4000 C.3   1 <1>  -0.1600 
  7 C       -0.9020    -2.2840    -0.7920 C.3   1 <1>  -0.0160 
  8 C        0.2690    -2.9800    -0.1270 C.ar  1 <1>  -0.1440 
  9 C        2.5100    -2.9410     0.6840 C.ar  1 <1>  -0.1500 
 10 C        2.0630     1.5620     0.3590 C.3   1 <1>   0.2090 
 11 C        2.9960     0.7650    -1.8200 C.3   1 <1>   0.2090 
 12 C        0.1460    -4.2960     0.2900 C.ar  1 <1>  -0.1500 
 13 C        2.4060    -4.2560     1.1010 C.ar  1 <1>   0.0820 
 14 N        3.1790     1.6240    -0.6180 N.pl3 1 <1>  -0.8380 
 15 C        1.2030    -4.9520     0.9150 C.ar  1 <1>   0.0820 
 16 O        3.5230    -4.7720     1.6850 O.3   1 <1>  -0.3630 
 17 C        4.4500     1.9740    -0.1860 C.ar  1 <1>   0.4100 
 18 O        1.0860    -6.2370     1.3620 O.3   1 <1>  -0.3630 
 19 C        3.9240    -6.0940     1.4000 C.3   1 <1>   0.0400 
 20 N        5.3710     1.0290    -0.1900 N.ar  1 <1>  -0.3100 
 21 C        4.7160     3.2960     0.2590 C.ar  1 <1>   0.0000 
 22 C       -0.1490    -6.9190     1.3650 C.3   1 <1>   0.0400 
 23 N        6.5870     1.2730     0.2820 N.ar  1 <1>  -0.3100 
 24 C        5.9950     3.5400     0.7790 C.ar  1 <1>   0.0000 
 25 C        3.7970     4.3660     0.1960 C.ar  1 <1>  -0.1500 
 26 C        6.8890     2.4510     0.7510 C.ar  1 <1>   0.1670 
 27 C        6.2920     4.8330     1.2720 C.ar  1 <1>  -0.1500 
 28 C        4.1110     5.6110     0.6700 C.ar  1 <1>  -0.1500 
 29 C        8.3030     2.6170     1.2800 C.3   1 <1>  -0.0970 
 30 C        5.3730     5.8440     1.2210 C.ar  1 <1>  -0.1500 
 31 H       -1.5360    -0.2620    -1.1680 H     1 <1>   0.0800 
 32 H       -0.8660    -0.5050     0.4340 H     1 <1>   0.0800 
 33 H        2.7360    -0.2020     1.3260 H     1 <1>   0.0800 
 34 H        1.0360     0.0530     1.4920 H     1 <1>   0.0800 
 35 H        2.5500    -1.2880    -2.2640 H     1 <1>   0.0800 
 36 H        3.6730    -1.0570    -0.9670 H     1 <1>   0.0800 
 37 H       -0.9120    -2.5140    -1.8420 H     1 <1>   0.0800 
 38 H       -1.8290    -2.6190    -0.3620 H     1 <1>   0.0800 
 39 H        3.4440    -2.4350     0.8550 H     1 <1>   0.1500 
 40 H        2.2920     2.1690     1.2180 H     1 <1>   0.0800 
 41 H        1.1680     1.9440    -0.1000 H     1 <1>   0.0800 
 42 H        2.1520     1.1240    -2.3830 H     1 <1>   0.0800 
 43 H        3.8690     0.8260    -2.4480 H     1 <1>   0.0800 
 44 H       -0.7870    -4.7960     0.1200 H     1 <1>   0.1500 
 45 H        4.9790    -6.1710     1.5860 H     1 <1>   0.0800 
 46 H        3.7130    -6.3120     0.3680 H     1 <1>   0.0800 
 47 H        3.3900    -6.7650     2.0480 H     1 <1>   0.0800 
 48 H        0.0010    -7.8770     1.8300 H     1 <1>   0.0800 
 49 H       -0.4770    -7.0540     0.3500 H     1 <1>   0.0800 
 50 H       -0.8620    -6.3470     1.9320 H     1 <1>   0.0800 
 51 H        2.8320     4.1880    -0.2420 H     1 <1>   0.1500 
 52 H        7.2610     5.0280     1.6920 H     1 <1>   0.1500 
 53 H        3.4000     6.4180     0.6210 H     1 <1>   0.1500 
 54 H        8.8540     1.6980     1.1770 H     1 <1>   0.0800 
 55 H        8.2770     2.8810     2.3210 H     1 <1>   0.0800 
 56 H        8.8150     3.3820     0.7270 H     1 <1>   0.0800 
 57 H        5.6070     6.8260     1.5960 H     1 <1>   0.1500 
@<TRIPOS>BOND
  1   1   2  1   
  2   1   3  1   
  3   2   4  1   
  4   2   5  1   
  5   2   6  1   
  6   3   7  1   
  7   3  31  1   
  8   3  32  1   
  9   4   8  ar  
 10   4   9  ar  
 11   5  10  1   
 12   5  33  1   
 13   5  34  1   
 14   6  11  1   
 15   6  35  1   
 16   6  36  1   
 17   7   8  1   
 18   7  37  1   
 19   7  38  1   
 20   8  12  ar  
 21   9  13  ar  
 22   9  39  1   
 23  10  14  1   
 24  10  40  1   
 25  10  41  1   
 26  11  14  1   
 27  11  42  1   
 28  11  43  1   
 29  12  15  ar  
 30  12  44  1   
 31  13  15  ar  
 32  13  16  1   
 33  14  17  1   
 34  15  18  1   
 35  16  19  1   
 36  17  20  ar  
 37  17  21  ar  
 38  18  22  1   
 39  19  45  1   
 40  19  46  1   
 41  19  47  1   
 42  20  23  ar  
 43  21  24  ar  
 44  21  25  ar  
 45  22  48  1   
 46  22  49  1   
 47  22  50  1   
 48  23  26  ar  
 49  24  26  ar  
 50  24  27  ar  
 51  25  28  ar  
 52  25  51  1   
 53  26  29  1   
 54  27  30  ar  
 55  27  52  1   
 56  28  30  ar  
 57  28  53  1   
 58  29  54  1   
 59  29  55  1   
 60  29  56  1   
 61  30  57  1   
@<TRIPOS>SUBSTRUCTURE
  1 ****   5 GROUP 4 **** **** 0

# MOE 2024.06 (io_trps.svl 2023.06)
