@<TRIPOS>MOLECULE
NONAME
14 13 1 0 0 
SMALL
USER_CHARGES


@<TRIPOS>ATOM
  1 C        3.6120    -1.2680     0.0040 C.3   1 <1>  -0.1600 
  2 C        2.9890     0.1320     0.0030 C.3   1 <1>  -0.1600 
  3 C        5.1410    -1.1920     0.0040 C.3   1 <1>  -0.2400 
  4 C        1.4600     0.0560     0.0030 C.3   1 <1>  -0.2400 
  5 H        3.2840    -1.8100    -0.8670 H     1 <1>   0.0800 
  6 H        3.2840    -1.8090     0.8760 H     1 <1>   0.0800 
  7 H        3.3170     0.6730    -0.8690 H     1 <1>   0.0800 
  8 H        3.3170     0.6740     0.8740 H     1 <1>   0.0800 
  9 H        5.4910    -0.6740    -0.8710 H     1 <1>   0.0800 
 10 H        5.5580    -2.1830     0.0050 H     1 <1>   0.0800 
 11 H        5.4910    -0.6720     0.8790 H     1 <1>   0.0800 
 12 H        1.1100    -0.4640    -0.8720 H     1 <1>   0.0800 
 13 H        1.0420     1.0470     0.0020 H     1 <1>   0.0800 
 14 H        1.1100    -0.4630     0.8780 H     1 <1>   0.0800 
@<TRIPOS>BOND
  1   1   2  1   
  2   1   3  1   
  3   1   5  1   
  4   1   6  1   
  5   2   4  1   
  6   2   7  1   
  7   2   8  1   
  8   3   9  1   
  9   3  10  1   
 10   3  11  1   
 11   4  12  1   
 12   4  13  1   
 13   4  14  1   
@<TRIPOS>SUBSTRUCTURE
  1 ****   1 GROUP 4 **** **** 0

# MOE 2024.06 (io_trps.svl 2023.06)
