@<TRIPOS>MOLECULE
NONAME
44 46 1 0 0 
SMALL
USER_CHARGES


@<TRIPOS>ATOM
  1 O       -0.0950     1.4190    -0.7490 O.3   1 <1>  -0.0190 
  2 N       -0.3490     1.9720     0.4010 N.2   1 <1>  -0.4100 
  3 C        1.1760     1.4560    -1.0380 C.2   1 <1>  -0.0400 
  4 C        0.7790     2.3690     0.8660 C.2   1 <1>   0.1080 
  5 C        1.8100     2.0720    -0.0260 C.2   1 <1>  -0.1810 
  6 C        1.6480     0.8540    -2.3470 C.3   1 <1>  -0.0600 
  7 C        0.9240     3.0550     2.2080 C.3   1 <1>  -0.0590 
  8 C        3.2720     2.4020     0.1470 C.3   1 <1>   0.3900 
  9 N        3.4230     3.8310    -0.2070 N.pl3 1 <1>  -0.8690 
 10 C        4.4630     4.6350     0.0480 C.ar  1 <1>   0.4610 
 11 N        4.4070     5.9140    -0.3260 N.ar  1 <1>  -0.1790 
 12 C        5.6430     4.2030     0.7010 C.ar  1 <1>  -0.1500 
 13 C        5.4090     6.8470    -0.1150 C.ar  1 <1>   0.3610 
 14 C        6.6770     5.0540     0.9480 C.ar  1 <1>  -0.1440 
 15 C        6.5810     6.4210     0.5390 C.ar  1 <1>   0.0000 
 16 C        5.2560     8.1800    -0.5430 C.ar  1 <1>  -0.1440 
 17 C        7.9300     4.5500     1.6540 C.3   1 <1>  -0.0970 
 18 C        7.5880     7.3710     0.7510 C.ar  1 <1>  -0.1500 
 19 C        6.2760     9.0880    -0.3140 C.ar  1 <1>  -0.1440 
 20 C        3.9610     8.5980    -1.2530 C.3   1 <1>  -0.0970 
 21 C        7.4360     8.6670     0.3340 C.ar  1 <1>  -0.1500 
 22 C        6.2100    10.5530    -0.7360 C.3   1 <1>  -0.0970 
 23 H        1.1520     1.3390    -3.1690 H     1 <1>   0.0800 
 24 H        1.4050    -0.1930    -2.3700 H     1 <1>   0.0800 
 25 H        2.7090     0.9680    -2.4630 H     1 <1>   0.0800 
 26 H       -0.0490     3.2620     2.6180 H     1 <1>   0.0800 
 27 H        1.4560     3.9810     2.1000 H     1 <1>   0.0800 
 28 H        1.4530     2.4150     2.8900 H     1 <1>   0.0800 
 29 H        3.8700     1.7960    -0.5120 H     1 <1>   0.0800 
 30 H        3.5740     2.2230     1.1650 H     1 <1>   0.0800 
 31 H        2.5690     4.1390    -0.6900 H     1 <1>   0.4000 
 32 H        3.5720     6.2400    -0.7980 H     1 <1>   0.4570 
 33 H        5.7050     3.1740     1.0010 H     1 <1>   0.1500 
 34 H        7.8500     3.5040     1.8950 H     1 <1>   0.0800 
 35 H        8.0850     5.0910     2.5710 H     1 <1>   0.0800 
 36 H        8.7920     4.6800     1.0230 H     1 <1>   0.0800 
 37 H        8.5010     7.0920     1.2470 H     1 <1>   0.1500 
 38 H        3.8280     8.0290    -2.1570 H     1 <1>   0.0800 
 39 H        3.9590     9.6340    -1.5360 H     1 <1>   0.0800 
 40 H        3.1140     8.4500    -0.6070 H     1 <1>   0.0800 
 41 H        8.2320     9.3720     0.5130 H     1 <1>   0.1500 
 42 H        5.3800    11.0420    -0.2580 H     1 <1>   0.0800 
 43 H        6.0990    10.6290    -1.8030 H     1 <1>   0.0800 
 44 H        7.1060    11.0810    -0.4610 H     1 <1>   0.0800 
@<TRIPOS>BOND
  1   1   2  1   
  2   1   3  1   
  3   2   4  2   
  4   3   5  2   
  5   3   6  1   
  6   4   5  1   
  7   4   7  1   
  8   5   8  1   
  9   6  23  1   
 10   6  24  1   
 11   6  25  1   
 12   7  26  1   
 13   7  27  1   
 14   7  28  1   
 15   8   9  1   
 16   8  29  1   
 17   8  30  1   
 18   9  10  1   
 19   9  31  1   
 20  10  11  ar  
 21  10  12  ar  
 22  11  13  ar  
 23  11  32  1   
 24  12  14  ar  
 25  12  33  1   
 26  13  15  ar  
 27  13  16  ar  
 28  14  15  ar  
 29  14  17  1   
 30  15  18  ar  
 31  16  19  ar  
 32  16  20  1   
 33  17  34  1   
 34  17  35  1   
 35  17  36  1   
 36  18  21  ar  
 37  18  37  1   
 38  19  21  ar  
 39  19  22  1   
 40  20  38  1   
 41  20  39  1   
 42  20  40  1   
 43  21  41  1   
 44  22  42  1   
 45  22  43  1   
 46  22  44  1   
@<TRIPOS>SUBSTRUCTURE
  1 ****  10 GROUP 4 **** **** 0

# MOE 2024.06 (io_trps.svl 2023.06)
