@<TRIPOS>MOLECULE
NONAME
46 47 1 0 0 
SMALL
USER_CHARGES


@<TRIPOS>ATOM
  1 S       -1.7920    -4.8110    -0.8690 S.3   1 <1>  -0.4600 
  2 C       -1.6620    -3.1670    -0.0770 C.3   1 <1>   0.2510 
  3 C       -0.1930    -5.0000    -1.7040 C.3   1 <1>  -0.0100 
  4 C       -2.9000    -2.8780     0.7620 C.2   1 <1>   0.3350 
  5 N       -2.8860    -2.5960     2.0050 N.2   1 <1>  -0.4100 
  6 N       -4.1230    -2.8970     0.2440 N.2   1 <1>  -0.5650 
  7 O       -4.1180    -2.4220     2.3790 O.3   1 <1>  -0.0190 
  8 C       -4.8090    -2.6280     1.2870 C.2   1 <1>   0.2980 
  9 C       -6.3300    -2.5610     1.3510 C.3   1 <1>   0.3200 
 10 N       -6.8950    -3.3070     0.1910 N.am  1 <1>  -0.7300 
 11 C       -7.2800    -4.6040     0.2940 C.2   1 <1>   0.5690 
 12 O       -7.6150    -5.0880     1.3510 O.2   1 <1>  -0.5700 
 13 C       -7.2180    -5.5410    -0.9240 C.3   1 <1>   0.4040 
 14 N       -7.0820    -6.9920    -0.5050 N.4   1 <1>  -0.9590 
 15 C       -5.6680    -7.4730    -0.6070 C.3   1 <1>   0.4230 
 16 C       -8.0890    -7.8800    -1.1570 C.3   1 <1>   0.4230 
 17 C       -5.5500    -8.9180    -0.1100 C.3   1 <1>  -0.1600 
 18 C       -4.7340    -6.5900     0.2220 C.3   1 <1>  -0.2400 
 19 C       -7.9420    -9.3230    -0.6590 C.3   1 <1>  -0.1600 
 20 C       -9.5070    -7.3960    -0.8390 C.3   1 <1>  -0.2400 
 21 C       -6.5190    -9.8530    -0.8310 C.3   1 <1>  -0.1600 
 22 H       -0.7810    -3.1760     0.5390 H     1 <1>   0.0800 
 23 H       -1.5590    -2.4400    -0.8600 H     1 <1>   0.0800 
 24 H       -0.1930    -5.9540    -2.2020 H     1 <1>   0.0800 
 25 H        0.5820    -4.9620    -0.9580 H     1 <1>   0.0800 
 26 H       -0.0880    -4.2000    -2.4150 H     1 <1>   0.0800 
 27 H       -6.6490    -1.5350     1.3170 H     1 <1>   0.0800 
 28 H       -6.6690    -2.9940     2.2770 H     1 <1>   0.0800 
 29 H       -6.5150    -2.9520    -0.6920 H     1 <1>   0.3700 
 30 H       -6.3810    -5.2580    -1.5380 H     1 <1>   0.0800 
 31 H       -8.1110    -5.3930    -1.5010 H     1 <1>   0.0800 
 32 H       -7.3090    -6.9800     0.5040 H     1 <1>   0.4500 
 33 H       -5.3550    -7.4430    -1.6390 H     1 <1>   0.0800 
 34 H       -7.9380    -7.8700    -2.2250 H     1 <1>   0.0800 
 35 H       -4.5450    -9.2670    -0.2720 H     1 <1>   0.0800 
 36 H       -5.7330    -8.9540     0.9510 H     1 <1>   0.0800 
 37 H       -5.0710    -6.5110     1.2410 H     1 <1>   0.0800 
 38 H       -4.6350    -5.6100    -0.2040 H     1 <1>   0.0800 
 39 H       -3.7460    -7.0170     0.2340 H     1 <1>   0.0800 
 40 H       -8.2230    -9.3800     0.3790 H     1 <1>   0.0800 
 41 H       -8.6160    -9.9580    -1.2080 H     1 <1>   0.0800 
 42 H       -9.6440    -7.2770     0.2220 H     1 <1>   0.0800 
 43 H      -10.2220    -8.1220    -1.1840 H     1 <1>   0.0800 
 44 H       -9.7430    -6.4750    -1.3360 H     1 <1>   0.0800 
 45 H       -6.4450   -10.8460    -0.4190 H     1 <1>   0.0800 
 46 H       -6.2690    -9.9090    -1.8780 H     1 <1>   0.0800 
@<TRIPOS>BOND
  1   1   2  1   
  2   1   3  1   
  3   2   4  1   
  4   2  22  1   
  5   2  23  1   
  6   3  24  1   
  7   3  25  1   
  8   3  26  1   
  9   4   5  2   
 10   4   6  1   
 11   5   7  1   
 12   6   8  2   
 13   7   8  1   
 14   8   9  1   
 15   9  10  1   
 16   9  27  1   
 17   9  28  1   
 18  10  11  am  
 19  10  29  1   
 20  11  12  2   
 21  11  13  1   
 22  13  14  1   
 23  13  30  1   
 24  13  31  1   
 25  14  15  1   
 26  14  16  1   
 27  14  32  1   
 28  15  17  1   
 29  15  18  1   
 30  15  33  1   
 31  16  19  1   
 32  16  20  1   
 33  16  34  1   
 34  17  21  1   
 35  17  35  1   
 36  17  36  1   
 37  18  37  1   
 38  18  38  1   
 39  18  39  1   
 40  19  21  1   
 41  19  40  1   
 42  19  41  1   
 43  20  42  1   
 44  20  43  1   
 45  20  44  1   
 46  21  45  1   
 47  21  46  1   
@<TRIPOS>SUBSTRUCTURE
  1 ****  18 GROUP 4 **** **** 0

# MOE 2024.06 (io_trps.svl 2023.06)
