@<TRIPOS>MOLECULE
NONAME
51 53 1 0 0 
SMALL
USER_CHARGES


@<TRIPOS>ATOM
  1 O       -4.4190    -0.0900    -1.1150 O.2   1 <1>  -0.5700 
  2 C       -3.9150     0.6760    -0.3260 C.2   1 <1>   0.5690 
  3 N       -3.3520     0.2370     0.8420 N.am  1 <1>  -0.6600 
  4 C       -3.9310     2.1550    -0.6690 C.3   1 <1>  -0.0990 
  5 C       -2.8340     1.1410     1.8980 C.3   1 <1>   0.1400 
  6 C       -3.2140    -1.2200     1.1040 C.3   1 <1>   0.1400 
  7 C       -2.5220     2.7570    -0.8130 C.3   1 <1>  -0.1600 
  8 C       -1.5700     1.8610     1.4200 C.3   1 <1>  -0.1600 
  9 C       -4.4910    -1.7500     1.7510 C.3   1 <1>  -0.0990 
 10 C       -1.8510     3.0830     0.5290 C.3   1 <1>  -0.1600 
 11 C       -4.4940    -3.2620     1.7130 C.2   1 <1>   0.5690 
 12 O       -4.1080    -3.8480     2.6950 O.2   1 <1>  -0.5700 
 13 N       -4.9100    -3.9250     0.5910 N.am  1 <1>  -0.6600 
 14 C       -5.3900    -3.3110    -0.6770 C.3   1 <1>   0.1400 
 15 C       -4.9640    -5.4030     0.5100 C.3   1 <1>   0.1400 
 16 C       -5.7730    -4.4940    -1.5700 C.3   1 <1>   0.2000 
 17 C       -5.9330    -5.6930    -0.6360 C.3   1 <1>  -0.0800 
 18 O       -6.9630    -4.2690    -2.2440 O.3   1 <1>  -0.6800 
 19 C       -5.6880    -7.0330    -1.3500 C.3   1 <1>  -0.0170 
 20 C       -5.9150    -8.2180    -0.4250 C.ar  1 <1>   0.1670 
 21 N       -4.8970    -8.5770     0.3410 N.ar  1 <1>  -0.6200 
 22 C       -7.1510    -8.8640    -0.4140 C.ar  1 <1>   0.1600 
 23 C       -5.1950    -9.6100     1.1120 C.ar  1 <1>   0.1600 
 24 N       -7.4500    -9.8970     0.3560 N.ar  1 <1>  -0.6200 
 25 C       -6.4290   -10.2480     1.1190 C.ar  1 <1>   0.1600 
 26 H       -4.4430     2.2650    -1.6090 H     1 <1>   0.0800 
 27 H       -4.5000     2.6900     0.0670 H     1 <1>   0.0800 
 28 H       -3.5920     1.8560     2.1710 H     1 <1>   0.0800 
 29 H       -2.6010     0.5650     2.7770 H     1 <1>   0.0800 
 30 H       -3.0390    -1.7280     0.1710 H     1 <1>   0.0800 
 31 H       -2.3660    -1.4130     1.7390 H     1 <1>   0.0800 
 32 H       -1.9010     2.0850    -1.3810 H     1 <1>   0.0800 
 33 H       -2.6020     3.6720    -1.3750 H     1 <1>   0.0800 
 34 H       -1.0420     2.2090     2.2900 H     1 <1>   0.0800 
 35 H       -0.9240     1.1650     0.9130 H     1 <1>   0.0800 
 36 H       -5.3550    -1.3780     1.2370 H     1 <1>   0.0800 
 37 H       -4.5390    -1.4250     2.7730 H     1 <1>   0.0800 
 38 H       -2.4600     3.7860     1.0700 H     1 <1>   0.0800 
 39 H       -0.9130     3.5700     0.3240 H     1 <1>   0.0800 
 40 H       -6.2420    -2.6850    -0.4780 H     1 <1>   0.0800 
 41 H       -4.6080    -2.7330    -1.1360 H     1 <1>   0.0800 
 42 H       -3.9790    -5.7780     0.2880 H     1 <1>   0.0800 
 43 H       -5.3040    -5.8320     1.4380 H     1 <1>   0.0800 
 44 H       -4.9980    -4.6650    -2.2980 H     1 <1>   0.0800 
 45 H       -6.9250    -5.6880    -0.2170 H     1 <1>   0.0800 
 46 H       -7.6640    -4.0100    -1.6150 H     1 <1>   0.4000 
 47 H       -4.6810    -7.0700    -1.7270 H     1 <1>   0.0800 
 48 H       -6.3510    -7.1070    -2.1940 H     1 <1>   0.0800 
 49 H       -7.9260    -8.5090    -1.0700 H     1 <1>   0.1500 
 50 H       -4.4240    -9.9690     1.7700 H     1 <1>   0.1500 
 51 H       -6.5760   -11.0810     1.7830 H     1 <1>   0.1500 
@<TRIPOS>BOND
  1   1   2  2   
  2   2   3  am  
  3   2   4  1   
  4   3   5  1   
  5   3   6  1   
  6   4   7  1   
  7   4  26  1   
  8   4  27  1   
  9   5   8  1   
 10   5  28  1   
 11   5  29  1   
 12   6   9  1   
 13   6  30  1   
 14   6  31  1   
 15   7  10  1   
 16   7  32  1   
 17   7  33  1   
 18   8  10  1   
 19   8  34  1   
 20   8  35  1   
 21   9  11  1   
 22   9  36  1   
 23   9  37  1   
 24  10  38  1   
 25  10  39  1   
 26  11  12  2   
 27  11  13  am  
 28  13  14  1   
 29  13  15  1   
 30  14  16  1   
 31  14  40  1   
 32  14  41  1   
 33  15  17  1   
 34  15  42  1   
 35  15  43  1   
 36  16  17  1   
 37  16  18  1   
 38  16  44  1   
 39  17  19  1   
 40  17  45  1   
 41  18  46  1   
 42  19  20  1   
 43  19  47  1   
 44  19  48  1   
 45  20  21  ar  
 46  20  22  ar  
 47  21  23  ar  
 48  22  24  ar  
 49  22  49  1   
 50  23  25  ar  
 51  23  50  1   
 52  24  25  ar  
 53  25  51  1   
@<TRIPOS>SUBSTRUCTURE
  1 ****  13 GROUP 4 **** **** 0

# MOE 2024.06 (io_trps.svl 2023.06)
