@<TRIPOS>MOLECULE
NONAME
46 48 1 0 0 
SMALL
USER_CHARGES


@<TRIPOS>ATOM
  1 CL      -1.3870    -0.5820     2.4750 Cl    1 <1>  -0.1230 
  2 C       -2.1590     0.2100     1.1090 C.2   1 <1>   0.1230 
  3 C       -2.9340    -0.4010     0.1150 C.2   1 <1>   0.2030 
  4 C       -2.1190     1.5290     0.8470 C.2   1 <1>  -0.3320 
  5 N       -3.3640     0.5330    -0.7240 N.2   1 <1>  -0.7070 
  6 C       -3.2070    -1.8300     0.0280 C.2   1 <1>   0.7160 
  7 N       -2.8550     1.6930    -0.2710 N.pl3 1 <1>   0.3000 
  8 C       -1.4270     2.6610     1.5880 C.3   1 <1>  -0.0600 
  9 O       -2.4670    -2.6510     0.5490 O.2   1 <1>  -0.5700 
 10 N       -4.3150    -2.3470    -0.6250 N.am  1 <1>  -0.6600 
 11 C       -4.3650    -3.7800    -1.0090 C.3   1 <1>   0.1400 
 12 C       -5.6480    -1.6880    -0.5650 C.3   1 <1>   0.1400 
 13 C       -5.1870    -4.5470     0.0490 C.3   1 <1>   0.4230 
 14 C       -6.5020    -2.4330     0.4720 C.3   1 <1>  -0.1600 
 15 N       -5.1410    -6.0600    -0.1120 N.4   1 <1>  -0.9590 
 16 C       -6.6250    -3.9640     0.2080 C.3   1 <1>   0.0000 
 17 C       -6.2320    -6.7850     0.6170 C.3   1 <1>   0.3430 
 18 C       -5.0480    -6.5580    -1.5240 C.3   1 <1>   0.2630 
 19 C       -7.3120    -4.6290     1.4380 C.3   1 <1>  -0.1600 
 20 C       -7.4540    -4.2200    -1.0840 C.3   1 <1>   0.1200 
 21 C       -6.7020    -5.9890     1.8330 C.3   1 <1>  -0.1600 
 22 O       -8.6750    -3.5680    -1.0500 O.3   1 <1>  -0.6800 
 23 H       -3.0270     2.5890    -0.7470 H     1 <1>   0.2700 
 24 H       -0.9020     2.2810     2.4470 H     1 <1>   0.0800 
 25 H       -2.1480     3.3850     1.9250 H     1 <1>   0.0800 
 26 H       -0.7150     3.1480     0.9450 H     1 <1>   0.0800 
 27 H       -4.8050    -3.8570    -1.9870 H     1 <1>   0.0800 
 28 H       -3.3660    -4.1780    -1.0570 H     1 <1>   0.0800 
 29 H       -5.5560    -0.6560    -0.2740 H     1 <1>   0.0800 
 30 H       -6.1110    -1.7130    -1.5370 H     1 <1>   0.0800 
 31 H       -4.6930    -4.3320     0.9830 H     1 <1>   0.0800 
 32 H       -6.0490    -2.2630     1.4330 H     1 <1>   0.0800 
 33 H       -7.4750    -1.9740     0.5090 H     1 <1>   0.0800 
 34 H       -4.2620    -6.3320     0.3550 H     1 <1>   0.4500 
 35 H       -7.0750    -6.9320    -0.0400 H     1 <1>   0.0800 
 36 H       -5.8820    -7.7560     0.9290 H     1 <1>   0.0800 
 37 H       -5.9190    -6.2660    -2.0870 H     1 <1>   0.0800 
 38 H       -4.9770    -7.6340    -1.5360 H     1 <1>   0.0800 
 39 H       -4.1720    -6.1580    -2.0100 H     1 <1>   0.0800 
 40 H       -7.2460    -3.9880     2.3010 H     1 <1>   0.0800 
 41 H       -8.3630    -4.7610     1.2490 H     1 <1>   0.0800 
 42 H       -7.6550    -5.2660    -1.2240 H     1 <1>   0.0800 
 43 H       -6.9430    -3.8540    -1.9560 H     1 <1>   0.0800 
 44 H       -7.4390    -6.5620     2.3690 H     1 <1>   0.0800 
 45 H       -5.8700    -5.8420     2.5010 H     1 <1>   0.0800 
 46 H       -9.2420    -3.8770    -0.3170 H     1 <1>   0.4000 
@<TRIPOS>BOND
  1   1   2  1   
  2   2   3  1   
  3   2   4  2   
  4   3   5  2   
  5   3   6  1   
  6   4   7  1   
  7   4   8  1   
  8   5   7  1   
  9   6   9  2   
 10   6  10  am  
 11   7  23  1   
 12   8  24  1   
 13   8  25  1   
 14   8  26  1   
 15  10  11  1   
 16  10  12  1   
 17  11  13  1   
 18  11  27  1   
 19  11  28  1   
 20  12  14  1   
 21  12  29  1   
 22  12  30  1   
 23  13  15  1   
 24  13  16  1   
 25  13  31  1   
 26  14  16  1   
 27  14  32  1   
 28  14  33  1   
 29  15  17  1   
 30  15  18  1   
 31  15  34  1   
 32  16  19  1   
 33  16  20  1   
 34  17  21  1   
 35  17  35  1   
 36  17  36  1   
 37  18  37  1   
 38  18  38  1   
 39  18  39  1   
 40  19  21  1   
 41  19  40  1   
 42  19  41  1   
 43  20  22  1   
 44  20  42  1   
 45  20  43  1   
 46  21  44  1   
 47  21  45  1   
 48  22  46  1   
@<TRIPOS>SUBSTRUCTURE
  1 ****  10 GROUP 4 **** **** 0

# MOE 2024.06 (io_trps.svl 2023.06)
