@<TRIPOS>MOLECULE
NONAME
54 57 1 0 0 
SMALL
USER_CHARGES


@<TRIPOS>ATOM
  1 O       -2.1480     1.2120    -2.0890 O.2   1 <1>  -0.5700 
  2 C       -2.3650     1.1650    -0.8940 C.2   1 <1>   0.7160 
  3 N       -3.0690     0.0940    -0.3980 N.am  1 <1>  -0.6600 
  4 C       -1.8070     2.1340    -0.0130 C.2   1 <1>  -0.0860 
  5 C       -3.4310    -1.0940    -1.2030 C.3   1 <1>   0.1400 
  6 C       -3.2650    -0.1840     1.0420 C.3   1 <1>   0.1400 
  7 C       -2.4670     3.1950     0.6050 C.2   1 <1>   0.3720 
  8 C       -0.5590     2.1820     0.5110 C.2   1 <1>   0.0870 
  9 C       -3.2150    -2.2840    -0.2580 C.3   1 <1>   0.4230 
 10 C       -3.5310    -1.6920     1.1240 C.3   1 <1>  -0.1600 
 11 N       -1.6840     3.8020     1.4290 N.2   1 <1>  -0.4100 
 12 N       -3.8070     3.5300     0.3830 N.pl3 1 <1>  -0.8210 
 13 O       -0.5350     3.1810     1.3540 O.3   1 <1>  -0.0190 
 14 C        0.5740     1.3200     0.3150 C.ar  1 <1>   0.0530 
 15 N       -1.8110    -2.8450    -0.3470 N.4   1 <1>  -0.9590 
 16 C       -4.0810     4.0620    -0.9900 C.3   1 <1>   0.2090 
 17 C       -4.4200     4.4330     1.4090 C.3   1 <1>   0.2090 
 18 C        0.9660     0.9150    -0.9600 C.ar  1 <1>  -0.1500 
 19 C        1.3000     0.8350     1.4020 C.ar  1 <1>  -0.1500 
 20 C       -1.6550    -4.0900     0.4680 C.3   1 <1>   0.2630 
 21 C       -0.7150    -1.8690    -0.0250 C.3   1 <1>   0.2630 
 22 C       -5.5830     4.3340    -1.1890 C.3   1 <1>   0.1200 
 23 C       -5.9080     4.6860     1.1070 C.3   1 <1>   0.1200 
 24 C        2.0220     0.0420    -1.1430 C.ar  1 <1>  -0.1500 
 25 C        2.3570    -0.0390     1.2250 C.ar  1 <1>  -0.1500 
 26 O       -6.0770     5.1840    -0.1920 O.3   1 <1>  -0.5600 
 27 C        2.7180    -0.4400    -0.0490 C.ar  1 <1>  -0.1500 
 28 H       -4.4710    -1.0200    -1.4690 H     1 <1>   0.0800 
 29 H       -2.8410    -1.1730    -2.1000 H     1 <1>   0.0800 
 30 H       -2.3820     0.0800     1.5990 H     1 <1>   0.0800 
 31 H       -4.1020     0.3840     1.4160 H     1 <1>   0.0800 
 32 H       -3.9180    -3.0650    -0.5000 H     1 <1>   0.0800 
 33 H       -4.5800    -1.8270     1.3210 H     1 <1>   0.0800 
 34 H       -2.9860    -2.1480     1.9300 H     1 <1>   0.0800 
 35 H       -1.6730    -3.1120    -1.3340 H     1 <1>   0.4500 
 36 H       -3.5330     4.9770    -1.1380 H     1 <1>   0.0800 
 37 H       -3.7540     3.3560    -1.7320 H     1 <1>   0.0800 
 38 H       -4.3250     3.9830     2.3830 H     1 <1>   0.0800 
 39 H       -3.8990     5.3750     1.4250 H     1 <1>   0.0800 
 40 H        0.4430     1.2970    -1.8220 H     1 <1>   0.1500 
 41 H        1.0330     1.1520     2.3960 H     1 <1>   0.1500 
 42 H       -1.7530    -3.8690     1.5180 H     1 <1>   0.0800 
 43 H       -0.6840    -4.5260     0.3000 H     1 <1>   0.0800 
 44 H       -2.4070    -4.8140     0.1950 H     1 <1>   0.0800 
 45 H       -0.7970    -1.5280     0.9930 H     1 <1>   0.0800 
 46 H       -0.7730    -1.0130    -0.6770 H     1 <1>   0.0800 
 47 H        0.2520    -2.3260    -0.1570 H     1 <1>   0.0800 
 48 H       -6.1370     3.4120    -1.1610 H     1 <1>   0.0800 
 49 H       -5.7500     4.8100    -2.1380 H     1 <1>   0.0800 
 50 H       -6.3070     5.4130     1.7910 H     1 <1>   0.0800 
 51 H       -6.4700     3.7740     1.2010 H     1 <1>   0.0800 
 52 H        2.3140    -0.2510    -2.1380 H     1 <1>   0.1500 
 53 H        2.9090    -0.3990     2.0780 H     1 <1>   0.1500 
 54 H        3.5480    -1.1130    -0.1890 H     1 <1>   0.1500 
@<TRIPOS>BOND
  1   1   2  2   
  2   2   3  am  
  3   2   4  1   
  4   3   5  1   
  5   3   6  1   
  6   4   7  1   
  7   4   8  2   
  8   5   9  1   
  9   5  28  1   
 10   5  29  1   
 11   6  10  1   
 12   6  30  1   
 13   6  31  1   
 14   7  11  2   
 15   7  12  1   
 16   8  13  1   
 17   8  14  1   
 18   9  10  1   
 19   9  15  1   
 20   9  32  1   
 21  10  33  1   
 22  10  34  1   
 23  11  13  1   
 24  12  16  1   
 25  12  17  1   
 26  14  18  ar  
 27  14  19  ar  
 28  15  20  1   
 29  15  21  1   
 30  15  35  1   
 31  16  22  1   
 32  16  36  1   
 33  16  37  1   
 34  17  23  1   
 35  17  38  1   
 36  17  39  1   
 37  18  24  ar  
 38  18  40  1   
 39  19  25  ar  
 40  19  41  1   
 41  20  42  1   
 42  20  43  1   
 43  20  44  1   
 44  21  45  1   
 45  21  46  1   
 46  21  47  1   
 47  22  26  1   
 48  22  48  1   
 49  22  49  1   
 50  23  26  1   
 51  23  50  1   
 52  23  51  1   
 53  24  27  ar  
 54  24  52  1   
 55  25  27  ar  
 56  25  53  1   
 57  27  54  1   
@<TRIPOS>SUBSTRUCTURE
  1 ****   4 GROUP 4 **** **** 0

# MOE 2024.06 (io_trps.svl 2023.06)
