@<TRIPOS>MOLECULE
Untitled Document
51 52 1 0 0 
SMALL
USER_CHARGES


@<TRIPOS>ATOM
  1 O        0.6770    -0.6910    -0.6990 O.2   1 <1>  -0.5700 
  2 C        0.7530    -1.5810     0.1270 C.2   1 <1>   0.7800 
  3 O        1.5020    -1.4270     1.2160 O.3   1 <1>  -0.4300 
  4 N        0.0630    -2.7490     0.0120 N.am  1 <1>  -0.6600 
  5 C        2.3620    -0.3200     1.3660 C.3   1 <1>   0.2640 
  6 C        0.0330    -3.7980     1.0730 C.3   1 <1>   0.2810 
  7 C       -0.8980    -3.0380    -1.0650 C.3   1 <1>   0.1400 
  8 C        3.6580    -0.5630     0.6040 C.ar  1 <1>  -0.1440 
  9 C        1.3620    -4.5520     1.2650 C.2   1 <1>   0.5690 
 10 C       -1.0980    -4.7410     0.6320 C.3   1 <1>  -0.1600 
 11 C       -1.9100    -3.9650    -0.4060 C.3   1 <1>  -0.1600 
 12 C        4.3290    -1.7710     0.7250 C.ar  1 <1>  -0.1500 
 13 C        4.1830     0.4250    -0.2150 C.ar  1 <1>  -0.1500 
 14 O        1.7480    -4.7890     2.3880 O.2   1 <1>  -0.5700 
 15 N        2.0270    -4.9760     0.1620 N.am  1 <1>  -0.7300 
 16 C        5.5130    -1.9850     0.0410 C.ar  1 <1>  -0.1500 
 17 C        5.3680     0.2120    -0.8990 C.ar  1 <1>  -0.1500 
 18 C        2.9720    -6.0990     0.0820 C.3   1 <1>   0.1140 
 19 C        6.0350    -0.9930    -0.7700 C.ar  1 <1>  -0.1500 
 20 C        2.5950    -7.0700    -1.0780 C.2   1 <1>   0.9060 
 21 C        4.3930    -5.5080    -0.0180 C.3   1 <1>  -0.1600 
 22 O        1.9810    -6.5670    -2.0540 O.co2 1 <1>  -0.9000 
 23 O        2.8820    -8.2830    -0.9600 O.co2 1 <1>  -0.9000 
 24 C        5.5290    -6.5260    -0.2460 C.3   1 <1>  -0.0800 
 25 C        5.6710    -7.4870     0.9420 C.3   1 <1>  -0.2400 
 26 C        6.8550    -5.7810    -0.4470 C.3   1 <1>  -0.2400 
 27 H        1.8580     0.5680     1.0260 H     1 <1>   0.0800 
 28 H        2.5740    -0.2190     2.4150 H     1 <1>   0.0800 
 29 H       -0.2320    -3.3310     2.0040 H     1 <1>   0.0800 
 30 H       -1.3560    -2.1370    -1.4370 H     1 <1>   0.0800 
 31 H       -0.3850    -3.5450    -1.8650 H     1 <1>   0.0800 
 32 H       -0.6760    -5.6180     0.1680 H     1 <1>   0.0800 
 33 H       -1.6940    -5.0560     1.4690 H     1 <1>   0.0800 
 34 H       -2.6640    -3.3720     0.0830 H     1 <1>   0.0800 
 35 H       -2.3800    -4.6140    -1.1240 H     1 <1>   0.0800 
 36 H        3.9240    -2.5540     1.3460 H     1 <1>   0.1500 
 37 H        3.6690     1.3640    -0.3280 H     1 <1>   0.1500 
 38 H        1.6200    -4.7740    -0.7450 H     1 <1>   0.3700 
 39 H        6.0230    -2.9270     0.1400 H     1 <1>   0.1500 
 40 H        5.7680     0.9830    -1.5330 H     1 <1>   0.1500 
 41 H        2.9070    -6.6850     0.9980 H     1 <1>   0.0800 
 42 H        6.9540    -1.1630    -1.3020 H     1 <1>   0.1500 
 43 H        4.3910    -4.8090    -0.8560 H     1 <1>   0.0800 
 44 H        4.5900    -4.9440     0.8940 H     1 <1>   0.0800 
 45 H        5.3180    -7.1070    -1.1480 H     1 <1>   0.0800 
 46 H        5.8240    -6.9300     1.8660 H     1 <1>   0.0800 
 47 H        6.5120    -8.1600     0.7770 H     1 <1>   0.0800 
 48 H        4.7680    -8.0940     1.0330 H     1 <1>   0.0800 
 49 H        7.1040    -5.2070     0.4460 H     1 <1>   0.0800 
 50 H        6.7710    -5.1060    -1.3000 H     1 <1>   0.0800 
 51 H        7.6520    -6.4980    -0.6470 H     1 <1>   0.0800 
@<TRIPOS>BOND
  1   1   2  2   
  2   2   3  1   
  3   2   4  am  
  4   3   5  1   
  5   4   6  1   
  6   4   7  1   
  7   5   8  1   
  8   5  27  1   
  9   5  28  1   
 10   6   9  1   
 11   6  10  1   
 12   6  29  1   
 13   7  11  1   
 14   7  30  1   
 15   7  31  1   
 16   8  12  ar  
 17   8  13  ar  
 18   9  14  2   
 19   9  15  am  
 20  10  11  1   
 21  10  32  1   
 22  10  33  1   
 23  11  34  1   
 24  11  35  1   
 25  12  16  ar  
 26  12  36  1   
 27  13  17  ar  
 28  13  37  1   
 29  15  18  1   
 30  15  38  1   
 31  16  19  ar  
 32  16  39  1   
 33  17  19  ar  
 34  17  40  1   
 35  18  20  1   
 36  18  21  1   
 37  18  41  1   
 38  19  42  1   
 39  20  22  ar  
 40  20  23  ar  
 41  21  24  1   
 42  21  43  1   
 43  21  44  1   
 44  24  25  1   
 45  24  26  1   
 46  24  45  1   
 47  25  46  1   
 48  25  47  1   
 49  25  48  1   
 50  26  49  1   
 51  26  50  1   
 52  26  51  1   
@<TRIPOS>SUBSTRUCTURE
  1 ****  15 GROUP 4 **** **** 0

# MOE 2024.06 (io_trps.svl 2023.06)
