@<TRIPOS>MOLECULE
NONAME
53 56 1 0 0 
SMALL
USER_CHARGES


@<TRIPOS>ATOM
  1 O        1.8030     0.4510    -2.2520 O.2   1 <1>  -0.5700 
  2 C        1.9390     0.7500    -1.0790 C.2   1 <1>   0.5440 
  3 N        1.3000     1.8780    -0.6120 N.am  1 <1>  -0.6600 
  4 C        2.7610    -0.0440    -0.2030 C.ar  1 <1>   0.0860 
  5 C        1.2490     2.3080     0.8020 C.3   1 <1>   0.1400 
  6 C        0.4140     2.7040    -1.4580 C.3   1 <1>   0.1400 
  7 C        2.3750    -1.3250     0.2460 C.ar  1 <1>   0.4100 
  8 C        3.9830     0.4570     0.2230 C.ar  1 <1>  -0.1500 
  9 C        0.0320     3.2220     0.8750 C.3   1 <1>  -0.1600 
 10 C       -0.0960     3.8040    -0.5310 C.3   1 <1>  -0.1600 
 11 N        3.1300    -2.0700     1.0540 N.ar  1 <1>  -0.6200 
 12 N        1.1810    -1.9270    -0.1140 N.pl3 1 <1>  -0.8380 
 13 C        4.7530    -0.3180     1.0580 C.ar  1 <1>  -0.1500 
 14 C        4.2820    -1.5610     1.4380 C.ar  1 <1>   0.1600 
 15 C        1.2080    -3.2490    -0.7890 C.3   1 <1>   0.2090 
 16 C       -0.1260    -1.2200    -0.1040 C.3   1 <1>   0.2090 
 17 C        0.1280    -4.1550    -0.1990 C.3   1 <1>  -0.1600 
 18 C       -1.2020    -2.1330     0.4790 C.3   1 <1>  -0.1600 
 19 C       -1.2390    -3.4660    -0.2650 C.3   1 <1>   0.2000 
 20 O       -2.1960    -4.2610     0.3570 O.3   1 <1>  -0.5600 
 21 C       -2.7580    -5.2620    -0.4500 C.3   1 <1>   0.2630 
 22 C       -3.8140    -6.0810     0.2890 C.ar  1 <1>   0.1670 
 23 N       -4.4590    -6.9720    -0.4550 N.ar  1 <1>  -0.6200 
 24 C       -4.0600    -5.8940     1.6440 C.ar  1 <1>  -0.1500 
 25 C       -5.3780    -7.6920     0.1690 C.ar  1 <1>   0.1600 
 26 C       -5.0200    -6.6510     2.2810 C.ar  1 <1>  -0.1500 
 27 C       -5.6920    -7.5750     1.5120 C.ar  1 <1>  -0.1500 
 28 H        2.1450     2.8590     1.0340 H     1 <1>   0.0800 
 29 H        1.1550     1.4680     1.4690 H     1 <1>   0.0800 
 30 H       -0.4000     2.0950    -1.8130 H     1 <1>   0.0800 
 31 H        0.9560     3.1060    -2.2970 H     1 <1>   0.0800 
 32 H        4.3140     1.4280    -0.1040 H     1 <1>   0.1500 
 33 H        0.1480     3.9830     1.6260 H     1 <1>   0.0800 
 34 H       -0.8360     2.6300     1.1060 H     1 <1>   0.0800 
 35 H       -1.1060     4.0870    -0.7690 H     1 <1>   0.0800 
 36 H        0.5410     4.6650    -0.6310 H     1 <1>   0.0800 
 37 H        5.7070     0.0300     1.4110 H     1 <1>   0.1500 
 38 H        4.8880    -2.1660     2.0910 H     1 <1>   0.1500 
 39 H        2.1740    -3.7100    -0.6680 H     1 <1>   0.0800 
 40 H        1.0360    -3.1040    -1.8420 H     1 <1>   0.0800 
 41 H       -0.3830    -0.9380    -1.1120 H     1 <1>   0.0800 
 42 H       -0.0570    -0.3290     0.4940 H     1 <1>   0.0800 
 43 H        0.3820    -4.3670     0.8240 H     1 <1>   0.0800 
 44 H        0.1170    -5.0760    -0.7500 H     1 <1>   0.0800 
 45 H       -2.1580    -1.6490     0.4020 H     1 <1>   0.0800 
 46 H       -0.9840    -2.3030     1.5180 H     1 <1>   0.0800 
 47 H       -1.5300    -3.2940    -1.2890 H     1 <1>   0.0800 
 48 H       -1.9780    -5.9210    -0.7820 H     1 <1>   0.0800 
 49 H       -3.2160    -4.7930    -1.3030 H     1 <1>   0.0800 
 50 H       -3.5070    -5.1600     2.2020 H     1 <1>   0.1500 
 51 H       -5.9100    -8.4170    -0.4220 H     1 <1>   0.1500 
 52 H       -5.2300    -6.5260     3.3290 H     1 <1>   0.1500 
 53 H       -6.4530    -8.1980     1.9450 H     1 <1>   0.1500 
@<TRIPOS>BOND
  1   1   2  2   
  2   2   3  am  
  3   2   4  1   
  4   3   5  1   
  5   3   6  1   
  6   4   7  ar  
  7   4   8  ar  
  8   5   9  1   
  9   5  28  1   
 10   5  29  1   
 11   6  10  1   
 12   6  30  1   
 13   6  31  1   
 14   7  11  ar  
 15   7  12  1   
 16   8  13  ar  
 17   8  32  1   
 18   9  10  1   
 19   9  33  1   
 20   9  34  1   
 21  10  35  1   
 22  10  36  1   
 23  11  14  ar  
 24  12  15  1   
 25  12  16  1   
 26  13  14  ar  
 27  13  37  1   
 28  14  38  1   
 29  15  17  1   
 30  15  39  1   
 31  15  40  1   
 32  16  18  1   
 33  16  41  1   
 34  16  42  1   
 35  17  19  1   
 36  17  43  1   
 37  17  44  1   
 38  18  19  1   
 39  18  45  1   
 40  18  46  1   
 41  19  20  1   
 42  19  47  1   
 43  20  21  1   
 44  21  22  1   
 45  21  48  1   
 46  21  49  1   
 47  22  23  ar  
 48  22  24  ar  
 49  23  25  ar  
 50  24  26  ar  
 51  24  50  1   
 52  25  27  ar  
 53  25  51  1   
 54  26  27  ar  
 55  26  52  1   
 56  27  53  1   
@<TRIPOS>SUBSTRUCTURE
  1 ****  16 GROUP 4 **** **** 0

# MOE 2024.06 (io_trps.svl 2023.06)
