@<TRIPOS>MOLECULE
NONAME
63 66 1 0 0 
SMALL
USER_CHARGES


@<TRIPOS>ATOM
  1 O       -0.2490     0.0390     1.0660 O.3   1 <1>  -0.3630 
  2 C       -0.2120    -1.3170     1.0400 C.ar  1 <1>   0.0830 
  3 C       -0.4280     0.7320    -0.1560 C.3   1 <1>   0.2640 
  4 C        0.7140    -2.0470     0.2870 C.ar  1 <1>   0.0830 
  5 C       -1.1400    -1.9910     1.8150 C.ar  1 <1>  -0.1500 
  6 C        0.5810     1.8670    -0.2450 C.ar  1 <1>  -0.1440 
  7 O        1.6770    -1.4620    -0.4640 O.3   1 <1>  -0.3630 
  8 C        0.6650    -3.4300     0.2880 C.ar  1 <1>  -0.1500 
  9 C       -1.1780    -3.3750     1.8200 C.ar  1 <1>  -0.1500 
 10 C        1.4340     1.9600    -1.3340 C.ar  1 <1>  -0.1500 
 11 C        0.6590     2.8190     0.7600 C.ar  1 <1>  -0.1500 
 12 C        2.6980    -0.7820     0.2390 C.3   1 <1>   0.0400 
 13 C       -0.2820    -4.1020     1.0480 C.ar  1 <1>  -0.1430 
 14 C        2.3580     2.9890    -1.4250 C.ar  1 <1>  -0.1430 
 15 C        1.5770     3.8500     0.6750 C.ar  1 <1>  -0.1500 
 16 C       -0.3390    -5.6170     1.0400 C.3   1 <1>   0.4860 
 17 C        2.4240     3.9350    -0.4160 C.ar  1 <1>  -0.1500 
 18 C        3.2860     3.0780    -2.6220 C.3   1 <1>  -0.0970 
 19 N       -0.8870    -6.0710    -0.2690 N.4   1 <1>  -0.9590 
 20 C       -2.3150    -5.6510    -0.4300 C.3   1 <1>   0.3430 
 21 C       -0.8750    -7.5640    -0.3380 C.3   1 <1>   0.3430 
 22 C       -3.1500    -6.8290     0.0760 C.3   1 <1>   0.2000 
 23 C       -2.3350    -8.0340    -0.3970 C.3   1 <1>  -0.0800 
 24 O       -3.1770    -6.7820     1.4690 O.3   1 <1>  -0.6800 
 25 C       -2.5640    -9.3520     0.3680 C.3   1 <1>   0.0210 
 26 C       -1.7250   -10.4740    -0.2140 C.2   1 <1>   0.1080 
 27 N       -0.4290   -10.4310    -0.2690 N.2   1 <1>  -0.7070 
 28 C       -2.2360   -11.6550    -0.7400 C.2   1 <1>  -0.1500 
 29 N       -0.0750   -11.6090    -0.8280 N.pl3 1 <1>   0.3000 
 30 C       -1.1540   -12.3610    -1.1260 C.2   1 <1>  -0.3320 
 31 C       -1.0830   -13.7350    -1.7670 C.3   1 <1>  -0.0600 
 32 H       -0.3150     0.0510    -0.9800 H     1 <1>   0.0800 
 33 H       -1.4290     1.1230    -0.1640 H     1 <1>   0.0800 
 34 H       -1.8330    -1.4230     2.4120 H     1 <1>   0.1500 
 35 H        1.3860    -3.9620    -0.3080 H     1 <1>   0.1500 
 36 H       -1.9120    -3.8750     2.4310 H     1 <1>   0.1500 
 37 H        1.3820     1.2240    -2.1170 H     1 <1>   0.1500 
 38 H        0.0060     2.7540     1.6140 H     1 <1>   0.1500 
 39 H        3.3620    -0.3350    -0.4790 H     1 <1>   0.0800 
 40 H        3.2310    -1.4890     0.8480 H     1 <1>   0.0800 
 41 H        2.2650    -0.0140     0.8550 H     1 <1>   0.0800 
 42 H        1.6320     4.5860     1.4580 H     1 <1>   0.1500 
 43 H       -0.9640    -5.9660     1.8460 H     1 <1>   0.0800 
 44 H        0.6530    -6.0130     1.1830 H     1 <1>   0.0800 
 45 H        3.1330     4.7410    -0.4740 H     1 <1>   0.1500 
 46 H        4.2050     3.5670    -2.3510 H     1 <1>   0.0800 
 47 H        2.8120     3.6390    -3.4070 H     1 <1>   0.0800 
 48 H        3.5200     2.0950    -2.9890 H     1 <1>   0.0800 
 49 H       -0.3100    -5.6550    -1.0090 H     1 <1>   0.4500 
 50 H       -2.5440    -4.7460     0.1080 H     1 <1>   0.0800 
 51 H       -2.5250    -5.4990    -1.4760 H     1 <1>   0.0800 
 52 H       -0.3400    -7.9160    -1.2060 H     1 <1>   0.0800 
 53 H       -0.4010    -7.9780     0.5380 H     1 <1>   0.0800 
 54 H       -4.1610    -6.8100    -0.2960 H     1 <1>   0.0800 
 55 H       -2.5680    -8.2090    -1.4330 H     1 <1>   0.0800 
 56 H       -3.8650    -7.3790     1.8310 H     1 <1>   0.4000 
 57 H       -3.6020    -9.6270     0.3190 H     1 <1>   0.0800 
 58 H       -2.2950    -9.2430     1.4040 H     1 <1>   0.0800 
 59 H       -3.2740   -11.9300    -0.8100 H     1 <1>   0.1500 
 60 H        0.9050   -11.8750    -0.9890 H     1 <1>   0.2700 
 61 H       -2.0740   -14.1330    -1.9010 H     1 <1>   0.0800 
 62 H       -0.5270   -14.4100    -1.1410 H     1 <1>   0.0800 
 63 H       -0.6060   -13.6750    -2.7290 H     1 <1>   0.0800 
@<TRIPOS>BOND
  1   1   2  1   
  2   1   3  1   
  3   2   4  ar  
  4   2   5  ar  
  5   3   6  1   
  6   3  32  1   
  7   3  33  1   
  8   4   7  1   
  9   4   8  ar  
 10   5   9  ar  
 11   5  34  1   
 12   6  10  ar  
 13   6  11  ar  
 14   7  12  1   
 15   8  13  ar  
 16   8  35  1   
 17   9  13  ar  
 18   9  36  1   
 19  10  14  ar  
 20  10  37  1   
 21  11  15  ar  
 22  11  38  1   
 23  12  39  1   
 24  12  40  1   
 25  12  41  1   
 26  13  16  1   
 27  14  17  ar  
 28  14  18  1   
 29  15  17  ar  
 30  15  42  1   
 31  16  19  1   
 32  16  43  1   
 33  16  44  1   
 34  17  45  1   
 35  18  46  1   
 36  18  47  1   
 37  18  48  1   
 38  19  20  1   
 39  19  21  1   
 40  19  49  1   
 41  20  22  1   
 42  20  50  1   
 43  20  51  1   
 44  21  23  1   
 45  21  52  1   
 46  21  53  1   
 47  22  23  1   
 48  22  24  1   
 49  22  54  1   
 50  23  25  1   
 51  23  55  1   
 52  24  56  1   
 53  25  26  1   
 54  25  57  1   
 55  25  58  1   
 56  26  27  2   
 57  26  28  1   
 58  27  29  1   
 59  28  30  2   
 60  28  59  1   
 61  29  30  1   
 62  29  60  1   
 63  30  31  1   
 64  31  61  1   
 65  31  62  1   
 66  31  63  1   
@<TRIPOS>SUBSTRUCTURE
  1 ****  13 GROUP 4 **** **** 0

# MOE 2024.06 (io_trps.svl 2023.06)
