@<TRIPOS>MOLECULE
NONAME
53 56 1 0 0 
SMALL
USER_CHARGES


@<TRIPOS>ATOM
  1 O       -0.4060     0.0890     1.0210 O.3   1 <1>  -0.2800 
  2 C        0.7050    -0.4890     0.5990 C.2   1 <1>   0.4250 
  3 C       -1.1680    -0.8520     1.4930 C.2   1 <1>  -0.0400 
  4 N        0.6900    -1.7780     0.7740 N.2   1 <1>  -0.5650 
  5 C        1.7630     0.3100     0.0140 C.ar  1 <1>   0.0530 
  6 C       -0.5050    -2.0090     1.3530 C.2   1 <1>   0.0460 
  7 C       -2.5270    -0.4800     2.0510 C.3   1 <1>  -0.0600 
  8 C        2.9850    -0.2590    -0.3470 C.ar  1 <1>  -0.1500 
  9 C        1.6080     1.6790    -0.2160 C.ar  1 <1>  -0.1500 
 10 C       -0.9290    -3.4220     1.7170 C.3   1 <1>   0.5240 
 11 C        3.9970     0.4940    -0.9110 C.ar  1 <1>  -0.1500 
 12 C        2.6180     2.4360    -0.7800 C.ar  1 <1>  -0.1500 
 13 N       -0.6680    -4.3060     0.5460 N.4   1 <1>  -0.9590 
 14 C        3.8200     1.8490    -1.1340 C.ar  1 <1>  -0.1430 
 15 C       -1.6060    -3.9880    -0.5700 C.3   1 <1>   0.3430 
 16 C       -0.8570    -5.7480     0.8870 C.3   1 <1>   0.3430 
 17 C        4.9300     2.6800    -1.7510 C.3   1 <1>  -0.0970 
 18 C       -2.7360    -5.0130    -0.4440 C.3   1 <1>   0.2000 
 19 C       -2.0080    -6.2760     0.0110 C.3   1 <1>  -0.0800 
 20 O       -3.5900    -4.6090     0.5800 O.3   1 <1>  -0.6800 
 21 C       -1.4940    -7.0930    -1.1940 C.3   1 <1>  -0.0170 
 22 C       -0.8510    -8.4010    -0.7600 C.ar  1 <1>   0.1670 
 23 N        0.3630    -8.3100    -0.2420 N.ar  1 <1>  -0.6200 
 24 C       -1.5390    -9.5950    -0.9220 C.ar  1 <1>  -0.1500 
 25 C        0.9200    -9.4570     0.1190 C.ar  1 <1>   0.1600 
 26 C       -0.9500   -10.7790    -0.5350 C.ar  1 <1>  -0.1500 
 27 C        0.3170   -10.6970    -0.0010 C.ar  1 <1>  -0.1500 
 28 H       -3.0560    -1.3500     2.3930 H     1 <1>   0.0800 
 29 H       -3.1120     0.0070     1.2910 H     1 <1>   0.0800 
 30 H       -2.4060     0.2000     2.8760 H     1 <1>   0.0800 
 31 H        3.1450    -1.3100    -0.1810 H     1 <1>   0.1500 
 32 H        0.6840     2.1610     0.0490 H     1 <1>   0.1500 
 33 H       -1.9720    -3.4440     1.9860 H     1 <1>   0.0800 
 34 H       -0.3430    -3.7510     2.5590 H     1 <1>   0.0800 
 35 H        4.9280     0.0230    -1.1760 H     1 <1>   0.1500 
 36 H        2.4650     3.4890    -0.9430 H     1 <1>   0.1500 
 37 H        0.2990    -4.0880     0.2580 H     1 <1>   0.4500 
 38 H       -1.9790    -2.9780    -0.5230 H     1 <1>   0.0800 
 39 H       -1.1010    -4.1330    -1.5110 H     1 <1>   0.0800 
 40 H        0.0540    -6.2940     0.7160 H     1 <1>   0.0800 
 41 H       -1.1250    -5.8500     1.9260 H     1 <1>   0.0800 
 42 H        5.5340     2.0750    -2.4030 H     1 <1>   0.0800 
 43 H        5.5540     3.0850    -0.9750 H     1 <1>   0.0800 
 44 H        4.5180     3.4900    -2.3250 H     1 <1>   0.0800 
 45 H       -3.3050    -5.1230    -1.3520 H     1 <1>   0.0800 
 46 H       -2.6560    -6.9110     0.5910 H     1 <1>   0.0800 
 47 H       -4.4080    -5.1510     0.5910 H     1 <1>   0.4000 
 48 H       -0.7710    -6.5300    -1.7580 H     1 <1>   0.0800 
 49 H       -2.3150    -7.3130    -1.8540 H     1 <1>   0.0800 
 50 H       -2.5260    -9.6100    -1.3500 H     1 <1>   0.1500 
 51 H        1.9130    -9.4110     0.5350 H     1 <1>   0.1500 
 52 H       -1.4540   -11.7250    -0.6460 H     1 <1>   0.1500 
 53 H        0.8350   -11.5840     0.3170 H     1 <1>   0.1500 
@<TRIPOS>BOND
  1   1   2  1   
  2   1   3  1   
  3   2   4  2   
  4   2   5  1   
  5   3   6  2   
  6   3   7  1   
  7   4   6  1   
  8   5   8  ar  
  9   5   9  ar  
 10   6  10  1   
 11   7  28  1   
 12   7  29  1   
 13   7  30  1   
 14   8  11  ar  
 15   8  31  1   
 16   9  12  ar  
 17   9  32  1   
 18  10  13  1   
 19  10  33  1   
 20  10  34  1   
 21  11  14  ar  
 22  11  35  1   
 23  12  14  ar  
 24  12  36  1   
 25  13  15  1   
 26  13  16  1   
 27  13  37  1   
 28  14  17  1   
 29  15  18  1   
 30  15  38  1   
 31  15  39  1   
 32  16  19  1   
 33  16  40  1   
 34  16  41  1   
 35  17  42  1   
 36  17  43  1   
 37  17  44  1   
 38  18  19  1   
 39  18  20  1   
 40  18  45  1   
 41  19  21  1   
 42  19  46  1   
 43  20  47  1   
 44  21  22  1   
 45  21  48  1   
 46  21  49  1   
 47  22  23  ar  
 48  22  24  ar  
 49  23  25  ar  
 50  24  26  ar  
 51  24  50  1   
 52  25  27  ar  
 53  25  51  1   
 54  26  27  ar  
 55  26  52  1   
 56  27  53  1   
@<TRIPOS>SUBSTRUCTURE
  1 ****  13 GROUP 4 **** **** 0

# MOE 2024.06 (io_trps.svl 2023.06)
