@<TRIPOS>MOLECULE
NONAME
67 69 1 0 0 
SMALL
USER_CHARGES


@<TRIPOS>ATOM
  1 O       -0.0680    -0.0330     0.7250 O.3   1 <1>  -0.3630 
  2 C       -0.2780    -1.2120     0.0830 C.ar  1 <1>   0.0820 
  3 C        1.1630     0.2990     1.3240 C.3   1 <1>   0.1200 
  4 C       -1.4800    -1.3840    -0.6020 C.ar  1 <1>  -0.1440 
  5 C        0.6650    -2.2360     0.0890 C.ar  1 <1>  -0.1500 
  6 C        1.0540     1.7220     1.8640 C.3   1 <1>  -0.2400 
  7 C       -1.7080    -2.5850    -1.2550 C.ar  1 <1>  -0.1500 
  8 C       -2.5500    -0.2840    -0.6490 C.3   1 <1>   0.0630 
  9 C        0.4300    -3.4340    -0.5650 C.ar  1 <1>  -0.1430 
 10 C       -0.7770    -3.6140    -1.2310 C.ar  1 <1>  -0.1430 
 11 C       -3.8480    -0.7530     0.0170 C.3   1 <1>  -0.2400 
 12 C       -2.8130     0.1680    -2.0900 C.3   1 <1>  -0.2400 
 13 C        1.5200    -4.5010    -0.5340 C.3   1 <1>  -0.0970 
 14 C       -1.1260    -4.9150    -1.9220 C.3   1 <1>   0.4860 
 15 N       -1.6030    -5.8670    -0.8720 N.4   1 <1>  -0.9590 
 16 C       -1.6300    -7.2950    -1.3610 C.3   1 <1>   0.3430 
 17 C       -2.9110    -5.4000    -0.3090 C.3   1 <1>   0.3430 
 18 C       -2.2370    -8.3170    -0.3400 C.3   1 <1>   0.4230 
 19 C       -3.3670    -6.3780     0.7700 C.3   1 <1>  -0.1600 
 20 N       -2.2840    -9.7710    -0.8210 N.4   1 <1>  -0.9590 
 21 C       -3.5990    -7.8100     0.2130 C.3   1 <1>   0.0000 
 22 C       -3.2580   -10.6400    -0.0690 C.3   1 <1>   0.3430 
 23 C       -2.4910    -9.9920    -2.2950 C.3   1 <1>   0.2630 
 24 C       -4.0620    -8.7130     1.3900 C.3   1 <1>  -0.1600 
 25 C       -4.6670    -7.8190    -0.9230 C.3   1 <1>   0.1200 
 26 C       -3.4620   -10.1310     1.3560 C.3   1 <1>  -0.1600 
 27 O       -5.6510    -6.8760    -0.6980 O.3   1 <1>  -0.6800 
 28 H        1.3530    -0.3960     2.1230 H     1 <1>   0.0800 
 29 H        1.9350     0.2350     0.5760 H     1 <1>   0.0800 
 30 H        1.5950    -2.1050     0.6070 H     1 <1>   0.1500 
 31 H        0.2690     1.7790     2.5960 H     1 <1>   0.0800 
 32 H        0.8460     2.4060     1.0610 H     1 <1>   0.0800 
 33 H        1.9800     2.0080     2.3280 H     1 <1>   0.0800 
 34 H       -2.6340    -2.7100    -1.7880 H     1 <1>   0.1500 
 35 H       -2.2130     0.5820    -0.1070 H     1 <1>   0.0800 
 36 H       -4.2910    -1.5700    -0.5210 H     1 <1>   0.0800 
 37 H       -4.5560     0.0560     0.0530 H     1 <1>   0.0800 
 38 H       -3.6450    -1.0680     1.0250 H     1 <1>   0.0800 
 39 H       -3.2350    -0.6250    -2.6790 H     1 <1>   0.0800 
 40 H       -1.8900     0.4830    -2.5440 H     1 <1>   0.0800 
 41 H       -3.4940     0.9990    -2.0970 H     1 <1>   0.0800 
 42 H        2.4390    -4.0900    -0.1520 H     1 <1>   0.0800 
 43 H        1.7230    -4.8650    -1.5250 H     1 <1>   0.0800 
 44 H        1.2360    -5.3170     0.1020 H     1 <1>   0.0800 
 45 H       -0.2490    -5.3000    -2.4150 H     1 <1>   0.0800 
 46 H       -1.8920    -4.7480    -2.6620 H     1 <1>   0.0800 
 47 H       -0.9160    -5.7470    -0.1120 H     1 <1>   0.4500 
 48 H       -2.2160    -7.3290    -2.2630 H     1 <1>   0.0800 
 49 H       -0.6250    -7.6010    -1.6020 H     1 <1>   0.0800 
 50 H       -2.7990    -4.4180     0.1260 H     1 <1>   0.0800 
 51 H       -3.6590    -5.3380    -1.0840 H     1 <1>   0.0800 
 52 H       -1.5710    -8.3080     0.5070 H     1 <1>   0.0800 
 53 H       -2.6360    -6.3870     1.5610 H     1 <1>   0.0800 
 54 H       -4.2750    -5.9970     1.2070 H     1 <1>   0.0800 
 55 H       -1.3610   -10.1780    -0.5940 H     1 <1>   0.4500 
 56 H       -4.2130   -10.6420    -0.5710 H     1 <1>   0.0800 
 57 H       -2.9000   -11.6580    -0.0440 H     1 <1>   0.0800 
 58 H       -3.4490    -9.6060    -2.6070 H     1 <1>   0.0800 
 59 H       -2.4670   -11.0480    -2.5180 H     1 <1>   0.0800 
 60 H       -1.7160    -9.5140    -2.8700 H     1 <1>   0.0800 
 61 H       -3.7960    -8.2770     2.3390 H     1 <1>   0.0800 
 62 H       -5.1380    -8.7830     1.3900 H     1 <1>   0.0800 
 63 H       -5.1450    -8.7790    -1.0230 H     1 <1>   0.0800 
 64 H       -4.2330    -7.5640    -1.8730 H     1 <1>   0.0800 
 65 H       -4.1210   -10.8030     1.8790 H     1 <1>   0.0800 
 66 H       -2.5200   -10.1520     1.8780 H     1 <1>   0.0800 
 67 H       -6.3560    -7.2070    -0.0990 H     1 <1>   0.4000 
@<TRIPOS>BOND
  1   1   2  1   
  2   1   3  1   
  3   2   4  ar  
  4   2   5  ar  
  5   3   6  1   
  6   3  28  1   
  7   3  29  1   
  8   4   7  ar  
  9   4   8  1   
 10   5   9  ar  
 11   5  30  1   
 12   6  31  1   
 13   6  32  1   
 14   6  33  1   
 15   7  10  ar  
 16   7  34  1   
 17   8  11  1   
 18   8  12  1   
 19   8  35  1   
 20   9  10  ar  
 21   9  13  1   
 22  10  14  1   
 23  11  36  1   
 24  11  37  1   
 25  11  38  1   
 26  12  39  1   
 27  12  40  1   
 28  12  41  1   
 29  13  42  1   
 30  13  43  1   
 31  13  44  1   
 32  14  15  1   
 33  14  45  1   
 34  14  46  1   
 35  15  16  1   
 36  15  17  1   
 37  15  47  1   
 38  16  18  1   
 39  16  48  1   
 40  16  49  1   
 41  17  19  1   
 42  17  50  1   
 43  17  51  1   
 44  18  20  1   
 45  18  21  1   
 46  18  52  1   
 47  19  21  1   
 48  19  53  1   
 49  19  54  1   
 50  20  22  1   
 51  20  23  1   
 52  20  55  1   
 53  21  24  1   
 54  21  25  1   
 55  22  26  1   
 56  22  56  1   
 57  22  57  1   
 58  23  58  1   
 59  23  59  1   
 60  23  60  1   
 61  24  26  1   
 62  24  61  1   
 63  24  62  1   
 64  25  27  1   
 65  25  63  1   
 66  25  64  1   
 67  26  65  1   
 68  26  66  1   
 69  27  67  1   
@<TRIPOS>SUBSTRUCTURE
  1 ****  17 GROUP 4 **** **** 0

# MOE 2024.06 (io_trps.svl 2023.06)
