@<TRIPOS>MOLECULE
NONAME
43 45 1 0 0 
SMALL
USER_CHARGES


@<TRIPOS>ATOM
  1 O        0.5980    -1.3050    -0.3960 O.3   1 <1>  -0.5600 
  2 C       -0.0340    -2.1970     0.4980 C.3   1 <1>   0.4180 
  3 C        0.3420     0.0660    -0.2250 C.3   1 <1>   0.1200 
  4 C       -1.4590    -1.7510     0.8000 C.2   1 <1>  -0.2880 
  5 C        0.8170    -2.2980     1.7690 C.3   1 <1>  -0.1600 
  6 C       -0.0520    -3.5610    -0.2060 C.3   1 <1>  -0.1600 
  7 C       -1.1470     0.3720    -0.4270 C.3   1 <1>  -0.0220 
  8 C       -1.9870    -0.6010     0.3770 C.2   1 <1>  -0.2760 
  9 C        2.2570    -2.7400     1.4790 C.3   1 <1>   0.3430 
 10 C        1.3060    -4.2730    -0.2190 C.3   1 <1>   0.3430 
 11 C       -3.4190    -0.1660     0.6330 C.3   1 <1>  -0.1020 
 12 N        2.3820    -3.3040     0.1010 N.4   1 <1>  -0.9590 
 13 C        3.7540    -3.7990    -0.1940 C.3   1 <1>   0.5230 
 14 C        4.7400    -2.6450    -0.1980 C.2   1 <1>  -0.0400 
 15 O        6.0030    -2.9280     0.0420 O.3   1 <1>  -0.2800 
 16 C        4.5870    -1.3170    -0.4080 C.2   1 <1>  -0.1500 
 17 C        6.6850    -1.8020    -0.0050 C.2   1 <1>  -0.0400 
 18 C        5.8670    -0.7650    -0.2790 C.2   1 <1>  -0.1500 
 19 C        8.1790    -1.8440     0.2360 C.3   1 <1>  -0.0600 
 20 H        0.9310     0.6090    -0.9440 H     1 <1>   0.0800 
 21 H        0.6500     0.3550     0.7650 H     1 <1>   0.0800 
 22 H       -2.0140    -2.4620     1.3860 H     1 <1>   0.1500 
 23 H        0.3650    -3.0150     2.4300 H     1 <1>   0.0800 
 24 H        0.8190    -1.3610     2.2940 H     1 <1>   0.0800 
 25 H       -0.4080    -3.4280    -1.2120 H     1 <1>   0.0800 
 26 H       -0.7550    -4.2100     0.2850 H     1 <1>   0.0800 
 27 H       -1.4010     0.3020    -1.4700 H     1 <1>   0.0800 
 28 H       -1.3360     1.3810    -0.1050 H     1 <1>   0.0800 
 29 H        2.5640    -3.4700     2.2110 H     1 <1>   0.0800 
 30 H        2.9090    -1.8850     1.5700 H     1 <1>   0.0800 
 31 H        1.4690    -4.7080    -1.1920 H     1 <1>   0.0800 
 32 H        1.3070    -5.0650     0.5130 H     1 <1>   0.0800 
 33 H       -3.9330    -0.0130    -0.2990 H     1 <1>   0.0800 
 34 H       -3.4360     0.7520     1.1940 H     1 <1>   0.0800 
 35 H       -3.9490    -0.9150     1.1940 H     1 <1>   0.0800 
 36 H        2.2010    -2.4960    -0.5240 H     1 <1>   0.4500 
 37 H        3.7830    -4.2830    -1.1560 H     1 <1>   0.0800 
 38 H        4.0520    -4.5130     0.5550 H     1 <1>   0.0800 
 39 H        3.7020    -0.7470    -0.6350 H     1 <1>   0.1500 
 40 H        6.1160     0.2770    -0.3860 H     1 <1>   0.1500 
 41 H        8.3800    -2.2380     1.2150 H     1 <1>   0.0800 
 42 H        8.5960    -0.8570     0.1640 H     1 <1>   0.0800 
 43 H        8.6480    -2.4750    -0.4970 H     1 <1>   0.0800 
@<TRIPOS>BOND
  1   1   2  1   
  2   1   3  1   
  3   2   4  1   
  4   2   5  1   
  5   2   6  1   
  6   3   7  1   
  7   3  20  1   
  8   3  21  1   
  9   4   8  2   
 10   4  22  1   
 11   5   9  1   
 12   5  23  1   
 13   5  24  1   
 14   6  10  1   
 15   6  25  1   
 16   6  26  1   
 17   7   8  1   
 18   7  27  1   
 19   7  28  1   
 20   8  11  1   
 21   9  12  1   
 22   9  29  1   
 23   9  30  1   
 24  10  12  1   
 25  10  31  1   
 26  10  32  1   
 27  11  33  1   
 28  11  34  1   
 29  11  35  1   
 30  12  13  1   
 31  12  36  1   
 32  13  14  1   
 33  13  37  1   
 34  13  38  1   
 35  14  15  1   
 36  14  16  2   
 37  15  17  1   
 38  16  18  1   
 39  16  39  1   
 40  17  18  2   
 41  17  19  1   
 42  18  40  1   
 43  19  41  1   
 44  19  42  1   
 45  19  43  1   
@<TRIPOS>SUBSTRUCTURE
  1 ****  12 GROUP 4 **** **** 0

# MOE 2024.06 (io_trps.svl 2023.06)
