@<TRIPOS>MOLECULE
NONAME
47 49 1 0 0 
SMALL
USER_CHARGES


@<TRIPOS>ATOM
  1 S        0.2370    -0.8700    -2.2300 S.3   1 <1>  -0.0800 
  2 C        1.1300    -1.2250    -0.7740 C.2   1 <1>  -0.1400 
  3 C        0.5090     0.8330    -1.9470 C.2   1 <1>   0.2280 
  4 C        1.5430    -0.0690    -0.2290 C.2   1 <1>   0.0460 
  5 C        1.2820    -2.6760    -0.3880 C.3   1 <1>   0.5230 
  6 N        1.1770     1.0840    -0.8940 N.2   1 <1>  -0.5650 
  7 C        2.3620     0.1340     1.0300 C.3   1 <1>  -0.0590 
  8 N       -0.0680    -3.2300    -0.0760 N.4   1 <1>  -0.9590 
  9 C       -0.1030    -4.7270     0.0470 C.3   1 <1>   0.3430 
 10 C       -0.7330    -2.4870     1.0380 C.3   1 <1>   0.3430 
 11 C       -1.5300    -5.3260     0.2880 C.3   1 <1>   0.4230 
 12 C       -2.0110    -3.1910     1.5290 C.3   1 <1>  -0.1600 
 13 N       -1.9960    -6.4210    -0.6700 N.4   1 <1>  -0.9590 
 14 C       -2.6240    -4.2560     0.5780 C.3   1 <1>   0.0000 
 15 C       -3.4480    -6.7800    -0.4960 C.3   1 <1>   0.3430 
 16 C       -1.7310    -6.1680    -2.1270 C.3   1 <1>   0.2630 
 17 C       -3.7760    -4.9840     1.3280 C.3   1 <1>  -0.1600 
 18 C       -3.2570    -3.5580    -0.6690 C.3   1 <1>   0.1200 
 19 C       -3.9410    -6.4670     0.9220 C.3   1 <1>  -0.1600 
 20 O       -2.3170    -3.1590    -1.6120 O.3   1 <1>  -0.6800 
 21 H        0.1030     1.5280    -2.6620 H     1 <1>   0.1500 
 22 H        1.9280    -2.7600     0.4710 H     1 <1>   0.0800 
 23 H        1.7300    -3.2120    -1.2090 H     1 <1>   0.0800 
 24 H        2.6160    -0.8010     1.4930 H     1 <1>   0.0800 
 25 H        1.8070     0.7330     1.7300 H     1 <1>   0.0800 
 26 H        3.2700     0.6560     0.7850 H     1 <1>   0.0800 
 27 H       -0.6590    -2.9960    -0.9020 H     1 <1>   0.4500 
 28 H        0.3190    -5.1670    -0.8400 H     1 <1>   0.0800 
 29 H        0.5190    -5.0120     0.8790 H     1 <1>   0.0800 
 30 H       -0.0530    -2.3710     1.8670 H     1 <1>   0.0800 
 31 H       -0.9910    -1.4970     0.6910 H     1 <1>   0.0800 
 32 H       -1.4190    -5.8290     1.2350 H     1 <1>   0.0800 
 33 H       -1.7620    -3.6550     2.4690 H     1 <1>   0.0800 
 34 H       -2.7440    -2.4360     1.7610 H     1 <1>   0.0800 
 35 H       -1.4780    -7.2770    -0.4170 H     1 <1>   0.4500 
 36 H       -4.0480    -6.2200    -1.1950 H     1 <1>   0.0800 
 37 H       -3.5960    -7.8270    -0.7090 H     1 <1>   0.0800 
 38 H       -2.2960    -5.3190    -2.4740 H     1 <1>   0.0800 
 39 H       -2.0220    -7.0260    -2.7120 H     1 <1>   0.0800 
 40 H       -0.6840    -5.9820    -2.3030 H     1 <1>   0.0800 
 41 H       -3.6140    -4.9630     2.3940 H     1 <1>   0.0800 
 42 H       -4.7060    -4.4640     1.1640 H     1 <1>   0.0800 
 43 H       -3.8060    -2.6820    -0.3610 H     1 <1>   0.0800 
 44 H       -3.9500    -4.2100    -1.1710 H     1 <1>   0.0800 
 45 H       -4.9820    -6.7370     0.9980 H     1 <1>   0.0800 
 46 H       -3.4120    -7.0980     1.6170 H     1 <1>   0.0800 
 47 H       -2.7560    -2.6110    -2.3070 H     1 <1>   0.4000 
@<TRIPOS>BOND
  1   1   2  1   
  2   1   3  1   
  3   2   4  2   
  4   2   5  1   
  5   3   6  2   
  6   3  21  1   
  7   4   6  1   
  8   4   7  1   
  9   5   8  1   
 10   5  22  1   
 11   5  23  1   
 12   7  24  1   
 13   7  25  1   
 14   7  26  1   
 15   8   9  1   
 16   8  10  1   
 17   8  27  1   
 18   9  11  1   
 19   9  28  1   
 20   9  29  1   
 21  10  12  1   
 22  10  30  1   
 23  10  31  1   
 24  11  13  1   
 25  11  14  1   
 26  11  32  1   
 27  12  14  1   
 28  12  33  1   
 29  12  34  1   
 30  13  15  1   
 31  13  16  1   
 32  13  35  1   
 33  14  17  1   
 34  14  18  1   
 35  15  19  1   
 36  15  36  1   
 37  15  37  1   
 38  16  38  1   
 39  16  39  1   
 40  16  40  1   
 41  17  19  1   
 42  17  41  1   
 43  17  42  1   
 44  18  20  1   
 45  18  43  1   
 46  18  44  1   
 47  19  45  1   
 48  19  46  1   
 49  20  47  1   
@<TRIPOS>SUBSTRUCTURE
  1 ****   8 GROUP 4 **** **** 0

# MOE 2024.06 (io_trps.svl 2023.06)
