@<TRIPOS>MOLECULE
NONAME
50 52 1 0 0 
SMALL
USER_CHARGES


@<TRIPOS>ATOM
  1 F        1.0760     1.7340     3.3710 F     1 <1>  -0.1900 
  2 C        1.0490     2.8810     2.7470 C.ar  1 <1>   0.1900 
  3 C       -0.1700     3.3960     2.3490 C.ar  1 <1>  -0.1500 
  4 C        2.2420     3.5380     2.5080 C.ar  1 <1>  -0.1500 
  5 C       -0.1890     4.6120     1.6880 C.ar  1 <1>  -0.1500 
  6 C        2.2140     4.7550     1.8460 C.ar  1 <1>  -0.1500 
  7 C        0.9940     5.2950     1.4330 C.ar  1 <1>   0.0820 
  8 O        0.8770     6.4790     0.7800 O.3   1 <1>  -0.3630 
  9 C        2.0040     7.2540     0.4530 C.3   1 <1>   0.1200 
 10 C        1.4960     8.5040    -0.2740 C.3   1 <1>   0.3430 
 11 N        2.5980     9.4470    -0.6610 N.4   1 <1>  -0.9590 
 12 C        2.0560    10.7850    -1.0600 C.3   1 <1>   0.3430 
 13 C        3.5280     8.8990    -1.6850 C.3   1 <1>   0.3430 
 14 C        3.1500    11.8780    -1.0710 C.3   1 <1>   0.2090 
 15 C        4.9650     9.1710    -1.2400 C.3   1 <1>  -0.1600 
 16 N        4.4220    11.4530    -0.3760 N.pl3 1 <1>  -0.8380 
 17 C        5.3530    10.6520    -1.2270 C.3   1 <1>   0.2090 
 18 C        4.9330    12.1730     0.6600 C.ar  1 <1>   0.1000 
 19 C        5.3710    13.5090     0.5410 C.ar  1 <1>  -0.1430 
 20 C        5.0690    11.5670     1.9150 C.ar  1 <1>  -0.1500 
 21 C        5.8810    14.1610     1.6390 C.ar  1 <1>   0.2110 
 22 C        5.3150    14.2480    -0.7950 C.3   1 <1>  -0.0970 
 23 C        5.5860    12.2520     2.9840 C.ar  1 <1>   0.2110 
 24 N        5.9820    13.5390     2.8400 N.ar  1 <1>  -0.1790 
 25 H       -1.0770     2.8560     2.5540 H     1 <1>   0.1500 
 26 H        3.1670     3.0990     2.8360 H     1 <1>   0.1500 
 27 H       -1.1250     5.0360     1.3680 H     1 <1>   0.1500 
 28 H        3.1450     5.2550     1.6670 H     1 <1>   0.1500 
 29 H        2.6400     6.6610    -0.1800 H     1 <1>   0.0800 
 30 H        2.5040     7.5170     1.3680 H     1 <1>   0.0800 
 31 H        0.8080     9.0110     0.3820 H     1 <1>   0.0800 
 32 H        0.9570     8.1980    -1.1560 H     1 <1>   0.0800 
 33 H        3.1950     9.6780     0.1510 H     1 <1>   0.4500 
 34 H        1.3010    11.0850    -0.3510 H     1 <1>   0.0800 
 35 H        1.5860    10.7310    -2.0280 H     1 <1>   0.0800 
 36 H        3.3420     9.3500    -2.6470 H     1 <1>   0.0800 
 37 H        3.3870     7.8350    -1.7830 H     1 <1>   0.0800 
 38 H        2.7520    12.7570    -0.5940 H     1 <1>   0.0800 
 39 H        3.3690    12.1460    -2.0900 H     1 <1>   0.0800 
 40 H        5.6250     8.6680    -1.9250 H     1 <1>   0.0800 
 41 H        5.1410     8.7410    -0.2710 H     1 <1>   0.0800 
 42 H        5.3520    11.0410    -2.2320 H     1 <1>   0.0800 
 43 H        6.3580    10.7490    -0.8490 H     1 <1>   0.0800 
 44 H        4.7600    10.5440     2.0280 H     1 <1>   0.1500 
 45 H        6.2190    15.1840     1.5680 H     1 <1>   0.1500 
 46 H        5.6920    13.6230    -1.5850 H     1 <1>   0.0800 
 47 H        5.9120    15.1430    -0.7730 H     1 <1>   0.0800 
 48 H        4.3030    14.5280    -1.0270 H     1 <1>   0.0800 
 49 H        5.6880    11.7830     3.9510 H     1 <1>   0.1500 
 50 H        6.3700    14.0480     3.6440 H     1 <1>   0.4570 
@<TRIPOS>BOND
  1   1   2  1   
  2   2   3  ar  
  3   2   4  ar  
  4   3   5  ar  
  5   3  25  1   
  6   4   6  ar  
  7   4  26  1   
  8   5   7  ar  
  9   5  27  1   
 10   6   7  ar  
 11   6  28  1   
 12   7   8  1   
 13   8   9  1   
 14   9  10  1   
 15   9  29  1   
 16   9  30  1   
 17  10  11  1   
 18  10  31  1   
 19  10  32  1   
 20  11  12  1   
 21  11  13  1   
 22  11  33  1   
 23  12  14  1   
 24  12  34  1   
 25  12  35  1   
 26  13  15  1   
 27  13  36  1   
 28  13  37  1   
 29  14  16  1   
 30  14  38  1   
 31  14  39  1   
 32  15  17  1   
 33  15  40  1   
 34  15  41  1   
 35  16  17  1   
 36  16  18  1   
 37  17  42  1   
 38  17  43  1   
 39  18  19  ar  
 40  18  20  ar  
 41  19  21  ar  
 42  19  22  1   
 43  20  23  ar  
 44  20  44  1   
 45  21  24  ar  
 46  21  45  1   
 47  22  46  1   
 48  22  47  1   
 49  22  48  1   
 50  23  24  ar  
 51  23  49  1   
 52  24  50  1   
@<TRIPOS>SUBSTRUCTURE
  1 ****  11 GROUP 4 **** **** 0

# MOE 2024.06 (io_trps.svl 2023.06)
