@<TRIPOS>MOLECULE
NONAME
57 59 1 0 0 
SMALL
USER_CHARGES


@<TRIPOS>ATOM
  1 O        4.2020     1.9290     1.2590 O.2   1 <1>  -0.5700 
  2 C        4.0550     0.9880     0.5000 C.2   1 <1>   0.5440 
  3 N        4.4020     1.1800    -0.8300 N.am  1 <1>  -0.6600 
  4 C        3.5620    -0.2940     1.0170 C.ar  1 <1>   0.3960 
  5 C        4.6150     0.0500    -1.7850 C.3   1 <1>   0.1400 
  6 C        4.7260     2.5290    -1.3800 C.3   1 <1>   0.1400 
  7 N        4.3700    -1.3710     0.9240 N.ar  1 <1>  -0.6200 
  8 C        2.2820    -0.3780     1.5880 C.ar  1 <1>  -0.1440 
  9 C        6.0310    -0.5400    -1.6280 C.3   1 <1>   0.3430 
 10 C        6.2390     2.7920    -1.3940 C.3   1 <1>  -0.1600 
 11 C        3.9080    -2.5080     1.4110 C.ar  1 <1>   0.1600 
 12 C        1.8260    -1.5820     2.0840 C.ar  1 <1>  -0.1500 
 13 C        1.3630     0.8380     1.6820 C.3   1 <1>  -0.0960 
 14 N        7.0210     0.4810    -1.1520 N.4   1 <1>  -0.9590 
 15 C        7.1090     1.6900    -2.0060 C.3   1 <1>   0.3430 
 16 C        2.6660    -2.6670     1.9910 C.ar  1 <1>  -0.1500 
 17 C        8.3490    -0.0720    -0.7920 C.3   1 <1>   0.3430 
 18 C        8.2710    -0.8500     0.5290 C.3   1 <1>  -0.1600 
 19 C        7.6320    -0.0660     1.6860 C.3   1 <1>   0.1200 
 20 O        7.8940     1.2830     1.4950 O.3   1 <1>  -0.5600 
 21 C        7.3970     2.1190     2.5000 C.3   1 <1>   0.2630 
 22 C        7.5710     3.5590     2.0460 C.ar  1 <1>  -0.1440 
 23 C        8.8260     4.0440     1.7100 C.ar  1 <1>  -0.1500 
 24 C        6.4730     4.4020     1.9590 C.ar  1 <1>  -0.1500 
 25 C        8.9830     5.3540     1.2900 C.ar  1 <1>  -0.1500 
 26 C        6.6270     5.7120     1.5380 C.ar  1 <1>  -0.1500 
 27 C        7.8830     6.1880     1.2030 C.ar  1 <1>  -0.1500 
 28 H        4.4850     0.4000    -2.7940 H     1 <1>   0.0800 
 29 H        3.8820    -0.7220    -1.6250 H     1 <1>   0.0800 
 30 H        4.2440     3.2890    -0.7850 H     1 <1>   0.0800 
 31 H        4.3300     2.6100    -2.3770 H     1 <1>   0.0800 
 32 H        6.3510    -0.9660    -2.5650 H     1 <1>   0.0800 
 33 H        5.9810    -1.3400    -0.9090 H     1 <1>   0.0800 
 34 H        6.5700     2.9810    -0.3920 H     1 <1>   0.0800 
 35 H        6.4100     3.7010    -1.9420 H     1 <1>   0.0800 
 36 H        4.5520    -3.3710     1.3500 H     1 <1>   0.1500 
 37 H        0.8510    -1.6800     2.5320 H     1 <1>   0.1500 
 38 H        1.2770     1.3210     0.7250 H     1 <1>   0.0800 
 39 H        1.7600     1.5440     2.3910 H     1 <1>   0.0800 
 40 H        0.3760     0.5560     2.0040 H     1 <1>   0.0800 
 41 H        6.6460     0.8530    -0.2580 H     1 <1>   0.4500 
 42 H        8.1280     2.0390    -2.0360 H     1 <1>   0.0800 
 43 H        6.7920     1.4700    -3.0120 H     1 <1>   0.0800 
 44 H        2.3590    -3.6280     2.3660 H     1 <1>   0.1500 
 45 H        9.0400     0.7450    -0.6510 H     1 <1>   0.0800 
 46 H        8.7250    -0.7020    -1.5820 H     1 <1>   0.0800 
 47 H        9.2750    -1.1060     0.8180 H     1 <1>   0.0800 
 48 H        7.7460    -1.7770     0.3920 H     1 <1>   0.0800 
 49 H        8.0410    -0.3780     2.6330 H     1 <1>   0.0800 
 50 H        6.5650    -0.2020     1.6970 H     1 <1>   0.0800 
 51 H        7.9520     1.9410     3.4050 H     1 <1>   0.0800 
 52 H        6.3570     1.8960     2.6630 H     1 <1>   0.0800 
 53 H        9.6840     3.3980     1.7760 H     1 <1>   0.1500 
 54 H        5.4900     4.0420     2.2150 H     1 <1>   0.1500 
 55 H        9.9600     5.7240     1.0340 H     1 <1>   0.1500 
 56 H        5.7700     6.3600     1.4750 H     1 <1>   0.1500 
 57 H        8.0040     7.2080     0.8800 H     1 <1>   0.1500 
@<TRIPOS>BOND
  1   1   2  2   
  2   2   3  am  
  3   2   4  1   
  4   3   5  1   
  5   3   6  1   
  6   4   7  ar  
  7   4   8  ar  
  8   5   9  1   
  9   5  28  1   
 10   5  29  1   
 11   6  10  1   
 12   6  30  1   
 13   6  31  1   
 14   7  11  ar  
 15   8  12  ar  
 16   8  13  1   
 17   9  14  1   
 18   9  32  1   
 19   9  33  1   
 20  10  15  1   
 21  10  34  1   
 22  10  35  1   
 23  11  16  ar  
 24  11  36  1   
 25  12  16  ar  
 26  12  37  1   
 27  13  38  1   
 28  13  39  1   
 29  13  40  1   
 30  14  15  1   
 31  14  17  1   
 32  14  41  1   
 33  15  42  1   
 34  15  43  1   
 35  16  44  1   
 36  17  18  1   
 37  17  45  1   
 38  17  46  1   
 39  18  19  1   
 40  18  47  1   
 41  18  48  1   
 42  19  20  1   
 43  19  49  1   
 44  19  50  1   
 45  20  21  1   
 46  21  22  1   
 47  21  51  1   
 48  21  52  1   
 49  22  23  ar  
 50  22  24  ar  
 51  23  25  ar  
 52  23  53  1   
 53  24  26  ar  
 54  24  54  1   
 55  25  27  ar  
 56  25  55  1   
 57  26  27  ar  
 58  26  56  1   
 59  27  57  1   
@<TRIPOS>SUBSTRUCTURE
  1 ****   2 GROUP 4 **** **** 0

# MOE 2024.06 (io_trps.svl 2023.06)
