@<TRIPOS>MOLECULE
NONAME
37 38 1 0 0 
SMALL
USER_CHARGES


@<TRIPOS>ATOM
  1 O       -4.6870     3.7170     1.7120 O.2   1 <1>  -0.5700 
  2 C       -5.4030     3.2360     0.8590 C.2   1 <1>   0.6340 
  3 O       -6.1940     4.0470     0.1500 O.3   1 <1>  -0.4300 
  4 C       -5.4460     1.8150     0.5660 C.ar  1 <1>   0.0860 
  5 C       -6.2130     5.4390     0.3700 C.3   1 <1>   0.1200 
  6 C       -6.2780     1.2820    -0.4200 C.ar  1 <1>  -0.1500 
  7 C       -4.6480     0.9120     1.2690 C.ar  1 <1>  -0.1500 
  8 C       -7.2150     6.0580    -0.6000 C.3   1 <1>  -0.2400 
  9 C       -6.3100    -0.0740    -0.6900 C.ar  1 <1>  -0.1500 
 10 C       -4.6750    -0.4450     1.0040 C.ar  1 <1>  -0.1500 
 11 C       -5.5090    -0.9550     0.0200 C.ar  1 <1>  -0.1430 
 12 C       -5.5590    -2.4470    -0.2930 C.3   1 <1>   0.0630 
 13 C       -6.0320    -3.2530     0.9260 C.3   1 <1>  -0.1600 
 14 C       -4.1950    -2.9570    -0.7830 C.3   1 <1>  -0.1600 
 15 C       -6.0330    -4.7530     0.6370 C.3   1 <1>   0.3430 
 16 C       -4.2240    -4.4610    -1.0450 C.3   1 <1>   0.3430 
 17 N       -4.6780    -5.1730     0.1820 N.4   1 <1>  -0.9060 
 18 H       -5.2210     5.8250     0.2010 H     1 <1>   0.0800 
 19 H       -6.5020     5.6190     1.3920 H     1 <1>   0.0800 
 20 H       -6.9130     1.9410    -0.9880 H     1 <1>   0.1500 
 21 H       -3.9930     1.2880     2.0380 H     1 <1>   0.1500 
 22 H       -6.9180     5.8610    -1.6140 H     1 <1>   0.0800 
 23 H       -7.2500     7.1220    -0.4540 H     1 <1>   0.0800 
 24 H       -8.1960     5.6550    -0.4250 H     1 <1>   0.0800 
 25 H       -6.9710    -0.4310    -1.4610 H     1 <1>   0.1500 
 26 H       -4.0360    -1.0910     1.5790 H     1 <1>   0.1500 
 27 H       -6.2720    -2.6020    -1.0860 H     1 <1>   0.0800 
 28 H       -7.0300    -2.9430     1.1860 H     1 <1>   0.0800 
 29 H       -5.4060    -3.0550     1.7780 H     1 <1>   0.0800 
 30 H       -3.4270    -2.7360    -0.0630 H     1 <1>   0.0800 
 31 H       -3.9350    -2.4450    -1.6930 H     1 <1>   0.0800 
 32 H       -6.7590    -4.9700    -0.1300 H     1 <1>   0.0800 
 33 H       -6.3110    -5.2940     1.5280 H     1 <1>   0.0800 
 34 H       -3.2390    -4.7990    -1.3290 H     1 <1>   0.0800 
 35 H       -4.9000    -4.6710    -1.8600 H     1 <1>   0.0800 
 36 H       -4.6710    -6.1880     0.0140 H     1 <1>   0.4500 
 37 H       -4.0040    -4.9950     0.9370 H     1 <1>   0.4500 
@<TRIPOS>BOND
  1   1   2  2   
  2   2   3  1   
  3   2   4  1   
  4   3   5  1   
  5   4   6  ar  
  6   4   7  ar  
  7   5   8  1   
  8   5  18  1   
  9   5  19  1   
 10   6   9  ar  
 11   6  20  1   
 12   7  10  ar  
 13   7  21  1   
 14   8  22  1   
 15   8  23  1   
 16   8  24  1   
 17   9  11  ar  
 18   9  25  1   
 19  10  11  ar  
 20  10  26  1   
 21  11  12  1   
 22  12  13  1   
 23  12  14  1   
 24  12  27  1   
 25  13  15  1   
 26  13  28  1   
 27  13  29  1   
 28  14  16  1   
 29  14  30  1   
 30  14  31  1   
 31  15  17  1   
 32  15  32  1   
 33  15  33  1   
 34  16  17  1   
 35  16  34  1   
 36  16  35  1   
 37  17  36  1   
 38  17  37  1   
@<TRIPOS>SUBSTRUCTURE
  1 ****  11 GROUP 4 **** **** 0

# MOE 2024.06 (io_trps.svl 2023.06)
