@<TRIPOS>MOLECULE
NONAME
50 52 1 0 0 
SMALL
USER_CHARGES


@<TRIPOS>ATOM
  1 O       -1.3420     0.6420    -0.4630 O.2   1 <1>  -0.5700 
  2 C       -2.3640     0.9880     0.0930 C.2   1 <1>   0.5690 
  3 N       -3.4270     0.1120     0.1620 N.am  1 <1>  -0.6600 
  4 C       -2.3390     2.4450     0.6960 C.3   1 <1>   0.5640 
  5 C       -4.7220     0.2470     0.8880 C.3   1 <1>   0.1400 
  6 C       -3.3370    -1.2560    -0.4190 C.3   1 <1>   0.1400 
  7 N       -1.2150     3.2350     0.0630 N.4   1 <1>  -0.9590 
  8 C       -2.0380     2.3470     2.2000 C.3   1 <1>  -0.2400 
  9 C       -3.6500     3.2280     0.4920 C.3   1 <1>  -0.2400 
 10 C       -5.3700    -1.1410     0.8560 C.3   1 <1>   0.2000 
 11 C       -4.2760    -2.1130     0.4280 C.3   1 <1>  -0.0800 
 12 C       -0.7550     4.4970     0.6950 C.3   1 <1>   0.3430 
 13 C       -1.3790     3.5200    -1.3850 C.3   1 <1>   0.3430 
 14 O       -5.8550    -1.4970     2.1030 O.3   1 <1>  -0.6800 
 15 C       -4.8310    -3.3490    -0.3020 C.3   1 <1>  -0.0170 
 16 C        0.0710     5.1950    -0.3800 C.3   1 <1>  -0.1600 
 17 C       -0.2430     4.4800    -1.6970 C.3   1 <1>  -0.1600 
 18 C       -3.7210    -4.3000    -0.7210 C.ar  1 <1>   0.1670 
 19 N       -3.0730    -3.9950    -1.8350 N.ar  1 <1>  -0.6200 
 20 C       -3.4280    -5.4180     0.0580 C.ar  1 <1>   0.1600 
 21 C       -2.1230    -4.8720    -2.1130 C.ar  1 <1>   0.1600 
 22 N       -2.4750    -6.2940    -0.2170 N.ar  1 <1>  -0.6200 
 23 C       -1.8330    -5.9830    -1.3300 C.ar  1 <1>   0.1600 
 24 H       -4.5530     0.5600     1.9030 H     1 <1>   0.0800 
 25 H       -5.3610     0.9460     0.3790 H     1 <1>   0.0800 
 26 H       -3.6680    -1.2270    -1.4440 H     1 <1>   0.0800 
 27 H       -2.3300    -1.6390    -0.3870 H     1 <1>   0.0800 
 28 H       -0.4290     2.5650     0.0850 H     1 <1>   0.4500 
 29 H       -2.7590     1.7100     2.6780 H     1 <1>   0.0800 
 30 H       -2.0900     3.3050     2.6820 H     1 <1>   0.0800 
 31 H       -1.0680     1.9120     2.3600 H     1 <1>   0.0800 
 32 H       -4.4100     2.8760     1.1630 H     1 <1>   0.0800 
 33 H       -4.0150     3.1030    -0.5110 H     1 <1>   0.0800 
 34 H       -3.5220     4.2750     0.6950 H     1 <1>   0.0800 
 35 H       -6.1940    -1.1400     0.1620 H     1 <1>   0.0800 
 36 H       -3.7170    -2.4330     1.2900 H     1 <1>   0.0800 
 37 H       -1.6020     5.1120     0.9530 H     1 <1>   0.0800 
 38 H       -0.1700     4.3050     1.5800 H     1 <1>   0.0800 
 39 H       -1.3170     2.6210    -1.9790 H     1 <1>   0.0800 
 40 H       -2.3220     4.0090    -1.5640 H     1 <1>   0.0800 
 41 H       -5.1250    -1.6370     2.7370 H     1 <1>   0.4000 
 42 H       -5.3780    -3.0470    -1.1780 H     1 <1>   0.0800 
 43 H       -5.5190    -3.8630     0.3460 H     1 <1>   0.0800 
 44 H       -0.1960     6.2370    -0.4250 H     1 <1>   0.0800 
 45 H        1.1200     5.1230    -0.1490 H     1 <1>   0.0800 
 46 H        0.6140     3.9190    -2.0310 H     1 <1>   0.0800 
 47 H       -0.5240     5.1690    -2.4760 H     1 <1>   0.0800 
 48 H       -4.0030    -5.5960     0.9480 H     1 <1>   0.1500 
 49 H       -1.5430    -4.7040    -3.0030 H     1 <1>   0.1500 
 50 H       -1.0390    -6.6390    -1.6380 H     1 <1>   0.1500 
@<TRIPOS>BOND
  1   1   2  2   
  2   2   3  am  
  3   2   4  1   
  4   3   5  1   
  5   3   6  1   
  6   4   7  1   
  7   4   8  1   
  8   4   9  1   
  9   5  10  1   
 10   5  24  1   
 11   5  25  1   
 12   6  11  1   
 13   6  26  1   
 14   6  27  1   
 15   7  12  1   
 16   7  13  1   
 17   7  28  1   
 18   8  29  1   
 19   8  30  1   
 20   8  31  1   
 21   9  32  1   
 22   9  33  1   
 23   9  34  1   
 24  10  11  1   
 25  10  14  1   
 26  10  35  1   
 27  11  15  1   
 28  11  36  1   
 29  12  16  1   
 30  12  37  1   
 31  12  38  1   
 32  13  17  1   
 33  13  39  1   
 34  13  40  1   
 35  14  41  1   
 36  15  18  1   
 37  15  42  1   
 38  15  43  1   
 39  16  17  1   
 40  16  44  1   
 41  16  45  1   
 42  17  46  1   
 43  17  47  1   
 44  18  19  ar  
 45  18  20  ar  
 46  19  21  ar  
 47  20  22  ar  
 48  20  48  1   
 49  21  23  ar  
 50  21  49  1   
 51  22  23  ar  
 52  23  50  1   
@<TRIPOS>SUBSTRUCTURE
  1 ****   3 GROUP 4 **** **** 0

# MOE 2024.06 (io_trps.svl 2023.06)
