@<TRIPOS>MOLECULE
NONAME
35 35 1 0 0 
SMALL
USER_CHARGES


@<TRIPOS>ATOM
  1 S        0.3060    -0.2240    -0.0990 S.o2  1 <1>   1.0900 
  2 O       -0.0920    -0.0690    -1.4790 O.2   1 <1>  -0.6500 
  3 O       -0.2920    -1.2600     0.7070 O.2   1 <1>  -0.6500 
  4 C        2.0790    -0.4420    -0.0270 C.3   1 <1>  -0.0550 
  5 C        0.0090     1.3180     0.7490 C.3   1 <1>  -0.1350 
  6 C        2.8260     0.1390    -1.2340 C.3   1 <1>   0.2200 
  7 N        4.2440    -0.2680    -1.1820 N.am  1 <1>  -0.7300 
  8 C        2.7720     1.6650    -1.3420 C.3   1 <1>  -0.2400 
  9 C        5.1410    -0.0410    -0.1980 C.2   1 <1>   0.7800 
 10 O        4.8670     0.5130     0.8480 O.2   1 <1>  -0.5700 
 11 O        6.3700    -0.4690    -0.4350 O.3   1 <1>  -0.4300 
 12 C        7.3810    -0.2850     0.5300 C.3   1 <1>   0.2630 
 13 C        8.6660    -0.9020     0.0050 C.ar  1 <1>  -0.1440 
 14 C        8.8630    -2.2720     0.0850 C.ar  1 <1>  -0.1500 
 15 C        9.6510    -0.1050    -0.5590 C.ar  1 <1>  -0.1500 
 16 C       10.0350    -2.8390    -0.3870 C.ar  1 <1>  -0.1500 
 17 C       10.8220    -0.6710    -1.0320 C.ar  1 <1>  -0.1500 
 18 C       11.0150    -2.0380    -0.9460 C.ar  1 <1>  -0.1500 
 19 H        2.4570    -0.0250     0.8850 H     1 <1>   0.0800 
 20 H        2.2790    -1.4960    -0.0100 H     1 <1>   0.0800 
 21 H        0.4780     2.1390     0.2440 H     1 <1>   0.0800 
 22 H        0.3800     1.2720     1.7540 H     1 <1>   0.0800 
 23 H       -1.0460     1.5110     0.7900 H     1 <1>   0.0800 
 24 H        2.3990    -0.2800    -2.1320 H     1 <1>   0.0800 
 25 H        4.6190    -0.6960    -2.0290 H     1 <1>   0.3700 
 26 H        3.0700     2.1270    -0.4170 H     1 <1>   0.0800 
 27 H        1.7780     1.9880    -1.5920 H     1 <1>   0.0800 
 28 H        3.4260     2.0010    -2.1270 H     1 <1>   0.0800 
 29 H        7.4990     0.7710     0.7030 H     1 <1>   0.0800 
 30 H        7.0750    -0.7650     1.4440 H     1 <1>   0.0800 
 31 H        8.1040    -2.9030     0.5140 H     1 <1>   0.1500 
 32 H        9.5100     0.9590    -0.6340 H     1 <1>   0.1500 
 33 H       10.1820    -3.9030    -0.3210 H     1 <1>   0.1500 
 34 H       11.5830    -0.0470    -1.4680 H     1 <1>   0.1500 
 35 H       11.9250    -2.4790    -1.3140 H     1 <1>   0.1500 
@<TRIPOS>BOND
  1   1   2  2   
  2   1   3  2   
  3   1   4  1   
  4   1   5  1   
  5   4   6  1   
  6   4  19  1   
  7   4  20  1   
  8   5  21  1   
  9   5  22  1   
 10   5  23  1   
 11   6   7  1   
 12   6   8  1   
 13   6  24  1   
 14   7   9  am  
 15   7  25  1   
 16   8  26  1   
 17   8  27  1   
 18   8  28  1   
 19   9  10  2   
 20   9  11  1   
 21  11  12  1   
 22  12  13  1   
 23  12  29  1   
 24  12  30  1   
 25  13  14  ar  
 26  13  15  ar  
 27  14  16  ar  
 28  14  31  1   
 29  15  17  ar  
 30  15  32  1   
 31  16  18  ar  
 32  16  33  1   
 33  17  18  ar  
 34  17  34  1   
 35  18  35  1   
@<TRIPOS>SUBSTRUCTURE
  1 ****   9 GROUP 4 **** **** 0

# MOE 2024.06 (io_trps.svl 2023.06)
