@<TRIPOS>MOLECULE
NONAME
42 43 1 0 0 
SMALL
USER_CHARGES


@<TRIPOS>ATOM
  1 O        0.7180     2.7220    -0.1670 O.2   1 <1>  -0.5700 
  2 C       -0.4320     2.3480    -0.1650 C.2   1 <1>   0.5690 
  3 N       -1.2710     2.6440     0.8760 N.am  1 <1>  -0.6600 
  4 C       -0.9310     1.5780    -1.3760 C.3   1 <1>  -0.0990 
  5 C       -2.7140     2.2810     0.9160 C.3   1 <1>   0.1400 
  6 C       -0.7550     3.3560     2.0960 C.3   1 <1>   0.2010 
  7 C       -2.2890     0.8980    -1.1550 C.3   1 <1>  -0.1600 
  8 C       -3.2430     1.8760    -0.4630 C.3   1 <1>  -0.1600 
  9 C       -0.6350     4.8680     1.9130 C.2   1 <1>   0.5690 
 10 O       -1.2070     5.5880     2.6980 O.2   1 <1>  -0.5700 
 11 N        0.1340     5.3180     0.8750 N.am  1 <1>  -0.4940 
 12 C        0.5500     6.6000     0.4360 C.2   1 <1>  -0.0880 
 13 N       -0.0410     7.8110     0.6490 N.pl3 1 <1>   0.3140 
 14 C        1.6440     6.8440    -0.3240 C.2   1 <1>  -0.1810 
 15 N        0.6480     8.8070     0.0480 N.2   1 <1>  -0.7070 
 16 C       -1.3040     8.1220     1.3300 C.3   1 <1>   0.0160 
 17 C        1.6500     8.2210    -0.5250 C.2   1 <1>   0.1080 
 18 C        2.6630     5.8480    -0.8540 C.3   1 <1>  -0.0590 
 19 C        2.6860     8.9980    -1.3180 C.3   1 <1>   0.0210 
 20 C        3.8420     9.4520    -0.4200 C.3   1 <1>  -0.2400 
 21 H       -0.1970     0.8420    -1.6470 H     1 <1>   0.0800 
 22 H       -1.0110     2.2760    -2.1890 H     1 <1>   0.0800 
 23 H       -3.2860     3.1180     1.2840 H     1 <1>   0.0800 
 24 H       -2.8400     1.4600     1.6020 H     1 <1>   0.0800 
 25 H        0.2180     2.9710     2.3440 H     1 <1>   0.0800 
 26 H       -1.4020     3.1590     2.9320 H     1 <1>   0.0800 
 27 H       -2.1590     0.0260    -0.5360 H     1 <1>   0.0800 
 28 H       -2.6970     0.5820    -2.0990 H     1 <1>   0.0800 
 29 H       -3.3660     2.7580    -1.0690 H     1 <1>   0.0800 
 30 H       -4.2120     1.4220    -0.3500 H     1 <1>   0.0800 
 31 H        0.5450     4.5430     0.3340 H     1 <1>   0.3700 
 32 H       -2.0410     7.3900     1.0630 H     1 <1>   0.0800 
 33 H       -1.6370     9.0960     1.0260 H     1 <1>   0.0800 
 34 H       -1.1400     8.1120     2.3900 H     1 <1>   0.0800 
 35 H        2.4910     4.8680    -0.4460 H     1 <1>   0.0800 
 36 H        3.6540     6.1590    -0.5810 H     1 <1>   0.0800 
 37 H        2.5940     5.7910    -1.9250 H     1 <1>   0.0800 
 38 H        2.2100     9.8580    -1.7530 H     1 <1>   0.0800 
 39 H        3.0610     8.3870    -2.1180 H     1 <1>   0.0800 
 40 H        3.4610    10.0760     0.3690 H     1 <1>   0.0800 
 41 H        4.5600    10.0110    -0.9920 H     1 <1>   0.0800 
 42 H        4.3280     8.6010     0.0200 H     1 <1>   0.0800 
@<TRIPOS>BOND
  1   1   2  2   
  2   2   3  am  
  3   2   4  1   
  4   3   5  1   
  5   3   6  1   
  6   4   7  1   
  7   4  21  1   
  8   4  22  1   
  9   5   8  1   
 10   5  23  1   
 11   5  24  1   
 12   6   9  1   
 13   6  25  1   
 14   6  26  1   
 15   7   8  1   
 16   7  27  1   
 17   7  28  1   
 18   8  29  1   
 19   8  30  1   
 20   9  10  2   
 21   9  11  am  
 22  11  12  1   
 23  11  31  1   
 24  12  13  1   
 25  12  14  2   
 26  13  15  1   
 27  13  16  1   
 28  14  17  1   
 29  14  18  1   
 30  15  17  2   
 31  16  32  1   
 32  16  33  1   
 33  16  34  1   
 34  17  19  1   
 35  18  35  1   
 36  18  36  1   
 37  18  37  1   
 38  19  20  1   
 39  19  38  1   
 40  19  39  1   
 41  20  40  1   
 42  20  41  1   
 43  20  42  1   
@<TRIPOS>SUBSTRUCTURE
  1 ****  11 GROUP 4 **** **** 0

# MOE 2024.06 (io_trps.svl 2023.06)
