@<TRIPOS>MOLECULE
NONAME
40 41 1 0 0 
SMALL
USER_CHARGES


@<TRIPOS>ATOM
  1 S       -0.4200    -0.1880    -0.0490 S.o2  1 <1>   1.3330 
  2 O        1.0190    -0.1600    -0.0800 O.2   1 <1>  -0.6500 
  3 O       -1.2050     0.3550    -1.1300 O.2   1 <1>  -0.6500 
  4 N       -0.8010    -1.8090     0.0760 N.am  1 <1>  -0.9140 
  5 C       -1.0060     0.4760     1.4940 C.3   1 <1>  -0.1350 
  6 C       -0.8180    -2.4580    -1.2510 C.3   1 <1>   0.2570 
  7 C       -1.0650    -3.9710    -1.1940 C.2   1 <1>   0.5690 
  8 O       -0.1240    -4.7080    -1.3760 O.2   1 <1>  -0.5700 
  9 N       -2.3170    -4.4640    -0.9370 N.am  1 <1>  -0.6600 
 10 C       -3.5110    -3.6540    -0.5880 C.3   1 <1>   0.1400 
 11 C       -2.6030    -5.9110    -0.8040 C.3   1 <1>   0.1400 
 12 C       -4.6070    -4.6760    -0.2790 C.3   1 <1>   0.2000 
 13 C       -3.8810    -5.9840     0.0320 C.3   1 <1>  -0.0800 
 14 O       -5.3710    -4.2870     0.8100 O.3   1 <1>  -0.6800 
 15 C       -4.7370    -7.2280    -0.2540 C.3   1 <1>  -0.0170 
 16 C       -3.9680    -8.5020     0.0540 C.ar  1 <1>  -0.1430 
 17 C       -3.3440    -9.2420    -0.9310 C.ar  1 <1>  -0.1500 
 18 C       -3.8530    -8.9840     1.3420 C.ar  1 <1>  -0.1500 
 19 C       -2.6510   -10.3910    -0.5880 C.ar  1 <1>   0.1600 
 20 C       -3.1370   -10.1460     1.5780 C.ar  1 <1>   0.1600 
 21 N       -2.5320   -10.8600     0.6440 N.ar  1 <1>  -0.6200 
 22 H        0.0030    -2.2140     0.5570 H     1 <1>   0.4200 
 23 H       -0.5160    -0.0050     2.3180 H     1 <1>   0.0800 
 24 H       -2.0640     0.3260     1.5820 H     1 <1>   0.0800 
 25 H       -0.8030     1.5280     1.5410 H     1 <1>   0.0800 
 26 H       -1.5860    -2.0160    -1.8610 H     1 <1>   0.0800 
 27 H        0.1250    -2.2910    -1.7430 H     1 <1>   0.0800 
 28 H       -3.2930    -3.0480     0.2740 H     1 <1>   0.0800 
 29 H       -3.7980    -3.0300    -1.4170 H     1 <1>   0.0800 
 30 H       -2.7580    -6.3250    -1.7850 H     1 <1>   0.0800 
 31 H       -1.7870    -6.4270    -0.3250 H     1 <1>   0.0800 
 32 H       -5.2590    -4.7790    -1.1300 H     1 <1>   0.0800 
 33 H       -3.5800    -5.9900     1.0650 H     1 <1>   0.0800 
 34 H       -4.8140    -4.2170     1.6090 H     1 <1>   0.4000 
 35 H       -5.0490    -7.2320    -1.2840 H     1 <1>   0.0800 
 36 H       -5.6270    -7.1950     0.3520 H     1 <1>   0.0800 
 37 H       -3.3870    -8.9380    -1.9600 H     1 <1>   0.1500 
 38 H       -4.3130    -8.4670     2.1640 H     1 <1>   0.1500 
 39 H       -2.1690   -10.9550    -1.3680 H     1 <1>   0.1500 
 40 H       -3.0580   -10.5060     2.5890 H     1 <1>   0.1500 
@<TRIPOS>BOND
  1   1   2  2   
  2   1   3  2   
  3   1   4  am  
  4   1   5  1   
  5   4   6  1   
  6   4  22  1   
  7   5  23  1   
  8   5  24  1   
  9   5  25  1   
 10   6   7  1   
 11   6  26  1   
 12   6  27  1   
 13   7   8  2   
 14   7   9  am  
 15   9  10  1   
 16   9  11  1   
 17  10  12  1   
 18  10  28  1   
 19  10  29  1   
 20  11  13  1   
 21  11  30  1   
 22  11  31  1   
 23  12  13  1   
 24  12  14  1   
 25  12  32  1   
 26  13  15  1   
 27  13  33  1   
 28  14  34  1   
 29  15  16  1   
 30  15  35  1   
 31  15  36  1   
 32  16  17  ar  
 33  16  18  ar  
 34  17  19  ar  
 35  17  37  1   
 36  18  20  ar  
 37  18  38  1   
 38  19  21  ar  
 39  19  39  1   
 40  20  21  ar  
 41  20  40  1   
@<TRIPOS>SUBSTRUCTURE
  1 ****   9 GROUP 4 **** **** 0

# MOE 2024.06 (io_trps.svl 2023.06)
