@<TRIPOS>MOLECULE
NONAME
39 41 1 0 0 
SMALL
USER_CHARGES


@<TRIPOS>ATOM
  1 S        2.0800     0.0870     0.7390 S.3   1 <1>  -0.0800 
  2 C        0.7290    -0.3570    -0.2490 C.2   1 <1>   0.4620 
  3 C        1.9600     1.6680     0.0430 C.2   1 <1>   0.1980 
  4 N        0.3030     0.6110    -0.9740 N.2   1 <1>  -0.3380 
  5 N        0.2520    -1.6290    -0.1810 N.pl3 1 <1>  -0.8840 
  6 N        1.0130     1.7660    -0.8010 N.2   1 <1>  -0.3380 
  7 C        2.9580     2.7130     0.4940 C.3   1 <1>   0.0200 
  8 C        2.7240     4.0400    -0.2270 C.3   1 <1>   0.2090 
  9 N        3.7620     5.0170     0.1840 N.pl3 1 <1>  -0.8690 
 10 C        4.6580     5.5210    -0.7210 C.ar  1 <1>   0.4100 
 11 N        4.8070     6.8230    -0.6260 N.ar  1 <1>  -0.6200 
 12 C        5.3500     4.7330    -1.6540 C.ar  1 <1>   0.1600 
 13 C        5.6740     7.3350    -1.5180 C.ar  1 <1>   0.3960 
 14 N        6.2030     5.1990    -2.5420 N.ar  1 <1>  -0.6200 
 15 C        5.9590     8.7720    -1.5650 C.2   1 <1>   0.5440 
 16 C        6.3320     6.5160    -2.4430 C.ar  1 <1>   0.1600 
 17 O        6.2640     9.2790    -2.6320 O.2   1 <1>  -0.5700 
 18 N        5.9300     9.6040    -0.4600 N.am  1 <1>  -0.6600 
 19 C        5.7380     9.1860     0.9460 C.3   1 <1>   0.1400 
 20 C        6.1940    11.0580    -0.5480 C.3   1 <1>   0.1400 
 21 C        6.1760    10.3900     1.7730 C.3   1 <1>  -0.1600 
 22 C        5.9400    11.5890     0.8590 C.3   1 <1>  -0.1600 
 23 H       -0.5530    -1.9040    -0.7470 H     1 <1>   0.4000 
 24 H        0.6430    -2.3360     0.4430 H     1 <1>   0.4000 
 25 H        3.9500     2.3590     0.2820 H     1 <1>   0.0800 
 26 H        2.8580     2.8600     1.5540 H     1 <1>   0.0800 
 27 H        1.7500     4.4250     0.0250 H     1 <1>   0.0800 
 28 H        2.7550     3.8900    -1.2940 H     1 <1>   0.0800 
 29 H        3.3820     5.7790     0.7560 H     1 <1>   0.4000 
 30 H        5.1760     3.6740    -1.6450 H     1 <1>   0.1500 
 31 H        7.0070     6.9840    -3.1390 H     1 <1>   0.1500 
 32 H        6.3230     8.3120     1.1780 H     1 <1>   0.0800 
 33 H        4.6940     8.9790     1.1100 H     1 <1>   0.0800 
 34 H        5.5470    11.5200    -1.2730 H     1 <1>   0.0800 
 35 H        7.2220    11.2100    -0.8330 H     1 <1>   0.0800 
 36 H        7.2260    10.2990     1.9920 H     1 <1>   0.0800 
 37 H        5.6290    10.4620     2.6960 H     1 <1>   0.0800 
 38 H        4.9140    11.9070     0.9300 H     1 <1>   0.0800 
 39 H        6.5820    12.4190     1.0940 H     1 <1>   0.0800 
@<TRIPOS>BOND
  1   1   2  1   
  2   1   3  1   
  3   2   4  2   
  4   2   5  1   
  5   3   6  2   
  6   3   7  1   
  7   4   6  1   
  8   5  23  1   
  9   5  24  1   
 10   7   8  1   
 11   7  25  1   
 12   7  26  1   
 13   8   9  1   
 14   8  27  1   
 15   8  28  1   
 16   9  10  1   
 17   9  29  1   
 18  10  11  ar  
 19  10  12  ar  
 20  11  13  ar  
 21  12  14  ar  
 22  12  30  1   
 23  13  15  1   
 24  13  16  ar  
 25  14  16  ar  
 26  15  17  2   
 27  15  18  am  
 28  16  31  1   
 29  18  19  1   
 30  18  20  1   
 31  19  21  1   
 32  19  32  1   
 33  19  33  1   
 34  20  22  1   
 35  20  34  1   
 36  20  35  1   
 37  21  22  1   
 38  21  36  1   
 39  21  37  1   
 40  22  38  1   
 41  22  39  1   
@<TRIPOS>SUBSTRUCTURE
  1 ****  10 GROUP 4 **** **** 0

# MOE 2024.06 (io_trps.svl 2023.06)
