@<TRIPOS>MOLECULE
NONAME
45 46 1 0 0 
SMALL
USER_CHARGES


@<TRIPOS>ATOM
  1 O       -0.7200    -0.3840     0.6740 O.2   1 <1>  -0.5700 
  2 C       -1.6240     0.3930     0.4690 C.2   1 <1>   0.5690 
  3 N       -2.9300     0.0170     0.6920 N.am  1 <1>  -0.6600 
  4 C       -1.1940     1.7800    -0.0330 C.3   1 <1>  -0.0190 
  5 C       -3.2300    -1.4160     1.0380 C.3   1 <1>   0.3210 
  6 C       -4.1510     0.8730     0.5370 C.3   1 <1>   0.1400 
  7 C       -1.4170     2.8740     1.0310 C.3   1 <1>  -0.0170 
  8 C       -1.7220     2.1330    -1.4410 C.3   1 <1>  -0.2400 
  9 C       -4.1130    -2.0730    -0.0160 C.2   1 <1>   0.0460 
 10 C       -4.9190     0.9980     1.8580 C.3   1 <1>   0.1200 
 11 C       -0.8380     4.2160     0.6080 C.ar  1 <1>  -0.1440 
 12 N       -5.4480    -2.1700     0.1580 N.2   1 <1>  -0.5650 
 13 C       -3.7400    -2.6210    -1.1970 C.2   1 <1>  -0.3320 
 14 O       -5.7240     2.1310     1.8280 O.3   1 <1>  -0.6800 
 15 C        0.5210     4.4580     0.7390 C.ar  1 <1>  -0.1500 
 16 C       -1.6580     5.2070     0.0890 C.ar  1 <1>  -0.1500 
 17 C       -5.8570    -2.7700    -0.9110 C.2   1 <1>   0.0360 
 18 N       -4.8670    -3.0730    -1.7760 N.pl3 1 <1>   0.0330 
 19 C       -2.3660    -2.7440    -1.8340 C.3   1 <1>  -0.0600 
 20 C        1.0550     5.6760     0.3550 C.ar  1 <1>  -0.1500 
 21 C       -1.1250     6.4250    -0.2960 C.ar  1 <1>  -0.1500 
 22 C        0.2320     6.6600    -0.1630 C.ar  1 <1>  -0.1500 
 23 H       -0.1250     1.7150    -0.1510 H     1 <1>   0.0800 
 24 H       -3.7240    -1.4640     1.9910 H     1 <1>   0.0800 
 25 H       -2.3280    -1.9930     1.1230 H     1 <1>   0.0800 
 26 H       -4.7990     0.4480    -0.2100 H     1 <1>   0.0800 
 27 H       -3.8850     1.8540     0.2080 H     1 <1>   0.0800 
 28 H       -0.9410     2.5670     1.9460 H     1 <1>   0.0800 
 29 H       -2.4590     2.9960     1.2500 H     1 <1>   0.0800 
 30 H       -2.7610     2.3960    -1.4410 H     1 <1>   0.0800 
 31 H       -1.5810     1.2960    -2.1010 H     1 <1>   0.0800 
 32 H       -1.1700     2.9660    -1.8410 H     1 <1>   0.0800 
 33 H       -4.2440     1.0930     2.6910 H     1 <1>   0.0800 
 34 H       -5.5570     0.1420     1.9990 H     1 <1>   0.0800 
 35 H       -5.1900     2.9440     1.9110 H     1 <1>   0.4000 
 36 H        1.1690     3.6990     1.1390 H     1 <1>   0.1500 
 37 H       -2.7130     5.0360    -0.0220 H     1 <1>   0.1500 
 38 H       -6.8850    -3.0150    -1.1110 H     1 <1>   0.1500 
 39 H       -4.9590    -3.5460    -2.6790 H     1 <1>   0.2700 
 40 H       -1.6160    -2.2970    -1.2040 H     1 <1>   0.0800 
 41 H       -2.3510    -2.2400    -2.7830 H     1 <1>   0.0800 
 42 H       -2.1140    -3.7790    -1.9810 H     1 <1>   0.0800 
 43 H        2.1100     5.8570     0.4590 H     1 <1>   0.1500 
 44 H       -1.7650     7.1900    -0.6980 H     1 <1>   0.1500 
 45 H        0.6470     7.6070    -0.4610 H     1 <1>   0.1500 
@<TRIPOS>BOND
  1   1   2  2   
  2   2   3  am  
  3   2   4  1   
  4   3   5  1   
  5   3   6  1   
  6   4   7  1   
  7   4   8  1   
  8   4  23  1   
  9   5   9  1   
 10   5  24  1   
 11   5  25  1   
 12   6  10  1   
 13   6  26  1   
 14   6  27  1   
 15   7  11  1   
 16   7  28  1   
 17   7  29  1   
 18   8  30  1   
 19   8  31  1   
 20   8  32  1   
 21   9  12  1   
 22   9  13  2   
 23  10  14  1   
 24  10  33  1   
 25  10  34  1   
 26  11  15  ar  
 27  11  16  ar  
 28  12  17  2   
 29  13  18  1   
 30  13  19  1   
 31  14  35  1   
 32  15  20  ar  
 33  15  36  1   
 34  16  21  ar  
 35  16  37  1   
 36  17  18  1   
 37  17  38  1   
 38  18  39  1   
 39  19  40  1   
 40  19  41  1   
 41  19  42  1   
 42  20  22  ar  
 43  20  43  1   
 44  21  22  ar  
 45  21  44  1   
 46  22  45  1   
@<TRIPOS>SUBSTRUCTURE
  1 ****   2 GROUP 4 **** **** 0

# MOE 2024.06 (io_trps.svl 2023.06)
