@<TRIPOS>MOLECULE
NONAME
48 49 1 0 0 
SMALL
USER_CHARGES


@<TRIPOS>ATOM
  1 CL      -0.4150    -1.1380    -2.6560 Cl    1 <1>  -0.1770 
  2 C        1.1170    -1.7360    -2.0740 C.ar  1 <1>   0.1770 
  3 C        1.6730    -1.1850    -0.9360 C.ar  1 <1>  -0.1500 
  4 C        1.7530    -2.7510    -2.7580 C.ar  1 <1>  -0.1500 
  5 C        2.8870    -1.6630    -0.4740 C.ar  1 <1>  -0.1500 
  6 C        2.9680    -3.2230    -2.2910 C.ar  1 <1>  -0.1500 
  7 C        3.5490    -2.6890    -1.1450 C.ar  1 <1>  -0.1430 
  8 C        4.8940    -3.2890    -0.6930 C.3   1 <1>   0.1250 
  9 C        4.7530    -4.7790    -0.3220 C.2   1 <1>   0.5690 
 10 C        5.7200    -2.4530     0.3310 C.3   1 <1>  -0.0800 
 11 O        5.4670    -5.5380    -0.9380 O.2   1 <1>  -0.5700 
 12 N        3.8860    -5.2640     0.6360 N.am  1 <1>  -0.6600 
 13 C        6.1710    -1.1080    -0.2700 C.3   1 <1>  -0.2400 
 14 C        6.9750    -3.2000     0.8150 C.3   1 <1>  -0.2400 
 15 C        3.8790    -6.7320     0.9550 C.3   1 <1>   0.3210 
 16 C        2.9850    -4.4240     1.4900 C.3   1 <1>   0.1400 
 17 C        2.5590    -7.4030     0.5830 C.2   1 <1>   0.0460 
 18 C        1.5500    -4.3360     0.9460 C.3   1 <1>   0.1200 
 19 N        1.7500    -7.8840     1.5500 N.2   1 <1>  -0.5650 
 20 C        2.0150    -7.6090    -0.6400 C.2   1 <1>  -0.3320 
 21 O        0.7270    -5.2390     1.5990 O.3   1 <1>  -0.6800 
 22 C        0.7410    -8.3690     0.9030 C.2   1 <1>   0.0360 
 23 N        0.8390    -8.2300    -0.4340 N.pl3 1 <1>   0.0330 
 24 C        2.5220    -7.2560    -2.0270 C.3   1 <1>  -0.0600 
 25 H        1.1580    -0.3930    -0.4230 H     1 <1>   0.1500 
 26 H        1.3030    -3.1640    -3.6430 H     1 <1>   0.1500 
 27 H        3.2990    -1.2200     0.4140 H     1 <1>   0.1500 
 28 H        3.4620    -4.0170    -2.8260 H     1 <1>   0.1500 
 29 H        5.4990    -3.2910    -1.5830 H     1 <1>   0.0800 
 30 H        5.1230    -2.2500     1.2010 H     1 <1>   0.0800 
 31 H        6.8320    -1.2710    -1.1040 H     1 <1>   0.0800 
 32 H        6.6950    -0.5260     0.4670 H     1 <1>   0.0800 
 33 H        5.3350    -0.5290    -0.6160 H     1 <1>   0.0800 
 34 H        7.5930    -3.4860    -0.0200 H     1 <1>   0.0800 
 35 H        6.7090    -4.0890     1.3600 H     1 <1>   0.0800 
 36 H        7.5560    -2.5770     1.4710 H     1 <1>   0.0800 
 37 H        4.0520    -6.8630     2.0080 H     1 <1>   0.0800 
 38 H        4.6700    -7.2460     0.4400 H     1 <1>   0.0800 
 39 H        3.3770    -3.4300     1.5450 H     1 <1>   0.0800 
 40 H        2.9680    -4.8060     2.4970 H     1 <1>   0.0800 
 41 H        1.5190    -4.5400    -0.1110 H     1 <1>   0.0800 
 42 H        1.1440    -3.3570     1.1290 H     1 <1>   0.0800 
 43 H        1.0940    -6.1600     1.5130 H     1 <1>   0.4000 
 44 H       -0.1080    -8.8400     1.3680 H     1 <1>   0.1500 
 45 H        0.1590    -8.5320    -1.1370 H     1 <1>   0.2700 
 46 H        3.5230    -6.8720    -1.9770 H     1 <1>   0.0800 
 47 H        1.8910    -6.5090    -2.4730 H     1 <1>   0.0800 
 48 H        2.5300    -8.1300    -2.6540 H     1 <1>   0.0800 
@<TRIPOS>BOND
  1   1   2  1   
  2   2   3  ar  
  3   2   4  ar  
  4   3   5  ar  
  5   3  25  1   
  6   4   6  ar  
  7   4  26  1   
  8   5   7  ar  
  9   5  27  1   
 10   6   7  ar  
 11   6  28  1   
 12   7   8  1   
 13   8   9  1   
 14   8  10  1   
 15   8  29  1   
 16   9  11  2   
 17   9  12  am  
 18  10  13  1   
 19  10  14  1   
 20  10  30  1   
 21  12  15  1   
 22  12  16  1   
 23  13  31  1   
 24  13  32  1   
 25  13  33  1   
 26  14  34  1   
 27  14  35  1   
 28  14  36  1   
 29  15  17  1   
 30  15  37  1   
 31  15  38  1   
 32  16  18  1   
 33  16  39  1   
 34  16  40  1   
 35  17  19  1   
 36  17  20  2   
 37  18  21  1   
 38  18  41  1   
 39  18  42  1   
 40  19  22  2   
 41  20  23  1   
 42  20  24  1   
 43  21  43  1   
 44  22  23  1   
 45  22  44  1   
 46  23  45  1   
 47  24  46  1   
 48  24  47  1   
 49  24  48  1   
@<TRIPOS>SUBSTRUCTURE
  1 ****  12 GROUP 4 **** **** 0

# MOE 2024.06 (io_trps.svl 2023.06)
