@<TRIPOS>MOLECULE
NONAME
47 49 1 0 0 
SMALL
USER_CHARGES


@<TRIPOS>ATOM
  1 O       -0.1890     0.5040    -0.9340 O.2   1 <1>  -0.5700 
  2 C        0.8740    -0.0560    -0.8220 C.2   1 <1>   0.5690 
  3 N        2.0080     0.5380    -0.3430 N.am  1 <1>  -0.4940 
  4 C        0.9560    -1.5160    -1.2110 C.3   1 <1>  -0.0990 
  5 C        2.2150     1.8730     0.0860 C.2   1 <1>  -0.0880 
  6 C        0.1600    -2.3990    -0.2310 C.3   1 <1>  -0.0990 
  7 N        3.3530     2.3580     0.6650 N.pl3 1 <1>   0.3140 
  8 C        1.3570     2.9160     0.0160 C.2   1 <1>  -0.1500 
  9 C        0.2800    -3.8880    -0.5380 C.2   1 <1>   0.4230 
 10 N        3.2260     3.6760     0.9610 N.2   1 <1>  -0.7070 
 11 C        4.6050     1.6340     1.0350 C.3   1 <1>   0.2710 
 12 C        2.0360     3.9930     0.5670 C.2   1 <1>   0.1080 
 13 O        1.3370    -4.2760    -0.9660 O.2   1 <1>  -0.5700 
 14 C       -0.8440    -4.7750    -0.3090 C.ar  1 <1>   0.0860 
 15 C        5.2280     0.9020    -0.1700 C.3   1 <1>  -0.1950 
 16 C        4.3630     0.6670     2.2020 C.3   1 <1>  -0.2400 
 17 C        1.4810     5.3900     0.7100 C.3   1 <1>  -0.0590 
 18 C       -0.9080    -6.0050    -0.9680 C.ar  1 <1>  -0.1500 
 19 C       -1.8960    -4.4710     0.5630 C.ar  1 <1>  -0.1500 
 20 C        6.7160     0.8620    -0.3430 C.3   1 <1>  -0.2000 
 21 C        5.8680     1.6640    -1.2880 C.3   1 <1>  -0.2000 
 22 C       -1.9640    -6.8790    -0.7830 C.ar  1 <1>  -0.1500 
 23 C       -2.9550    -5.3400     0.7520 C.ar  1 <1>  -0.1500 
 24 C       -2.9930    -6.5460     0.0770 C.ar  1 <1>  -0.1500 
 25 H        2.8280    -0.0650    -0.3150 H     1 <1>   0.3700 
 26 H        1.9850    -1.8260    -1.2370 H     1 <1>   0.0800 
 27 H        0.5540    -1.6290    -2.2020 H     1 <1>   0.0800 
 28 H       -0.8700    -2.0970    -0.2790 H     1 <1>   0.0800 
 29 H        0.5140    -2.2320     0.7710 H     1 <1>   0.0800 
 30 H        0.3580     2.9280    -0.3800 H     1 <1>   0.1500 
 31 H        5.3010     2.3850     1.3630 H     1 <1>   0.0800 
 32 H        4.7160    -0.0090    -0.4200 H     1 <1>   0.1000 
 33 H        3.6650    -0.1030     1.9290 H     1 <1>   0.0800 
 34 H        3.9770     1.2100     3.0470 H     1 <1>   0.0800 
 35 H        5.2900     0.2060     2.4910 H     1 <1>   0.0800 
 36 H        0.4810     5.4390     0.3210 H     1 <1>   0.0800 
 37 H        2.1040     6.0790     0.1710 H     1 <1>   0.0800 
 38 H        1.4710     5.6670     1.7480 H     1 <1>   0.0800 
 39 H       -0.1110    -6.2780    -1.6390 H     1 <1>   0.1500 
 40 H       -1.8940    -3.5480     1.1140 H     1 <1>   0.1500 
 41 H        7.1760    -0.0410    -0.7070 H     1 <1>   0.1000 
 42 H        7.3490     1.3940     0.3460 H     1 <1>   0.1000 
 43 H        5.8990     2.7400    -1.2310 H     1 <1>   0.1000 
 44 H        5.7350     1.3120    -2.2970 H     1 <1>   0.1000 
 45 H       -1.9840    -7.8190    -1.3080 H     1 <1>   0.1500 
 46 H       -3.7540    -5.0800     1.4270 H     1 <1>   0.1500 
 47 H       -3.8170    -7.2230     0.2230 H     1 <1>   0.1500 
@<TRIPOS>BOND
  1   1   2  2   
  2   2   3  am  
  3   2   4  1   
  4   3   5  1   
  5   3  25  1   
  6   4   6  1   
  7   4  26  1   
  8   4  27  1   
  9   5   7  1   
 10   5   8  2   
 11   6   9  1   
 12   6  28  1   
 13   6  29  1   
 14   7  10  1   
 15   7  11  1   
 16   8  12  1   
 17   8  30  1   
 18   9  13  2   
 19   9  14  1   
 20  10  12  2   
 21  11  15  1   
 22  11  16  1   
 23  11  31  1   
 24  12  17  1   
 25  14  18  ar  
 26  14  19  ar  
 27  15  20  1   
 28  15  21  1   
 29  15  32  1   
 30  16  33  1   
 31  16  34  1   
 32  16  35  1   
 33  17  36  1   
 34  17  37  1   
 35  17  38  1   
 36  18  22  ar  
 37  18  39  1   
 38  19  23  ar  
 39  19  40  1   
 40  20  21  1   
 41  20  41  1   
 42  20  42  1   
 43  21  43  1   
 44  21  44  1   
 45  22  24  ar  
 46  22  45  1   
 47  23  24  ar  
 48  23  46  1   
 49  24  47  1   
@<TRIPOS>SUBSTRUCTURE
  1 ****   2 GROUP 4 **** **** 0

# MOE 2024.06 (io_trps.svl 2023.06)
