@<TRIPOS>MOLECULE
NONAME
45 47 1 0 0 
SMALL
USER_CHARGES


@<TRIPOS>ATOM
  1 O       -0.6210     0.7750    -0.8250 O.2   1 <1>  -0.5700 
  2 C       -1.7220     1.2470    -0.6110 C.2   1 <1>   0.7160 
  3 N       -2.8180     0.4030    -0.6250 N.am  1 <1>  -0.6600 
  4 C       -1.8410     2.6670    -0.3410 C.2   1 <1>  -0.0860 
  5 C       -2.7930    -0.9050    -1.3660 C.3   1 <1>   0.1400 
  6 C       -4.1000     0.7440     0.0460 C.3   1 <1>   0.1400 
  7 C       -2.8300     3.5620    -0.6740 C.2   1 <1>  -0.3020 
  8 C       -0.8760     3.4350     0.3410 C.2   1 <1>  -0.1500 
  9 C       -3.2250    -2.1010    -0.4810 C.3   1 <1>   0.0000 
 10 C       -4.5310    -0.4020     0.9580 C.3   1 <1>  -0.1600 
 11 N       -2.5190     4.8000    -0.2270 N.pl3 1 <1>   0.0330 
 12 C       -1.3160     4.7160     0.3970 C.2   1 <1>  -0.3020 
 13 C       -4.5790    -1.7100     0.1700 C.3   1 <1>   0.2000 
 14 C       -3.5080    -3.3290    -1.3850 C.3   1 <1>   0.1200 
 15 C       -2.1320    -2.4040     0.5960 C.3   1 <1>  -0.0160 
 16 O       -5.0430    -2.7040     1.0150 O.3   1 <1>  -0.6800 
 17 O       -2.4800    -3.5530    -2.2900 O.3   1 <1>  -0.6800 
 18 C       -0.9370    -3.2180     0.1090 C.ar  1 <1>  -0.1440 
 19 C        0.1580    -2.5970    -0.4700 C.ar  1 <1>  -0.1500 
 20 C       -0.9370    -4.6000     0.2380 C.ar  1 <1>  -0.1500 
 21 C        1.2290    -3.3430    -0.9300 C.ar  1 <1>  -0.1500 
 22 C        0.1330    -5.3490    -0.2200 C.ar  1 <1>  -0.1500 
 23 C        1.2160    -4.7210    -0.8070 C.ar  1 <1>  -0.1500 
 24 H       -3.4640    -0.8260    -2.2030 H     1 <1>   0.0800 
 25 H       -1.8130    -1.0880    -1.7720 H     1 <1>   0.0800 
 26 H       -3.9940     1.6330     0.6420 H     1 <1>   0.0800 
 27 H       -4.8510     0.9230    -0.7040 H     1 <1>   0.0800 
 28 H       -3.7340     3.3610    -1.2210 H     1 <1>   0.1500 
 29 H        0.0450     3.0320     0.7300 H     1 <1>   0.1500 
 30 H       -5.5090    -0.1820     1.3480 H     1 <1>   0.0800 
 31 H       -3.8430    -0.4720     1.7820 H     1 <1>   0.0800 
 32 H       -3.0760     5.6550    -0.3450 H     1 <1>   0.2700 
 33 H       -0.8360     5.5700     0.8420 H     1 <1>   0.1500 
 34 H       -5.3180    -1.6060    -0.6080 H     1 <1>   0.0800 
 35 H       -4.4030    -3.1750    -1.9630 H     1 <1>   0.0800 
 36 H       -3.6380    -4.2180    -0.7930 H     1 <1>   0.0800 
 37 H       -1.7670    -1.4810     1.0130 H     1 <1>   0.0800 
 38 H       -2.5660    -2.9510     1.4110 H     1 <1>   0.0800 
 39 H       -4.5220    -2.7190     1.8400 H     1 <1>   0.4000 
 40 H       -1.6340    -3.6850    -1.8000 H     1 <1>   0.4000 
 41 H        0.1890    -1.5260    -0.5690 H     1 <1>   0.1500 
 42 H       -1.7730    -5.1030     0.6920 H     1 <1>   0.1500 
 43 H        2.0700    -2.8470    -1.3820 H     1 <1>   0.1500 
 44 H        0.1220    -6.4200    -0.1200 H     1 <1>   0.1500 
 45 H        2.0480    -5.3010    -1.1660 H     1 <1>   0.1500 
@<TRIPOS>BOND
  1   1   2  2   
  2   2   3  am  
  3   2   4  1   
  4   3   5  1   
  5   3   6  1   
  6   4   7  2   
  7   4   8  1   
  8   5   9  1   
  9   5  24  1   
 10   5  25  1   
 11   6  10  1   
 12   6  26  1   
 13   6  27  1   
 14   7  11  1   
 15   7  28  1   
 16   8  12  2   
 17   8  29  1   
 18   9  13  1   
 19   9  14  1   
 20   9  15  1   
 21  10  13  1   
 22  10  30  1   
 23  10  31  1   
 24  11  12  1   
 25  11  32  1   
 26  12  33  1   
 27  13  16  1   
 28  13  34  1   
 29  14  17  1   
 30  14  35  1   
 31  14  36  1   
 32  15  18  1   
 33  15  37  1   
 34  15  38  1   
 35  16  39  1   
 36  17  40  1   
 37  18  19  ar  
 38  18  20  ar  
 39  19  21  ar  
 40  19  41  1   
 41  20  22  ar  
 42  20  42  1   
 43  21  23  ar  
 44  21  43  1   
 45  22  23  ar  
 46  22  44  1   
 47  23  45  1   
@<TRIPOS>SUBSTRUCTURE
  1 ****   5 GROUP 4 **** **** 0

# MOE 2024.06 (io_trps.svl 2023.06)
