@<TRIPOS>MOLECULE
NONAME
54 56 1 0 0 
SMALL
USER_CHARGES


@<TRIPOS>ATOM
  1 S        0.3020     0.2090     0.0260 S.o2  1 <1>   1.3330 
  2 O        0.0950     1.6060     0.3230 O.2   1 <1>  -0.6500 
  3 O        0.9940    -0.1970    -1.1730 O.2   1 <1>  -0.6500 
  4 N       -1.2620    -0.5470     0.0480 N.am  1 <1>  -0.6930 
  5 C        1.0820    -0.5410     1.4390 C.3   1 <1>  -0.1350 
  6 C       -1.4470    -1.9160    -0.0940 C.ar  1 <1>   0.1990 
  7 C       -2.4350     0.3440     0.2200 C.3   1 <1>   0.1160 
  8 C       -2.1600    -2.6300     0.8630 C.ar  1 <1>  -0.1500 
  9 C       -0.9350    -2.6190    -1.1790 C.ar  1 <1>  -0.1500 
 10 C       -2.3490    -3.9930     0.7420 C.ar  1 <1>  -0.1500 
 11 C       -1.1240    -3.9820    -1.2970 C.ar  1 <1>  -0.1500 
 12 C       -1.8390    -4.7100    -0.3440 C.ar  1 <1>   0.0860 
 13 C       -2.0410    -6.1410    -0.4820 C.2   1 <1>   0.5440 
 14 O       -1.2900    -6.8100    -1.1690 O.2   1 <1>  -0.5700 
 15 N       -3.0680    -6.7910     0.1640 N.am  1 <1>  -0.6600 
 16 C       -4.4350    -6.8350    -0.4280 C.3   1 <1>   0.2200 
 17 C       -2.7190    -8.0150     0.9380 C.3   1 <1>   0.0600 
 18 C       -5.5150    -6.7460     0.6470 C.3   1 <1>  -0.1600 
 19 C       -4.7780    -5.6740    -1.3620 C.3   1 <1>  -0.1600 
 20 C       -6.7880    -6.3350    -0.1060 C.3   1 <1>  -0.0800 
 21 C       -6.3100    -5.6600    -1.4110 C.3   1 <1>  -0.0800 
 22 C       -7.7430    -5.4860     0.7530 C.3   1 <1>   0.1400 
 23 C       -6.8980    -4.2540    -1.6380 C.3   1 <1>  -0.0990 
 24 N       -8.7520    -4.8260    -0.1130 N.am  1 <1>  -0.6600 
 25 C       -8.3700    -4.2220    -1.2800 C.2   1 <1>   0.5690 
 26 C      -10.1590    -4.8300     0.3670 C.3   1 <1>   0.0600 
 27 O       -9.1430    -3.6660    -2.0230 O.2   1 <1>  -0.5700 
 28 H        0.5120    -0.3420     2.3240 H     1 <1>   0.0800 
 29 H        2.0690    -0.1430     1.5650 H     1 <1>   0.0800 
 30 H        1.1540    -1.6020     1.3010 H     1 <1>   0.0800 
 31 H       -3.3510    -0.2110     0.1120 H     1 <1>   0.0800 
 32 H       -2.4110     1.1180    -0.5270 H     1 <1>   0.0800 
 33 H       -2.4070     0.8000     1.1940 H     1 <1>   0.0800 
 34 H       -2.5620    -2.1090     1.7120 H     1 <1>   0.1500 
 35 H       -0.3890    -2.0930    -1.9420 H     1 <1>   0.1500 
 36 H       -2.9010    -4.5210     1.5010 H     1 <1>   0.1500 
 37 H       -0.7130    -4.5040    -2.1450 H     1 <1>   0.1500 
 38 H       -4.5530    -7.7570    -0.9730 H     1 <1>   0.0800 
 39 H       -3.2930    -8.0570     1.8460 H     1 <1>   0.0800 
 40 H       -1.6720    -8.0050     1.1920 H     1 <1>   0.0800 
 41 H       -2.9160    -8.8920     0.3460 H     1 <1>   0.0800 
 42 H       -5.6480    -7.6840     1.1560 H     1 <1>   0.0800 
 43 H       -5.2400    -5.9840     1.3550 H     1 <1>   0.0800 
 44 H       -4.4360    -4.7490    -0.9380 H     1 <1>   0.0800 
 45 H       -4.3490    -5.8090    -2.3390 H     1 <1>   0.0800 
 46 H       -7.3160    -7.2330    -0.3810 H     1 <1>   0.0800 
 47 H       -6.6290    -6.2850    -2.2290 H     1 <1>   0.0800 
 48 H       -7.1950    -4.7210     1.2760 H     1 <1>   0.0800 
 49 H       -8.2300    -6.1120     1.4810 H     1 <1>   0.0800 
 50 H       -6.7700    -3.9620    -2.6640 H     1 <1>   0.0800 
 51 H       -6.4010    -3.5300    -1.0190 H     1 <1>   0.0800 
 52 H      -10.2190    -4.3480     1.3260 H     1 <1>   0.0800 
 53 H      -10.5120    -5.8430     0.4520 H     1 <1>   0.0800 
 54 H      -10.7950    -4.3020    -0.3240 H     1 <1>   0.0800 
@<TRIPOS>BOND
  1   1   2  2   
  2   1   3  2   
  3   1   4  am  
  4   1   5  1   
  5   4   6  1   
  6   4   7  1   
  7   5  28  1   
  8   5  29  1   
  9   5  30  1   
 10   6   8  ar  
 11   6   9  ar  
 12   7  31  1   
 13   7  32  1   
 14   7  33  1   
 15   8  10  ar  
 16   8  34  1   
 17   9  11  ar  
 18   9  35  1   
 19  10  12  ar  
 20  10  36  1   
 21  11  12  ar  
 22  11  37  1   
 23  12  13  1   
 24  13  14  2   
 25  13  15  am  
 26  15  16  1   
 27  15  17  1   
 28  16  18  1   
 29  16  19  1   
 30  16  38  1   
 31  17  39  1   
 32  17  40  1   
 33  17  41  1   
 34  18  20  1   
 35  18  42  1   
 36  18  43  1   
 37  19  21  1   
 38  19  44  1   
 39  19  45  1   
 40  20  21  1   
 41  20  22  1   
 42  20  46  1   
 43  21  23  1   
 44  21  47  1   
 45  22  24  1   
 46  22  48  1   
 47  22  49  1   
 48  23  25  1   
 49  23  50  1   
 50  23  51  1   
 51  24  25  am  
 52  24  26  1   
 53  25  27  2   
 54  26  52  1   
 55  26  53  1   
 56  26  54  1   
@<TRIPOS>SUBSTRUCTURE
  1 ****  10 GROUP 4 **** **** 0

# MOE 2024.06 (io_trps.svl 2023.06)
