@<TRIPOS>MOLECULE
NONAME
48 50 1 0 0 
SMALL
USER_CHARGES


@<TRIPOS>ATOM
  1 S        0.1500    -0.2630    -0.3740 S.3   1 <1>  -0.0800 
  2 C        0.2880     1.1690     0.6150 C.2   1 <1>   0.4420 
  3 C       -1.4880    -0.5040     0.1770 C.2   1 <1>  -0.0130 
  4 N        1.4290     1.9310     0.6580 N.am  1 <1>  -0.4940 
  5 N       -0.7700     1.4300     1.2750 N.2   1 <1>  -0.5650 
  6 C       -2.1930    -1.6310    -0.3720 C.ar  1 <1>   0.0530 
  7 C       -1.7920     0.4960     1.0610 C.2   1 <1>   0.1410 
  8 C        2.6520     1.7770     0.0600 C.2   1 <1>   0.5690 
  9 C       -3.4730    -1.5020    -0.9110 C.ar  1 <1>  -0.1500 
 10 C       -1.6070    -2.8970    -0.4020 C.ar  1 <1>  -0.1500 
 11 C       -3.0510     0.6360     1.7770 C.2   1 <1>   0.8060 
 12 O        2.9410     0.8220    -0.6180 O.2   1 <1>  -0.5700 
 13 C        3.7050     2.8530     0.2800 C.3   1 <1>   0.2370 
 14 C       -4.1400    -2.5860    -1.4500 C.ar  1 <1>  -0.1500 
 15 C       -2.2680    -3.9850    -0.9410 C.ar  1 <1>  -0.1500 
 16 O       -3.9480    -0.1830     1.7450 O.2   1 <1>  -0.5700 
 17 O       -3.2370     1.7360     2.5220 O.3   1 <1>  -0.4300 
 18 N        4.6090     2.3460     1.3250 N.pl3 1 <1>   0.3140 
 19 C        4.4650     3.2800    -1.0080 C.3   1 <1>  -0.0800 
 20 C       -3.5380    -3.8320    -1.4680 C.ar  1 <1>  -0.1500 
 21 C       -4.4220     1.9550     3.2630 C.3   1 <1>   0.0400 
 22 N        4.7040     2.9060     2.5110 N.2   1 <1>  -0.4180 
 23 C        5.4230     1.3070     1.3100 C.2   1 <1>   0.0360 
 24 C        5.5540     4.3370    -0.6980 C.3   1 <1>  -0.1600 
 25 C        3.4750     3.8130    -2.0650 C.3   1 <1>  -0.2400 
 26 N        5.5630     2.2130     3.1700 N.2   1 <1>   0.0000 
 27 N        6.0230     1.2070     2.4330 N.2   1 <1>  -0.3380 
 28 C        6.4170     4.7080    -1.9120 C.3   1 <1>  -0.2400 
 29 H        1.3160     2.7210     1.2900 H     1 <1>   0.3700 
 30 H       -3.9530    -0.5410    -0.9060 H     1 <1>   0.1500 
 31 H       -0.6210    -3.0320     0.0060 H     1 <1>   0.1500 
 32 H        3.2180     3.7240     0.6760 H     1 <1>   0.0800 
 33 H       -5.1290    -2.4610    -1.8560 H     1 <1>   0.1500 
 34 H       -1.7960    -4.9520    -0.9520 H     1 <1>   0.1500 
 35 H        4.9440     2.4080    -1.4220 H     1 <1>   0.0800 
 36 H       -4.0560    -4.6770    -1.8870 H     1 <1>   0.1500 
 37 H       -4.3330     2.8950     3.7770 H     1 <1>   0.0800 
 38 H       -4.5420     1.1550     3.9730 H     1 <1>   0.0800 
 39 H       -5.2580     1.9800     2.5860 H     1 <1>   0.0800 
 40 H        5.5450     0.6500     0.4680 H     1 <1>   0.1500 
 41 H        5.0980     5.2310    -0.3060 H     1 <1>   0.0800 
 42 H        6.2230     3.9630     0.0580 H     1 <1>   0.0800 
 43 H        3.0090     4.7230    -1.7310 H     1 <1>   0.0800 
 44 H        2.7080     3.0900    -2.2790 H     1 <1>   0.0800 
 45 H        3.9800     4.0110    -2.9940 H     1 <1>   0.0800 
 46 H        5.8470     5.2470    -2.6470 H     1 <1>   0.0800 
 47 H        6.8300     3.8250    -2.3680 H     1 <1>   0.0800 
 48 H        7.2310     5.3390    -1.6000 H     1 <1>   0.0800 
@<TRIPOS>BOND
  1   1   2  1   
  2   1   3  1   
  3   2   4  1   
  4   2   5  2   
  5   3   6  1   
  6   3   7  2   
  7   4   8  am  
  8   4  29  1   
  9   5   7  1   
 10   6   9  ar  
 11   6  10  ar  
 12   7  11  1   
 13   8  12  2   
 14   8  13  1   
 15   9  14  ar  
 16   9  30  1   
 17  10  15  ar  
 18  10  31  1   
 19  11  16  2   
 20  11  17  1   
 21  13  18  1   
 22  13  19  1   
 23  13  32  1   
 24  14  20  ar  
 25  14  33  1   
 26  15  20  ar  
 27  15  34  1   
 28  17  21  1   
 29  18  22  1   
 30  18  23  1   
 31  19  24  1   
 32  19  25  1   
 33  19  35  1   
 34  20  36  1   
 35  21  37  1   
 36  21  38  1   
 37  21  39  1   
 38  22  26  2   
 39  23  27  2   
 40  23  40  1   
 41  24  28  1   
 42  24  41  1   
 43  24  42  1   
 44  25  43  1   
 45  25  44  1   
 46  25  45  1   
 47  26  27  1   
 48  28  46  1   
 49  28  47  1   
 50  28  48  1   
@<TRIPOS>SUBSTRUCTURE
  1 ****   2 GROUP 4 **** **** 0

# MOE 2024.06 (io_trps.svl 2023.06)
