@<TRIPOS>MOLECULE
NONAME
51 54 1 0 0 
SMALL
USER_CHARGES


@<TRIPOS>ATOM
  1 O       -0.6590     0.0550    -0.7710 O.2   1 <1>  -0.5700 
  2 C       -1.4630     0.7080    -0.1370 C.2   1 <1>   0.5440 
  3 N       -2.5240     0.0630     0.4570 N.am  1 <1>  -0.6600 
  4 C       -1.2940     2.1370    -0.0470 C.ar  1 <1>   0.0860 
  5 C       -2.5440    -1.4260     0.6190 C.3   1 <1>   0.1400 
  6 C       -3.8860     0.6720     0.5900 C.3   1 <1>   0.1400 
  7 C       -0.8690     2.8930    -1.1200 C.ar  1 <1>   0.1600 
  8 C       -1.5420     2.8470     1.1120 C.ar  1 <1>   0.1600 
  9 C       -3.6340    -2.0620    -0.2590 C.3   1 <1>   0.3440 
 10 C       -4.9170    -0.0780    -0.2850 C.3   1 <1>   0.2000 
 11 N       -0.7400     4.2020    -1.0730 N.ar  1 <1>  -0.6200 
 12 N       -1.4270     4.1540     1.1960 N.ar  1 <1>  -0.6200 
 13 O       -4.8690    -1.4490     0.0030 O.3   1 <1>  -0.5600 
 14 C       -3.7340    -3.5610     0.0120 C.ar  1 <1>  -0.1430 
 15 C       -6.3690     0.4100    -0.0680 C.3   1 <1>  -0.0800 
 16 C       -1.0330     4.7660     0.0890 C.ar  1 <1>   0.5880 
 17 C       -4.5750    -4.0670     0.9940 C.ar  1 <1>  -0.1500 
 18 C       -2.9560    -4.4410    -0.7270 C.ar  1 <1>  -0.1500 
 19 C       -7.3630    -0.3840    -0.9320 C.3   1 <1>  -0.2400 
 20 C       -6.5350     1.9080    -0.3780 C.3   1 <1>  -0.2400 
 21 C       -0.8920     6.2800     0.1630 C.3   1 <1>  -0.0680 
 22 C       -4.6370    -5.4290     1.2330 C.ar  1 <1>  -0.1500 
 23 C       -3.0170    -5.8030    -0.4900 C.ar  1 <1>  -0.1500 
 24 C       -2.0180     7.1470     0.6510 C.3   1 <1>  -0.2000 
 25 C       -1.6300     7.1750    -0.7930 C.3   1 <1>  -0.2000 
 26 C       -3.8570    -6.2990     0.4910 C.ar  1 <1>  -0.1500 
 27 H       -1.5900    -1.8520     0.3620 H     1 <1>   0.0800 
 28 H       -2.7400    -1.6690     1.6480 H     1 <1>   0.0800 
 29 H       -4.1960     0.6280     1.6200 H     1 <1>   0.0800 
 30 H       -3.8610     1.7040     0.2910 H     1 <1>   0.0800 
 31 H       -0.6310     2.3950    -2.0460 H     1 <1>   0.1500 
 32 H       -1.8480     2.3130     1.9960 H     1 <1>   0.1500 
 33 H       -3.3980    -1.9060    -1.2980 H     1 <1>   0.0800 
 34 H       -4.6620     0.0500    -1.3230 H     1 <1>   0.0800 
 35 H       -6.6230     0.2530     0.9670 H     1 <1>   0.0800 
 36 H       -5.1880    -3.4000     1.5750 H     1 <1>   0.1500 
 37 H       -2.2970    -4.0700    -1.4930 H     1 <1>   0.1500 
 38 H       -7.1330    -0.2720    -1.9770 H     1 <1>   0.0800 
 39 H       -8.3690    -0.0410    -0.7620 H     1 <1>   0.0800 
 40 H       -7.3250    -1.4310    -0.6860 H     1 <1>   0.0800 
 41 H       -6.2250     2.1230    -1.3860 H     1 <1>   0.0800 
 42 H       -5.9620     2.5130     0.3000 H     1 <1>   0.0800 
 43 H       -7.5670     2.1950    -0.2740 H     1 <1>   0.0800 
 44 H        0.1070     6.5670     0.4360 H     1 <1>   0.1000 
 45 H       -5.2940    -5.8110     1.9950 H     1 <1>   0.1500 
 46 H       -2.4100    -6.4770    -1.0680 H     1 <1>   0.1500 
 47 H       -2.9430     6.6740     0.9330 H     1 <1>   0.1000 
 48 H       -1.7800     7.9910     1.2750 H     1 <1>   0.1000 
 49 H       -1.1180     8.0370    -1.1830 H     1 <1>   0.1000 
 50 H       -2.2820     6.7190    -1.5180 H     1 <1>   0.1000 
 51 H       -3.9050    -7.3570     0.6760 H     1 <1>   0.1500 
@<TRIPOS>BOND
  1   1   2  2   
  2   2   3  am  
  3   2   4  1   
  4   3   5  1   
  5   3   6  1   
  6   4   7  ar  
  7   4   8  ar  
  8   5   9  1   
  9   5  27  1   
 10   5  28  1   
 11   6  10  1   
 12   6  29  1   
 13   6  30  1   
 14   7  11  ar  
 15   7  31  1   
 16   8  12  ar  
 17   8  32  1   
 18   9  13  1   
 19   9  14  1   
 20   9  33  1   
 21  10  13  1   
 22  10  15  1   
 23  10  34  1   
 24  11  16  ar  
 25  12  16  ar  
 26  14  17  ar  
 27  14  18  ar  
 28  15  19  1   
 29  15  20  1   
 30  15  35  1   
 31  16  21  1   
 32  17  22  ar  
 33  17  36  1   
 34  18  23  ar  
 35  18  37  1   
 36  19  38  1   
 37  19  39  1   
 38  19  40  1   
 39  20  41  1   
 40  20  42  1   
 41  20  43  1   
 42  21  24  1   
 43  21  25  1   
 44  21  44  1   
 45  22  26  ar  
 46  22  45  1   
 47  23  26  ar  
 48  23  46  1   
 49  24  25  1   
 50  24  47  1   
 51  24  48  1   
 52  25  49  1   
 53  25  50  1   
 54  26  51  1   
@<TRIPOS>SUBSTRUCTURE
  1 ****   3 GROUP 4 **** **** 0

# MOE 2024.06 (io_trps.svl 2023.06)
