@<TRIPOS>MOLECULE
NONAME
46 48 1 0 0 
SMALL
USER_CHARGES


@<TRIPOS>ATOM
  1 O       -0.0580     0.6610     0.8280 O.2   1 <1>  -0.5700 
  2 C       -0.1100     1.8480     0.5670 C.2   1 <1>   0.5440 
  3 N       -1.3410     2.4710     0.5610 N.am  1 <1>  -0.6600 
  4 C        1.1150     2.5550     0.2610 C.ar  1 <1>   0.0860 
  5 C       -2.5380     1.7570     1.0990 C.3   1 <1>   0.1400 
  6 C       -1.5890     3.7700    -0.1370 C.3   1 <1>   0.1400 
  7 C        2.0390     2.0020    -0.6220 C.ar  1 <1>   0.1600 
  8 C        1.4380     3.7850     0.8190 C.ar  1 <1>  -0.1500 
  9 C       -3.6250     2.7630     1.4870 C.3   1 <1>  -0.1600 
 10 C       -2.9780     3.7530    -0.7720 C.3   1 <1>  -0.1600 
 11 N        3.1820     2.5570    -0.9980 N.ar  1 <1>  -0.6200 
 12 C        2.6250     4.3760     0.4450 C.ar  1 <1>  -0.1500 
 13 C       -4.0890     3.6320     0.2890 C.3   1 <1>   0.2800 
 14 C        3.4550     3.7320    -0.4590 C.ar  1 <1>   0.1670 
 15 O       -4.2950     4.9390     0.7590 O.3   1 <1>  -0.5600 
 16 C       -5.3890     3.1050    -0.3790 C.3   1 <1>  -0.1600 
 17 C        4.7630     4.3650    -0.8840 C.3   1 <1>  -0.0970 
 18 C       -5.3030     5.1570     1.7140 C.3   1 <1>   0.1200 
 19 C       -6.6240     3.9690    -0.1060 C.3   1 <1>   0.2800 
 20 C       -6.6110     4.4370     1.3470 C.3   1 <1>  -0.1600 
 21 O       -6.5270     5.0840    -0.8950 O.3   1 <1>  -0.6800 
 22 C       -7.9250     3.2680    -0.4860 C.3   1 <1>  -0.2400 
 23 H       -2.2520     1.1820     1.9640 H     1 <1>   0.0800 
 24 H       -2.9080     1.0760     0.3520 H     1 <1>   0.0800 
 25 H       -0.8500     3.9270    -0.9030 H     1 <1>   0.0800 
 26 H       -1.5270     4.5770     0.5740 H     1 <1>   0.0800 
 27 H        1.8090     1.0370    -1.0410 H     1 <1>   0.1500 
 28 H        0.7770     4.2560     1.5250 H     1 <1>   0.1500 
 29 H       -3.2030     3.3890     2.2530 H     1 <1>   0.0800 
 30 H       -4.4540     2.2350     1.9200 H     1 <1>   0.0800 
 31 H       -3.0100     2.9180    -1.4490 H     1 <1>   0.0800 
 32 H       -3.1310     4.6440    -1.3550 H     1 <1>   0.0800 
 33 H        2.9060     5.3290     0.8560 H     1 <1>   0.1500 
 34 H       -5.5780     2.1070    -0.0290 H     1 <1>   0.0800 
 35 H       -5.2710     3.0160    -1.4440 H     1 <1>   0.0800 
 36 H        4.7630     4.5070    -1.9490 H     1 <1>   0.0800 
 37 H        5.5770     3.7130    -0.6230 H     1 <1>   0.0800 
 38 H        4.9100     5.3150    -0.4050 H     1 <1>   0.0800 
 39 H       -5.4710     6.2200     1.7490 H     1 <1>   0.0800 
 40 H       -4.9470     4.8420     2.6790 H     1 <1>   0.0800 
 41 H       -7.4500     5.0830     1.5390 H     1 <1>   0.0800 
 42 H       -6.7220     3.5830     1.9900 H     1 <1>   0.0800 
 43 H       -5.6830     5.5220    -0.6530 H     1 <1>   0.4000 
 44 H       -8.0630     2.3860     0.1120 H     1 <1>   0.0800 
 45 H       -7.9010     2.9780    -1.5210 H     1 <1>   0.0800 
 46 H       -8.7610     3.9240    -0.3250 H     1 <1>   0.0800 
@<TRIPOS>BOND
  1   1   2  2   
  2   2   3  am  
  3   2   4  1   
  4   3   5  1   
  5   3   6  1   
  6   4   7  ar  
  7   4   8  ar  
  8   5   9  1   
  9   5  23  1   
 10   5  24  1   
 11   6  10  1   
 12   6  25  1   
 13   6  26  1   
 14   7  11  ar  
 15   7  27  1   
 16   8  12  ar  
 17   8  28  1   
 18   9  13  1   
 19   9  29  1   
 20   9  30  1   
 21  10  13  1   
 22  10  31  1   
 23  10  32  1   
 24  11  14  ar  
 25  12  14  ar  
 26  12  33  1   
 27  13  15  1   
 28  13  16  1   
 29  14  17  1   
 30  15  18  1   
 31  16  19  1   
 32  16  34  1   
 33  16  35  1   
 34  17  36  1   
 35  17  37  1   
 36  17  38  1   
 37  18  20  1   
 38  18  39  1   
 39  18  40  1   
 40  19  20  1   
 41  19  21  1   
 42  19  22  1   
 43  20  41  1   
 44  20  42  1   
 45  21  43  1   
 46  22  44  1   
 47  22  45  1   
 48  22  46  1   
@<TRIPOS>SUBSTRUCTURE
  1 ****   6 GROUP 4 **** **** 0

# MOE 2024.06 (io_trps.svl 2023.06)
