@<TRIPOS>MOLECULE
NONAME
44 46 1 0 0 
SMALL
USER_CHARGES


@<TRIPOS>ATOM
  1 F       -5.1300    -4.9920    -4.0060 F     1 <1>  -0.1900 
  2 C       -4.0970    -4.6240    -3.2980 C.ar  1 <1>   0.1900 
  3 C       -3.2570    -5.5930    -2.7840 C.ar  1 <1>  -0.1500 
  4 C       -3.8880    -3.2750    -3.0830 C.ar  1 <1>  -0.1500 
  5 C       -2.1690    -5.2000    -2.0160 C.ar  1 <1>  -0.1440 
  6 C       -2.7950    -2.8860    -2.3280 C.ar  1 <1>  -0.1500 
  7 C       -1.9420    -3.8440    -1.7990 C.ar  1 <1>  -0.1500 
  8 C       -1.2410    -6.2430    -1.4090 C.3   1 <1>   0.4870 
  9 N       -1.9260    -6.9660    -0.2980 N.4   1 <1>  -0.9590 
 10 C       -2.6720    -6.0940     0.6560 C.3   1 <1>   0.3430 
 11 C       -1.0180    -7.9280     0.3610 C.3   1 <1>   0.3430 
 12 C       -4.0540    -6.6720     1.0170 C.3   1 <1>   0.1100 
 13 C       -1.7450    -9.0150     1.1670 C.3   1 <1>  -0.1600 
 14 N       -4.0550    -8.0420     1.5780 N.3   1 <1>  -0.8100 
 15 C       -2.8190    -8.5750     2.1790 C.3   1 <1>   0.1100 
 16 C       -4.9990    -9.0140     0.9310 C.3   1 <1>   0.2900 
 17 C       -4.5700    -9.4880    -0.4590 C.2   1 <1>   0.2980 
 18 O       -4.8970   -10.6860    -0.8810 O.3   1 <1>  -0.2800 
 19 N       -3.8310    -8.8340    -1.2720 N.2   1 <1>  -0.5650 
 20 C       -4.2720   -10.8340    -2.0190 C.2   1 <1>  -0.0100 
 21 C       -3.5590    -9.7190    -2.2780 C.2   1 <1>  -0.0060 
 22 C       -2.5910    -9.4850    -3.3420 C.2   1 <1>   1.0330 
 23 O       -2.5530   -10.2100    -4.3480 O.co2 1 <1>  -0.9000 
 24 O       -1.7390    -8.5780    -3.2100 O.co2 1 <1>  -0.9000 
 25 H       -3.4530    -6.6320    -2.9910 H     1 <1>   0.1500 
 26 H       -4.5650    -2.5530    -3.5030 H     1 <1>   0.1500 
 27 H       -2.6090    -1.8400    -2.1550 H     1 <1>   0.1500 
 28 H       -1.0960    -3.5200    -1.2180 H     1 <1>   0.1500 
 29 H       -0.3610    -5.7520    -1.0320 H     1 <1>   0.0800 
 30 H       -0.9260    -6.9340    -2.1710 H     1 <1>   0.0800 
 31 H       -2.6320    -7.5580    -0.7860 H     1 <1>   0.4500 
 32 H       -2.8330    -5.1220     0.2240 H     1 <1>   0.0800 
 33 H       -2.0970    -5.9560     1.5550 H     1 <1>   0.0800 
 34 H       -0.3470    -7.3920     1.0120 H     1 <1>   0.0800 
 35 H       -0.4240    -8.4190    -0.3950 H     1 <1>   0.0800 
 36 H       -4.6730    -6.6370     0.1370 H     1 <1>   0.0800 
 37 H       -4.5070    -6.0180     1.7410 H     1 <1>   0.0800 
 38 H       -0.9850    -9.5290     1.7260 H     1 <1>   0.0800 
 39 H       -2.1410    -9.7550     0.4990 H     1 <1>   0.0800 
 40 H       -2.4060    -7.8400     2.8490 H     1 <1>   0.0800 
 41 H       -3.0840    -9.4280     2.7810 H     1 <1>   0.0800 
 42 H       -5.9720    -8.5640     0.8500 H     1 <1>   0.0800 
 43 H       -5.0940    -9.8770     1.5650 H     1 <1>   0.0800 
 44 H       -4.3460   -11.7520    -2.5750 H     1 <1>   0.1500 
@<TRIPOS>BOND
  1   1   2  1   
  2   2   3  ar  
  3   2   4  ar  
  4   3   5  ar  
  5   3  25  1   
  6   4   6  ar  
  7   4  26  1   
  8   5   7  ar  
  9   5   8  1   
 10   6   7  ar  
 11   6  27  1   
 12   7  28  1   
 13   8   9  1   
 14   8  29  1   
 15   8  30  1   
 16   9  10  1   
 17   9  11  1   
 18   9  31  1   
 19  10  12  1   
 20  10  32  1   
 21  10  33  1   
 22  11  13  1   
 23  11  34  1   
 24  11  35  1   
 25  12  14  1   
 26  12  36  1   
 27  12  37  1   
 28  13  15  1   
 29  13  38  1   
 30  13  39  1   
 31  14  15  1   
 32  14  16  1   
 33  15  40  1   
 34  15  41  1   
 35  16  17  1   
 36  16  42  1   
 37  16  43  1   
 38  17  18  1   
 39  17  19  2   
 40  18  20  1   
 41  19  21  1   
 42  20  21  2   
 43  20  44  1   
 44  21  22  1   
 45  22  23  ar  
 46  22  24  ar  
@<TRIPOS>SUBSTRUCTURE
  1 ****  19 GROUP 4 **** **** 0

# MOE 2024.06 (io_trps.svl 2023.06)
