@<TRIPOS>MOLECULE
NONAME
57 60 1 0 0 
SMALL
USER_CHARGES


@<TRIPOS>ATOM
  1 O        0.3640    -0.3780     0.3410 O.3   1 <1>  -0.5600 
  2 C        0.8890    -1.6330     0.6890 C.3   1 <1>   0.1200 
  3 C        1.0860     0.3250    -0.6320 C.3   1 <1>   0.1200 
  4 C        2.3460    -1.5070     1.2010 C.3   1 <1>   0.5180 
  5 C        2.5510     0.5290    -0.1860 C.3   1 <1>   0.4230 
  6 N        3.1890    -0.7850     0.2020 N.4   1 <1>  -0.9590 
  7 C        3.0170    -2.8460     1.5660 C.3   1 <1>  -0.1950 
  8 C        3.3860     1.2650    -1.2650 C.3   1 <1>   0.1100 
  9 C        3.5980    -1.5750    -1.0130 C.3   1 <1>   0.3430 
 10 C        2.8170    -4.1380     0.8260 C.3   1 <1>  -0.2000 
 11 C        2.2780    -3.9760     2.2190 C.3   1 <1>  -0.2000 
 12 N        4.7060     0.6200    -1.4340 N.3   1 <1>  -0.8100 
 13 C        4.5850    -0.7730    -1.8970 C.3   1 <1>   0.1100 
 14 C        5.7290     1.4220    -2.1260 C.3   1 <1>   0.2530 
 15 C        5.9830     2.7090    -1.3500 C.ar  1 <1>  -0.1430 
 16 C        6.5510     2.6830    -0.0780 C.ar  1 <1>   0.0830 
 17 C        5.6280     3.9230    -1.9140 C.ar  1 <1>  -0.1500 
 18 O        6.9160     1.4680     0.4240 O.3   1 <1>  -0.3620 
 19 C        6.7200     3.8710     0.6450 C.ar  1 <1>   0.0830 
 20 C        5.8040     5.1020    -1.2160 C.ar  1 <1>  -0.1500 
 21 C        8.2530     1.2910     0.8400 C.3   1 <1>   0.0400 
 22 O        7.2210     3.7970     1.9160 O.3   1 <1>  -0.3630 
 23 C        6.3340     5.0910     0.0720 C.ar  1 <1>   0.0830 
 24 C        8.3170     4.6170     2.2650 C.3   1 <1>   0.0400 
 25 O        6.4650     6.2420     0.7950 O.3   1 <1>  -0.3630 
 26 C        5.9240     7.4700     0.3580 C.3   1 <1>   0.0400 
 27 H        0.2610    -2.0370     1.4630 H     1 <1>   0.0800 
 28 H        0.8300    -2.2780    -0.1690 H     1 <1>   0.0800 
 29 H        1.0320    -0.2190    -1.5590 H     1 <1>   0.0800 
 30 H        0.6050     1.2780    -0.7660 H     1 <1>   0.0800 
 31 H        2.3060    -0.9150     2.1010 H     1 <1>   0.0800 
 32 H        2.5290     1.1660     0.6820 H     1 <1>   0.0800 
 33 H        4.0830    -0.5000     0.6300 H     1 <1>   0.4500 
 34 H        3.9970    -2.6690     1.9760 H     1 <1>   0.1000 
 35 H        3.5040     2.2870    -0.9490 H     1 <1>   0.0800 
 36 H        2.8680     1.2780    -2.2090 H     1 <1>   0.0800 
 37 H        4.0740    -2.4950    -0.7170 H     1 <1>   0.0800 
 38 H        2.7270    -1.8290    -1.5930 H     1 <1>   0.0800 
 39 H        2.0970    -4.2310     0.0300 H     1 <1>   0.1000 
 40 H        3.6560    -4.8000     0.6880 H     1 <1>   0.1000 
 41 H        2.7590    -4.5190     3.0160 H     1 <1>   0.1000 
 42 H        1.2080    -3.9530     2.3430 H     1 <1>   0.1000 
 43 H        4.2590    -0.7990    -2.9230 H     1 <1>   0.0800 
 44 H        5.5530    -1.2450    -1.8490 H     1 <1>   0.0800 
 45 H        6.6500     0.8660    -2.1760 H     1 <1>   0.0800 
 46 H        5.4100     1.6390    -3.1310 H     1 <1>   0.0800 
 47 H        5.2050     3.9590    -2.9040 H     1 <1>   0.1500 
 48 H        5.5160     6.0180    -1.6930 H     1 <1>   0.1500 
 49 H        8.4940     0.2470     0.7610 H     1 <1>   0.0800 
 50 H        8.3450     1.6070     1.8630 H     1 <1>   0.0800 
 51 H        8.9010     1.8690     0.2050 H     1 <1>   0.0800 
 52 H        8.8650     4.1280     3.0490 H     1 <1>   0.0800 
 53 H        7.9470     5.5610     2.6190 H     1 <1>   0.0800 
 54 H        8.9460     4.7550     1.4030 H     1 <1>   0.0800 
 55 H        6.0870     8.1990     1.1310 H     1 <1>   0.0800 
 56 H        4.8690     7.3470     0.1890 H     1 <1>   0.0800 
 57 H        6.4290     7.7750    -0.5420 H     1 <1>   0.0800 
@<TRIPOS>BOND
  1   1   2  1   
  2   1   3  1   
  3   2   4  1   
  4   2  27  1   
  5   2  28  1   
  6   3   5  1   
  7   3  29  1   
  8   3  30  1   
  9   4   6  1   
 10   4   7  1   
 11   4  31  1   
 12   5   6  1   
 13   5   8  1   
 14   5  32  1   
 15   6   9  1   
 16   6  33  1   
 17   7  10  1   
 18   7  11  1   
 19   7  34  1   
 20   8  12  1   
 21   8  35  1   
 22   8  36  1   
 23   9  13  1   
 24   9  37  1   
 25   9  38  1   
 26  10  11  1   
 27  10  39  1   
 28  10  40  1   
 29  11  41  1   
 30  11  42  1   
 31  12  13  1   
 32  12  14  1   
 33  13  43  1   
 34  13  44  1   
 35  14  15  1   
 36  14  45  1   
 37  14  46  1   
 38  15  16  ar  
 39  15  17  ar  
 40  16  18  1   
 41  16  19  ar  
 42  17  20  ar  
 43  17  47  1   
 44  18  21  1   
 45  19  22  1   
 46  19  23  ar  
 47  20  23  ar  
 48  20  48  1   
 49  21  49  1   
 50  21  50  1   
 51  21  51  1   
 52  22  24  1   
 53  23  25  1   
 54  24  52  1   
 55  24  53  1   
 56  24  54  1   
 57  25  26  1   
 58  26  55  1   
 59  26  56  1   
 60  26  57  1   
@<TRIPOS>SUBSTRUCTURE
  1 ****  12 GROUP 4 **** **** 0

# MOE 2024.06 (io_trps.svl 2023.06)
