@<TRIPOS>MOLECULE
NONAME
47 49 1 0 0 
SMALL
USER_CHARGES


@<TRIPOS>ATOM
  1 O        2.5250    -0.3090    -2.2780 O.2   1 <1>  -0.5700 
  2 C        1.8590    -0.9650    -1.5100 C.2   1 <1>   0.5690 
  3 N        1.3450    -0.4860    -0.3500 N.am  1 <1>  -0.4930 
  4 C        1.5660    -2.4290    -1.8450 C.3   1 <1>   0.1710 
  5 C        1.3830     0.7790     0.2210 C.2   1 <1>   0.3520 
  6 N        0.3810    -2.9900    -1.1290 N.3   1 <1>  -0.8100 
  7 N        0.7010     1.0150     1.2950 N.2   1 <1>  -0.7070 
  8 C        2.0870     1.8970    -0.2160 C.2   1 <1>  -0.1500 
  9 C        0.4020    -4.4580    -1.1320 C.3   1 <1>   0.1100 
 10 C       -0.8800    -2.4640    -1.6840 C.3   1 <1>   0.1100 
 11 N        0.9520     2.3080     1.5800 N.pl3 1 <1>   0.3140 
 12 C        1.7880     2.8610     0.6800 C.2   1 <1>  -0.3020 
 13 C       -0.7350    -4.9960    -0.2610 C.3   1 <1>  -0.1600 
 14 C       -2.0530    -2.9310    -0.8220 C.3   1 <1>  -0.1600 
 15 C        0.3510     2.9610     2.7480 C.3   1 <1>   0.0160 
 16 C       -2.0860    -4.4560    -0.7410 C.3   1 <1>   0.2000 
 17 O       -3.0820    -4.8000     0.1680 O.3   1 <1>  -0.5600 
 18 C       -3.6120    -6.0900     0.0180 C.3   1 <1>   0.2630 
 19 C       -4.7190    -6.3860     1.0290 C.ar  1 <1>   0.1670 
 20 N       -5.3050    -7.5700     0.8920 N.ar  1 <1>  -0.6200 
 21 C       -5.0690    -5.4680     2.0130 C.ar  1 <1>  -0.1500 
 22 C       -6.2670    -7.8440     1.7590 C.ar  1 <1>   0.1600 
 23 C       -6.0720    -5.7680     2.9090 C.ar  1 <1>  -0.1500 
 24 C       -6.6830    -6.9950     2.7690 C.ar  1 <1>  -0.1500 
 25 H        0.7590    -1.1490     0.1620 H     1 <1>   0.3700 
 26 H        2.4430    -2.9890    -1.5740 H     1 <1>   0.0800 
 27 H        1.4320    -2.5230    -2.9080 H     1 <1>   0.0800 
 28 H        2.7200     1.9410    -1.0840 H     1 <1>   0.1500 
 29 H        1.3400    -4.8060    -0.7320 H     1 <1>   0.0800 
 30 H        0.3030    -4.8250    -2.1400 H     1 <1>   0.0800 
 31 H       -1.0070    -2.8060    -2.6970 H     1 <1>   0.0800 
 32 H       -0.8630    -1.3870    -1.6910 H     1 <1>   0.0800 
 33 H        2.1160     3.8830     0.7220 H     1 <1>   0.1500 
 34 H       -0.5650    -4.6900     0.7570 H     1 <1>   0.0800 
 35 H       -0.7250    -6.0690    -0.3040 H     1 <1>   0.0800 
 36 H       -2.9730    -2.5740    -1.2460 H     1 <1>   0.0800 
 37 H       -1.9460    -2.5150     0.1650 H     1 <1>   0.0800 
 38 H       -0.7170     2.8680     2.6860 H     1 <1>   0.0800 
 39 H        0.6280     3.9980     2.7650 H     1 <1>   0.0800 
 40 H        0.7040     2.4730     3.6370 H     1 <1>   0.0800 
 41 H       -2.3340    -4.8560    -1.7100 H     1 <1>   0.0800 
 42 H       -2.8240    -6.8080     0.1500 H     1 <1>   0.0800 
 43 H       -4.0150    -6.1800    -0.9750 H     1 <1>   0.0800 
 44 H       -4.5620    -4.5230     2.0810 H     1 <1>   0.1500 
 45 H       -6.7510    -8.8000     1.6590 H     1 <1>   0.1500 
 46 H       -6.3630    -5.0760     3.6800 H     1 <1>   0.1500 
 47 H       -7.4730    -7.2920     3.4340 H     1 <1>   0.1500 
@<TRIPOS>BOND
  1   1   2  2   
  2   2   3  am  
  3   2   4  1   
  4   3   5  1   
  5   3  25  1   
  6   4   6  1   
  7   4  26  1   
  8   4  27  1   
  9   5   7  2   
 10   5   8  1   
 11   6   9  1   
 12   6  10  1   
 13   7  11  1   
 14   8  12  2   
 15   8  28  1   
 16   9  13  1   
 17   9  29  1   
 18   9  30  1   
 19  10  14  1   
 20  10  31  1   
 21  10  32  1   
 22  11  12  1   
 23  11  15  1   
 24  12  33  1   
 25  13  16  1   
 26  13  34  1   
 27  13  35  1   
 28  14  16  1   
 29  14  36  1   
 30  14  37  1   
 31  15  38  1   
 32  15  39  1   
 33  15  40  1   
 34  16  17  1   
 35  16  41  1   
 36  17  18  1   
 37  18  19  1   
 38  18  42  1   
 39  18  43  1   
 40  19  20  ar  
 41  19  21  ar  
 42  20  22  ar  
 43  21  23  ar  
 44  21  44  1   
 45  22  24  ar  
 46  22  45  1   
 47  23  24  ar  
 48  23  46  1   
 49  24  47  1   
@<TRIPOS>SUBSTRUCTURE
  1 ****  14 GROUP 4 **** **** 0

# MOE 2024.06 (io_trps.svl 2023.06)
