@<TRIPOS>MOLECULE
NONAME
52 55 1 0 0 
SMALL
USER_CHARGES


@<TRIPOS>ATOM
  1 O       -0.4090    -0.8310    -0.0290 O.3   1 <1>  -0.6800 
  2 C        0.6860    -1.5000    -0.5500 C.3   1 <1>   0.1200 
  3 C        1.4710    -2.2280     0.5810 C.3   1 <1>   0.0000 
  4 C        2.7590    -2.8880     0.0150 C.3   1 <1>   0.4230 
  5 C        1.9050    -1.2080     1.6700 C.3   1 <1>  -0.1600 
  6 C        0.5890    -3.3200     1.2590 C.3   1 <1>  -0.1600 
  7 N        2.4930    -4.0170    -0.9810 N.4   1 <1>  -0.9590 
  8 C        3.7820    -1.8390    -0.4800 C.3   1 <1>   0.2090 
  9 C        2.8910    -0.1500     1.1630 C.3   1 <1>   0.2090 
 10 C        0.8460    -4.7460     0.7380 C.3   1 <1>  -0.1600 
 11 C        1.2080    -4.7520    -0.7440 C.3   1 <1>   0.3430 
 12 C        2.6030    -3.6400    -2.4290 C.3   1 <1>   0.2630 
 13 N        4.0800    -0.8250     0.5730 N.pl3 1 <1>  -0.8380 
 14 C        5.2550    -0.0930     0.4500 C.ar  1 <1>   0.4100 
 15 N        5.7980     0.0200    -0.7690 N.ar  1 <1>  -0.3100 
 16 C        5.8440     0.4960     1.5540 C.ar  1 <1>  -0.1500 
 17 N        6.9000     0.7030    -0.9500 N.ar  1 <1>  -0.3100 
 18 C        6.9970     1.2130     1.3630 C.ar  1 <1>  -0.1500 
 19 C        7.5090     1.3070     0.0790 C.ar  1 <1>   0.3100 
 20 C        8.7220     2.0540    -0.1780 C.ar  1 <1>   0.0000 
 21 C        8.9210     3.3280     0.3560 C.ar  1 <1>  -0.1500 
 22 C        9.7400     1.5230    -0.9690 C.ar  1 <1>  -0.1500 
 23 C       10.0860     4.0340     0.1210 C.ar  1 <1>  -0.1500 
 24 C       10.9080     2.2240    -1.2090 C.ar  1 <1>  -0.1500 
 25 C       11.0840     3.4820    -0.6620 C.ar  1 <1>  -0.1500 
 26 H       -0.8910    -0.3250    -0.7150 H     1 <1>   0.4000 
 27 H        0.3160    -2.1970    -1.2790 H     1 <1>   0.0800 
 28 H        1.2980    -0.7690    -1.0490 H     1 <1>   0.0800 
 29 H        3.2310    -3.3470     0.8680 H     1 <1>   0.0800 
 30 H        2.3790    -1.7210     2.4890 H     1 <1>   0.0800 
 31 H        1.0430    -0.7080     2.0760 H     1 <1>   0.0800 
 32 H        0.7520    -3.3330     2.3240 H     1 <1>   0.0800 
 33 H       -0.4530    -3.0820     1.1270 H     1 <1>   0.0800 
 34 H        3.2420    -4.7020    -0.7980 H     1 <1>   0.4500 
 35 H        3.4160    -1.3220    -1.3490 H     1 <1>   0.0800 
 36 H        4.6970    -2.3430    -0.7400 H     1 <1>   0.0800 
 37 H        3.1870     0.4810     1.9830 H     1 <1>   0.0800 
 38 H        2.4270     0.4780     0.4210 H     1 <1>   0.0800 
 39 H       -0.0400    -5.3390     0.8900 H     1 <1>   0.0800 
 40 H        1.6380    -5.2110     1.2990 H     1 <1>   0.0800 
 41 H        0.4080    -4.2790    -1.2910 H     1 <1>   0.0800 
 42 H        1.2950    -5.7680    -1.0950 H     1 <1>   0.0800 
 43 H        1.8690    -2.8920    -2.6810 H     1 <1>   0.0800 
 44 H        2.4400    -4.5040    -3.0540 H     1 <1>   0.0800 
 45 H        3.5840    -3.2480    -2.6470 H     1 <1>   0.0800 
 46 H        5.4110     0.3810     2.5290 H     1 <1>   0.1500 
 47 H        7.5000     1.6850     2.1870 H     1 <1>   0.1500 
 48 H        8.1510     3.7770     0.9590 H     1 <1>   0.1500 
 49 H        9.6110     0.5460    -1.4020 H     1 <1>   0.1500 
 50 H       10.2180     5.0150     0.5440 H     1 <1>   0.1500 
 51 H       11.6790     1.7910    -1.8230 H     1 <1>   0.1500 
 52 H       11.9920     4.0300    -0.8470 H     1 <1>   0.1500 
@<TRIPOS>BOND
  1   1   2  1   
  2   1  26  1   
  3   2   3  1   
  4   2  27  1   
  5   2  28  1   
  6   3   4  1   
  7   3   5  1   
  8   3   6  1   
  9   4   7  1   
 10   4   8  1   
 11   4  29  1   
 12   5   9  1   
 13   5  30  1   
 14   5  31  1   
 15   6  10  1   
 16   6  32  1   
 17   6  33  1   
 18   7  11  1   
 19   7  12  1   
 20   7  34  1   
 21   8  13  1   
 22   8  35  1   
 23   8  36  1   
 24   9  13  1   
 25   9  37  1   
 26   9  38  1   
 27  10  11  1   
 28  10  39  1   
 29  10  40  1   
 30  11  41  1   
 31  11  42  1   
 32  12  43  1   
 33  12  44  1   
 34  12  45  1   
 35  13  14  1   
 36  14  15  ar  
 37  14  16  ar  
 38  15  17  ar  
 39  16  18  ar  
 40  16  46  1   
 41  17  19  ar  
 42  18  19  ar  
 43  18  47  1   
 44  19  20  1   
 45  20  21  ar  
 46  20  22  ar  
 47  21  23  ar  
 48  21  48  1   
 49  22  24  ar  
 50  22  49  1   
 51  23  25  ar  
 52  23  50  1   
 53  24  25  ar  
 54  24  51  1   
 55  25  52  1   
@<TRIPOS>SUBSTRUCTURE
  1 ****  14 GROUP 4 **** **** 0

# MOE 2024.06 (io_trps.svl 2023.06)
