@<TRIPOS>MOLECULE
NONAME
48 49 1 0 0 
SMALL
USER_CHARGES


@<TRIPOS>ATOM
  1 O       -2.3180    -1.7530     1.6200 O.2   1 <1>  -0.5700 
  2 C       -2.6510    -0.9490     0.7650 C.2   1 <1>   0.7150 
  3 N       -2.5900     0.3990     1.0760 N.am  1 <1>  -0.6600 
  4 C       -3.1020    -1.4430    -0.5250 C.2   1 <1>   0.0550 
  5 C       -1.7970     0.8820     2.2430 C.3   1 <1>   0.0600 
  6 C       -3.4440     1.4420     0.4470 C.3   1 <1>   0.0600 
  7 O       -3.4340    -2.7250    -0.6520 O.3   1 <1>  -0.2800 
  8 C       -3.2660    -0.8540    -1.7450 C.2   1 <1>  -0.1500 
  9 C       -3.8070    -2.9680    -1.8870 C.2   1 <1>  -0.0400 
 10 C       -3.7310    -1.8380    -2.6220 C.2   1 <1>  -0.1500 
 11 C       -4.2310    -4.3850    -2.2250 C.3   1 <1>   0.5230 
 12 N       -5.0050    -4.9080    -1.0670 N.4   1 <1>  -0.9590 
 13 C       -5.0800    -6.4060    -1.0610 C.3   1 <1>   0.3430 
 14 C       -6.3420    -4.2630    -0.9520 C.3   1 <1>   0.3430 
 15 C       -5.7990    -6.9490     0.1860 C.3   1 <1>   0.2000 
 16 C       -7.0250    -4.7330     0.3340 C.3   1 <1>  -0.1600 
 17 O       -5.9990    -8.3050    -0.0360 O.3   1 <1>  -0.5600 
 18 C       -7.1590    -6.2640     0.3930 C.3   1 <1>  -0.1600 
 19 C       -6.2060    -9.0860     1.1000 C.3   1 <1>   0.1200 
 20 C       -6.3430   -10.5380     0.6470 C.3   1 <1>  -0.1600 
 21 C       -6.5730   -11.4750     1.8380 C.3   1 <1>  -0.2400 
 22 H       -1.0650     0.1480     2.5350 H     1 <1>   0.0800 
 23 H       -2.4530     1.0660     3.0770 H     1 <1>   0.0800 
 24 H       -1.2830     1.7920     1.9860 H     1 <1>   0.0800 
 25 H       -4.2850     0.9960    -0.0540 H     1 <1>   0.0800 
 26 H       -2.8630     2.0090    -0.2610 H     1 <1>   0.0800 
 27 H       -3.8220     2.1100     1.2020 H     1 <1>   0.0800 
 28 H       -3.0710     0.1680    -2.0170 H     1 <1>   0.1500 
 29 H       -3.9600    -1.6790    -3.6630 H     1 <1>   0.1500 
 30 H       -3.3450    -4.9820    -2.3680 H     1 <1>   0.0800 
 31 H       -4.8180    -4.4060    -3.1280 H     1 <1>   0.0800 
 32 H       -4.4580    -4.5950    -0.2480 H     1 <1>   0.4500 
 33 H       -4.0880    -6.8250    -1.0950 H     1 <1>   0.0800 
 34 H       -5.6230    -6.7390    -1.9300 H     1 <1>   0.0800 
 35 H       -6.9520    -4.5270    -1.8010 H     1 <1>   0.0800 
 36 H       -6.2340    -3.1900    -0.9290 H     1 <1>   0.0800 
 37 H       -5.1630    -6.8240     1.0470 H     1 <1>   0.0800 
 38 H       -8.0050    -4.2910     0.3890 H     1 <1>   0.0800 
 39 H       -6.4670    -4.3780     1.1830 H     1 <1>   0.0800 
 40 H       -7.5710    -6.5420     1.3480 H     1 <1>   0.0800 
 41 H       -7.8390    -6.5890    -0.3760 H     1 <1>   0.0800 
 42 H       -7.1070    -8.7640     1.5950 H     1 <1>   0.0800 
 43 H       -5.3630    -8.9780     1.7610 H     1 <1>   0.0800 
 44 H       -5.4470   -10.8360     0.1310 H     1 <1>   0.0800 
 45 H       -7.1740   -10.6200    -0.0320 H     1 <1>   0.0800 
 46 H       -5.7460   -11.4240     2.5240 H     1 <1>   0.0800 
 47 H       -6.6670   -12.4900     1.4920 H     1 <1>   0.0800 
 48 H       -7.4760   -11.2090     2.3590 H     1 <1>   0.0800 
@<TRIPOS>BOND
  1   1   2  2   
  2   2   3  am  
  3   2   4  1   
  4   3   5  1   
  5   3   6  1   
  6   4   7  1   
  7   4   8  2   
  8   5  22  1   
  9   5  23  1   
 10   5  24  1   
 11   6  25  1   
 12   6  26  1   
 13   6  27  1   
 14   7   9  1   
 15   8  10  1   
 16   8  28  1   
 17   9  10  2   
 18   9  11  1   
 19  10  29  1   
 20  11  12  1   
 21  11  30  1   
 22  11  31  1   
 23  12  13  1   
 24  12  14  1   
 25  12  32  1   
 26  13  15  1   
 27  13  33  1   
 28  13  34  1   
 29  14  16  1   
 30  14  35  1   
 31  14  36  1   
 32  15  17  1   
 33  15  18  1   
 34  15  37  1   
 35  16  18  1   
 36  16  38  1   
 37  16  39  1   
 38  17  19  1   
 39  18  40  1   
 40  18  41  1   
 41  19  20  1   
 42  19  42  1   
 43  19  43  1   
 44  20  21  1   
 45  20  44  1   
 46  20  45  1   
 47  21  46  1   
 48  21  47  1   
 49  21  48  1   
@<TRIPOS>SUBSTRUCTURE
  1 ****  12 GROUP 4 **** **** 0

# MOE 2024.06 (io_trps.svl 2023.06)
