@<TRIPOS>MOLECULE
NONAME
63 66 1 0 0 
SMALL
USER_CHARGES


@<TRIPOS>ATOM
  1 O        0.3080    -0.0840     2.1990 O.2   1 <1>  -0.5700 
  2 C        1.0390    -0.5760     1.3720 C.2   1 <1>   0.5690 
  3 N        1.8260     0.1330     0.5220 N.am  1 <1>  -0.4930 
  4 C        1.0760    -2.0920     1.2690 C.3   1 <1>  -0.0990 
  5 C        2.0660     1.5240     0.4000 C.2   1 <1>   0.0630 
  6 C       -0.3320    -2.7260     1.2930 C.3   1 <1>  -0.0800 
  7 C        3.2960     2.0130    -0.0520 C.2   1 <1>   0.3720 
  8 C        1.3150     2.6260     0.6250 C.2   1 <1>  -0.3320 
  9 C       -0.2510    -4.2590     1.2430 C.3   1 <1>  -0.1600 
 10 C       -1.2130    -2.2150     0.1390 C.3   1 <1>  -0.1600 
 11 N        3.3370     3.3070    -0.0870 N.2   1 <1>  -0.7070 
 12 N        4.3760     1.1870    -0.4230 N.pl3 1 <1>  -0.8210 
 13 N        2.1130     3.6880     0.3420 N.pl3 1 <1>   0.3140 
 14 C       -0.1290     2.7550     1.0870 C.3   1 <1>  -0.0600 
 15 C       -1.6440    -4.8930     1.2370 C.3   1 <1>   0.3430 
 16 C       -2.5910    -2.8740     0.1550 C.3   1 <1>   0.3430 
 17 C        4.9330     1.5470    -1.7590 C.3   1 <1>   0.2090 
 18 C        5.4810     1.2730     0.5710 C.3   1 <1>   0.2090 
 19 C        1.7710     5.1110     0.4570 C.3   1 <1>   0.0160 
 20 N       -2.4400    -4.3550     0.0940 N.4   1 <1>  -0.9590 
 21 C        6.3550     2.0350    -1.5180 C.3   1 <1>  -0.1600 
 22 C        6.7700     1.3380    -0.2340 C.3   1 <1>  -0.1600 
 23 C       -3.7600    -5.0320    -0.0190 C.3   1 <1>   0.4860 
 24 C       -3.5230    -6.4960    -0.3330 C.ar  1 <1>  -0.1440 
 25 C       -3.7130    -7.4610     0.6470 C.ar  1 <1>  -0.1500 
 26 C       -3.1080    -6.8820    -1.6000 C.ar  1 <1>  -0.1500 
 27 C       -3.4760    -8.7950     0.3660 C.ar  1 <1>  -0.1500 
 28 C       -2.8710    -8.2170    -1.8780 C.ar  1 <1>  -0.1500 
 29 C       -3.0530    -9.1720    -0.8950 C.ar  1 <1>  -0.1500 
 30 H        2.5520    -0.3800     0.0170 H     1 <1>   0.3700 
 31 H        1.6460    -2.4570     2.1030 H     1 <1>   0.0800 
 32 H        1.5880    -2.3780     0.3680 H     1 <1>   0.0800 
 33 H       -0.8000    -2.4460     2.2240 H     1 <1>   0.0800 
 34 H        0.2850    -4.6180     2.1050 H     1 <1>   0.0800 
 35 H        0.2890    -4.5810     0.3700 H     1 <1>   0.0800 
 36 H       -0.7370    -2.3980    -0.8090 H     1 <1>   0.0800 
 37 H       -1.3520    -1.1510     0.2300 H     1 <1>   0.0800 
 38 H       -0.6610     1.8390     0.9100 H     1 <1>   0.0800 
 39 H       -0.6330     3.5360     0.5490 H     1 <1>   0.0800 
 40 H       -0.1600     2.9720     2.1400 H     1 <1>   0.0800 
 41 H       -2.1430    -4.6710     2.1670 H     1 <1>   0.0800 
 42 H       -1.5460    -5.9640     1.1510 H     1 <1>   0.0800 
 43 H       -3.1650    -2.5220    -0.6870 H     1 <1>   0.0800 
 44 H       -3.1070    -2.5950     1.0610 H     1 <1>   0.0800 
 45 H        4.3430     2.3020    -2.2530 H     1 <1>   0.0800 
 46 H        4.9470     0.6630    -2.3720 H     1 <1>   0.0800 
 47 H        5.4700     0.4160     1.2200 H     1 <1>   0.0800 
 48 H        5.3790     2.1660     1.1660 H     1 <1>   0.0800 
 49 H        1.3490     5.2960     1.4260 H     1 <1>   0.0800 
 50 H        1.0650     5.3650    -0.3090 H     1 <1>   0.0800 
 51 H        2.6630     5.6980     0.3350 H     1 <1>   0.0800 
 52 H       -1.9190    -4.5930    -0.7590 H     1 <1>   0.4500 
 53 H        6.3300     3.1000    -1.3660 H     1 <1>   0.0800 
 54 H        7.0040     1.8090    -2.3450 H     1 <1>   0.0800 
 55 H        7.1050     0.3380    -0.4460 H     1 <1>   0.0800 
 56 H        7.5430     1.8700     0.2920 H     1 <1>   0.0800 
 57 H       -4.3390    -4.5900    -0.8140 H     1 <1>   0.0800 
 58 H       -4.3110    -4.9360     0.9020 H     1 <1>   0.0800 
 59 H       -4.0480    -7.1920     1.6350 H     1 <1>   0.1500 
 60 H       -2.9670    -6.1590    -2.3860 H     1 <1>   0.1500 
 61 H       -3.6240    -9.5440     1.1260 H     1 <1>   0.1500 
 62 H       -2.5490    -8.5180    -2.8610 H     1 <1>   0.1500 
 63 H       -2.8700   -10.2110    -1.1130 H     1 <1>   0.1500 
@<TRIPOS>BOND
  1   1   2  2   
  2   2   3  am  
  3   2   4  1   
  4   3   5  1   
  5   3  30  1   
  6   4   6  1   
  7   4  31  1   
  8   4  32  1   
  9   5   7  1   
 10   5   8  2   
 11   6   9  1   
 12   6  10  1   
 13   6  33  1   
 14   7  11  2   
 15   7  12  1   
 16   8  13  1   
 17   8  14  1   
 18   9  15  1   
 19   9  34  1   
 20   9  35  1   
 21  10  16  1   
 22  10  36  1   
 23  10  37  1   
 24  11  13  1   
 25  12  17  1   
 26  12  18  1   
 27  13  19  1   
 28  14  38  1   
 29  14  39  1   
 30  14  40  1   
 31  15  20  1   
 32  15  41  1   
 33  15  42  1   
 34  16  20  1   
 35  16  43  1   
 36  16  44  1   
 37  17  21  1   
 38  17  45  1   
 39  17  46  1   
 40  18  22  1   
 41  18  47  1   
 42  18  48  1   
 43  19  49  1   
 44  19  50  1   
 45  19  51  1   
 46  20  23  1   
 47  20  52  1   
 48  21  22  1   
 49  21  53  1   
 50  21  54  1   
 51  22  55  1   
 52  22  56  1   
 53  23  24  1   
 54  23  57  1   
 55  23  58  1   
 56  24  25  ar  
 57  24  26  ar  
 58  25  27  ar  
 59  25  59  1   
 60  26  28  ar  
 61  26  60  1   
 62  27  29  ar  
 63  27  61  1   
 64  28  29  ar  
 65  28  62  1   
 66  29  63  1   
@<TRIPOS>SUBSTRUCTURE
  1 ****   4 GROUP 4 **** **** 0

# MOE 2024.06 (io_trps.svl 2023.06)
