@<TRIPOS>MOLECULE
NONAME
45 47 1 0 0 
SMALL
USER_CHARGES


@<TRIPOS>ATOM
  1 S       -0.4650    -0.9410     1.2230 S.3   1 <1>  -0.0800 
  2 C       -1.1630     0.2810     0.2130 C.2   1 <1>   0.1980 
  3 C       -0.4730    -1.9720    -0.1630 C.2   1 <1>   0.1980 
  4 N       -1.3520    -0.1190    -0.9810 N.2   1 <1>  -0.3380 
  5 C       -1.4900     1.6320     0.8410 C.3   1 <1>   0.2900 
  6 N       -0.9530    -1.4110    -1.1970 N.2   1 <1>  -0.3380 
  7 C        0.0680    -3.3750    -0.0120 C.3   1 <1>  -0.0600 
  8 N       -0.4640     2.6770     0.6100 N.3   1 <1>  -0.8100 
  9 C        0.8560     2.3080     1.1660 C.3   1 <1>   0.2530 
 10 C       -0.9430     3.9990     1.0940 C.3   1 <1>   0.1100 
 11 C        1.9430     3.2730     0.7200 C.ar  1 <1>  -0.1430 
 12 C       -0.5370     5.1620     0.1720 C.3   1 <1>   0.2000 
 13 C        2.2910     3.3400    -0.6190 C.ar  1 <1>  -0.1500 
 14 C        2.5900     4.0920     1.6330 C.ar  1 <1>  -0.1500 
 15 O       -1.2170     6.3100     0.5640 O.3   1 <1>  -0.5600 
 16 C       -0.9300     4.9850    -1.2890 C.3   1 <1>  -0.1600 
 17 C        3.2700     4.2180    -1.0540 C.ar  1 <1>  -0.1430 
 18 C        3.5720     4.9680     1.2060 C.ar  1 <1>  -0.1500 
 19 C       -1.2120     7.2300    -0.4780 C.3   1 <1>   0.1200 
 20 C       -1.1540     6.4110    -1.7660 C.3   1 <1>  -0.1600 
 21 C        3.9110     5.0310    -0.1340 C.ar  1 <1>  -0.1500 
 22 C        3.6330     4.2820    -2.5260 C.3   1 <1>  -0.0970 
 23 H       -1.6490     1.5060     1.8980 H     1 <1>   0.0800 
 24 H       -2.4160     1.9620     0.4050 H     1 <1>   0.0800 
 25 H       -0.5020    -3.9090     0.7260 H     1 <1>   0.0800 
 26 H        1.0980    -3.3390     0.2910 H     1 <1>   0.0800 
 27 H       -0.0030    -3.8940    -0.9510 H     1 <1>   0.0800 
 28 H        1.1400     1.3340     0.8110 H     1 <1>   0.0800 
 29 H        0.8060     2.2710     2.2400 H     1 <1>   0.0800 
 30 H       -0.5730     4.1900     2.0870 H     1 <1>   0.0800 
 31 H       -2.0180     4.0020     1.1350 H     1 <1>   0.0800 
 32 H        0.5140     5.3740     0.2550 H     1 <1>   0.0800 
 33 H        1.7820     2.7040    -1.3240 H     1 <1>   0.1500 
 34 H        2.3320     4.0540     2.6760 H     1 <1>   0.1500 
 35 H       -1.8420     4.4180    -1.3550 H     1 <1>   0.0800 
 36 H       -0.1590     4.4750    -1.8390 H     1 <1>   0.0800 
 37 H        4.0720     5.6030     1.9160 H     1 <1>   0.1500 
 38 H       -0.3370     7.8490    -0.3710 H     1 <1>   0.0800 
 39 H       -2.1020     7.8310    -0.4130 H     1 <1>   0.0800 
 40 H       -2.0720     6.4980    -2.3200 H     1 <1>   0.0800 
 41 H       -0.3380     6.7510    -2.3780 H     1 <1>   0.0800 
 42 H        4.6750     5.7150    -0.4570 H     1 <1>   0.1500 
 43 H        2.7660     4.0880    -3.1320 H     1 <1>   0.0800 
 44 H        4.3830     3.5440    -2.7470 H     1 <1>   0.0800 
 45 H        4.0140     5.2540    -2.7800 H     1 <1>   0.0800 
@<TRIPOS>BOND
  1   1   2  1   
  2   1   3  1   
  3   2   4  2   
  4   2   5  1   
  5   3   6  2   
  6   3   7  1   
  7   4   6  1   
  8   5   8  1   
  9   5  23  1   
 10   5  24  1   
 11   7  25  1   
 12   7  26  1   
 13   7  27  1   
 14   8   9  1   
 15   8  10  1   
 16   9  11  1   
 17   9  28  1   
 18   9  29  1   
 19  10  12  1   
 20  10  30  1   
 21  10  31  1   
 22  11  13  ar  
 23  11  14  ar  
 24  12  15  1   
 25  12  16  1   
 26  12  32  1   
 27  13  17  ar  
 28  13  33  1   
 29  14  18  ar  
 30  14  34  1   
 31  15  19  1   
 32  16  20  1   
 33  16  35  1   
 34  16  36  1   
 35  17  21  ar  
 36  17  22  1   
 37  18  21  ar  
 38  18  37  1   
 39  19  20  1   
 40  19  38  1   
 41  19  39  1   
 42  20  40  1   
 43  20  41  1   
 44  21  42  1   
 45  22  43  1   
 46  22  44  1   
 47  22  45  1   
@<TRIPOS>SUBSTRUCTURE
  1 ****   8 GROUP 4 **** **** 0

# MOE 2024.06 (io_trps.svl 2023.06)
