@<TRIPOS>MOLECULE
NONAME
47 49 1 0 0 
SMALL
USER_CHARGES


@<TRIPOS>ATOM
  1 O        3.6880    -1.0350     3.0300 O.2   1 <1>  -0.5700 
  2 C        2.6600    -1.1170     2.4010 C.2   1 <1>   0.5690 
  3 N        1.9840    -0.0270     1.9690 N.am  1 <1>  -0.7300 
  4 C        2.1080    -2.4960     2.0280 C.3   1 <1>   0.1710 
  5 C        2.5530     1.3250     1.8760 C.3   1 <1>   0.2840 
  6 N        1.3240    -2.5250     0.7550 N.3   1 <1>  -0.8100 
  7 C        2.9870     1.5310     0.4370 C.ar  1 <1>  -0.1430 
  8 C        2.1380    -2.1830    -0.4280 C.3   1 <1>   0.1100 
  9 C        0.7400    -3.8490     0.4840 C.3   1 <1>   0.1100 
 10 C        4.2500     1.1240     0.0340 C.ar  1 <1>  -0.1500 
 11 C        2.1270     2.1010    -0.4900 C.ar  1 <1>  -0.1500 
 12 C        1.3500    -2.7600    -1.5950 C.3   1 <1>   0.2000 
 13 C        0.8820    -4.1010    -1.0280 C.3   1 <1>  -0.0800 
 14 C        4.6510     1.2880    -1.2810 C.ar  1 <1>  -0.1500 
 15 C        2.5270     2.2630    -1.8050 C.ar  1 <1>  -0.1500 
 16 O        0.2550    -1.9380    -1.7980 O.3   1 <1>  -0.6800 
 17 C       -0.3880    -4.6800    -1.6800 C.3   1 <1>   0.0200 
 18 C        3.7890     1.8580    -2.2010 C.ar  1 <1>  -0.1500 
 19 C       -0.7310    -6.0710    -1.1720 C.2   1 <1>  -0.0400 
 20 O       -1.8920    -6.5830    -1.4830 O.3   1 <1>  -0.0190 
 21 C       -0.0760    -6.9720    -0.4230 C.2   1 <1>  -0.1500 
 22 N       -2.0500    -7.7730    -0.9800 N.2   1 <1>  -0.4100 
 23 C       -0.9710    -8.0350    -0.3370 C.2   1 <1>   0.1080 
 24 C       -0.7190    -9.3270     0.4070 C.3   1 <1>  -0.0590 
 25 H        1.2170    -0.2220     1.3200 H     1 <1>   0.3700 
 26 H        1.4760    -2.8190     2.8360 H     1 <1>   0.0800 
 27 H        2.9350    -3.1810     1.9600 H     1 <1>   0.0800 
 28 H        1.8110     2.0510     2.1590 H     1 <1>   0.0800 
 29 H        3.3960     1.4210     2.5400 H     1 <1>   0.0800 
 30 H        2.2820    -1.1200    -0.5330 H     1 <1>   0.0800 
 31 H        3.0990    -2.6660    -0.3700 H     1 <1>   0.0800 
 32 H        1.2520    -4.6220     1.0320 H     1 <1>   0.0800 
 33 H       -0.2960    -3.8420     0.7810 H     1 <1>   0.0800 
 34 H        4.9210     0.6730     0.7460 H     1 <1>   0.1500 
 35 H        1.1420     2.4180    -0.1940 H     1 <1>   0.1500 
 36 H        1.9110    -2.8370    -2.5100 H     1 <1>   0.0800 
 37 H        1.6840    -4.8030    -1.1690 H     1 <1>   0.0800 
 38 H        5.6330     0.9720    -1.5860 H     1 <1>   0.1500 
 39 H        1.8550     2.7040    -2.5210 H     1 <1>   0.1500 
 40 H       -0.0940    -1.7210    -0.9080 H     1 <1>   0.4000 
 41 H       -0.2560    -4.7260    -2.7470 H     1 <1>   0.0800 
 42 H       -1.2260    -4.0330    -1.4850 H     1 <1>   0.0800 
 43 H        4.0990     1.9850    -3.2230 H     1 <1>   0.1500 
 44 H        0.9010    -6.9320     0.0210 H     1 <1>   0.1500 
 45 H        0.2060    -9.7640     0.0800 H     1 <1>   0.0800 
 46 H       -1.5180   -10.0210     0.2160 H     1 <1>   0.0800 
 47 H       -0.6700    -9.1360     1.4630 H     1 <1>   0.0800 
@<TRIPOS>BOND
  1   1   2  2   
  2   2   3  am  
  3   2   4  1   
  4   3   5  1   
  5   3  25  1   
  6   4   6  1   
  7   4  26  1   
  8   4  27  1   
  9   5   7  1   
 10   5  28  1   
 11   5  29  1   
 12   6   8  1   
 13   6   9  1   
 14   7  10  ar  
 15   7  11  ar  
 16   8  12  1   
 17   8  30  1   
 18   8  31  1   
 19   9  13  1   
 20   9  32  1   
 21   9  33  1   
 22  10  14  ar  
 23  10  34  1   
 24  11  15  ar  
 25  11  35  1   
 26  12  13  1   
 27  12  16  1   
 28  12  36  1   
 29  13  17  1   
 30  13  37  1   
 31  14  18  ar  
 32  14  38  1   
 33  15  18  ar  
 34  15  39  1   
 35  16  40  1   
 36  17  19  1   
 37  17  41  1   
 38  17  42  1   
 39  18  43  1   
 40  19  20  1   
 41  19  21  2   
 42  20  22  1   
 43  21  23  1   
 44  21  44  1   
 45  22  23  2   
 46  23  24  1   
 47  24  45  1   
 48  24  46  1   
 49  24  47  1   
@<TRIPOS>SUBSTRUCTURE
  1 ****   8 GROUP 4 **** **** 0

# MOE 2024.06 (io_trps.svl 2023.06)
