@<TRIPOS>MOLECULE
NONAME
48 50 1 0 0 
SMALL
USER_CHARGES


@<TRIPOS>ATOM
  1 O       -0.2390     0.5280    -0.7190 O.2   1 <1>  -0.5700 
  2 C       -0.1880     1.7090    -0.4270 C.2   1 <1>   0.6160 
  3 N       -1.3660     2.3990    -0.2460 N.am  1 <1>  -0.6600 
  4 C        1.0950     2.3470    -0.2840 C.2   1 <1>  -0.1360 
  5 C       -2.6560     1.8070    -0.7130 C.3   1 <1>   0.1400 
  6 C       -1.4550     3.6800     0.5140 C.3   1 <1>   0.1400 
  7 C        2.3030     1.7400    -0.2240 C.2   1 <1>  -0.1780 
  8 C       -3.6760     2.9050    -1.0260 C.3   1 <1>  -0.1600 
  9 C       -2.8160     3.7890     1.2000 C.3   1 <1>  -0.1600 
 10 C        3.6090     2.3360    -0.0880 C.ar  1 <1>   0.0280 
 11 C       -3.9610     3.8470     0.1700 C.3   1 <1>   0.2800 
 12 C        4.7140     1.5290     0.1790 C.ar  1 <1>  -0.1500 
 13 C        3.8330     3.7080    -0.2150 C.ar  1 <1>  -0.1500 
 14 O       -3.9500     5.1450    -0.3670 O.3   1 <1>  -0.5600 
 15 C       -5.3130     3.5260     0.8590 C.3   1 <1>  -0.1600 
 16 C        5.9820     2.0610     0.3190 C.ar  1 <1>  -0.1500 
 17 C        5.0990     4.2470    -0.0750 C.ar  1 <1>  -0.1500 
 18 C       -4.7680     6.1040     0.2240 C.3   1 <1>   0.1200 
 19 C       -6.5190     4.2350     0.2260 C.3   1 <1>   0.2800 
 20 C        6.1780     3.4250     0.1930 C.ar  1 <1>  -0.1500 
 21 C       -6.2380     5.7330     0.0020 C.3   1 <1>  -0.1600 
 22 O       -6.7620     3.6520    -0.9940 O.3   1 <1>  -0.6800 
 23 C       -7.7890     4.0130     1.0460 C.3   1 <1>  -0.2400 
 24 H        1.0390     3.4130    -0.2300 H     1 <1>   0.1500 
 25 H       -2.4830     1.2180    -1.5990 H     1 <1>   0.0800 
 26 H       -3.0390     1.1530     0.0510 H     1 <1>   0.0800 
 27 H       -0.6800     3.7170     1.2590 H     1 <1>   0.0800 
 28 H       -1.3260     4.5060    -0.1660 H     1 <1>   0.0800 
 29 H        2.3220     0.6650    -0.2800 H     1 <1>   0.1500 
 30 H       -4.5800     2.4320    -1.3580 H     1 <1>   0.0800 
 31 H       -3.2970     3.4740    -1.8570 H     1 <1>   0.0800 
 32 H       -2.8380     4.6620     1.8260 H     1 <1>   0.0800 
 33 H       -2.9370     2.9340     1.8400 H     1 <1>   0.0800 
 34 H        4.5780     0.4670     0.2800 H     1 <1>   0.1500 
 35 H        3.0150     4.3670    -0.4320 H     1 <1>   0.1500 
 36 H       -5.4770     2.4640     0.8820 H     1 <1>   0.0800 
 37 H       -5.2530     3.8420     1.8850 H     1 <1>   0.0800 
 38 H        6.8180     1.4160     0.5270 H     1 <1>   0.1500 
 39 H        5.2470     5.3080    -0.1770 H     1 <1>   0.1500 
 40 H       -4.5320     6.1580     1.2730 H     1 <1>   0.0800 
 41 H       -4.5450     7.0530    -0.2310 H     1 <1>   0.0800 
 42 H        7.1640     3.8420     0.3030 H     1 <1>   0.1500 
 43 H       -6.5240     6.0300    -0.9910 H     1 <1>   0.0800 
 44 H       -6.8180     6.3240     0.6870 H     1 <1>   0.0800 
 45 H       -7.4690     4.1370    -1.4540 H     1 <1>   0.4000 
 46 H       -7.6690     4.4230     2.0320 H     1 <1>   0.0800 
 47 H       -7.9900     2.9600     1.1430 H     1 <1>   0.0800 
 48 H       -8.6320     4.4920     0.5810 H     1 <1>   0.0800 
@<TRIPOS>BOND
  1   1   2  2   
  2   2   3  am  
  3   2   4  1   
  4   3   5  1   
  5   3   6  1   
  6   4   7  2   
  7   4  24  1   
  8   5   8  1   
  9   5  25  1   
 10   5  26  1   
 11   6   9  1   
 12   6  27  1   
 13   6  28  1   
 14   7  10  1   
 15   7  29  1   
 16   8  11  1   
 17   8  30  1   
 18   8  31  1   
 19   9  11  1   
 20   9  32  1   
 21   9  33  1   
 22  10  12  ar  
 23  10  13  ar  
 24  11  14  1   
 25  11  15  1   
 26  12  16  ar  
 27  12  34  1   
 28  13  17  ar  
 29  13  35  1   
 30  14  18  1   
 31  15  19  1   
 32  15  36  1   
 33  15  37  1   
 34  16  20  ar  
 35  16  38  1   
 36  17  20  ar  
 37  17  39  1   
 38  18  21  1   
 39  18  40  1   
 40  18  41  1   
 41  19  21  1   
 42  19  22  1   
 43  19  23  1   
 44  20  42  1   
 45  21  43  1   
 46  21  44  1   
 47  22  45  1   
 48  23  46  1   
 49  23  47  1   
 50  23  48  1   
@<TRIPOS>SUBSTRUCTURE
  1 ****   6 GROUP 4 **** **** 0

# MOE 2024.06 (io_trps.svl 2023.06)
