@<TRIPOS>MOLECULE
NONAME
37 39 1 0 0 
SMALL
USER_CHARGES


@<TRIPOS>ATOM
  1 O       -0.6780    -0.1380     0.0290 O.2   1 <1>  -0.5700 
  2 C       -1.6390     0.5840     0.2520 C.2   1 <1>   0.7160 
  3 N       -2.8510    -0.0100     0.5200 N.am  1 <1>  -0.6600 
  4 C       -1.4870     2.0370     0.2780 C.2   1 <1>   0.2030 
  5 C       -4.1630     0.6940     0.5230 C.3   1 <1>   0.2350 
  6 C       -3.0540    -1.4830     0.6020 C.3   1 <1>   0.2350 
  7 N       -0.8730     2.7920    -0.6200 N.2   1 <1>  -0.7070 
  8 C       -1.9840     2.8480     1.3090 C.2   1 <1>  -0.1500 
  9 C       -5.1990    -0.3640     0.1960 C.3   1 <1>  -0.2420 
 10 C       -4.5160    -1.7110     0.2550 C.3   1 <1>  -0.2420 
 11 N       -0.9760     4.0530    -0.1800 N.pl3 1 <1>   0.3140 
 12 C       -1.6460     4.1100     0.9880 C.2   1 <1>  -0.3020 
 13 C       -6.5930     0.0940     0.6380 C.2   1 <1>   0.9470 
 14 C       -5.0700    -1.2030    -1.0510 C.3   1 <1>  -0.2000 
 15 C       -5.0000    -3.0570     0.8000 C.2   1 <1>   0.9470 
 16 C       -0.3900     5.1930    -0.9370 C.3   1 <1>   0.1760 
 17 O       -7.5230     0.1130    -0.1800 O.co2 1 <1>  -0.9000 
 18 O       -6.7220     0.6040     1.7600 O.co2 1 <1>  -0.9000 
 19 O       -4.8260    -3.3130     1.9990 O.co2 1 <1>  -0.9000 
 20 O       -5.4080    -3.9230     0.0140 O.co2 1 <1>  -0.9000 
 21 C        0.6890     5.9010    -0.1060 C.3   1 <1>  -0.2400 
 22 C       -1.4840     6.1780    -1.3730 C.3   1 <1>  -0.2400 
 23 H       -4.3460     1.0960     1.5050 H     1 <1>   0.0800 
 24 H       -4.1890     1.4850    -0.2060 H     1 <1>   0.0800 
 25 H       -2.4140    -2.0070    -0.0860 H     1 <1>   0.0800 
 26 H       -2.8530    -1.8130     1.6070 H     1 <1>   0.0800 
 27 H       -2.5220     2.4910     2.1700 H     1 <1>   0.1500 
 28 H       -1.8380     5.0270     1.5120 H     1 <1>   0.1500 
 29 H       -4.3960    -0.8980    -1.8290 H     1 <1>   0.1000 
 30 H       -5.9580    -1.6770    -1.4340 H     1 <1>   0.1000 
 31 H        0.0710     4.7820    -1.8180 H     1 <1>   0.0800 
 32 H        0.2650     6.3420     0.7780 H     1 <1>   0.0800 
 33 H        1.1510     6.6780    -0.6880 H     1 <1>   0.0800 
 34 H        1.4500     5.1960     0.1800 H     1 <1>   0.0800 
 35 H       -1.9630     6.6220    -0.5180 H     1 <1>   0.0800 
 36 H       -2.2220     5.6650    -1.9640 H     1 <1>   0.0800 
 37 H       -1.0560     6.9620    -1.9720 H     1 <1>   0.0800 
@<TRIPOS>BOND
  1   1   2  2   
  2   2   3  am  
  3   2   4  1   
  4   3   5  1   
  5   3   6  1   
  6   4   7  2   
  7   4   8  1   
  8   5   9  1   
  9   5  23  1   
 10   5  24  1   
 11   6  10  1   
 12   6  25  1   
 13   6  26  1   
 14   7  11  1   
 15   8  12  2   
 16   8  27  1   
 17   9  10  1   
 18   9  13  1   
 19   9  14  1   
 20  10  14  1   
 21  10  15  1   
 22  11  12  1   
 23  11  16  1   
 24  12  28  1   
 25  13  17  ar  
 26  13  18  ar  
 27  14  29  1   
 28  14  30  1   
 29  15  19  ar  
 30  15  20  ar  
 31  16  21  1   
 32  16  22  1   
 33  16  31  1   
 34  21  32  1   
 35  21  33  1   
 36  21  34  1   
 37  22  35  1   
 38  22  36  1   
 39  22  37  1   
@<TRIPOS>SUBSTRUCTURE
  1 ****   5 GROUP 4 **** **** 0

# MOE 2024.06 (io_trps.svl 2023.06)
