@<TRIPOS>MOLECULE
NONAME
53 56 1 0 0 
SMALL
USER_CHARGES


@<TRIPOS>ATOM
  1 O       -1.9270    -4.5140    -2.6830 O.3   1 <1>  -0.5600 
  2 C       -1.9180    -5.3300    -1.5490 C.3   1 <1>   0.1200 
  3 C       -3.1430    -3.8650    -2.9080 C.3   1 <1>   0.1200 
  4 C       -2.2800    -4.5140    -0.2940 C.3   1 <1>   0.1100 
  5 C       -3.5230    -3.0010    -1.6920 C.3   1 <1>   0.1100 
  6 N       -3.5780    -3.8080    -0.4510 N.3   1 <1>  -0.8100 
  7 C       -3.8580    -2.9370     0.7190 C.3   1 <1>   0.1100 
  8 C       -4.3800    -3.7690     1.9040 C.3   1 <1>   0.3430 
  9 N       -5.3150    -4.7910     1.3640 N.4   1 <1>  -0.9590 
 10 C       -6.7190    -4.2830     1.3040 C.3   1 <1>   0.3430 
 11 C       -5.3200    -6.0360     2.1830 C.3   1 <1>   0.3430 
 12 C       -7.4730    -5.0120     2.4230 C.3   1 <1>   0.2000 
 13 C       -6.7890    -6.3750     2.4710 C.3   1 <1>  -0.0800 
 14 O       -7.2190    -4.3550     3.6230 O.3   1 <1>  -0.6800 
 15 C       -7.4040    -7.3560     1.4480 C.3   1 <1>  -0.0170 
 16 C       -6.4550    -8.5120     1.1500 C.ar  1 <1>  -0.1440 
 17 C       -5.6130    -8.5520     0.0090 C.ar  1 <1>   0.0000 
 18 C       -6.3840    -9.5560     2.0250 C.ar  1 <1>  -0.1500 
 19 C       -4.7360    -9.6580    -0.1160 C.ar  1 <1>   0.3100 
 20 C       -5.5840    -7.5730    -1.0140 C.ar  1 <1>  -0.1500 
 21 C       -5.4850   -10.6050     1.8010 C.ar  1 <1>   0.1600 
 22 N       -4.6790   -10.6630     0.7910 N.ar  1 <1>  -0.6200 
 23 C       -3.8780    -9.7280    -1.2240 C.ar  1 <1>  -0.1500 
 24 C       -4.7410    -7.6770    -2.0860 C.ar  1 <1>  -0.1500 
 25 C       -3.8730    -8.7640    -2.1940 C.ar  1 <1>  -0.1500 
 26 H       -2.6140    -6.1340    -1.6960 H     1 <1>   0.0800 
 27 H       -0.9300    -5.7440    -1.4530 H     1 <1>   0.0800 
 28 H       -3.0270    -3.2490    -3.7820 H     1 <1>   0.0800 
 29 H       -3.8990    -4.6050    -3.1030 H     1 <1>   0.0800 
 30 H       -1.4910    -3.8020    -0.1180 H     1 <1>   0.0800 
 31 H       -2.3230    -5.1810     0.5480 H     1 <1>   0.0800 
 32 H       -4.4820    -2.5480    -1.8740 H     1 <1>   0.0800 
 33 H       -2.7940    -2.2130    -1.5920 H     1 <1>   0.0800 
 34 H       -2.9780    -2.3860     1.0060 H     1 <1>   0.0800 
 35 H       -4.6180    -2.2200     0.4570 H     1 <1>   0.0800 
 36 H       -4.8650    -3.1450     2.6370 H     1 <1>   0.0800 
 37 H       -3.5400    -4.2540     2.3720 H     1 <1>   0.0800 
 38 H       -4.9390    -4.9550     0.4060 H     1 <1>   0.4500 
 39 H       -6.7740    -3.2150     1.4330 H     1 <1>   0.0800 
 40 H       -7.1520    -4.5480     0.3540 H     1 <1>   0.0800 
 41 H       -4.8040    -6.8380     1.6810 H     1 <1>   0.0800 
 42 H       -4.8250    -5.8470     3.1220 H     1 <1>   0.0800 
 43 H       -8.5380    -5.0470     2.2610 H     1 <1>   0.0800 
 44 H       -6.8680    -6.8220     3.4470 H     1 <1>   0.0800 
 45 H       -7.8030    -4.6840     4.3400 H     1 <1>   0.4000 
 46 H       -7.6910    -6.8580     0.5430 H     1 <1>   0.0800 
 47 H       -8.3150    -7.7560     1.8620 H     1 <1>   0.0800 
 48 H       -7.0010    -9.6060     2.9040 H     1 <1>   0.1500 
 49 H       -6.2380    -6.7270    -0.9720 H     1 <1>   0.1500 
 50 H       -5.4590   -11.4110     2.5160 H     1 <1>   0.1500 
 51 H       -3.2220   -10.5770    -1.2880 H     1 <1>   0.1500 
 52 H       -4.7340    -6.9320    -2.8650 H     1 <1>   0.1500 
 53 H       -3.2120    -8.8340    -3.0420 H     1 <1>   0.1500 
@<TRIPOS>BOND
  1   1   2  1   
  2   1   3  1   
  3   2   4  1   
  4   2  26  1   
  5   2  27  1   
  6   3   5  1   
  7   3  28  1   
  8   3  29  1   
  9   4   6  1   
 10   4  30  1   
 11   4  31  1   
 12   5   6  1   
 13   5  32  1   
 14   5  33  1   
 15   6   7  1   
 16   7   8  1   
 17   7  34  1   
 18   7  35  1   
 19   8   9  1   
 20   8  36  1   
 21   8  37  1   
 22   9  10  1   
 23   9  11  1   
 24   9  38  1   
 25  10  12  1   
 26  10  39  1   
 27  10  40  1   
 28  11  13  1   
 29  11  41  1   
 30  11  42  1   
 31  12  13  1   
 32  12  14  1   
 33  12  43  1   
 34  13  15  1   
 35  13  44  1   
 36  14  45  1   
 37  15  16  1   
 38  15  46  1   
 39  15  47  1   
 40  16  17  ar  
 41  16  18  ar  
 42  17  19  ar  
 43  17  20  ar  
 44  18  21  ar  
 45  18  48  1   
 46  19  22  ar  
 47  19  23  ar  
 48  20  24  ar  
 49  20  49  1   
 50  21  22  ar  
 51  21  50  1   
 52  23  25  ar  
 53  23  51  1   
 54  24  25  ar  
 55  24  52  1   
 56  25  53  1   
@<TRIPOS>SUBSTRUCTURE
  1 ****  20 GROUP 4 **** **** 0

# MOE 2024.06 (io_trps.svl 2023.06)
