@<TRIPOS>MOLECULE
NONAME
50 51 1 0 0 
SMALL
USER_CHARGES


@<TRIPOS>ATOM
  1 S        0.5250    -0.2540    -1.1670 S.o2  1 <1>   1.3330 
  2 O       -0.1190    -0.2870    -2.4610 O.2   1 <1>  -0.6500 
  3 O        1.8000    -0.9130    -0.9900 O.2   1 <1>  -0.6500 
  4 N       -0.5700    -0.9370    -0.0600 N.am  1 <1>  -0.8490 
  5 C        0.6560     1.4550    -0.6200 C.3   1 <1>  -0.0550 
  6 C       -1.9760    -0.6910    -0.4010 C.3   1 <1>   0.1160 
  7 C       -0.3520    -2.3760     0.1210 C.3   1 <1>   0.1160 
  8 C        1.5880     1.7570     0.5750 C.3   1 <1>  -0.0800 
  9 C        3.0710     1.5490     0.2530 C.3   1 <1>   0.2200 
 10 C        1.3710     0.9420     1.8560 C.3   1 <1>   0.1200 
 11 N        3.7780     2.8440     0.3690 N.am  1 <1>  -0.7300 
 12 C        3.5310     0.5830     1.3430 C.3   1 <1>   0.1200 
 13 O        2.6420     0.7770     2.3950 O.3   1 <1>  -0.5600 
 14 C        3.8280     3.7890    -0.6160 C.2   1 <1>   0.5440 
 15 O        3.2640     3.5450    -1.6660 O.2   1 <1>  -0.5700 
 16 C        4.5240     5.0490    -0.4140 C.ar  1 <1>   0.0860 
 17 C        4.7430     5.5840     0.8580 C.ar  1 <1>  -0.1500 
 18 C        5.0030     5.7810    -1.5000 C.ar  1 <1>  -0.1500 
 19 C        5.4160     6.7790     1.0340 C.ar  1 <1>  -0.1500 
 20 C        5.6760     6.9770    -1.3290 C.ar  1 <1>  -0.1500 
 21 C        5.8900     7.4840    -0.0590 C.ar  1 <1>  -0.1440 
 22 C        6.6310     8.7990     0.1320 C.3   1 <1>  -0.0170 
 23 C        5.6500     9.9770     0.1320 C.3   1 <1>  -0.1600 
 24 C        6.3740    11.3140     0.3240 C.3   1 <1>  -0.2400 
 25 H        1.0090     2.0410    -1.4490 H     1 <1>   0.0800 
 26 H       -0.3250     1.8180    -0.3870 H     1 <1>   0.0800 
 27 H       -2.6160    -1.0600     0.3820 H     1 <1>   0.0800 
 28 H       -2.2320    -1.1850    -1.3240 H     1 <1>   0.0800 
 29 H       -2.1530     0.3650    -0.5150 H     1 <1>   0.0800 
 30 H       -1.0550    -2.7750     0.8320 H     1 <1>   0.0800 
 31 H        0.6420    -2.5550     0.4970 H     1 <1>   0.0800 
 32 H       -0.4640    -2.8920    -0.8180 H     1 <1>   0.0800 
 33 H        1.4290     2.7880     0.8350 H     1 <1>   0.0800 
 34 H        3.2440     1.1310    -0.7240 H     1 <1>   0.0800 
 35 H        0.9780    -0.0390     1.6690 H     1 <1>   0.0800 
 36 H        0.7500     1.4540     2.5700 H     1 <1>   0.0800 
 37 H        4.1790     3.0320     1.2870 H     1 <1>   0.3700 
 38 H        4.5370     0.7680     1.6750 H     1 <1>   0.0800 
 39 H        3.4340    -0.4360     1.0110 H     1 <1>   0.0800 
 40 H        4.3770     5.0660     1.7260 H     1 <1>   0.1500 
 41 H        4.8420     5.4000    -2.4940 H     1 <1>   0.1500 
 42 H        5.5680     7.1650     2.0270 H     1 <1>   0.1500 
 43 H        6.0310     7.5140    -2.1920 H     1 <1>   0.1500 
 44 H        7.1720     8.7750     1.0620 H     1 <1>   0.0800 
 45 H        7.3500     8.9250    -0.6590 H     1 <1>   0.0800 
 46 H        5.1130     9.9920    -0.8010 H     1 <1>   0.0800 
 47 H        4.9330     9.8420     0.9240 H     1 <1>   0.0800 
 48 H        7.0800    11.4780    -0.4720 H     1 <1>   0.0800 
 49 H        6.8990    11.3280     1.2620 H     1 <1>   0.0800 
 50 H        5.6620    12.1200     0.3190 H     1 <1>   0.0800 
@<TRIPOS>BOND
  1   1   2  2   
  2   1   3  2   
  3   1   4  am  
  4   1   5  1   
  5   4   6  1   
  6   4   7  1   
  7   5   8  1   
  8   5  25  1   
  9   5  26  1   
 10   6  27  1   
 11   6  28  1   
 12   6  29  1   
 13   7  30  1   
 14   7  31  1   
 15   7  32  1   
 16   8   9  1   
 17   8  10  1   
 18   8  33  1   
 19   9  11  1   
 20   9  12  1   
 21   9  34  1   
 22  10  13  1   
 23  10  35  1   
 24  10  36  1   
 25  11  14  am  
 26  11  37  1   
 27  12  13  1   
 28  12  38  1   
 29  12  39  1   
 30  14  15  2   
 31  14  16  1   
 32  16  17  ar  
 33  16  18  ar  
 34  17  19  ar  
 35  17  40  1   
 36  18  20  ar  
 37  18  41  1   
 38  19  21  ar  
 39  19  42  1   
 40  20  21  ar  
 41  20  43  1   
 42  21  22  1   
 43  22  23  1   
 44  22  44  1   
 45  22  45  1   
 46  23  24  1   
 47  23  46  1   
 48  23  47  1   
 49  24  48  1   
 50  24  49  1   
 51  24  50  1   
@<TRIPOS>SUBSTRUCTURE
  1 ****  11 GROUP 4 **** **** 0

# MOE 2024.06 (io_trps.svl 2023.06)
