@<TRIPOS>MOLECULE
NONAME
44 47 1 0 0 
SMALL
USER_CHARGES


@<TRIPOS>ATOM
  1 O       -2.1230     0.7610    -1.8950 O.2   1 <1>  -0.5700 
  2 C       -1.8770     0.8330    -0.7060 C.2   1 <1>   0.5440 
  3 N       -1.9390    -0.3170     0.0290 N.am  1 <1>  -0.7300 
  4 C       -1.5250     2.1000    -0.0880 C.ar  1 <1>   0.0860 
  5 C       -2.2970    -1.6500    -0.5050 C.3   1 <1>   0.2200 
  6 C       -1.0050     3.1450    -0.8620 C.ar  1 <1>  -0.1500 
  7 C       -1.6890     2.3270     1.2880 C.ar  1 <1>  -0.1500 
  8 C       -3.7490    -1.9440    -0.1720 C.3   1 <1>  -0.0800 
  9 C       -1.5710    -2.7320     0.2880 C.3   1 <1>   0.1200 
 10 C       -0.6620     4.3450    -0.2720 C.ar  1 <1>  -0.1430 
 11 C       -1.3420     3.5330     1.8750 C.ar  1 <1>  -0.1500 
 12 C       -3.6490    -2.4910     1.2570 C.3   1 <1>   0.1200 
 13 C       -4.3570    -2.9660    -1.1510 C.3   1 <1>  -0.0160 
 14 O       -2.3400    -2.9540     1.4330 O.3   1 <1>  -0.5600 
 15 C       -0.8270     4.5320     1.0730 C.ar  1 <1>   0.0830 
 16 C       -0.0940     5.6010    -0.8620 C.3   1 <1>  -0.0170 
 17 C       -5.8220    -3.2290    -0.8370 C.ar  1 <1>  -0.1430 
 18 O       -0.4460     5.7470     1.4840 O.3   1 <1>  -0.3630 
 19 C        0.0250     6.5060     0.3780 C.3   1 <1>   0.1200 
 20 C       -6.8040    -2.3100    -1.1460 C.ar  1 <1>  -0.1500 
 21 C       -6.2470    -4.3950    -0.2320 C.ar  1 <1>  -0.1500 
 22 C       -8.1250    -2.5900    -0.8380 C.ar  1 <1>   0.1600 
 23 C       -7.5940    -4.5760     0.0340 C.ar  1 <1>   0.1600 
 24 N       -8.5440    -3.7000    -0.2530 N.ar  1 <1>  -0.6200 
 25 H       -1.7140    -0.3080     1.0250 H     1 <1>   0.3700 
 26 H       -2.0810    -1.7030    -1.5590 H     1 <1>   0.0800 
 27 H       -0.8750     3.0060    -1.9210 H     1 <1>   0.1500 
 28 H       -2.1010     1.5540     1.9100 H     1 <1>   0.1500 
 29 H       -4.3410    -1.0460    -0.2010 H     1 <1>   0.0800 
 30 H       -0.5740    -2.4430     0.5690 H     1 <1>   0.0800 
 31 H       -1.5390    -3.6520    -0.2670 H     1 <1>   0.0800 
 32 H       -1.4660     3.7070     2.9290 H     1 <1>   0.1500 
 33 H       -4.3340    -3.2970     1.4500 H     1 <1>   0.0800 
 34 H       -3.8130    -1.7060     1.9740 H     1 <1>   0.0800 
 35 H       -3.8080    -3.8900    -1.1160 H     1 <1>   0.0800 
 36 H       -4.2860    -2.5830    -2.1540 H     1 <1>   0.0800 
 37 H       -0.7620     6.0280    -1.5890 H     1 <1>   0.0800 
 38 H        0.8690     5.4250    -1.3060 H     1 <1>   0.0800 
 39 H       -0.5900     7.3840     0.2890 H     1 <1>   0.0800 
 40 H        1.0460     6.7820     0.5710 H     1 <1>   0.0800 
 41 H       -6.5550    -1.3800    -1.6230 H     1 <1>   0.1500 
 42 H       -5.5460    -5.1630     0.0380 H     1 <1>   0.1500 
 43 H       -8.8770    -1.8600    -1.0850 H     1 <1>   0.1500 
 44 H       -7.9070    -5.4910     0.5080 H     1 <1>   0.1500 
@<TRIPOS>BOND
  1   1   2  2   
  2   2   3  am  
  3   2   4  1   
  4   3   5  1   
  5   3  25  1   
  6   4   6  ar  
  7   4   7  ar  
  8   5   8  1   
  9   5   9  1   
 10   5  26  1   
 11   6  10  ar  
 12   6  27  1   
 13   7  11  ar  
 14   7  28  1   
 15   8  12  1   
 16   8  13  1   
 17   8  29  1   
 18   9  14  1   
 19   9  30  1   
 20   9  31  1   
 21  10  15  ar  
 22  10  16  1   
 23  11  15  ar  
 24  11  32  1   
 25  12  14  1   
 26  12  33  1   
 27  12  34  1   
 28  13  17  1   
 29  13  35  1   
 30  13  36  1   
 31  15  18  1   
 32  16  19  1   
 33  16  37  1   
 34  16  38  1   
 35  17  20  ar  
 36  17  21  ar  
 37  18  19  1   
 38  19  39  1   
 39  19  40  1   
 40  20  22  ar  
 41  20  41  1   
 42  21  23  ar  
 43  21  42  1   
 44  22  24  ar  
 45  22  43  1   
 46  23  24  ar  
 47  23  44  1   
@<TRIPOS>SUBSTRUCTURE
  1 ****   3 GROUP 4 **** **** 0

# MOE 2024.06 (io_trps.svl 2023.06)
