@<TRIPOS>MOLECULE
NONAME
61 64 1 0 0 
SMALL
USER_CHARGES


@<TRIPOS>ATOM
  1 O        0.3550    -0.1040    -0.7850 O.3   1 <1>  -0.5600 
  2 C        1.6010    -0.7140    -1.0280 C.3   1 <1>   0.2000 
  3 C        0.3250     1.2840    -0.9310 C.3   1 <1>   0.1200 
  4 C        2.7120    -0.0980    -0.1330 C.3   1 <1>   0.5660 
  5 C        1.4690    -2.2220    -0.7580 C.3   1 <1>   0.1200 
  6 C        1.3050     1.9400     0.0580 C.3   1 <1>   0.3430 
  7 N        2.6930     1.3980    -0.1060 N.4   1 <1>  -0.9590 
  8 C        4.0980    -0.5320    -0.5920 C.ar  1 <1>  -0.1430 
  9 O        1.4370    -2.4630     0.6140 O.3   1 <1>  -0.6800 
 10 C        3.6290     1.9360     0.9140 C.3   1 <1>   0.4870 
 11 C        4.8750    -1.3040     0.2610 C.ar  1 <1>  -0.1500 
 12 C        4.6080    -0.1690    -1.8340 C.ar  1 <1>  -0.1500 
 13 C        3.8470     3.3970     0.5920 C.ar  1 <1>  -0.1430 
 14 C        6.1480    -1.7010    -0.1050 C.ar  1 <1>   0.0820 
 15 C        5.8860    -0.5540    -2.2020 C.ar  1 <1>  -0.1500 
 16 C        4.6970     3.7530    -0.4340 C.ar  1 <1>  -0.1500 
 17 C        3.1770     4.3880     1.3270 C.ar  1 <1>  -0.1500 
 18 O        6.8290    -2.4700     0.7770 O.3   1 <1>  -0.3620 
 19 C        6.6700    -1.3010    -1.3400 C.ar  1 <1>   0.0820 
 20 C        4.8690     5.1020    -0.7510 C.ar  1 <1>   0.0000 
 21 C        3.3430     5.7190     1.0230 C.ar  1 <1>  -0.1500 
 22 C        7.1590    -3.7780     0.3600 C.3   1 <1>   0.0400 
 23 O        7.9230    -1.6090    -1.7510 O.3   1 <1>  -0.3630 
 24 C        4.1910     6.0780    -0.0270 C.ar  1 <1>  -0.1520 
 25 C        5.6370     5.7800    -1.7180 C.2   1 <1>  -0.1500 
 26 C        8.9910    -1.0540    -1.0130 C.3   1 <1>   0.0400 
 27 N        4.5340     7.3110    -0.5360 N.pl3 1 <1>   0.0480 
 28 C        5.4130     7.1060    -1.5620 C.2   1 <1>  -0.3020 
 29 C        4.0610     8.6280    -0.0610 C.3   1 <1>   0.0960 
 30 C        4.9100     9.1130     1.1180 C.3   1 <1>  -0.2400 
 31 H        1.8320    -0.5680    -2.0680 H     1 <1>   0.0800 
 32 H        0.5670     1.5370    -1.9490 H     1 <1>   0.0800 
 33 H       -0.6800     1.6120    -0.7260 H     1 <1>   0.0800 
 34 H        2.5520    -0.4630     0.8690 H     1 <1>   0.0800 
 35 H        2.3100    -2.7560    -1.1660 H     1 <1>   0.0800 
 36 H        0.5620    -2.5990    -1.2000 H     1 <1>   0.0800 
 37 H        0.9530     1.7500     1.0590 H     1 <1>   0.0800 
 38 H        1.3070     3.0070    -0.0970 H     1 <1>   0.0800 
 39 H        3.0570     1.7200    -1.0070 H     1 <1>   0.4500 
 40 H        1.1170    -3.3720     0.7970 H     1 <1>   0.4000 
 41 H        3.2230     1.8210     1.9060 H     1 <1>   0.0800 
 42 H        4.5760     1.4230     0.8670 H     1 <1>   0.0800 
 43 H        4.5030    -1.6190     1.2220 H     1 <1>   0.1500 
 44 H        4.0320     0.4110    -2.5340 H     1 <1>   0.1500 
 45 H        6.2900    -0.2750    -3.1600 H     1 <1>   0.1500 
 46 H        5.2450     3.0280    -1.0080 H     1 <1>   0.1500 
 47 H        2.5280     4.1140     2.1410 H     1 <1>   0.1500 
 48 H        2.8350     6.4850     1.5840 H     1 <1>   0.1500 
 49 H        7.5840    -4.3010     1.1990 H     1 <1>   0.0800 
 50 H        7.8750    -3.7320    -0.4390 H     1 <1>   0.0800 
 51 H        6.2640    -4.2760     0.0310 H     1 <1>   0.0800 
 52 H        6.2790     5.2980    -2.4340 H     1 <1>   0.1500 
 53 H        9.9100    -1.3130    -1.5070 H     1 <1>   0.0800 
 54 H        8.9870    -1.4570    -0.0170 H     1 <1>   0.0800 
 55 H        8.8770     0.0150    -0.9860 H     1 <1>   0.0800 
 56 H        5.8320     7.9230    -2.1220 H     1 <1>   0.1500 
 57 H        4.1250     9.3300    -0.8730 H     1 <1>   0.0800 
 58 H        3.0300     8.5420     0.2320 H     1 <1>   0.0800 
 59 H        5.9390     9.2080     0.8190 H     1 <1>   0.0800 
 60 H        4.8420     8.4200     1.9380 H     1 <1>   0.0800 
 61 H        4.5600    10.0730     1.4500 H     1 <1>   0.0800 
@<TRIPOS>BOND
  1   1   2  1   
  2   1   3  1   
  3   2   4  1   
  4   2   5  1   
  5   2  31  1   
  6   3   6  1   
  7   3  32  1   
  8   3  33  1   
  9   4   7  1   
 10   4   8  1   
 11   4  34  1   
 12   5   9  1   
 13   5  35  1   
 14   5  36  1   
 15   6   7  1   
 16   6  37  1   
 17   6  38  1   
 18   7  10  1   
 19   7  39  1   
 20   8  11  ar  
 21   8  12  ar  
 22   9  40  1   
 23  10  13  1   
 24  10  41  1   
 25  10  42  1   
 26  11  14  ar  
 27  11  43  1   
 28  12  15  ar  
 29  12  44  1   
 30  13  16  ar  
 31  13  17  ar  
 32  14  18  1   
 33  14  19  ar  
 34  15  19  ar  
 35  15  45  1   
 36  16  20  ar  
 37  16  46  1   
 38  17  21  ar  
 39  17  47  1   
 40  18  22  1   
 41  19  23  1   
 42  20  24  ar  
 43  20  25  1   
 44  21  24  ar  
 45  21  48  1   
 46  22  49  1   
 47  22  50  1   
 48  22  51  1   
 49  23  26  1   
 50  24  27  1   
 51  25  28  2   
 52  25  52  1   
 53  26  53  1   
 54  26  54  1   
 55  26  55  1   
 56  27  28  1   
 57  27  29  1   
 58  28  56  1   
 59  29  30  1   
 60  29  57  1   
 61  29  58  1   
 62  30  59  1   
 63  30  60  1   
 64  30  61  1   
@<TRIPOS>SUBSTRUCTURE
  1 ****  10 GROUP 4 **** **** 0

# MOE 2024.06 (io_trps.svl 2023.06)
