@<TRIPOS>MOLECULE
NONAME
54 55 1 0 0 
SMALL
USER_CHARGES


@<TRIPOS>ATOM
  1 O        0.1660     0.4740     1.0830 O.2   1 <1>  -0.5700 
  2 C       -0.8630     0.9390     0.6600 C.2   1 <1>   0.5690 
  3 N       -1.8900     0.2060     0.1350 N.am  1 <1>  -0.5470 
  4 C       -1.0240     2.4420     0.7030 C.3   1 <1>  -0.0990 
  5 C       -2.0510    -1.1790    -0.0560 C.ar  1 <1>   0.1170 
  6 C       -0.3540     3.1000    -0.5120 C.3   1 <1>  -0.0990 
  7 C       -3.3380    -1.7220    -0.1570 C.ar  1 <1>  -0.1430 
  8 C       -0.9500    -2.0230    -0.1710 C.ar  1 <1>  -0.1500 
  9 C       -0.5150     4.6040    -0.4740 C.2   1 <1>   0.5690 
 10 C       -3.4800    -3.0890    -0.3700 C.ar  1 <1>  -0.1500 
 11 C       -4.5600    -0.8010    -0.0270 C.3   1 <1>  -0.0160 
 12 C       -1.1060    -3.3790    -0.3790 C.ar  1 <1>  -0.1500 
 13 O       -1.5790     5.0620    -0.8110 O.2   1 <1>  -0.5700 
 14 N        0.5490     5.3500    -0.0530 N.am  1 <1>  -0.4940 
 15 C       -2.3740    -3.9130    -0.4800 C.ar  1 <1>  -0.1500 
 16 C       -5.9290    -1.4920    -0.0080 C.3   1 <1>  -0.2400 
 17 C        0.7430     6.7510     0.0510 C.2   1 <1>  -0.0880 
 18 N       -0.1820     7.7190     0.3140 N.pl3 1 <1>   0.3140 
 19 C        1.9330     7.3880    -0.0680 C.2   1 <1>  -0.1810 
 20 N        0.3900     8.9410     0.3690 N.2   1 <1>  -0.7070 
 21 C       -1.6120     7.5820     0.6150 C.3   1 <1>   0.0160 
 22 C        1.6470     8.7360     0.1370 C.2   1 <1>   0.1080 
 23 C        3.2930     6.7780    -0.3670 C.3   1 <1>   0.0210 
 24 C        2.6450     9.8800     0.1040 C.3   1 <1>   0.0210 
 25 C        4.0150     6.4140     0.9320 C.3   1 <1>  -0.2400 
 26 C        2.7870    10.4500    -1.3110 C.3   1 <1>  -0.2400 
 27 H       -2.7060     0.7490    -0.1340 H     1 <1>   0.3700 
 28 H       -0.5720     2.8070     1.6090 H     1 <1>   0.0800 
 29 H       -2.0680     2.6980     0.7300 H     1 <1>   0.0800 
 30 H       -0.8040     2.7340    -1.4170 H     1 <1>   0.0800 
 31 H        0.6900     2.8420    -0.5360 H     1 <1>   0.0800 
 32 H        0.0450    -1.6240    -0.1040 H     1 <1>   0.1500 
 33 H       -4.4480    -3.5460    -0.4550 H     1 <1>   0.1500 
 34 H       -4.5500    -0.1010    -0.8440 H     1 <1>   0.0800 
 35 H       -4.4670    -0.2420     0.8890 H     1 <1>   0.0800 
 36 H       -0.2420    -4.0150    -0.4620 H     1 <1>   0.1500 
 37 H        1.3940     4.8150     0.1440 H     1 <1>   0.3700 
 38 H       -2.5020    -4.9690    -0.6420 H     1 <1>   0.1500 
 39 H       -6.1050    -2.0050    -0.9370 H     1 <1>   0.0800 
 40 H       -6.7060    -0.7610     0.1260 H     1 <1>   0.0800 
 41 H       -5.9820    -2.1960     0.8040 H     1 <1>   0.0800 
 42 H       -1.7690     6.7020     1.2090 H     1 <1>   0.0800 
 43 H       -2.1560     7.5060    -0.3070 H     1 <1>   0.0800 
 44 H       -1.9430     8.4470     1.1570 H     1 <1>   0.0800 
 45 H        3.8870     7.4740    -0.9320 H     1 <1>   0.0800 
 46 H        3.1670     5.8980    -0.9710 H     1 <1>   0.0800 
 47 H        3.5990     9.5390     0.4610 H     1 <1>   0.0800 
 48 H        2.3020    10.6530     0.7690 H     1 <1>   0.0800 
 49 H        4.1630     7.2930     1.5330 H     1 <1>   0.0800 
 50 H        4.9740     5.9780     0.7140 H     1 <1>   0.0800 
 51 H        3.4320     5.7090     1.4970 H     1 <1>   0.0800 
 52 H        3.1310     9.6890    -1.9870 H     1 <1>   0.0800 
 53 H        3.4850    11.2670    -1.3150 H     1 <1>   0.0800 
 54 H        1.8310    10.8060    -1.6530 H     1 <1>   0.0800 
@<TRIPOS>BOND
  1   1   2  2   
  2   2   3  am  
  3   2   4  1   
  4   3   5  1   
  5   3  27  1   
  6   4   6  1   
  7   4  28  1   
  8   4  29  1   
  9   5   7  ar  
 10   5   8  ar  
 11   6   9  1   
 12   6  30  1   
 13   6  31  1   
 14   7  10  ar  
 15   7  11  1   
 16   8  12  ar  
 17   8  32  1   
 18   9  13  2   
 19   9  14  am  
 20  10  15  ar  
 21  10  33  1   
 22  11  16  1   
 23  11  34  1   
 24  11  35  1   
 25  12  15  ar  
 26  12  36  1   
 27  14  17  1   
 28  14  37  1   
 29  15  38  1   
 30  16  39  1   
 31  16  40  1   
 32  16  41  1   
 33  17  18  1   
 34  17  19  2   
 35  18  20  1   
 36  18  21  1   
 37  19  22  1   
 38  19  23  1   
 39  20  22  2   
 40  21  42  1   
 41  21  43  1   
 42  21  44  1   
 43  22  24  1   
 44  23  25  1   
 45  23  45  1   
 46  23  46  1   
 47  24  26  1   
 48  24  47  1   
 49  24  48  1   
 50  25  49  1   
 51  25  50  1   
 52  25  51  1   
 53  26  52  1   
 54  26  53  1   
 55  26  54  1   
@<TRIPOS>SUBSTRUCTURE
  1 ****   6 GROUP 4 **** **** 0

# MOE 2024.06 (io_trps.svl 2023.06)
