@<TRIPOS>MOLECULE
NONAME
56 58 1 0 0 
SMALL
USER_CHARGES


@<TRIPOS>ATOM
  1 N       -0.8760    -0.1960    -0.6510 N.2   1 <1>  -0.7070 
  2 N       -1.5310     0.4970     0.2870 N.pl3 1 <1>   0.3140 
  3 C       -0.7010    -1.3910    -0.1610 C.2   1 <1>   0.2350 
  4 C       -1.8310    -0.2820     1.3440 C.2   1 <1>  -0.3020 
  5 C       -1.8320     1.9270     0.1270 C.3   1 <1>   0.0160 
  6 C        0.0080    -2.4480    -0.8430 C.ar  1 <1>   0.0540 
  7 C       -1.3250    -1.5060     1.0860 C.2   1 <1>  -0.1810 
  8 C        1.0710    -3.1160    -0.2380 C.ar  1 <1>  -0.1500 
  9 C       -0.3800    -2.8560    -2.1170 C.ar  1 <1>  -0.1500 
 10 C       -1.4290    -2.7620     1.9330 C.3   1 <1>   0.5240 
 11 C        1.6790    -4.1940    -0.8540 C.ar  1 <1>  -0.1500 
 12 C        0.2250    -3.9330    -2.7380 C.ar  1 <1>  -0.1500 
 13 N       -2.3240    -3.7740     1.2810 N.4   1 <1>  -0.9590 
 14 C        1.2500    -4.6100    -2.1010 C.ar  1 <1>  -0.1500 
 15 C       -1.5290    -4.7950     0.5280 C.3   1 <1>   0.5240 
 16 C       -3.4510    -3.1560     0.4860 C.3   1 <1>   0.3430 
 17 C       -2.2330    -6.1400     0.6790 C.2   1 <1>   0.0460 
 18 C       -4.5560    -4.1420     0.0090 C.3   1 <1>   0.3430 
 19 N       -3.2090    -6.3110     1.6020 N.2   1 <1>  -0.5650 
 20 C       -2.0150    -7.2840    -0.0030 C.2   1 <1>  -0.3020 
 21 N       -5.6850    -3.4900    -0.7540 N.4   1 <1>  -0.9590 
 22 C       -3.5400    -7.5560     1.4770 C.2   1 <1>   0.0060 
 23 N       -2.8510    -8.2050     0.5120 N.pl3 1 <1>   0.0330 
 24 C       -6.7400    -4.5110    -1.0600 C.3   1 <1>   0.2630 
 25 C       -5.2430    -2.8320    -2.0300 C.3   1 <1>   0.2630 
 26 C       -4.5840    -8.2500     2.3280 C.3   1 <1>  -0.0600 
 27 H       -2.3760     0.0900     2.1940 H     1 <1>   0.1500 
 28 H       -1.5500     2.2390    -0.8620 H     1 <1>   0.0800 
 29 H       -1.2700     2.4890     0.8500 H     1 <1>   0.0800 
 30 H       -2.8830     2.0920     0.2720 H     1 <1>   0.0800 
 31 H        1.4350    -2.7790     0.7170 H     1 <1>   0.1500 
 32 H       -1.1560    -2.3100    -2.6260 H     1 <1>   0.1500 
 33 H       -1.8420    -2.4870     2.8900 H     1 <1>   0.0800 
 34 H       -0.4490    -3.1760     2.1050 H     1 <1>   0.0800 
 35 H        2.5010    -4.7020    -0.3750 H     1 <1>   0.1500 
 36 H       -0.0840    -4.2360    -3.7250 H     1 <1>   0.1500 
 37 H       -2.7350    -4.3670     2.0290 H     1 <1>   0.4500 
 38 H        1.7290    -5.4450    -2.5870 H     1 <1>   0.1500 
 39 H       -0.5430    -4.8860     0.9520 H     1 <1>   0.0800 
 40 H       -1.4320    -4.5340    -0.5110 H     1 <1>   0.0800 
 41 H       -3.0330    -2.6650    -0.3770 H     1 <1>   0.0800 
 42 H       -3.9200    -2.4020     1.0960 H     1 <1>   0.0800 
 43 H       -4.9620    -4.6380     0.8750 H     1 <1>   0.0800 
 44 H       -4.1040    -4.8950    -0.6150 H     1 <1>   0.0800 
 45 H       -1.3200    -7.5080    -0.7960 H     1 <1>   0.1500 
 46 H       -6.1360    -2.7730    -0.1600 H     1 <1>   0.4500 
 47 H       -2.9340    -9.1960     0.2540 H     1 <1>   0.2700 
 48 H       -6.3420    -5.2880    -1.6930 H     1 <1>   0.0800 
 49 H       -7.5730    -4.0500    -1.5680 H     1 <1>   0.0800 
 50 H       -7.1050    -4.9610    -0.1510 H     1 <1>   0.0800 
 51 H       -4.7850    -3.5540    -2.6880 H     1 <1>   0.0800 
 52 H       -4.5330    -2.0450    -1.8310 H     1 <1>   0.0800 
 53 H       -6.0900    -2.4000    -2.5390 H     1 <1>   0.0800 
 54 H       -5.0070    -7.5590     3.0360 H     1 <1>   0.0800 
 55 H       -4.1340    -9.0600     2.8740 H     1 <1>   0.0800 
 56 H       -5.3730    -8.6400     1.7110 H     1 <1>   0.0800 
@<TRIPOS>BOND
  1   1   2  1   
  2   1   3  2   
  3   2   4  1   
  4   2   5  1   
  5   3   6  1   
  6   3   7  1   
  7   4   7  2   
  8   4  27  1   
  9   5  28  1   
 10   5  29  1   
 11   5  30  1   
 12   6   8  ar  
 13   6   9  ar  
 14   7  10  1   
 15   8  11  ar  
 16   8  31  1   
 17   9  12  ar  
 18   9  32  1   
 19  10  13  1   
 20  10  33  1   
 21  10  34  1   
 22  11  14  ar  
 23  11  35  1   
 24  12  14  ar  
 25  12  36  1   
 26  13  15  1   
 27  13  16  1   
 28  13  37  1   
 29  14  38  1   
 30  15  17  1   
 31  15  39  1   
 32  15  40  1   
 33  16  18  1   
 34  16  41  1   
 35  16  42  1   
 36  17  19  1   
 37  17  20  2   
 38  18  21  1   
 39  18  43  1   
 40  18  44  1   
 41  19  22  2   
 42  20  23  1   
 43  20  45  1   
 44  21  24  1   
 45  21  25  1   
 46  21  46  1   
 47  22  23  1   
 48  22  26  1   
 49  23  47  1   
 50  24  48  1   
 51  24  49  1   
 52  24  50  1   
 53  25  51  1   
 54  25  52  1   
 55  25  53  1   
 56  26  54  1   
 57  26  55  1   
 58  26  56  1   
@<TRIPOS>SUBSTRUCTURE
  1 ****  13 GROUP 4 **** **** 0

# MOE 2024.06 (io_trps.svl 2023.06)
