@<TRIPOS>MOLECULE
NONAME
44 45 1 0 0 
SMALL
USER_CHARGES


@<TRIPOS>ATOM
  1 F        0.9820     1.6720     2.0260 F     1 <1>  -0.1900 
  2 C        2.0640     2.0510     1.4020 C.ar  1 <1>   0.1900 
  3 C        2.0030     2.2790     0.0410 C.ar  1 <1>  -0.1500 
  4 C        3.2300     2.2120     2.1260 C.ar  1 <1>  -0.1500 
  5 C        3.1540     2.6830    -0.6150 C.ar  1 <1>  -0.1500 
  6 C        4.3740     2.6160     1.4590 C.ar  1 <1>  -0.1500 
  7 C        4.3400     2.8530     0.0900 C.ar  1 <1>  -0.1430 
  8 C        5.5950     3.3040    -0.6380 C.3   1 <1>  -0.0160 
  9 C        5.6360     4.8340    -0.7180 C.3   1 <1>  -0.1600 
 10 C        6.9000     5.3370    -1.4340 C.3   1 <1>  -0.0990 
 11 C        6.9130     6.8480    -1.5590 C.2   1 <1>   0.5690 
 12 O        6.6740     7.3340    -2.6370 O.2   1 <1>  -0.5700 
 13 N        7.2010     7.5730    -0.4370 N.am  1 <1>  -0.4940 
 14 C        7.3180     8.9690    -0.2190 C.2   1 <1>  -0.0880 
 15 N        6.6470     9.9780    -0.8440 N.pl3 1 <1>   0.3140 
 16 C        8.1270     9.5620     0.6920 C.2   1 <1>  -0.1810 
 17 N        7.0090    11.1850    -0.3560 N.2   1 <1>  -0.7070 
 18 C        5.5820     9.9000    -1.8520 C.3   1 <1>   0.0160 
 19 C        7.8940    10.9270     0.5510 C.2   1 <1>   0.1080 
 20 C        9.0950     8.9040     1.6630 C.3   1 <1>   0.0210 
 21 C        8.5640    12.0280     1.3410 C.3   1 <1>  -0.0590 
 22 C       10.4640     8.7210     1.0060 C.3   1 <1>  -0.2400 
 23 H        1.0780     2.1430    -0.4880 H     1 <1>   0.1500 
 24 H        3.2370     2.0240     3.1840 H     1 <1>   0.1500 
 25 H        3.1230     2.8660    -1.6750 H     1 <1>   0.1500 
 26 H        5.2890     2.7460     2.0100 H     1 <1>   0.1500 
 27 H        5.6050     2.8850    -1.6300 H     1 <1>   0.0800 
 28 H        6.4650     2.9380    -0.1200 H     1 <1>   0.0800 
 29 H        5.5940     5.2410     0.2780 H     1 <1>   0.0800 
 30 H        4.7670     5.1820    -1.2510 H     1 <1>   0.0800 
 31 H        6.9430     4.9170    -2.4240 H     1 <1>   0.0800 
 32 H        7.7800     5.0210    -0.9050 H     1 <1>   0.0800 
 33 H        7.4610     7.0130     0.3720 H     1 <1>   0.3700 
 34 H        4.9590     9.0500    -1.6480 H     1 <1>   0.0800 
 35 H        6.0280     9.8040    -2.8240 H     1 <1>   0.0800 
 36 H        4.9930    10.7970    -1.8140 H     1 <1>   0.0800 
 37 H        8.7090     7.9470     1.9650 H     1 <1>   0.0800 
 38 H        9.1910     9.5100     2.5460 H     1 <1>   0.0800 
 39 H        9.6220    11.8570     1.3910 H     1 <1>   0.0800 
 40 H        8.1560    12.0600     2.3330 H     1 <1>   0.0800 
 41 H        8.3890    12.9750     0.8620 H     1 <1>   0.0800 
 42 H       10.3730     8.1080     0.1270 H     1 <1>   0.0800 
 43 H       11.1470     8.2510     1.6910 H     1 <1>   0.0800 
 44 H       10.8660     9.6750     0.7150 H     1 <1>   0.0800 
@<TRIPOS>BOND
  1   1   2  1   
  2   2   3  ar  
  3   2   4  ar  
  4   3   5  ar  
  5   3  23  1   
  6   4   6  ar  
  7   4  24  1   
  8   5   7  ar  
  9   5  25  1   
 10   6   7  ar  
 11   6  26  1   
 12   7   8  1   
 13   8   9  1   
 14   8  27  1   
 15   8  28  1   
 16   9  10  1   
 17   9  29  1   
 18   9  30  1   
 19  10  11  1   
 20  10  31  1   
 21  10  32  1   
 22  11  12  2   
 23  11  13  am  
 24  13  14  1   
 25  13  33  1   
 26  14  15  1   
 27  14  16  2   
 28  15  17  1   
 29  15  18  1   
 30  16  19  1   
 31  16  20  1   
 32  17  19  2   
 33  18  34  1   
 34  18  35  1   
 35  18  36  1   
 36  19  21  1   
 37  20  22  1   
 38  20  37  1   
 39  20  38  1   
 40  21  39  1   
 41  21  40  1   
 42  21  41  1   
 43  22  42  1   
 44  22  43  1   
 45  22  44  1   
@<TRIPOS>SUBSTRUCTURE
  1 ****  13 GROUP 4 **** **** 0

# MOE 2024.06 (io_trps.svl 2023.06)
