@<TRIPOS>MOLECULE
NONAME
22 23 1 0 0 
SMALL
USER_CHARGES


@<TRIPOS>ATOM
  1 N        8.8690    -0.0960     0.1620 N.4   1 <1>  -0.8750 
  2 C        7.4560     0.2270     0.4970 C.3   1 <1>   0.4720 
  3 C        9.6850     1.1260    -0.0980 C.3   1 <1>   0.2630 
  4 C        6.5350    -1.0250     0.5960 C.3   1 <1>   0.0760 
  5 C        6.6020     0.7020    -0.7170 C.3   1 <1>   0.0760 
  6 C        5.4710    -0.1680    -0.1260 C.3   1 <1>  -0.1520 
  7 C        4.0630    -0.4270    -0.5370 C.3   1 <1>  -0.2000 
  8 C        4.3560     0.4620     0.6460 C.3   1 <1>  -0.2000 
  9 H        8.8740    -0.7130    -0.6610 H     1 <1>   0.4500 
 10 H        9.2710    -0.6320     0.9410 H     1 <1>   0.4500 
 11 H        7.3660     0.8750     1.3500 H     1 <1>   0.0000 
 12 H        9.2800     1.6780    -0.9310 H     1 <1>   0.0800 
 13 H       10.7030     0.8540    -0.3300 H     1 <1>   0.0800 
 14 H        9.6900     1.7660     0.7700 H     1 <1>   0.0800 
 15 H        6.2640    -1.2990     1.6000 H     1 <1>   0.0000 
 16 H        6.8690    -1.8500    -0.0110 H     1 <1>   0.0000 
 17 H        6.9530     0.3220    -1.6610 H     1 <1>   0.0000 
 18 H        6.3830     1.7550    -0.7200 H     1 <1>   0.0000 
 19 H        3.6360    -1.3990    -0.3590 H     1 <1>   0.1000 
 20 H        3.6910     0.0250    -1.4410 H     1 <1>   0.1000 
 21 H        4.1420     1.5120     0.5380 H     1 <1>   0.1000 
 22 H        4.0870     0.0880     1.6210 H     1 <1>   0.1000 
@<TRIPOS>BOND
  1   1   2  1   
  2   1   3  1   
  3   1   9  1   
  4   1  10  1   
  5   2   4  1   
  6   2   5  1   
  7   2  11  1   
  8   3  12  1   
  9   3  13  1   
 10   3  14  1   
 11   4   6  1   
 12   4  15  1   
 13   4  16  1   
 14   5   6  1   
 15   5  17  1   
 16   5  18  1   
 17   6   7  1   
 18   6   8  1   
 19   7   8  1   
 20   7  19  1   
 21   7  20  1   
 22   8  21  1   
 23   8  22  1   
@<TRIPOS>SUBSTRUCTURE
  1 ****   2 GROUP 4 **** **** 0

# MOE 2024.06 (io_trps.svl 2023.06)
