@<TRIPOS>MOLECULE
NONAME
48 51 1 0 0 
SMALL
USER_CHARGES


@<TRIPOS>ATOM
  1 O        1.0400    -0.0350     1.3250 O.3   1 <1>  -0.6800 
  2 C        1.5400     0.1380     0.0380 C.3   1 <1>   0.2000 
  3 C        2.3240    -1.0950    -0.4090 C.3   1 <1>  -0.0800 
  4 C        2.6010     1.2440     0.0560 C.3   1 <1>   0.1100 
  5 C        3.7020    -0.8490     0.2090 C.3   1 <1>   0.1100 
  6 C        1.7130    -2.4580    -0.0190 C.3   1 <1>  -0.0170 
  7 N        3.9360     0.5980     0.1260 N.3   1 <1>  -0.8100 
  8 C        2.4230    -3.7050    -0.5640 C.ar  1 <1>  -0.1430 
  9 C        4.7890     0.9520    -1.0260 C.3   1 <1>   0.2900 
 10 C        2.1110    -4.9830    -0.0360 C.ar  1 <1>   0.0000 
 11 C        3.3550    -3.6630    -1.5650 C.ar  1 <1>  -0.1500 
 12 C        5.0500     2.4490    -1.1100 C.2   1 <1>   0.0070 
 13 C        2.8040    -6.1050    -0.5550 C.ar  1 <1>   0.3100 
 14 C        1.1470    -5.2180     0.9740 C.ar  1 <1>  -0.1500 
 15 C        3.9750    -4.8350    -2.0110 C.ar  1 <1>   0.1600 
 16 N        4.8170     3.1600    -2.1570 N.2   1 <1>  -0.5650 
 17 N        5.5540     3.1950    -0.1150 N.pl3 1 <1>   0.3140 
 18 N        3.7310    -6.0140    -1.5390 N.ar  1 <1>  -0.6200 
 19 C        2.5230    -7.3810    -0.0390 C.ar  1 <1>  -0.1500 
 20 C        0.8950    -6.4750     1.4540 C.ar  1 <1>  -0.1500 
 21 C        5.2070     4.3730    -1.7480 C.2   1 <1>   0.3660 
 22 N        5.6560     4.4490    -0.5410 N.2   1 <1>  -0.7070 
 23 C        5.9610     2.8080     1.2560 C.3   1 <1>   0.0960 
 24 C        1.5920    -7.5730     0.9440 C.ar  1 <1>  -0.1500 
 25 C        7.3520     2.1610     1.2670 C.3   1 <1>  -0.2400 
 26 H        0.2980    -0.6680     1.3250 H     1 <1>   0.4000 
 27 H        0.7190     0.3800    -0.6150 H     1 <1>   0.0800 
 28 H        2.4110    -1.0370    -1.4780 H     1 <1>   0.0800 
 29 H        2.4570     1.8980     0.8990 H     1 <1>   0.0800 
 30 H        2.5090     1.8270    -0.8460 H     1 <1>   0.0800 
 31 H        4.4800    -1.4160    -0.2720 H     1 <1>   0.0800 
 32 H        3.6760    -1.1220     1.2510 H     1 <1>   0.0800 
 33 H        0.6900    -2.4870    -0.3530 H     1 <1>   0.0800 
 34 H        1.7130    -2.5170     1.0550 H     1 <1>   0.0800 
 35 H        5.7340     0.4450    -0.9380 H     1 <1>   0.0800 
 36 H        4.3210     0.6290    -1.9400 H     1 <1>   0.0800 
 37 H        3.6510    -2.7530    -2.0480 H     1 <1>   0.1500 
 38 H        0.5910    -4.3970     1.3820 H     1 <1>   0.1500 
 39 H        4.7040    -4.7500    -2.7990 H     1 <1>   0.1500 
 40 H        3.0700    -8.2100    -0.4490 H     1 <1>   0.1500 
 41 H        0.1610    -6.6350     2.2240 H     1 <1>   0.1500 
 42 H        5.1410     5.2230    -2.4080 H     1 <1>   0.1500 
 43 H        5.9700     3.6960     1.8610 H     1 <1>   0.0800 
 44 H        5.2300     2.1360     1.6640 H     1 <1>   0.0800 
 45 H        1.3870    -8.5570     1.3300 H     1 <1>   0.1500 
 46 H        8.0780     2.8390     0.8530 H     1 <1>   0.0800 
 47 H        7.3480     1.2480     0.6990 H     1 <1>   0.0800 
 48 H        7.6350     1.9310     2.2780 H     1 <1>   0.0800 
@<TRIPOS>BOND
  1   1   2  1   
  2   1  26  1   
  3   2   3  1   
  4   2   4  1   
  5   2  27  1   
  6   3   5  1   
  7   3   6  1   
  8   3  28  1   
  9   4   7  1   
 10   4  29  1   
 11   4  30  1   
 12   5   7  1   
 13   5  31  1   
 14   5  32  1   
 15   6   8  1   
 16   6  33  1   
 17   6  34  1   
 18   7   9  1   
 19   8  10  ar  
 20   8  11  ar  
 21   9  12  1   
 22   9  35  1   
 23   9  36  1   
 24  10  13  ar  
 25  10  14  ar  
 26  11  15  ar  
 27  11  37  1   
 28  12  16  2   
 29  12  17  1   
 30  13  18  ar  
 31  13  19  ar  
 32  14  20  ar  
 33  14  38  1   
 34  15  18  ar  
 35  15  39  1   
 36  16  21  1   
 37  17  22  1   
 38  17  23  1   
 39  19  24  ar  
 40  19  40  1   
 41  20  24  ar  
 42  20  41  1   
 43  21  22  2   
 44  21  42  1   
 45  23  25  1   
 46  23  43  1   
 47  23  44  1   
 48  24  45  1   
 49  25  46  1   
 50  25  47  1   
 51  25  48  1   
@<TRIPOS>SUBSTRUCTURE
  1 ****   5 GROUP 4 **** **** 0

# MOE 2024.06 (io_trps.svl 2023.06)
