@<TRIPOS>MOLECULE
NONAME
50 53 1 0 0 
SMALL
USER_CHARGES


@<TRIPOS>ATOM
  1 O       -0.6680    -0.4390     1.4410 O.2   1 <1>  -0.5700 
  2 C       -1.3290     0.4230     0.8900 C.2   1 <1>   0.5440 
  3 N       -2.3570     0.0390     0.0450 N.am  1 <1>  -0.6600 
  4 C       -1.0340     1.8170     1.1560 C.ar  1 <1>   0.0860 
  5 C       -3.4360     0.9930    -0.3580 C.3   1 <1>   0.2200 
  6 C       -2.5090    -1.3990    -0.3320 C.3   1 <1>   0.0600 
  7 C       -0.7820     2.7150     0.1310 C.ar  1 <1>  -0.1500 
  8 C       -1.0210     2.2980     2.4810 C.ar  1 <1>  -0.1500 
  9 C       -4.8520     0.5240    -0.0400 C.3   1 <1>  -0.1600 
 10 C       -3.4650     1.2750    -1.8570 C.3   1 <1>  -0.1600 
 11 C       -0.5790     4.0690     0.3990 C.ar  1 <1>   0.0000 
 12 C       -0.8070     3.6250     2.7680 C.ar  1 <1>  -0.1500 
 13 C       -5.7390     1.4100    -0.9250 C.3   1 <1>  -0.0800 
 14 C       -4.8550     1.8760    -2.0970 C.3   1 <1>  -0.0800 
 15 C       -0.5950     4.5160     1.7140 C.ar  1 <1>  -0.1520 
 16 C       -0.3480     5.2050    -0.4100 C.2   1 <1>  -0.1810 
 17 C       -6.2240     2.6840    -0.2160 C.3   1 <1>  -0.1600 
 18 C       -4.8600     3.4130    -2.0630 C.3   1 <1>  -0.1600 
 19 N       -0.3760     5.8660     1.7090 N.pl3 1 <1>   0.0330 
 20 C       -0.2310     6.2770     0.4120 C.2   1 <1>  -0.3320 
 21 C       -0.2630     5.1320    -1.9230 C.3   1 <1>  -0.0590 
 22 C       -6.0990     3.7790    -1.2630 C.3   1 <1>   0.2000 
 23 C        0.0210     7.7400     0.0870 C.3   1 <1>  -0.0600 
 24 O       -5.9260     5.0020    -0.6550 O.3   1 <1>  -0.6800 
 25 H       -3.3050     1.9320     0.1510 H     1 <1>   0.0800 
 26 H       -2.9540    -1.4960    -1.3050 H     1 <1>   0.0800 
 27 H       -3.1270    -1.8960     0.3950 H     1 <1>   0.0800 
 28 H       -1.5470    -1.8810    -0.3500 H     1 <1>   0.0800 
 29 H       -0.7460     2.3750    -0.8860 H     1 <1>   0.1500 
 30 H       -1.1870     1.5890     3.2740 H     1 <1>   0.1500 
 31 H       -4.9920    -0.4980    -0.3400 H     1 <1>   0.0800 
 32 H       -5.0800     0.6230     1.0060 H     1 <1>   0.0800 
 33 H       -2.6750     1.9360    -2.1600 H     1 <1>   0.0800 
 34 H       -3.3860     0.3570    -2.4090 H     1 <1>   0.0800 
 35 H       -0.8020     3.9800     3.7830 H     1 <1>   0.1500 
 36 H       -6.5860     0.8560    -1.2940 H     1 <1>   0.0800 
 37 H       -5.2630     1.5310    -3.0330 H     1 <1>   0.0800 
 38 H       -5.5870     2.9100     0.6220 H     1 <1>   0.0800 
 39 H       -7.2400     2.5830     0.1220 H     1 <1>   0.0800 
 40 H       -4.9020     3.8270    -3.0550 H     1 <1>   0.0800 
 41 H       -3.9820     3.7780    -1.5580 H     1 <1>   0.0800 
 42 H       -0.3270     6.4590     2.5420 H     1 <1>   0.2700 
 43 H        0.5360     4.4730    -2.2090 H     1 <1>   0.0800 
 44 H       -0.0770     6.1000    -2.3470 H     1 <1>   0.0800 
 45 H       -1.1870     4.7550    -2.3200 H     1 <1>   0.0800 
 46 H       -6.9740     3.8170    -1.8920 H     1 <1>   0.0800 
 47 H        0.1090     7.8900    -0.9720 H     1 <1>   0.0800 
 48 H        0.9330     8.0680     0.5530 H     1 <1>   0.0800 
 49 H       -0.7930     8.3420     0.4480 H     1 <1>   0.0800 
 50 H       -5.1130     4.9920    -0.1160 H     1 <1>   0.4000 
@<TRIPOS>BOND
  1   1   2  2   
  2   2   3  am  
  3   2   4  1   
  4   3   5  1   
  5   3   6  1   
  6   4   7  ar  
  7   4   8  ar  
  8   5   9  1   
  9   5  10  1   
 10   5  25  1   
 11   6  26  1   
 12   6  27  1   
 13   6  28  1   
 14   7  11  ar  
 15   7  29  1   
 16   8  12  ar  
 17   8  30  1   
 18   9  13  1   
 19   9  31  1   
 20   9  32  1   
 21  10  14  1   
 22  10  33  1   
 23  10  34  1   
 24  11  15  ar  
 25  11  16  1   
 26  12  15  ar  
 27  12  35  1   
 28  13  14  1   
 29  13  17  1   
 30  13  36  1   
 31  14  18  1   
 32  14  37  1   
 33  15  19  1   
 34  16  20  2   
 35  16  21  1   
 36  17  22  1   
 37  17  38  1   
 38  17  39  1   
 39  18  22  1   
 40  18  40  1   
 41  18  41  1   
 42  19  20  1   
 43  19  42  1   
 44  20  23  1   
 45  21  43  1   
 46  21  44  1   
 47  21  45  1   
 48  22  24  1   
 49  22  46  1   
 50  23  47  1   
 51  23  48  1   
 52  23  49  1   
 53  24  50  1   
@<TRIPOS>SUBSTRUCTURE
  1 ****   7 GROUP 4 **** **** 0

# MOE 2024.06 (io_trps.svl 2023.06)
