@<TRIPOS>MOLECULE
NONAME
50 52 1 0 0 
SMALL
USER_CHARGES


@<TRIPOS>ATOM
  1 O        4.1910    -3.5230    -0.1910 O.2   1 <1>  -0.5700 
  2 C        3.2540    -2.8010    -0.4360 C.2   1 <1>   0.5690 
  3 N        3.0940    -1.6280     0.2630 N.am  1 <1>  -0.6600 
  4 C        2.2990    -3.2260    -1.5670 C.3   1 <1>   0.1710 
  5 C        3.8530    -1.4330     1.5540 C.3   1 <1>   0.2200 
  6 C        2.2350    -0.5170    -0.2490 C.3   1 <1>   0.1400 
  7 N        0.8450    -3.0570    -1.2830 N.3   1 <1>  -0.8100 
  8 C        3.0090    -0.7870     2.6650 C.3   1 <1>   0.1200 
  9 C        5.1520    -0.6340     1.3060 C.3   1 <1>   0.3430 
 10 C        2.6620     0.8890     0.2180 C.3   1 <1>  -0.0800 
 11 C        0.4330    -3.9310    -0.1620 C.3   1 <1>   0.2540 
 12 C        0.0590    -3.3470    -2.4940 C.3   1 <1>   0.0300 
 13 O        3.0560     0.6060     2.5790 O.3   1 <1>  -0.5600 
 14 N        5.1140     0.1240     0.0060 N.4   1 <1>  -0.9590 
 15 C        2.1980     1.1800     1.6530 C.3   1 <1>   0.1200 
 16 C        4.1460     1.2700     0.0040 C.3   1 <1>   0.3430 
 17 C       -1.0210    -3.7060     0.2310 C.ar  1 <1>  -0.1440 
 18 C        6.4810     0.5500    -0.4070 C.3   1 <1>   0.2630 
 19 C       -1.5520    -2.4450     0.4170 C.ar  1 <1>  -0.1500 
 20 C       -1.8890    -4.7620     0.4300 C.ar  1 <1>  -0.1500 
 21 C       -2.8810    -2.3040     0.7800 C.ar  1 <1>   0.1600 
 22 C       -3.2020    -4.5130     0.7930 C.ar  1 <1>   0.1600 
 23 N       -3.7180    -3.3090     0.9740 N.ar  1 <1>  -0.6200 
 24 H        2.4950    -4.2580    -1.8010 H     1 <1>   0.0800 
 25 H        2.5540    -2.6490    -2.4370 H     1 <1>   0.0800 
 26 H        4.1340    -2.4010     1.9330 H     1 <1>   0.0800 
 27 H        2.2450    -0.5370    -1.3250 H     1 <1>   0.0800 
 28 H        1.2190    -0.7020     0.0570 H     1 <1>   0.0800 
 29 H        3.4300    -1.0460     3.6210 H     1 <1>   0.0800 
 30 H        1.9880    -1.1310     2.6450 H     1 <1>   0.0800 
 31 H        5.9650    -1.3400     1.2780 H     1 <1>   0.0800 
 32 H        5.3300     0.0380     2.1300 H     1 <1>   0.0800 
 33 H        2.0930     1.5740    -0.3850 H     1 <1>   0.0800 
 34 H        0.5820    -4.9620    -0.4340 H     1 <1>   0.0800 
 35 H        1.0430    -3.7250     0.7010 H     1 <1>   0.0800 
 36 H       -0.9870    -3.1610    -2.3170 H     1 <1>   0.0800 
 37 H        0.1810    -4.3760    -2.7900 H     1 <1>   0.0800 
 38 H        0.3750    -2.7110    -3.3030 H     1 <1>   0.0800 
 39 H        4.7480    -0.5750    -0.6610 H     1 <1>   0.4500 
 40 H        1.1960     0.8250     1.8330 H     1 <1>   0.0800 
 41 H        2.2120     2.2410     1.8350 H     1 <1>   0.0800 
 42 H        4.4330     1.9820     0.7610 H     1 <1>   0.0800 
 43 H        4.2200     1.7690    -0.9490 H     1 <1>   0.0800 
 44 H        6.8830     1.2540     0.3030 H     1 <1>   0.0800 
 45 H        6.4500     1.0170    -1.3780 H     1 <1>   0.0800 
 46 H        7.1380    -0.3030    -0.4590 H     1 <1>   0.0800 
 47 H       -0.9410    -1.5750     0.2730 H     1 <1>   0.1500 
 48 H       -1.5590    -5.7770     0.3060 H     1 <1>   0.1500 
 49 H       -3.2760    -1.3120     0.9170 H     1 <1>   0.1500 
 50 H       -3.8630    -5.3490     0.9440 H     1 <1>   0.1500 
@<TRIPOS>BOND
  1   1   2  2   
  2   2   3  am  
  3   2   4  1   
  4   3   5  1   
  5   3   6  1   
  6   4   7  1   
  7   4  24  1   
  8   4  25  1   
  9   5   8  1   
 10   5   9  1   
 11   5  26  1   
 12   6  10  1   
 13   6  27  1   
 14   6  28  1   
 15   7  11  1   
 16   7  12  1   
 17   8  13  1   
 18   8  29  1   
 19   8  30  1   
 20   9  14  1   
 21   9  31  1   
 22   9  32  1   
 23  10  15  1   
 24  10  16  1   
 25  10  33  1   
 26  11  17  1   
 27  11  34  1   
 28  11  35  1   
 29  12  36  1   
 30  12  37  1   
 31  12  38  1   
 32  13  15  1   
 33  14  16  1   
 34  14  18  1   
 35  14  39  1   
 36  15  40  1   
 37  15  41  1   
 38  16  42  1   
 39  16  43  1   
 40  17  19  ar  
 41  17  20  ar  
 42  18  44  1   
 43  18  45  1   
 44  18  46  1   
 45  19  21  ar  
 46  19  47  1   
 47  20  22  ar  
 48  20  48  1   
 49  21  23  ar  
 50  21  49  1   
 51  22  23  ar  
 52  22  50  1   
@<TRIPOS>SUBSTRUCTURE
  1 ****   3 GROUP 4 **** **** 0

# MOE 2024.06 (io_trps.svl 2023.06)
