@<TRIPOS>MOLECULE
NONAME
42 45 1 0 0 
SMALL
USER_CHARGES


@<TRIPOS>ATOM
  1 S       -0.6370     0.5040     2.0460 S.3   1 <1>  -0.0800 
  2 C       -1.2880     0.9390     0.4730 C.2   1 <1>  -0.1400 
  3 C       -1.8320    -0.7740     2.2220 C.2   1 <1>  -0.1100 
  4 C       -2.3280     0.1570     0.1580 C.2   1 <1>  -0.1810 
  5 C       -0.6990     2.0590    -0.3790 C.3   1 <1>   0.4600 
  6 C       -2.6430    -0.8270     1.1470 C.2   1 <1>  -0.1500 
  7 C       -3.0440     0.3660    -1.1560 C.3   1 <1>   0.0210 
  8 O       -1.3580     2.0700    -1.6310 O.3   1 <1>  -0.5600 
  9 C       -0.9110     3.4290     0.2860 C.3   1 <1>  -0.1600 
 10 C        0.7830     1.7840    -0.6970 C.3   1 <1>  -0.1600 
 11 C       -2.7390     1.7860    -1.6720 C.3   1 <1>   0.1200 
 12 C        0.0220     4.4770    -0.3180 C.3   1 <1>   0.1400 
 13 C        1.7350     2.6470     0.1330 C.3   1 <1>   0.1400 
 14 N        1.4500     4.1000    -0.0860 N.am  1 <1>  -0.6600 
 15 C        2.4810     5.0080    -0.0480 C.2   1 <1>   0.5690 
 16 O        3.6030     4.6700     0.2530 O.2   1 <1>  -0.5700 
 17 C        2.2390     6.4820    -0.3760 C.3   1 <1>  -0.0190 
 18 C        3.4600     7.2050    -0.9230 C.3   1 <1>   0.1200 
 19 C        1.8810     7.3390     0.8350 C.3   1 <1>  -0.1600 
 20 O        3.2060     8.5470    -0.6680 O.3   1 <1>  -0.5600 
 21 C        2.5600     8.6800     0.5570 C.3   1 <1>   0.1200 
 22 H       -1.7990    -1.3600     3.1230 H     1 <1>   0.1500 
 23 H       -3.4540    -1.5200     1.0070 H     1 <1>   0.1500 
 24 H       -4.1050     0.2560    -1.0220 H     1 <1>   0.0800 
 25 H       -2.7120    -0.3630    -1.8730 H     1 <1>   0.0800 
 26 H       -0.7010     3.3610     1.3380 H     1 <1>   0.0800 
 27 H       -1.9320     3.7410     0.1900 H     1 <1>   0.0800 
 28 H        0.9800     1.9870    -1.7350 H     1 <1>   0.0800 
 29 H        1.0060     0.7480    -0.5240 H     1 <1>   0.0800 
 30 H       -3.2570     2.5160    -1.0770 H     1 <1>   0.0800 
 31 H       -3.0620     1.8850    -2.6930 H     1 <1>   0.0800 
 32 H       -0.1870     5.4300     0.1340 H     1 <1>   0.0800 
 33 H       -0.1570     4.5510    -1.3780 H     1 <1>   0.0800 
 34 H        2.7500     2.4240    -0.1500 H     1 <1>   0.0800 
 35 H        1.6250     2.4210     1.1790 H     1 <1>   0.0800 
 36 H        1.4730     6.5670    -1.1230 H     1 <1>   0.0800 
 37 H        3.5920     7.0590    -1.9810 H     1 <1>   0.0800 
 38 H        4.3590     6.9340    -0.3950 H     1 <1>   0.0800 
 39 H        2.2880     6.9170     1.7370 H     1 <1>   0.0800 
 40 H        0.8190     7.4540     0.9490 H     1 <1>   0.0800 
 41 H        3.3000     8.9070     1.3050 H     1 <1>   0.0800 
 42 H        1.8520     9.4870     0.4810 H     1 <1>   0.0800 
@<TRIPOS>BOND
  1   1   2  1   
  2   1   3  1   
  3   2   4  2   
  4   2   5  1   
  5   3   6  2   
  6   3  22  1   
  7   4   6  1   
  8   4   7  1   
  9   5   8  1   
 10   5   9  1   
 11   5  10  1   
 12   6  23  1   
 13   7  11  1   
 14   7  24  1   
 15   7  25  1   
 16   8  11  1   
 17   9  12  1   
 18   9  26  1   
 19   9  27  1   
 20  10  13  1   
 21  10  28  1   
 22  10  29  1   
 23  11  30  1   
 24  11  31  1   
 25  12  14  1   
 26  12  32  1   
 27  12  33  1   
 28  13  14  1   
 29  13  34  1   
 30  13  35  1   
 31  14  15  am  
 32  15  16  2   
 33  15  17  1   
 34  17  18  1   
 35  17  19  1   
 36  17  36  1   
 37  18  20  1   
 38  18  37  1   
 39  18  38  1   
 40  19  21  1   
 41  19  39  1   
 42  19  40  1   
 43  20  21  1   
 44  21  41  1   
 45  21  42  1   
@<TRIPOS>SUBSTRUCTURE
  1 ****  12 GROUP 4 **** **** 0

# MOE 2024.06 (io_trps.svl 2023.06)
