@<TRIPOS>MOLECULE
NONAME
51 54 1 0 0 
SMALL
USER_CHARGES


@<TRIPOS>ATOM
  1 S       -0.5070     0.6480    -1.0890 S.o2  1 <1>   1.3330 
  2 O       -1.5420     1.6180    -1.3720 O.2   1 <1>  -0.6500 
  3 O        0.4780     0.3310    -2.0980 O.2   1 <1>  -0.6500 
  4 N       -1.2650    -0.7940    -0.6170 N.am  1 <1>  -0.8490 
  5 C        0.3710     1.1350     0.4000 C.3   1 <1>  -0.0550 
  6 C       -1.5090    -1.6740    -1.7680 C.3   1 <1>   0.1960 
  7 C       -2.5220    -0.5500     0.1010 C.3   1 <1>   0.1960 
  8 C        1.1700     2.4400     0.2470 C.3   1 <1>  -0.1600 
  9 C       -2.0230    -3.0310    -1.2890 C.3   1 <1>  -0.1600 
 10 C       -3.0590    -1.8640     0.6660 C.3   1 <1>  -0.1600 
 11 C        1.8950     2.8060     1.5480 C.3   1 <1>  -0.1600 
 12 C       -3.2940    -2.8790    -0.4550 C.3   1 <1>   0.4600 
 13 C        2.6870     4.1050     1.3850 C.3   1 <1>  -0.2400 
 14 O       -4.2820    -2.3810    -1.3310 O.3   1 <1>  -0.5600 
 15 C       -3.7420    -4.2280     0.0950 C.2   1 <1>  -0.3320 
 16 C       -5.6340    -2.5490    -0.9750 C.3   1 <1>   0.1200 
 17 N       -2.9980    -5.0850     0.8580 N.pl3 1 <1>   0.0330 
 18 C       -4.9630    -4.7620    -0.1090 C.2   1 <1>  -0.1810 
 19 C       -6.0120    -4.0380    -0.9150 C.3   1 <1>   0.0210 
 20 C       -3.7710    -6.1870     1.1360 C.ar  1 <1>  -0.1520 
 21 C       -5.0160    -6.0140     0.5370 C.ar  1 <1>   0.0000 
 22 C       -3.4840    -7.3410     1.8700 C.ar  1 <1>  -0.1500 
 23 C       -5.9920    -7.0070     0.6690 C.ar  1 <1>  -0.1500 
 24 C       -4.4540    -8.3090     1.9930 C.ar  1 <1>  -0.1500 
 25 C       -5.7080    -8.1430     1.3920 C.ar  1 <1>  -0.1500 
 26 H        1.0450     0.3470     0.6740 H     1 <1>   0.0800 
 27 H       -0.3340     1.2560     1.1990 H     1 <1>   0.0800 
 28 H       -0.5940    -1.8330    -2.3130 H     1 <1>   0.0800 
 29 H       -2.2220    -1.2170    -2.4370 H     1 <1>   0.0800 
 30 H       -3.2490    -0.1110    -0.5650 H     1 <1>   0.0800 
 31 H       -2.3550     0.1380     0.9110 H     1 <1>   0.0800 
 32 H        0.4980     3.2350    -0.0300 H     1 <1>   0.0800 
 33 H        1.8880     2.3220    -0.5480 H     1 <1>   0.0800 
 34 H       -1.2540    -3.4990    -0.7050 H     1 <1>   0.0800 
 35 H       -2.2290    -3.6660    -2.1320 H     1 <1>   0.0800 
 36 H       -3.9700    -1.6930     1.2070 H     1 <1>   0.0800 
 37 H       -2.3420    -2.2580     1.3610 H     1 <1>   0.0800 
 38 H        2.5710     2.0130     1.8230 H     1 <1>   0.0800 
 39 H        1.1790     2.9270     2.3430 H     1 <1>   0.0800 
 40 H        3.4260     4.0020     0.6090 H     1 <1>   0.0800 
 41 H        3.1900     4.3480     2.3050 H     1 <1>   0.0800 
 42 H        2.0300     4.9180     1.1310 H     1 <1>   0.0800 
 43 H       -6.2330    -2.0430    -1.7110 H     1 <1>   0.0800 
 44 H       -5.7970    -2.0840    -0.0190 H     1 <1>   0.0800 
 45 H       -2.0300    -4.9540     1.1650 H     1 <1>   0.2700 
 46 H       -6.0530    -4.4470    -1.9080 H     1 <1>   0.0800 
 47 H       -6.9770    -4.1500    -0.4550 H     1 <1>   0.0800 
 48 H       -2.5190    -7.4630     2.3280 H     1 <1>   0.1500 
 49 H       -6.9480    -6.8660     0.2020 H     1 <1>   0.1500 
 50 H       -4.2580    -9.2070     2.5530 H     1 <1>   0.1500 
 51 H       -6.4480    -8.9150     1.5030 H     1 <1>   0.1500 
@<TRIPOS>BOND
  1   1   2  2   
  2   1   3  2   
  3   1   4  am  
  4   1   5  1   
  5   4   6  1   
  6   4   7  1   
  7   5   8  1   
  8   5  26  1   
  9   5  27  1   
 10   6   9  1   
 11   6  28  1   
 12   6  29  1   
 13   7  10  1   
 14   7  30  1   
 15   7  31  1   
 16   8  11  1   
 17   8  32  1   
 18   8  33  1   
 19   9  12  1   
 20   9  34  1   
 21   9  35  1   
 22  10  12  1   
 23  10  36  1   
 24  10  37  1   
 25  11  13  1   
 26  11  38  1   
 27  11  39  1   
 28  12  14  1   
 29  12  15  1   
 30  13  40  1   
 31  13  41  1   
 32  13  42  1   
 33  14  16  1   
 34  15  17  1   
 35  15  18  2   
 36  16  19  1   
 37  16  43  1   
 38  16  44  1   
 39  17  20  1   
 40  17  45  1   
 41  18  19  1   
 42  18  21  1   
 43  19  46  1   
 44  19  47  1   
 45  20  21  ar  
 46  20  22  ar  
 47  21  23  ar  
 48  22  24  ar  
 49  22  48  1   
 50  23  25  ar  
 51  23  49  1   
 52  24  25  ar  
 53  24  50  1   
 54  25  51  1   
@<TRIPOS>SUBSTRUCTURE
  1 ****  12 GROUP 4 **** **** 0

# MOE 2024.06 (io_trps.svl 2023.06)
