@<TRIPOS>MOLECULE
NONAME
51 54 1 0 0 
SMALL
USER_CHARGES


@<TRIPOS>ATOM
  1 O       -1.2410    -5.4530    -0.1900 O.2   1 <1>  -0.5700 
  2 C       -0.0930    -5.1250    -0.3400 C.2   1 <1>   0.5690 
  3 N        0.7090    -5.7430    -1.2330 N.am  1 <1>  -0.7300 
  4 C        0.5100    -4.0070     0.4830 C.3   1 <1>  -0.0990 
  5 C        2.1230    -5.3720    -1.4420 C.3   1 <1>   0.1400 
  6 C        1.3810    -3.0880    -0.3970 C.3   1 <1>  -0.0800 
  7 C        2.2660    -3.8380    -1.4260 C.3   1 <1>  -0.0800 
  8 C        2.3230    -2.1890     0.4160 C.3   1 <1>  -0.1600 
  9 C        3.7060    -3.3780    -1.1620 C.3   1 <1>  -0.1600 
 10 C        3.5540    -2.0270    -0.4760 C.3   1 <1>   0.2200 
 11 N        4.7990    -1.6100     0.2380 N.am  1 <1>  -0.6600 
 12 C        5.6720    -0.7300    -0.3750 C.2   1 <1>   0.5440 
 13 C        5.1340    -2.2770     1.5330 C.3   1 <1>   0.0600 
 14 O        5.5440    -0.5000    -1.5630 O.2   1 <1>  -0.5700 
 15 C        6.7450    -0.0810     0.3570 C.ar  1 <1>   0.0860 
 16 C        8.0580    -0.1360    -0.1030 C.ar  1 <1>  -0.1500 
 17 C        6.5020     0.6190     1.5380 C.ar  1 <1>  -0.1500 
 18 C        9.1130     0.4570     0.5810 C.ar  1 <1>   0.0000 
 19 C        7.5320     1.2200     2.2360 C.ar  1 <1>  -0.1500 
 20 C       10.4660     0.3730     0.0810 C.ar  1 <1>   0.0000 
 21 C        8.8270     1.1350     1.7610 C.ar  1 <1>  -0.1500 
 22 C       11.0640    -0.8630    -0.1570 C.ar  1 <1>  -0.1500 
 23 C       11.2090     1.5230    -0.1750 C.ar  1 <1>  -0.1500 
 24 C       12.3600    -0.9480    -0.6330 C.ar  1 <1>  -0.1500 
 25 C       12.5060     1.4480    -0.6500 C.ar  1 <1>  -0.1500 
 26 C       13.0790     0.2080    -0.8780 C.ar  1 <1>   0.0820 
 27 O       14.3340     0.1150    -1.3370 O.3   1 <1>  -0.5330 
 28 H        0.3130    -6.5170    -1.7700 H     1 <1>   0.3700 
 29 H       -0.2750    -3.4400     0.9480 H     1 <1>   0.0800 
 30 H        1.1010    -4.4620     1.2550 H     1 <1>   0.0800 
 31 H        2.7080    -5.8110    -0.6510 H     1 <1>   0.0800 
 32 H        2.4710    -5.7650    -2.3820 H     1 <1>   0.0800 
 33 H        0.7160    -2.4540    -0.9600 H     1 <1>   0.0800 
 34 H        1.9870    -3.4820    -2.4040 H     1 <1>   0.0800 
 35 H        2.5780    -2.6810     1.3350 H     1 <1>   0.0800 
 36 H        1.8720    -1.2370     0.6310 H     1 <1>   0.0800 
 37 H        4.2670    -3.2830    -2.0750 H     1 <1>   0.0800 
 38 H        4.2020    -4.0690    -0.5060 H     1 <1>   0.0800 
 39 H        3.3100    -1.2960    -1.2300 H     1 <1>   0.0800 
 40 H        4.8610    -3.3160     1.5030 H     1 <1>   0.0800 
 41 H        4.6030    -1.7970     2.3360 H     1 <1>   0.0800 
 42 H        6.1910    -2.2180     1.7300 H     1 <1>   0.0800 
 43 H        8.2560    -0.6530    -1.0260 H     1 <1>   0.1500 
 44 H        5.4930     0.6920     1.9040 H     1 <1>   0.1500 
 45 H        7.3280     1.7540     3.1480 H     1 <1>   0.1500 
 46 H        9.6300     1.5980     2.3090 H     1 <1>   0.1500 
 47 H       10.5090    -1.7630     0.0350 H     1 <1>   0.1500 
 48 H       10.7590     2.4850    -0.0030 H     1 <1>   0.1500 
 49 H       12.8180    -1.9030    -0.8150 H     1 <1>   0.1500 
 50 H       13.0600     2.3490    -0.8410 H     1 <1>   0.1500 
 51 H       14.7580     0.9790    -1.4800 H     1 <1>   0.4500 
@<TRIPOS>BOND
  1   1   2  2   
  2   2   3  am  
  3   2   4  1   
  4   3   5  1   
  5   3  28  1   
  6   4   6  1   
  7   4  29  1   
  8   4  30  1   
  9   5   7  1   
 10   5  31  1   
 11   5  32  1   
 12   6   7  1   
 13   6   8  1   
 14   6  33  1   
 15   7   9  1   
 16   7  34  1   
 17   8  10  1   
 18   8  35  1   
 19   8  36  1   
 20   9  10  1   
 21   9  37  1   
 22   9  38  1   
 23  10  11  1   
 24  10  39  1   
 25  11  12  am  
 26  11  13  1   
 27  12  14  2   
 28  12  15  1   
 29  13  40  1   
 30  13  41  1   
 31  13  42  1   
 32  15  16  ar  
 33  15  17  ar  
 34  16  18  ar  
 35  16  43  1   
 36  17  19  ar  
 37  17  44  1   
 38  18  20  1   
 39  18  21  ar  
 40  19  21  ar  
 41  19  45  1   
 42  20  22  ar  
 43  20  23  ar  
 44  21  46  1   
 45  22  24  ar  
 46  22  47  1   
 47  23  25  ar  
 48  23  48  1   
 49  24  26  ar  
 50  24  49  1   
 51  25  26  ar  
 52  25  50  1   
 53  26  27  1   
 54  27  51  1   
@<TRIPOS>SUBSTRUCTURE
  1 ****  12 GROUP 4 **** **** 0

# MOE 2024.06 (io_trps.svl 2023.06)
