@<TRIPOS>MOLECULE
NONAME
51 54 1 0 0 
SMALL
USER_CHARGES


@<TRIPOS>ATOM
  1 O       -0.5850     1.0250    -1.0370 O.2   1 <1>  -0.5700 
  2 C       -1.6510     1.2940    -0.5110 C.2   1 <1>   0.7150 
  3 N       -2.5410     0.2550    -0.2890 N.am  1 <1>  -0.6600 
  4 C       -1.9190     2.6810    -0.1770 C.2   1 <1>   0.0550 
  5 C       -4.0170     0.2970    -0.5060 C.3   1 <1>   0.2200 
  6 C       -2.0110    -1.1230    -0.0780 C.3   1 <1>   0.0600 
  7 O       -2.6070     3.0240     0.9240 O.3   1 <1>  -0.2800 
  8 C       -1.5360     3.8080    -0.8300 C.2   1 <1>  -0.1500 
  9 C       -4.4890     1.2650    -1.6000 C.3   1 <1>  -0.1600 
 10 C       -4.7700     0.6370     0.7790 C.3   1 <1>  -0.1600 
 11 C       -2.6590     4.3530     0.9870 C.ar  1 <1>   0.1400 
 12 C       -2.0200     4.9080    -0.1040 C.ar  1 <1>   0.0000 
 13 C       -5.7620     1.9400    -1.0760 C.3   1 <1>  -0.0800 
 14 C       -5.9830     1.4840     0.3680 C.3   1 <1>  -0.0800 
 15 C       -3.2570     5.1350     1.9660 C.ar  1 <1>  -0.1500 
 16 C       -1.9880     6.2970    -0.2460 C.ar  1 <1>  -0.1500 
 17 C       -5.6900     3.4710    -1.0170 C.3   1 <1>  -0.1600 
 18 C       -6.1710     2.7650     1.1980 C.3   1 <1>  -0.1600 
 19 C       -3.2210     6.5070     1.8210 C.ar  1 <1>  -0.1500 
 20 C       -2.5900     7.0840     0.7140 C.ar  1 <1>  -0.1500 
 21 C       -6.5230     3.8740     0.2020 C.3   1 <1>   0.4230 
 22 N       -7.9880     3.8500    -0.1180 N.4   1 <1>  -0.9590 
 23 C       -8.3580     4.8000    -1.2160 C.3   1 <1>   0.2630 
 24 C       -8.8410     4.1530     1.0760 C.3   1 <1>   0.2630 
 25 H       -4.3420    -0.6840    -0.8120 H     1 <1>   0.0800 
 26 H       -2.5720    -1.6190     0.6930 H     1 <1>   0.0800 
 27 H       -0.9770    -1.0850     0.2230 H     1 <1>   0.0800 
 28 H       -2.0830    -1.6840    -0.9930 H     1 <1>   0.0800 
 29 H       -0.9580     3.8740    -1.7340 H     1 <1>   0.1500 
 30 H       -3.7500     1.9920    -1.8690 H     1 <1>   0.0800 
 31 H       -4.7180     0.7010    -2.4880 H     1 <1>   0.0800 
 32 H       -5.0910    -0.2660     1.2660 H     1 <1>   0.0800 
 33 H       -4.1260     1.1620     1.4580 H     1 <1>   0.0800 
 34 H       -6.6050     1.6380    -1.6760 H     1 <1>   0.0800 
 35 H       -6.8730     0.8770     0.4100 H     1 <1>   0.0800 
 36 H       -3.7200     4.6670     2.8160 H     1 <1>   0.1500 
 37 H       -1.4910     6.7330    -1.0960 H     1 <1>   0.1500 
 38 H       -5.9760     3.9330    -1.9410 H     1 <1>   0.0800 
 39 H       -4.6770     3.7700    -0.8170 H     1 <1>   0.0800 
 40 H       -5.2360     3.0390     1.6500 H     1 <1>   0.0800 
 41 H       -6.8750     2.6300     1.9970 H     1 <1>   0.0800 
 42 H       -3.6690     7.1450     2.5640 H     1 <1>   0.1500 
 43 H       -2.5700     8.1570     0.6210 H     1 <1>   0.1500 
 44 H       -6.2320     4.8450     0.5720 H     1 <1>   0.0800 
 45 H       -8.1930     2.8910    -0.4320 H     1 <1>   0.4500 
 46 H       -8.0530     5.8020    -0.9610 H     1 <1>   0.0800 
 47 H       -9.4240     4.7930    -1.3720 H     1 <1>   0.0800 
 48 H       -7.8830     4.5190    -2.1410 H     1 <1>   0.0800 
 49 H       -8.5850     5.1180     1.4840 H     1 <1>   0.0800 
 50 H       -8.7090     3.4080     1.8420 H     1 <1>   0.0800 
 51 H       -9.8830     4.1630     0.7970 H     1 <1>   0.0800 
@<TRIPOS>BOND
  1   1   2  2   
  2   2   3  am  
  3   2   4  1   
  4   3   5  1   
  5   3   6  1   
  6   4   7  1   
  7   4   8  2   
  8   5   9  1   
  9   5  10  1   
 10   5  25  1   
 11   6  26  1   
 12   6  27  1   
 13   6  28  1   
 14   7  11  1   
 15   8  12  1   
 16   8  29  1   
 17   9  13  1   
 18   9  30  1   
 19   9  31  1   
 20  10  14  1   
 21  10  32  1   
 22  10  33  1   
 23  11  12  ar  
 24  11  15  ar  
 25  12  16  ar  
 26  13  14  1   
 27  13  17  1   
 28  13  34  1   
 29  14  18  1   
 30  14  35  1   
 31  15  19  ar  
 32  15  36  1   
 33  16  20  ar  
 34  16  37  1   
 35  17  21  1   
 36  17  38  1   
 37  17  39  1   
 38  18  21  1   
 39  18  40  1   
 40  18  41  1   
 41  19  20  ar  
 42  19  42  1   
 43  20  43  1   
 44  21  22  1   
 45  21  44  1   
 46  22  23  1   
 47  22  24  1   
 48  22  45  1   
 49  23  46  1   
 50  23  47  1   
 51  23  48  1   
 52  24  49  1   
 53  24  50  1   
 54  24  51  1   
@<TRIPOS>SUBSTRUCTURE
  1 ****   7 GROUP 4 **** **** 0

# MOE 2024.06 (io_trps.svl 2023.06)
