@<TRIPOS>MOLECULE
NONAME
41 42 1 0 0 
SMALL
USER_CHARGES


@<TRIPOS>ATOM
  1 CL      -0.7810     0.0270    -1.1980 Cl    1 <1>  -0.1770 
  2 C       -2.2720     0.5090    -0.4270 C.ar  1 <1>   0.1770 
  3 C       -3.3360    -0.3860    -0.3370 C.ar  1 <1>   0.0860 
  4 C       -2.3380     1.7890     0.0970 C.ar  1 <1>  -0.1500 
  5 C       -4.4670     0.0830     0.3260 C.ar  1 <1>   0.1900 
  6 C       -3.2760    -1.7100    -0.8960 C.2   1 <1>   0.5440 
  7 C       -3.4860     2.2180     0.7430 C.ar  1 <1>  -0.1500 
  8 F       -5.4990    -0.7060     0.4620 F     1 <1>  -0.1900 
  9 C       -4.5620     1.3550     0.8610 C.ar  1 <1>  -0.1500 
 10 O       -3.2270    -1.8760    -2.0970 O.2   1 <1>  -0.5700 
 11 N       -3.3040    -2.8080    -0.0880 N.am  1 <1>  -0.7300 
 12 C       -3.2110    -4.2140    -0.5460 C.3   1 <1>   0.2200 
 13 C       -4.5890    -4.8550    -0.6080 C.3   1 <1>  -0.0800 
 14 C       -2.5720    -5.0430     0.5580 C.3   1 <1>   0.1200 
 15 C       -4.8360    -5.2570     0.8510 C.3   1 <1>   0.1200 
 16 C       -5.6870    -3.9790    -1.2490 C.3   1 <1>  -0.0550 
 17 O       -3.5900    -5.2440     1.4910 O.3   1 <1>  -0.5600 
 18 S       -7.2640    -4.8080    -1.4580 S.o2  1 <1>   1.3330 
 19 O       -7.0090    -6.1320    -1.9810 O.2   1 <1>  -0.6500 
 20 O       -8.1840    -3.9330    -2.1480 O.2   1 <1>  -0.6500 
 21 N       -7.8450    -4.9860     0.1300 N.am  1 <1>  -0.8490 
 22 C       -8.4410    -3.7570     0.6690 C.3   1 <1>   0.1160 
 23 C       -8.8020    -6.0900     0.2430 C.3   1 <1>   0.1160 
 24 H       -1.4900     2.4460    -0.0010 H     1 <1>   0.1500 
 25 H       -3.5400     3.2150     1.1500 H     1 <1>   0.1500 
 26 H       -5.4650     1.6640     1.3600 H     1 <1>   0.1500 
 27 H       -3.4320    -2.7150     0.9240 H     1 <1>   0.3700 
 28 H       -2.6730    -4.2800    -1.4780 H     1 <1>   0.0800 
 29 H       -4.5030    -5.7610    -1.1830 H     1 <1>   0.0800 
 30 H       -1.7390    -4.5480     1.0260 H     1 <1>   0.0800 
 31 H       -2.2680    -6.0060     0.1870 H     1 <1>   0.0800 
 32 H       -5.2620    -6.2430     0.9290 H     1 <1>   0.0800 
 33 H       -5.4660    -4.5490     1.3600 H     1 <1>   0.0800 
 34 H       -5.3390    -3.6710    -2.2170 H     1 <1>   0.0800 
 35 H       -5.8310    -3.0910    -0.6690 H     1 <1>   0.0800 
 36 H       -8.7150    -3.9020     1.7000 H     1 <1>   0.0800 
 37 H       -9.3200    -3.4860     0.1070 H     1 <1>   0.0800 
 38 H       -7.7360    -2.9460     0.6170 H     1 <1>   0.0800 
 39 H       -9.1430    -6.1870     1.2600 H     1 <1>   0.0800 
 40 H       -8.3320    -7.0160    -0.0430 H     1 <1>   0.0800 
 41 H       -9.6490    -5.9190    -0.4010 H     1 <1>   0.0800 
@<TRIPOS>BOND
  1   1   2  1   
  2   2   3  ar  
  3   2   4  ar  
  4   3   5  ar  
  5   3   6  1   
  6   4   7  ar  
  7   4  24  1   
  8   5   8  1   
  9   5   9  ar  
 10   6  10  2   
 11   6  11  am  
 12   7   9  ar  
 13   7  25  1   
 14   9  26  1   
 15  11  12  1   
 16  11  27  1   
 17  12  13  1   
 18  12  14  1   
 19  12  28  1   
 20  13  15  1   
 21  13  16  1   
 22  13  29  1   
 23  14  17  1   
 24  14  30  1   
 25  14  31  1   
 26  15  17  1   
 27  15  32  1   
 28  15  33  1   
 29  16  18  1   
 30  16  34  1   
 31  16  35  1   
 32  18  19  2   
 33  18  20  2   
 34  18  21  am  
 35  21  22  1   
 36  21  23  1   
 37  22  36  1   
 38  22  37  1   
 39  22  38  1   
 40  23  39  1   
 41  23  40  1   
 42  23  41  1   
@<TRIPOS>SUBSTRUCTURE
  1 ****  11 GROUP 4 **** **** 0

# MOE 2024.06 (io_trps.svl 2023.06)
