@<TRIPOS>MOLECULE
NONAME
51 54 1 0 0 
SMALL
USER_CHARGES


@<TRIPOS>ATOM
  1 F       -1.2360     0.5690    -0.9110 F     1 <1>  -0.1900 
  2 C       -2.2400    -0.2330    -0.6830 C.ar  1 <1>   0.1900 
  3 C       -3.4880     0.2840    -0.4910 C.ar  1 <1>  -0.1500 
  4 C       -1.9850    -1.6030    -0.6440 C.ar  1 <1>  -0.1500 
  5 C       -4.5710    -0.5720    -0.2450 C.ar  1 <1>   0.3100 
  6 C       -3.0290    -2.4560    -0.4040 C.ar  1 <1>  -0.1500 
  7 N       -5.7850    -0.0050    -0.0670 N.ar  1 <1>  -0.6200 
  8 C       -4.3420    -1.9710    -0.1990 C.ar  1 <1>   0.0000 
  9 C       -6.8010    -0.7950     0.1460 C.ar  1 <1>   0.4100 
 10 C       -5.4560    -2.8010     0.0570 C.ar  1 <1>  -0.1440 
 11 N       -8.0490    -0.2190     0.3050 N.pl3 1 <1>  -0.8380 
 12 C       -6.6620    -2.1960     0.2280 C.ar  1 <1>  -0.1500 
 13 C       -5.3240    -4.3150     0.1480 C.3   1 <1>  -0.0970 
 14 C       -8.1560     1.2140     0.6980 C.3   1 <1>   0.2090 
 15 C       -9.2720    -0.8480    -0.2750 C.3   1 <1>   0.2090 
 16 C       -9.5780     1.5000     1.1720 C.3   1 <1>  -0.1600 
 17 C      -10.1500     0.2090    -0.9470 C.3   1 <1>  -0.1600 
 18 C      -10.6080     1.3210     0.0330 C.3   1 <1>   0.2800 
 19 O      -10.6040     2.5060    -0.7360 O.3   1 <1>  -0.5600 
 20 C      -12.0340     1.0800     0.6270 C.3   1 <1>   0.2000 
 21 C      -11.3960     3.5720    -0.2990 C.3   1 <1>   0.1200 
 22 O      -12.3040    -0.2690     0.8830 O.3   1 <1>  -0.6800 
 23 C      -13.1590     1.7150    -0.2350 C.3   1 <1>   0.2800 
 24 C      -12.8860     3.2180    -0.4290 C.3   1 <1>  -0.1600 
 25 O      -14.3510     1.5830     0.4590 O.3   1 <1>  -0.6800 
 26 C      -13.3990     1.0280    -1.5880 C.3   1 <1>  -0.2400 
 27 H       -3.6650     1.3410    -0.5260 H     1 <1>   0.1500 
 28 H       -0.9820    -1.9560    -0.8010 H     1 <1>   0.1500 
 29 H       -2.8470    -3.5140    -0.3710 H     1 <1>   0.1500 
 30 H       -7.5430    -2.7680     0.4410 H     1 <1>   0.1500 
 31 H       -6.2760    -4.7700     0.3560 H     1 <1>   0.0800 
 32 H       -4.6450    -4.5790     0.9380 H     1 <1>   0.0800 
 33 H       -4.9570    -4.7100    -0.7820 H     1 <1>   0.0800 
 34 H       -7.4550     1.4180     1.4890 H     1 <1>   0.0800 
 35 H       -7.9100     1.8380    -0.1460 H     1 <1>   0.0800 
 36 H       -8.9920    -1.5870    -1.0060 H     1 <1>   0.0800 
 37 H       -9.8250    -1.3360     0.5090 H     1 <1>   0.0800 
 38 H       -9.6270     2.4880     1.5860 H     1 <1>   0.0800 
 39 H       -9.7950     0.8100     1.9690 H     1 <1>   0.0800 
 40 H      -10.9930    -0.2880    -1.3830 H     1 <1>   0.0800 
 41 H       -9.5770     0.6400    -1.7490 H     1 <1>   0.0800 
 42 H      -12.0670     1.5690     1.5840 H     1 <1>   0.0800 
 43 H      -11.1440     3.7970     0.7230 H     1 <1>   0.0800 
 44 H      -11.1590     4.4290    -0.9040 H     1 <1>   0.0800 
 45 H      -13.2560    -0.3310     1.1090 H     1 <1>   0.4000 
 46 H      -13.2250     3.5370    -1.3980 H     1 <1>   0.0800 
 47 H      -13.4190     3.7960     0.3050 H     1 <1>   0.0800 
 48 H      -15.0830     1.9230    -0.0880 H     1 <1>   0.4000 
 49 H      -12.5510     1.1780    -2.2310 H     1 <1>   0.0800 
 50 H      -14.2590     1.4410    -2.0820 H     1 <1>   0.0800 
 51 H      -13.5420    -0.0300    -1.4580 H     1 <1>   0.0800 
@<TRIPOS>BOND
  1   1   2  1   
  2   2   3  ar  
  3   2   4  ar  
  4   3   5  ar  
  5   3  27  1   
  6   4   6  ar  
  7   4  28  1   
  8   5   7  ar  
  9   5   8  ar  
 10   6   8  ar  
 11   6  29  1   
 12   7   9  ar  
 13   8  10  ar  
 14   9  11  1   
 15   9  12  ar  
 16  10  12  ar  
 17  10  13  1   
 18  11  14  1   
 19  11  15  1   
 20  12  30  1   
 21  13  31  1   
 22  13  32  1   
 23  13  33  1   
 24  14  16  1   
 25  14  34  1   
 26  14  35  1   
 27  15  17  1   
 28  15  36  1   
 29  15  37  1   
 30  16  18  1   
 31  16  38  1   
 32  16  39  1   
 33  17  18  1   
 34  17  40  1   
 35  17  41  1   
 36  18  19  1   
 37  18  20  1   
 38  19  21  1   
 39  20  22  1   
 40  20  23  1   
 41  20  42  1   
 42  21  24  1   
 43  21  43  1   
 44  21  44  1   
 45  22  45  1   
 46  23  24  1   
 47  23  25  1   
 48  23  26  1   
 49  24  46  1   
 50  24  47  1   
 51  25  48  1   
 52  26  49  1   
 53  26  50  1   
 54  26  51  1   
@<TRIPOS>SUBSTRUCTURE
  1 ****  11 GROUP 4 **** **** 0

# MOE 2024.06 (io_trps.svl 2023.06)
