@<TRIPOS>MOLECULE
NONAME
53 55 1 0 0 
SMALL
USER_CHARGES


@<TRIPOS>ATOM
  1 O        0.3630    -0.1620    -0.8210 O.3   1 <1>  -0.5600 
  2 C        1.6150    -0.8060    -0.7770 C.3   1 <1>   0.2000 
  3 C        0.3990     1.1960    -1.1460 C.3   1 <1>   0.1200 
  4 C        2.5840    -0.0880     0.2030 C.3   1 <1>   0.5660 
  5 C        1.3990    -2.2640    -0.3410 C.3   1 <1>   0.1200 
  6 C        1.2140     1.9660    -0.0940 C.3   1 <1>   0.3430 
  7 N        2.5970     1.4030     0.0540 N.4   1 <1>  -0.9590 
  8 C        4.0150    -0.5790     0.0260 C.ar  1 <1>  -0.1430 
  9 O        1.1330    -2.3250     1.0260 O.3   1 <1>  -0.6800 
 10 C        3.3460     2.0430     1.1670 C.3   1 <1>   0.4870 
 11 C        4.7000    -0.4170    -1.1730 C.ar  1 <1>  -0.1500 
 12 C        4.6530    -1.1960     1.0930 C.ar  1 <1>  -0.1500 
 13 C        3.5490     3.5050     0.8200 C.ar  1 <1>  -0.1430 
 14 C        6.0070    -0.8540    -1.2940 C.ar  1 <1>  -0.1500 
 15 C        5.9610    -1.6310     0.9700 C.ar  1 <1>  -0.1500 
 16 C        4.5620     3.9230    -0.0390 C.ar  1 <1>  -0.1430 
 17 C        2.6870     4.4410     1.3730 C.ar  1 <1>  -0.1500 
 18 C        6.6390    -1.4570    -0.2230 C.ar  1 <1>  -0.1500 
 19 C        4.6720     5.2690    -0.3490 C.ar  1 <1>  -0.1500 
 20 C        5.5710     2.9600    -0.6560 C.3   1 <1>  -0.0970 
 21 C        2.7990     5.7850     1.0640 C.ar  1 <1>  -0.1430 
 22 C        3.7960     6.2050     0.1920 C.ar  1 <1>   0.0820 
 23 C        1.8390     6.7930     1.6820 C.3   1 <1>  -0.0970 
 24 O        3.8660     7.5330    -0.0890 O.3   1 <1>  -0.3620 
 25 C        4.9040     8.0790    -0.8720 C.3   1 <1>   0.0400 
 26 H        2.0120    -0.8000    -1.7750 H     1 <1>   0.0800 
 27 H        0.8160     1.3120    -2.1310 H     1 <1>   0.0800 
 28 H       -0.6170     1.5540    -1.1590 H     1 <1>   0.0800 
 29 H        2.2610    -0.3290     1.2020 H     1 <1>   0.0800 
 30 H        2.2820    -2.8510    -0.5300 H     1 <1>   0.0800 
 31 H        0.5690    -2.6930    -0.8770 H     1 <1>   0.0800 
 32 H        0.6930     1.9070     0.8470 H     1 <1>   0.0800 
 33 H        1.2700     3.0050    -0.3780 H     1 <1>   0.0800 
 34 H        3.1270     1.6210    -0.7930 H     1 <1>   0.4500 
 35 H        0.7630    -3.2010     1.2660 H     1 <1>   0.4000 
 36 H        2.7950     1.9550     2.0890 H     1 <1>   0.0800 
 37 H        4.3050     1.5700     1.2990 H     1 <1>   0.0800 
 38 H        4.2360     0.0420    -2.0290 H     1 <1>   0.1500 
 39 H        4.1410    -1.3510     2.0300 H     1 <1>   0.1500 
 40 H        6.5390    -0.7290    -2.2230 H     1 <1>   0.1500 
 41 H        6.4530    -2.1090     1.8000 H     1 <1>   0.1500 
 42 H        1.9150     4.1310     2.0570 H     1 <1>   0.1500 
 43 H        7.6560    -1.7980    -0.3170 H     1 <1>   0.1500 
 44 H        5.4510     5.5860    -1.0170 H     1 <1>   0.1500 
 45 H        6.4590     3.4900    -0.9550 H     1 <1>   0.0800 
 46 H        5.1560     2.4920    -1.5280 H     1 <1>   0.0800 
 47 H        5.8760     2.2050     0.0460 H     1 <1>   0.0800 
 48 H        1.1270     6.3160     2.3300 H     1 <1>   0.0800 
 49 H        1.3060     7.3120     0.9060 H     1 <1>   0.0800 
 50 H        2.3930     7.5150     2.2560 H     1 <1>   0.0800 
 51 H        4.7650     9.1450    -0.9130 H     1 <1>   0.0800 
 52 H        4.8490     7.6660    -1.8630 H     1 <1>   0.0800 
 53 H        5.8480     7.8530    -0.4080 H     1 <1>   0.0800 
@<TRIPOS>BOND
  1   1   2  1   
  2   1   3  1   
  3   2   4  1   
  4   2   5  1   
  5   2  26  1   
  6   3   6  1   
  7   3  27  1   
  8   3  28  1   
  9   4   7  1   
 10   4   8  1   
 11   4  29  1   
 12   5   9  1   
 13   5  30  1   
 14   5  31  1   
 15   6   7  1   
 16   6  32  1   
 17   6  33  1   
 18   7  10  1   
 19   7  34  1   
 20   8  11  ar  
 21   8  12  ar  
 22   9  35  1   
 23  10  13  1   
 24  10  36  1   
 25  10  37  1   
 26  11  14  ar  
 27  11  38  1   
 28  12  15  ar  
 29  12  39  1   
 30  13  16  ar  
 31  13  17  ar  
 32  14  18  ar  
 33  14  40  1   
 34  15  18  ar  
 35  15  41  1   
 36  16  19  ar  
 37  16  20  1   
 38  17  21  ar  
 39  17  42  1   
 40  18  43  1   
 41  19  22  ar  
 42  19  44  1   
 43  20  45  1   
 44  20  46  1   
 45  20  47  1   
 46  21  22  ar  
 47  21  23  1   
 48  22  24  1   
 49  23  48  1   
 50  23  49  1   
 51  23  50  1   
 52  24  25  1   
 53  25  51  1   
 54  25  52  1   
 55  25  53  1   
@<TRIPOS>SUBSTRUCTURE
  1 ****   7 GROUP 4 **** **** 0

# MOE 2024.06 (io_trps.svl 2023.06)
