@<TRIPOS>MOLECULE
NONAME
40 42 1 0 0 
SMALL
USER_CHARGES


@<TRIPOS>ATOM
  1 O       -0.4760     0.2760     0.3340 O.2   1 <1>  -0.5700 
  2 C       -1.5340     0.8600     0.2180 C.2   1 <1>   0.5440 
  3 N       -2.6880     0.1240     0.0900 N.am  1 <1>  -0.6600 
  4 C       -1.5470     2.3050     0.2140 C.ar  1 <1>   0.0860 
  5 C       -4.0100     0.6320    -0.3690 C.3   1 <1>   0.1400 
  6 C       -2.6850    -1.3640     0.0630 C.3   1 <1>   0.1400 
  7 C       -2.3260     3.0200     1.1180 C.ar  1 <1>   0.1600 
  8 C       -0.7800     3.0440    -0.6740 C.ar  1 <1>  -0.1500 
  9 C       -4.9580    -0.5470    -0.1620 C.3   1 <1>   0.2000 
 10 C       -4.0750    -1.7640    -0.4470 C.3   1 <1>  -0.0800 
 11 N       -2.4210     4.3380     1.1860 N.ar  1 <1>  -0.6200 
 12 C       -0.8580     4.4180    -0.6120 C.ar  1 <1>  -0.1500 
 13 O       -5.3430    -0.5530     1.1700 O.3   1 <1>  -0.6800 
 14 C       -4.5830    -3.1030     0.1180 C.3   1 <1>   0.0210 
 15 C       -1.6840     5.0390     0.3200 C.ar  1 <1>   0.3830 
 16 C       -3.6190    -4.2250    -0.2130 C.2   1 <1>   0.1080 
 17 C       -1.7450     6.4780     0.3520 C.1   1 <1>   0.4840 
 18 N       -3.3260    -4.5640    -1.4300 N.2   1 <1>  -0.7070 
 19 C       -2.9410    -4.9960     0.7260 C.2   1 <1>  -0.1500 
 20 N       -1.7610     7.6210     0.3340 N.1   1 <1>  -0.5570 
 21 N       -2.4430    -5.5730    -1.2990 N.pl3 1 <1>   0.3000 
 22 C       -2.1920    -5.8510    -0.0020 C.2   1 <1>  -0.3320 
 23 C       -1.2380    -6.9330     0.4690 C.3   1 <1>  -0.0600 
 24 H       -4.3380     1.4960     0.1810 H     1 <1>   0.0800 
 25 H       -3.9480     0.8700    -1.4170 H     1 <1>   0.0800 
 26 H       -1.9120    -1.7380    -0.5880 H     1 <1>   0.0800 
 27 H       -2.5150    -1.7340     1.0590 H     1 <1>   0.0800 
 28 H       -2.9060     2.4570     1.8300 H     1 <1>   0.1500 
 29 H       -0.1420     2.5420    -1.3830 H     1 <1>   0.1500 
 30 H       -5.8400    -0.5010    -0.7780 H     1 <1>   0.0800 
 31 H       -3.9990    -1.8680    -1.5160 H     1 <1>   0.0800 
 32 H       -0.2730     5.0180    -1.2890 H     1 <1>   0.1500 
 33 H       -4.5400    -0.5100     1.7260 H     1 <1>   0.4000 
 34 H       -5.5410    -3.3340    -0.3110 H     1 <1>   0.0800 
 35 H       -4.7010    -3.0470     1.1850 H     1 <1>   0.0800 
 36 H       -3.0150    -4.9070     1.7950 H     1 <1>   0.1500 
 37 H       -2.0310    -6.0470    -2.1110 H     1 <1>   0.2700 
 38 H       -1.2100    -6.9580     1.5440 H     1 <1>   0.0800 
 39 H       -0.2450    -6.7370     0.1060 H     1 <1>   0.0800 
 40 H       -1.5600    -7.8950     0.1120 H     1 <1>   0.0800 
@<TRIPOS>BOND
  1   1   2  2   
  2   2   3  am  
  3   2   4  1   
  4   3   5  1   
  5   3   6  1   
  6   4   7  ar  
  7   4   8  ar  
  8   5   9  1   
  9   5  24  1   
 10   5  25  1   
 11   6  10  1   
 12   6  26  1   
 13   6  27  1   
 14   7  11  ar  
 15   7  28  1   
 16   8  12  ar  
 17   8  29  1   
 18   9  10  1   
 19   9  13  1   
 20   9  30  1   
 21  10  14  1   
 22  10  31  1   
 23  11  15  ar  
 24  12  15  ar  
 25  12  32  1   
 26  13  33  1   
 27  14  16  1   
 28  14  34  1   
 29  14  35  1   
 30  15  17  1   
 31  16  18  2   
 32  16  19  1   
 33  17  20  3   
 34  18  21  1   
 35  19  22  2   
 36  19  36  1   
 37  21  22  1   
 38  21  37  1   
 39  22  23  1   
 40  23  38  1   
 41  23  39  1   
 42  23  40  1   
@<TRIPOS>SUBSTRUCTURE
  1 ****   3 GROUP 4 **** **** 0

# MOE 2024.06 (io_trps.svl 2023.06)
