@<TRIPOS>MOLECULE
NONAME
50 51 1 0 0 
SMALL
USER_CHARGES


@<TRIPOS>ATOM
  1 S       -1.4740    -1.5410     2.0700 S.o2  1 <1>   1.0900 
  2 O       -1.4690    -2.9660     2.3050 O.2   1 <1>  -0.6500 
  3 O       -0.2320    -0.8270     1.8970 O.2   1 <1>  -0.6500 
  4 C       -2.5170    -1.1950     0.6620 C.3   1 <1>  -0.0550 
  5 C       -2.3320    -0.7750     3.4330 C.3   1 <1>  -0.1350 
  6 C       -3.8010    -2.0210     0.6890 C.3   1 <1>   0.1100 
  7 N       -4.6690    -1.6190    -0.4260 N.3   1 <1>  -0.8100 
  8 C       -5.4780    -2.7750    -0.8730 C.3   1 <1>   0.1100 
  9 C       -5.4960    -0.4490    -0.0750 C.3   1 <1>   0.1100 
 10 C       -6.3400    -2.5070    -2.1180 C.3   1 <1>   0.1400 
 11 C       -5.9520     0.2770    -1.3430 C.3   1 <1>  -0.1600 
 12 N       -7.5260    -1.6590    -1.7850 N.am  1 <1>  -0.6600 
 13 C       -7.3150    -0.1850    -1.8760 C.3   1 <1>   0.1400 
 14 C       -8.7410    -2.1710    -1.3870 C.2   1 <1>   0.5690 
 15 O       -9.6470    -1.4460    -1.0410 O.2   1 <1>  -0.5700 
 16 C       -9.0280    -3.6790    -1.3610 C.3   1 <1>   0.2010 
 17 N       -8.4570    -4.3970    -0.1660 N.am  1 <1>  -0.6600 
 18 C       -7.5360    -5.4000    -0.3140 C.2   1 <1>   0.5690 
 19 C       -9.0570    -4.0010     1.1380 C.3   1 <1>   0.1400 
 20 O       -7.0850    -5.6990    -1.3940 O.2   1 <1>  -0.5700 
 21 C       -7.0020    -6.1490     0.8960 C.3   1 <1>  -0.0990 
 22 C       -8.2190    -4.4900     2.3230 C.3   1 <1>  -0.1600 
 23 C       -7.8500    -5.9660     2.1620 C.3   1 <1>  -0.1600 
 24 H       -1.9860    -1.4450    -0.2360 H     1 <1>   0.0800 
 25 H       -2.7460    -0.1490     0.6300 H     1 <1>   0.0800 
 26 H       -1.7620    -0.8970     4.3340 H     1 <1>   0.0800 
 27 H       -3.2940    -1.2250     3.5820 H     1 <1>   0.0800 
 28 H       -2.4610     0.2750     3.2560 H     1 <1>   0.0800 
 29 H       -4.3260    -1.9060     1.6220 H     1 <1>   0.0800 
 30 H       -3.5260    -3.0590     0.5900 H     1 <1>   0.0800 
 31 H       -6.1080    -3.1080    -0.0680 H     1 <1>   0.0800 
 32 H       -4.8110    -3.5830    -1.1210 H     1 <1>   0.0800 
 33 H       -4.9070     0.2440     0.5000 H     1 <1>   0.0800 
 34 H       -6.3410    -0.7430     0.5260 H     1 <1>   0.0800 
 35 H       -6.6650    -3.4480    -2.5210 H     1 <1>   0.0800 
 36 H       -5.7410    -2.0340    -2.8760 H     1 <1>   0.0800 
 37 H       -5.2010     0.1830    -2.1080 H     1 <1>   0.0800 
 38 H       -6.0380     1.3250    -1.1240 H     1 <1>   0.0800 
 39 H       -7.4200     0.1190    -2.9030 H     1 <1>   0.0800 
 40 H       -8.0810     0.3190    -1.3120 H     1 <1>   0.0800 
 41 H       -8.6720    -4.1180    -2.2730 H     1 <1>   0.0800 
 42 H      -10.0940    -3.8120    -1.3540 H     1 <1>   0.0800 
 43 H      -10.0460    -4.4220     1.2000 H     1 <1>   0.0800 
 44 H       -9.1480    -2.9290     1.1900 H     1 <1>   0.0800 
 45 H       -6.0060    -5.7920     1.0810 H     1 <1>   0.0800 
 46 H       -6.9350    -7.1940     0.6550 H     1 <1>   0.0800 
 47 H       -8.7800    -4.3510     3.2300 H     1 <1>   0.0800 
 48 H       -7.3260    -3.8930     2.3960 H     1 <1>   0.0800 
 49 H       -7.3030    -6.3120     3.0220 H     1 <1>   0.0800 
 50 H       -8.7500    -6.5520     2.0780 H     1 <1>   0.0800 
@<TRIPOS>BOND
  1   1   2  2   
  2   1   3  2   
  3   1   4  1   
  4   1   5  1   
  5   4   6  1   
  6   4  24  1   
  7   4  25  1   
  8   5  26  1   
  9   5  27  1   
 10   5  28  1   
 11   6   7  1   
 12   6  29  1   
 13   6  30  1   
 14   7   8  1   
 15   7   9  1   
 16   8  10  1   
 17   8  31  1   
 18   8  32  1   
 19   9  11  1   
 20   9  33  1   
 21   9  34  1   
 22  10  12  1   
 23  10  35  1   
 24  10  36  1   
 25  11  13  1   
 26  11  37  1   
 27  11  38  1   
 28  12  13  1   
 29  12  14  am  
 30  13  39  1   
 31  13  40  1   
 32  14  15  2   
 33  14  16  1   
 34  16  17  1   
 35  16  41  1   
 36  16  42  1   
 37  17  18  am  
 38  17  19  1   
 39  18  20  2   
 40  18  21  1   
 41  19  22  1   
 42  19  43  1   
 43  19  44  1   
 44  21  23  1   
 45  21  45  1   
 46  21  46  1   
 47  22  23  1   
 48  22  47  1   
 49  22  48  1   
 50  23  49  1   
 51  23  50  1   
@<TRIPOS>SUBSTRUCTURE
  1 ****   8 GROUP 4 **** **** 0

# MOE 2024.06 (io_trps.svl 2023.06)
