@<TRIPOS>MOLECULE
NONAME
49 51 1 0 0 
SMALL
USER_CHARGES


@<TRIPOS>ATOM
  1 O        0.0330    -2.3700     0.7320 O.2   1 <1>  -0.5700 
  2 C        0.4020    -1.2790     0.3620 C.2   1 <1>   0.5690 
  3 N        1.1100    -1.1100    -0.8010 N.am  1 <1>  -0.6600 
  4 C        0.0550    -0.0870     1.2390 C.3   1 <1>  -0.0990 
  5 C        1.7390     0.1800    -1.2050 C.3   1 <1>   0.1400 
  6 C        1.3960    -2.2640    -1.6990 C.3   1 <1>   0.1400 
  7 C        0.9680     1.1240     1.0090 C.3   1 <1>  -0.1600 
  8 C        1.1050     1.3790    -0.4930 C.3   1 <1>  -0.1600 
  9 C        2.6300    -3.0330    -1.2140 C.3   1 <1>  -0.0990 
 10 C        2.3040    -4.4810    -0.9350 C.2   1 <1>   0.5690 
 11 O        2.8640    -5.3410    -1.5680 O.2   1 <1>  -0.5700 
 12 N        1.3870    -4.7660     0.0180 N.am  1 <1>  -0.7300 
 13 C        0.9650    -6.1250     0.4260 C.3   1 <1>   0.2200 
 14 C       -0.4820    -6.4550     0.0680 C.3   1 <1>  -0.0800 
 15 C        1.0140    -6.3080     1.9450 C.3   1 <1>   0.1200 
 16 C       -0.8290    -7.4290     1.1920 C.3   1 <1>   0.1200 
 17 C       -1.4410    -5.2440     0.0620 C.3   1 <1>  -0.0170 
 18 O       -0.1760    -6.9390     2.3180 O.3   1 <1>  -0.5600 
 19 C       -2.8780    -5.6590    -0.2220 C.ar  1 <1>  -0.1440 
 20 C       -3.2940    -6.0280    -1.4850 C.ar  1 <1>  -0.1500 
 21 C       -3.8390    -5.6880     0.7680 C.ar  1 <1>  -0.1500 
 22 C       -4.6120    -6.4040    -1.6890 C.ar  1 <1>   0.1600 
 23 C       -5.1310    -6.0800     0.4580 C.ar  1 <1>   0.1600 
 24 N       -5.5410    -6.4410    -0.7480 N.ar  1 <1>  -0.6200 
 25 H       -0.9620     0.1850     1.0250 H     1 <1>   0.0800 
 26 H        0.1050    -0.3860     2.2700 H     1 <1>   0.0800 
 27 H        2.7880     0.1360    -0.9660 H     1 <1>   0.0800 
 28 H        1.6420     0.3130    -2.2690 H     1 <1>   0.0800 
 29 H        0.5340    -2.9100    -1.7240 H     1 <1>   0.0800 
 30 H        1.5560    -1.9140    -2.7050 H     1 <1>   0.0800 
 31 H        0.5560     1.9900     1.4990 H     1 <1>   0.0800 
 32 H        1.9390     0.9280     1.4310 H     1 <1>   0.0800 
 33 H        1.7130     2.2500    -0.6610 H     1 <1>   0.0800 
 34 H        0.1360     1.5720    -0.9210 H     1 <1>   0.0800 
 35 H        3.0310    -2.5970    -0.3180 H     1 <1>   0.0800 
 36 H        3.3910    -2.9950    -1.9720 H     1 <1>   0.0800 
 37 H        0.8750    -3.9850     0.4620 H     1 <1>   0.3700 
 38 H        1.6200    -6.8550    -0.0220 H     1 <1>   0.0800 
 39 H       -0.5280    -6.9570    -0.8820 H     1 <1>   0.0800 
 40 H        1.0620    -5.3650     2.4600 H     1 <1>   0.0800 
 41 H        1.8380    -6.9350     2.2340 H     1 <1>   0.0800 
 42 H       -0.4350    -8.4100     0.9840 H     1 <1>   0.0800 
 43 H       -1.8830    -7.5030     1.3960 H     1 <1>   0.0800 
 44 H       -1.1400    -4.5430    -0.6960 H     1 <1>   0.0800 
 45 H       -1.3920    -4.7340     1.0100 H     1 <1>   0.0800 
 46 H       -2.6050    -6.0260    -2.3100 H     1 <1>   0.1500 
 47 H       -3.5920    -5.4120     1.7770 H     1 <1>   0.1500 
 48 H       -4.9170    -6.6880    -2.6820 H     1 <1>   0.1500 
 49 H       -5.8650    -6.0960     1.2440 H     1 <1>   0.1500 
@<TRIPOS>BOND
  1   1   2  2   
  2   2   3  am  
  3   2   4  1   
  4   3   5  1   
  5   3   6  1   
  6   4   7  1   
  7   4  25  1   
  8   4  26  1   
  9   5   8  1   
 10   5  27  1   
 11   5  28  1   
 12   6   9  1   
 13   6  29  1   
 14   6  30  1   
 15   7   8  1   
 16   7  31  1   
 17   7  32  1   
 18   8  33  1   
 19   8  34  1   
 20   9  10  1   
 21   9  35  1   
 22   9  36  1   
 23  10  11  2   
 24  10  12  am  
 25  12  13  1   
 26  12  37  1   
 27  13  14  1   
 28  13  15  1   
 29  13  38  1   
 30  14  16  1   
 31  14  17  1   
 32  14  39  1   
 33  15  18  1   
 34  15  40  1   
 35  15  41  1   
 36  16  18  1   
 37  16  42  1   
 38  16  43  1   
 39  17  19  1   
 40  17  44  1   
 41  17  45  1   
 42  19  20  ar  
 43  19  21  ar  
 44  20  22  ar  
 45  20  46  1   
 46  21  23  ar  
 47  21  47  1   
 48  22  24  ar  
 49  22  48  1   
 50  23  24  ar  
 51  23  49  1   
@<TRIPOS>SUBSTRUCTURE
  1 ****  17 GROUP 4 **** **** 0

# MOE 2024.06 (io_trps.svl 2023.06)
