@<TRIPOS>MOLECULE
NONAME
41 43 1 0 0 
SMALL
USER_CHARGES


@<TRIPOS>ATOM
  1 F        0.7590    -1.2730    -1.2010 F     1 <1>  -0.3400 
  2 C       -0.2010    -1.6780    -0.3720 C.3   1 <1>   1.1640 
  3 F       -0.0180    -0.9890     0.7500 F     1 <1>  -0.3400 
  4 F       -1.3380    -1.2350    -0.9020 F     1 <1>  -0.3400 
  5 C       -0.2020    -3.2200    -0.1450 C.ar  1 <1>   0.1660 
  6 N       -1.1330    -3.7550     0.6570 N.ar  1 <1>  -0.6200 
  7 C        0.7590    -4.0120    -0.7730 C.ar  1 <1>  -0.1500 
  8 C       -1.0970    -5.0670     0.8270 C.ar  1 <1>   0.1600 
  9 C        0.7710    -5.3780    -0.5880 C.ar  1 <1>  -0.1500 
 10 C       -0.1950    -5.9400     0.2300 C.ar  1 <1>   0.0860 
 11 C       -0.2660    -7.3640     0.4660 C.2   1 <1>   0.5440 
 12 O        0.7310    -7.9620     0.8200 O.2   1 <1>  -0.5700 
 13 N       -1.4320    -8.0710     0.2870 N.am  1 <1>  -0.6600 
 14 C       -2.5820    -7.6260    -0.5480 C.3   1 <1>   0.1400 
 15 C       -1.5140    -9.5380     0.5220 C.3   1 <1>   0.1400 
 16 C       -3.5820    -8.7780    -0.4710 C.3   1 <1>   0.2000 
 17 C       -2.6960   -10.0190    -0.3280 C.3   1 <1>  -0.0800 
 18 O       -4.3400    -8.6120     0.6780 O.3   1 <1>  -0.6800 
 19 C       -3.4070   -11.2640     0.2370 C.3   1 <1>   0.0200 
 20 C       -2.5320   -12.5060     0.2320 C.2   1 <1>  -0.0400 
 21 O       -2.9820   -13.5900     0.8070 O.3   1 <1>  -0.0190 
 22 C       -1.3130   -12.7830    -0.2600 C.2   1 <1>  -0.1500 
 23 N       -2.1320   -14.5720     0.7300 N.2   1 <1>  -0.4100 
 24 C       -1.1160   -14.1150     0.0920 C.2   1 <1>   0.1080 
 25 C        0.1220   -14.9220    -0.2270 C.3   1 <1>  -0.0590 
 26 H        1.5090    -3.5720    -1.4090 H     1 <1>   0.1500 
 27 H       -1.8360    -5.4860     1.4890 H     1 <1>   0.1500 
 28 H        1.5100    -6.0040    -1.0600 H     1 <1>   0.1500 
 29 H       -3.0170    -6.7080    -0.1930 H     1 <1>   0.0800 
 30 H       -2.2490    -7.4980    -1.5630 H     1 <1>   0.0800 
 31 H       -0.5970   -10.0250     0.2360 H     1 <1>   0.0800 
 32 H       -1.6940    -9.7150     1.5690 H     1 <1>   0.0800 
 33 H       -4.2480    -8.8190    -1.3170 H     1 <1>   0.0800 
 34 H       -2.3180   -10.2600    -1.3070 H     1 <1>   0.0800 
 35 H       -3.7410    -8.4530     1.4350 H     1 <1>   0.4000 
 36 H       -4.2870   -11.4670    -0.3470 H     1 <1>   0.0800 
 37 H       -3.7260   -11.0790     1.2480 H     1 <1>   0.0800 
 38 H       -0.6200   -12.1660    -0.8010 H     1 <1>   0.1500 
 39 H        0.2700   -14.9590    -1.2910 H     1 <1>   0.0800 
 40 H        0.0120   -15.9250     0.1440 H     1 <1>   0.0800 
 41 H        0.9810   -14.4720     0.2360 H     1 <1>   0.0800 
@<TRIPOS>BOND
  1   1   2  1   
  2   2   3  1   
  3   2   4  1   
  4   2   5  1   
  5   5   6  ar  
  6   5   7  ar  
  7   6   8  ar  
  8   7   9  ar  
  9   7  26  1   
 10   8  10  ar  
 11   8  27  1   
 12   9  10  ar  
 13   9  28  1   
 14  10  11  1   
 15  11  12  2   
 16  11  13  am  
 17  13  14  1   
 18  13  15  1   
 19  14  16  1   
 20  14  29  1   
 21  14  30  1   
 22  15  17  1   
 23  15  31  1   
 24  15  32  1   
 25  16  17  1   
 26  16  18  1   
 27  16  33  1   
 28  17  19  1   
 29  17  34  1   
 30  18  35  1   
 31  19  20  1   
 32  19  36  1   
 33  19  37  1   
 34  20  21  1   
 35  20  22  2   
 36  21  23  1   
 37  22  24  1   
 38  22  38  1   
 39  23  24  2   
 40  24  25  1   
 41  25  39  1   
 42  25  40  1   
 43  25  41  1   
@<TRIPOS>SUBSTRUCTURE
  1 ****  13 GROUP 4 **** **** 0

# MOE 2024.06 (io_trps.svl 2023.06)
