@<TRIPOS>MOLECULE
NONAME
56 58 1 0 0 
SMALL
USER_CHARGES


@<TRIPOS>ATOM
  1 CL      -0.4860     1.4710     1.0210 Cl    1 <1>  -0.1770 
  2 C       -2.2190     1.5390     0.8380 C.ar  1 <1>   0.1770 
  3 C       -3.0120     0.6280     1.5080 C.ar  1 <1>  -0.1500 
  4 C       -2.7800     2.5060     0.0260 C.ar  1 <1>  -0.1500 
  5 C       -4.3860     0.6860     1.3600 C.ar  1 <1>  -0.1500 
  6 C       -4.1560     2.5530    -0.1170 C.ar  1 <1>  -0.1500 
  7 C       -4.9880     1.6420     0.5390 C.ar  1 <1>   0.0530 
  8 C       -6.4160     1.7110     0.3630 C.2   1 <1>   0.0870 
  9 O       -7.0160     2.8770     0.3490 O.3   1 <1>  -0.0190 
 10 C       -7.3810     0.7730     0.1650 C.2   1 <1>  -0.0860 
 11 N       -8.3080     2.7860     0.1670 N.2   1 <1>  -0.4100 
 12 C       -8.5460     1.5330     0.0510 C.2   1 <1>   0.3720 
 13 C       -7.3430    -0.6490     0.0740 C.2   1 <1>   0.7160 
 14 N       -9.8280     1.0230    -0.1250 N.pl3 1 <1>  -0.8520 
 15 O       -6.8320    -1.3290     0.9400 O.2   1 <1>  -0.5700 
 16 N       -7.9650    -1.2770    -0.9660 N.am  1 <1>  -0.7300 
 17 C      -10.5990     1.6300    -1.2460 C.3   1 <1>   0.2090 
 18 C       -8.0220    -2.7440    -1.2030 C.3   1 <1>   0.1400 
 19 C      -11.7920     2.4050    -0.6730 C.3   1 <1>   0.1200 
 20 C       -9.2570    -3.4400    -0.5670 C.3   1 <1>   0.0000 
 21 O      -12.4230     1.6300     0.3120 O.3   1 <1>  -0.5600 
 22 C      -10.5510    -2.6440    -0.7750 C.3   1 <1>   0.3430 
 23 C       -9.1600    -3.5230     0.9620 C.3   1 <1>  -0.1600 
 24 C       -9.3850    -4.8530    -1.1640 C.3   1 <1>  -0.2400 
 25 C      -13.4780     2.2920     0.9390 C.3   1 <1>   0.0400 
 26 N      -10.6660    -1.7250     0.3900 N.4   1 <1>  -0.9590 
 27 C       -9.8680    -2.2900     1.5130 C.3   1 <1>   0.3430 
 28 C      -12.0690    -1.3860     0.7590 C.3   1 <1>   0.2630 
 29 H       -2.5560    -0.1140     2.1390 H     1 <1>   0.1500 
 30 H       -2.1450     3.2080    -0.4830 H     1 <1>   0.1500 
 31 H       -4.9950    -0.0170     1.8970 H     1 <1>   0.1500 
 32 H       -4.5940     3.3070    -0.7480 H     1 <1>   0.1500 
 33 H      -10.3840     1.3210     0.6960 H     1 <1>   0.4000 
 34 H       -8.2980    -0.6780    -1.7250 H     1 <1>   0.3700 
 35 H      -10.9620     0.8530    -1.8960 H     1 <1>   0.0800 
 36 H       -9.9830     2.2940    -1.8310 H     1 <1>   0.0800 
 37 H       -7.1220    -3.1990    -0.8200 H     1 <1>   0.0800 
 38 H       -8.0270    -2.9070    -2.2670 H     1 <1>   0.0800 
 39 H      -12.5010     2.6360    -1.4500 H     1 <1>   0.0800 
 40 H      -11.4440     3.3210    -0.2240 H     1 <1>   0.0800 
 41 H      -11.3850    -3.3260    -0.7750 H     1 <1>   0.0800 
 42 H      -10.5370    -2.1010    -1.7060 H     1 <1>   0.0800 
 43 H       -8.1440    -3.5780     1.3120 H     1 <1>   0.0800 
 44 H       -9.6790    -4.3900     1.3320 H     1 <1>   0.0800 
 45 H       -9.5020    -4.8090    -2.2330 H     1 <1>   0.0800 
 46 H      -10.2350    -5.3730    -0.7570 H     1 <1>   0.0800 
 47 H       -8.5030    -5.4320    -0.9460 H     1 <1>   0.0800 
 48 H      -13.9060     1.6330     1.6730 H     1 <1>   0.0800 
 49 H      -14.2240     2.5510     0.2060 H     1 <1>   0.0800 
 50 H      -13.1060     3.1790     1.4250 H     1 <1>   0.0800 
 51 H      -10.1910    -0.8360     0.1190 H     1 <1>   0.4500 
 52 H       -9.1410    -1.5660     1.8460 H     1 <1>   0.0800 
 53 H      -10.4990    -2.5610     2.3440 H     1 <1>   0.0800 
 54 H      -12.6080    -2.2720     1.0490 H     1 <1>   0.0800 
 55 H      -12.5720    -0.9260    -0.0770 H     1 <1>   0.0800 
 56 H      -12.0780    -0.6860     1.5780 H     1 <1>   0.0800 
@<TRIPOS>BOND
  1   1   2  1   
  2   2   3  ar  
  3   2   4  ar  
  4   3   5  ar  
  5   3  29  1   
  6   4   6  ar  
  7   4  30  1   
  8   5   7  ar  
  9   5  31  1   
 10   6   7  ar  
 11   6  32  1   
 12   7   8  1   
 13   8   9  1   
 14   8  10  2   
 15   9  11  1   
 16  10  12  1   
 17  10  13  1   
 18  11  12  2   
 19  12  14  1   
 20  13  15  2   
 21  13  16  am  
 22  14  17  1   
 23  14  33  1   
 24  16  18  1   
 25  16  34  1   
 26  17  19  1   
 27  17  35  1   
 28  17  36  1   
 29  18  20  1   
 30  18  37  1   
 31  18  38  1   
 32  19  21  1   
 33  19  39  1   
 34  19  40  1   
 35  20  22  1   
 36  20  23  1   
 37  20  24  1   
 38  21  25  1   
 39  22  26  1   
 40  22  41  1   
 41  22  42  1   
 42  23  27  1   
 43  23  43  1   
 44  23  44  1   
 45  24  45  1   
 46  24  46  1   
 47  24  47  1   
 48  25  48  1   
 49  25  49  1   
 50  25  50  1   
 51  26  27  1   
 52  26  28  1   
 53  26  51  1   
 54  27  52  1   
 55  27  53  1   
 56  28  54  1   
 57  28  55  1   
 58  28  56  1   
@<TRIPOS>SUBSTRUCTURE
  1 ****  10 GROUP 4 **** **** 0

# MOE 2024.06 (io_trps.svl 2023.06)
