@<TRIPOS>MOLECULE
NONAME
48 49 1 0 0 
SMALL
USER_CHARGES


@<TRIPOS>ATOM
  1 F       -2.2380    -0.0560     1.3440 F     1 <1>  -0.1900 
  2 C       -2.8750     0.5670     0.3880 C.ar  1 <1>   0.1900 
  3 C       -3.1190    -0.1190    -0.7900 C.ar  1 <1>  -0.1440 
  4 C       -3.2760     1.8810     0.5970 C.ar  1 <1>  -0.1440 
  5 C       -3.7660     0.5880    -1.7880 C.ar  1 <1>   0.1900 
  6 C       -2.6790    -1.5590    -0.9880 C.3   1 <1>   0.4860 
  7 C       -3.9390     2.5420    -0.4280 C.ar  1 <1>  -0.1500 
  8 C       -2.9960     2.5930     1.9140 C.3   1 <1>  -0.0970 
  9 F       -4.0010    -0.0040    -2.9290 F     1 <1>  -0.1900 
 10 C       -4.1830     1.8970    -1.6310 C.ar  1 <1>  -0.1500 
 11 N       -3.7430    -2.5370    -0.5880 N.4   1 <1>  -0.9590 
 12 C       -5.0020    -2.3960    -1.4050 C.3   1 <1>   0.3430 
 13 C       -3.9900    -2.5850     0.8940 C.3   1 <1>   0.3430 
 14 C       -6.1430    -3.2370    -0.8020 C.3   1 <1>   0.2000 
 15 C       -5.3370    -1.9540     1.2700 C.3   1 <1>  -0.1600 
 16 O       -5.6650    -4.5500    -0.7100 O.3   1 <1>  -0.6800 
 17 C       -6.5520    -2.6650     0.5960 C.3   1 <1>   0.0000 
 18 C       -7.0570    -3.8240     1.5070 C.3   1 <1>   0.1200 
 19 C       -7.7210    -1.6460     0.4280 C.3   1 <1>  -0.1600 
 20 O       -7.5900    -3.3600     2.7020 O.3   1 <1>  -0.6800 
 21 C       -7.5460    -0.5190    -0.6120 C.3   1 <1>  -0.1600 
 22 C       -8.7540     0.4220    -0.5890 C.3   1 <1>  -0.2400 
 23 H       -1.7870    -1.7380    -0.4090 H     1 <1>   0.0800 
 24 H       -2.4290    -1.7060    -2.0260 H     1 <1>   0.0800 
 25 H       -4.2630     3.5620    -0.2990 H     1 <1>   0.1500 
 26 H       -3.3590     3.6060     1.8920 H     1 <1>   0.0800 
 27 H       -1.9370     2.6180     2.1020 H     1 <1>   0.0800 
 28 H       -3.4790     2.0770     2.7240 H     1 <1>   0.0800 
 29 H       -4.6880     2.4050    -2.4340 H     1 <1>   0.1500 
 30 H       -3.4090    -3.4830    -0.8220 H     1 <1>   0.4500 
 31 H       -5.3120    -1.3670    -1.4210 H     1 <1>   0.0800 
 32 H       -4.8260    -2.7050    -2.4210 H     1 <1>   0.0800 
 33 H       -4.0080    -3.6170     1.2080 H     1 <1>   0.0800 
 34 H       -3.1910    -2.0980     1.4260 H     1 <1>   0.0800 
 35 H       -6.9880    -3.2490    -1.4700 H     1 <1>   0.0800 
 36 H       -5.4360    -1.9740     2.3400 H     1 <1>   0.0800 
 37 H       -5.2960    -0.9150     1.0040 H     1 <1>   0.0800 
 38 H       -6.4080    -5.1870    -0.6280 H     1 <1>   0.4000 
 39 H       -6.2650    -4.5120     1.7500 H     1 <1>   0.0800 
 40 H       -7.8430    -4.3680     1.0100 H     1 <1>   0.0800 
 41 H       -8.6140    -2.1920     0.1700 H     1 <1>   0.0800 
 42 H       -7.9170    -1.1850     1.3820 H     1 <1>   0.0800 
 43 H       -6.9050    -3.0070     3.3000 H     1 <1>   0.4000 
 44 H       -6.6680     0.0660    -0.4060 H     1 <1>   0.0800 
 45 H       -7.4650    -0.9250    -1.6040 H     1 <1>   0.0800 
 46 H       -8.8600     0.8790     0.3790 H     1 <1>   0.0800 
 47 H       -9.6580    -0.1160    -0.8160 H     1 <1>   0.0800 
 48 H       -8.6300     1.2010    -1.3200 H     1 <1>   0.0800 
@<TRIPOS>BOND
  1   1   2  1   
  2   2   3  ar  
  3   2   4  ar  
  4   3   5  ar  
  5   3   6  1   
  6   4   7  ar  
  7   4   8  1   
  8   5   9  1   
  9   5  10  ar  
 10   6  11  1   
 11   6  23  1   
 12   6  24  1   
 13   7  10  ar  
 14   7  25  1   
 15   8  26  1   
 16   8  27  1   
 17   8  28  1   
 18  10  29  1   
 19  11  12  1   
 20  11  13  1   
 21  11  30  1   
 22  12  14  1   
 23  12  31  1   
 24  12  32  1   
 25  13  15  1   
 26  13  33  1   
 27  13  34  1   
 28  14  16  1   
 29  14  17  1   
 30  14  35  1   
 31  15  17  1   
 32  15  36  1   
 33  15  37  1   
 34  16  38  1   
 35  17  18  1   
 36  17  19  1   
 37  18  20  1   
 38  18  39  1   
 39  18  40  1   
 40  19  21  1   
 41  19  41  1   
 42  19  42  1   
 43  20  43  1   
 44  21  22  1   
 45  21  44  1   
 46  21  45  1   
 47  22  46  1   
 48  22  47  1   
 49  22  48  1   
@<TRIPOS>SUBSTRUCTURE
  1 ****  15 GROUP 4 **** **** 0

# MOE 2024.06 (io_trps.svl 2023.06)
