@<TRIPOS>MOLECULE
NONAME
45 48 1 0 0 
SMALL
USER_CHARGES


@<TRIPOS>ATOM
  1 S        0.7960    -0.5050     1.3470 S.o2  1 <1>   1.4470 
  2 O        0.0730     0.2130     2.3730 O.2   1 <1>  -0.6500 
  3 O        1.5450    -1.6840     1.7290 O.2   1 <1>  -0.6500 
  4 N        1.9540     0.5620     0.7130 N.am  1 <1>  -0.8490 
  5 C       -0.3170    -0.8430    -0.0520 C.ar  1 <1>  -0.0090 
  6 C        2.4790     1.4930     1.7320 C.3   1 <1>   0.1960 
  7 C        2.9820    -0.1230    -0.0830 C.3   1 <1>   0.1960 
  8 C       -1.1940    -1.9640    -0.0270 C.ar  1 <1>   0.0000 
  9 C       -0.3350    -0.0060    -1.1440 C.ar  1 <1>  -0.1500 
 10 C        3.5170     2.5220     1.2260 C.3   1 <1>   0.2200 
 11 C        3.7440     0.7880    -1.0700 C.3   1 <1>  -0.0190 
 12 C       -2.0220    -2.2120    -1.1490 C.ar  1 <1>   0.0000 
 13 C       -1.3050    -2.8610     1.0650 C.ar  1 <1>  -0.1500 
 14 C       -1.1600    -0.2450    -2.2440 C.ar  1 <1>  -0.1500 
 15 N        3.1420     3.0260    -0.1360 N.am  1 <1>  -0.6600 
 16 C        4.9630     1.9620     1.3200 C.3   1 <1>   0.1200 
 17 C        3.1580     2.1840    -1.2170 C.2   1 <1>   0.5690 
 18 C        5.2530     0.8430    -0.7760 C.3   1 <1>   0.1200 
 19 C       -1.9820    -1.3320    -2.2450 C.ar  1 <1>  -0.1500 
 20 C       -2.8780    -3.3320    -1.1500 C.ar  1 <1>  -0.1500 
 21 C       -2.1480    -3.9360     1.0400 C.ar  1 <1>  -0.1500 
 22 C        2.6510     4.4270    -0.2220 C.3   1 <1>   0.0600 
 23 O        5.6200     1.8760     0.0890 O.3   1 <1>  -0.5600 
 24 O        2.7160     2.5020    -2.2980 O.2   1 <1>  -0.5700 
 25 C       -2.9430    -4.1790    -0.0820 C.ar  1 <1>  -0.1500 
 26 H        1.6510     2.0610     2.1220 H     1 <1>   0.0800 
 27 H        2.8870     0.9340     2.5580 H     1 <1>   0.0800 
 28 H        3.6660    -0.6300     0.5760 H     1 <1>   0.0800 
 29 H        2.5000    -0.8870    -0.6710 H     1 <1>   0.0800 
 30 H        0.2930     0.8700    -1.1850 H     1 <1>   0.1500 
 31 H        3.4770     3.3480     1.9140 H     1 <1>   0.0800 
 32 H        3.6560     0.3100    -2.0290 H     1 <1>   0.0800 
 33 H       -0.7180    -2.7070     1.9520 H     1 <1>   0.1500 
 34 H       -1.1320     0.4360    -3.0780 H     1 <1>   0.1500 
 35 H        4.9900     0.9960     1.7920 H     1 <1>   0.0800 
 36 H        5.5460     2.6310     1.9270 H     1 <1>   0.0800 
 37 H        5.7790     1.0290    -1.6970 H     1 <1>   0.0800 
 38 H        5.6130    -0.0860    -0.3710 H     1 <1>   0.0800 
 39 H       -2.6190    -1.5290    -3.0890 H     1 <1>   0.1500 
 40 H       -3.4900    -3.5090    -2.0160 H     1 <1>   0.1500 
 41 H       -2.2120    -4.6060     1.8810 H     1 <1>   0.1500 
 42 H        3.4070     5.0990     0.1430 H     1 <1>   0.0800 
 43 H        1.7560     4.5360     0.3640 H     1 <1>   0.0800 
 44 H        2.4280     4.6860    -1.2430 H     1 <1>   0.0800 
 45 H       -3.5990    -5.0330    -0.0860 H     1 <1>   0.1500 
@<TRIPOS>BOND
  1   1   2  2   
  2   1   3  2   
  3   1   4  am  
  4   1   5  1   
  5   4   6  1   
  6   4   7  1   
  7   5   8  ar  
  8   5   9  ar  
  9   6  10  1   
 10   6  26  1   
 11   6  27  1   
 12   7  11  1   
 13   7  28  1   
 14   7  29  1   
 15   8  12  ar  
 16   8  13  ar  
 17   9  14  ar  
 18   9  30  1   
 19  10  15  1   
 20  10  16  1   
 21  10  31  1   
 22  11  17  1   
 23  11  18  1   
 24  11  32  1   
 25  12  19  ar  
 26  12  20  ar  
 27  13  21  ar  
 28  13  33  1   
 29  14  19  ar  
 30  14  34  1   
 31  15  17  am  
 32  15  22  1   
 33  16  23  1   
 34  16  35  1   
 35  16  36  1   
 36  17  24  2   
 37  18  23  1   
 38  18  37  1   
 39  18  38  1   
 40  19  39  1   
 41  20  25  ar  
 42  20  40  1   
 43  21  25  ar  
 44  21  41  1   
 45  22  42  1   
 46  22  43  1   
 47  22  44  1   
 48  25  45  1   
@<TRIPOS>SUBSTRUCTURE
  1 ****   4 GROUP 4 **** **** 0

# MOE 2024.06 (io_trps.svl 2023.06)
