@<TRIPOS>MOLECULE
NONAME
40 41 1 0 0 
SMALL
USER_CHARGES


@<TRIPOS>ATOM
  1 S       -0.8050     0.4300    -1.7220 S.o2  1 <1>   1.4470 
  2 O       -0.5710    -0.8200    -2.4130 O.2   1 <1>  -0.6500 
  3 O       -1.4010     1.5190    -2.4680 O.2   1 <1>  -0.6500 
  4 N       -1.8600     0.1090    -0.4330 N.am  1 <1>  -0.8490 
  5 C        0.7250     1.0230    -0.9410 C.ar  1 <1>  -0.0090 
  6 C       -1.3470    -0.8910     0.5360 C.3   1 <1>   0.1960 
  7 C       -3.2170    -0.1630    -0.9310 C.3   1 <1>   0.1960 
  8 C        0.8710     2.3550    -0.5720 C.ar  1 <1>  -0.1500 
  9 C        1.7780     0.1570    -0.6690 C.ar  1 <1>  -0.1500 
 10 C       -1.9820    -2.2650     0.3470 C.3   1 <1>  -0.1860 
 11 C       -4.0910    -0.8230     0.1360 C.3   1 <1>  -0.1600 
 12 C        2.0240     2.8210     0.0410 C.ar  1 <1>  -0.1440 
 13 C        2.9340     0.6010    -0.0550 C.ar  1 <1>  -0.1500 
 14 C       -1.2470    -3.2850     1.1950 C.2   1 <1>   0.9060 
 15 C       -3.5010    -2.1690     0.5860 C.3   1 <1>   0.2000 
 16 C        3.0670     1.9390     0.3050 C.ar  1 <1>   0.0820 
 17 C        2.1360     4.2900     0.4210 C.3   1 <1>  -0.0970 
 18 O       -0.0170    -3.3300     1.1100 O.co2 1 <1>  -0.9000 
 19 O       -1.8780    -4.0350     1.9520 O.co2 1 <1>  -0.9000 
 20 O       -3.7770    -2.2960     1.9300 O.3   1 <1>  -0.6800 
 21 O        4.1770     2.4330     0.9120 O.3   1 <1>  -0.3630 
 22 C        5.2450     1.5950     1.2930 C.3   1 <1>   0.0400 
 23 H       -0.2770    -0.9750     0.4720 H     1 <1>   0.0800 
 24 H       -1.5730    -0.5510     1.5330 H     1 <1>   0.0800 
 25 H       -3.6650     0.7630    -1.2500 H     1 <1>   0.0800 
 26 H       -3.1650    -0.8170    -1.7870 H     1 <1>   0.0800 
 27 H        0.0590     3.0330    -0.7720 H     1 <1>   0.1500 
 28 H        1.6860    -0.8850    -0.9340 H     1 <1>   0.1500 
 29 H       -1.8110    -2.5660    -0.6670 H     1 <1>   0.0800 
 30 H       -5.0770    -0.9850    -0.2570 H     1 <1>   0.0800 
 31 H       -4.1670    -0.1460     0.9690 H     1 <1>   0.0800 
 32 H        3.7130    -0.1120     0.1360 H     1 <1>   0.1500 
 33 H       -3.9860    -2.9890     0.0840 H     1 <1>   0.0800 
 34 H        1.2530     4.8350     0.1420 H     1 <1>   0.0800 
 35 H        2.9820     4.7290    -0.0760 H     1 <1>   0.0800 
 36 H        2.2760     4.3810     1.4830 H     1 <1>   0.0800 
 37 H       -3.1950    -3.0530     2.2460 H     1 <1>   0.4000 
 38 H        5.9850     2.1990     1.7850 H     1 <1>   0.0800 
 39 H        5.6680     1.1450     0.4120 H     1 <1>   0.0800 
 40 H        4.8760     0.8450     1.9700 H     1 <1>   0.0800 
@<TRIPOS>BOND
  1   1   2  2   
  2   1   3  2   
  3   1   4  am  
  4   1   5  1   
  5   4   6  1   
  6   4   7  1   
  7   5   8  ar  
  8   5   9  ar  
  9   6  10  1   
 10   6  23  1   
 11   6  24  1   
 12   7  11  1   
 13   7  25  1   
 14   7  26  1   
 15   8  12  ar  
 16   8  27  1   
 17   9  13  ar  
 18   9  28  1   
 19  10  14  1   
 20  10  15  1   
 21  10  29  1   
 22  11  15  1   
 23  11  30  1   
 24  11  31  1   
 25  12  16  ar  
 26  12  17  1   
 27  13  16  ar  
 28  13  32  1   
 29  14  18  ar  
 30  14  19  ar  
 31  15  20  1   
 32  15  33  1   
 33  16  21  1   
 34  17  34  1   
 35  17  35  1   
 36  17  36  1   
 37  20  37  1   
 38  21  22  1   
 39  22  38  1   
 40  22  39  1   
 41  22  40  1   
@<TRIPOS>SUBSTRUCTURE
  1 ****   6 GROUP 4 **** **** 0

# MOE 2024.06 (io_trps.svl 2023.06)
