@<TRIPOS>MOLECULE
NONAME
54 56 1 0 0 
SMALL
USER_CHARGES


@<TRIPOS>ATOM
  1 O        0.6860     3.9280    -1.2650 O.2   1 <1>  -0.5700 
  2 C       -0.4280     4.3820    -1.1520 C.2   1 <1>   0.5690 
  3 N       -1.2420     4.0920    -0.0960 N.am  1 <1>  -0.6600 
  4 C       -0.9360     5.3810    -2.1960 C.3   1 <1>   0.1810 
  5 C       -2.4260     4.9870     0.1190 C.3   1 <1>   0.3640 
  6 C       -0.8460     3.1250     0.9610 C.3   1 <1>   0.2200 
  7 O       -1.5240     6.5390    -1.6330 O.3   1 <1>  -0.5600 
  8 C       -3.6890     4.4770    -0.5910 C.ar  1 <1>  -0.1440 
  9 C       -2.0670     6.4350    -0.3100 C.3   1 <1>   0.2610 
 10 C       -2.0220     2.2310     1.3560 C.3   1 <1>  -0.2400 
 11 C       -0.2770     3.8730     2.1660 C.3   1 <1>  -0.2400 
 12 C       -3.6810     3.4480    -1.5270 C.ar  1 <1>  -0.1500 
 13 C       -4.9050     5.0690    -0.2710 C.ar  1 <1>  -0.1500 
 14 C       -1.0970     7.0090     0.7270 C.2   1 <1>   0.5690 
 15 C       -4.8530     3.0350    -2.1360 C.ar  1 <1>  -0.1500 
 16 C       -6.0780     4.6580    -0.8780 C.ar  1 <1>  -0.1500 
 17 O       -1.5020     7.1410     1.8560 O.2   1 <1>  -0.5700 
 18 N        0.1700     7.3230     0.3280 N.am  1 <1>  -0.7300 
 19 C       -6.0530     3.6410    -1.8140 C.ar  1 <1>  -0.1500 
 20 C        1.4060     7.7990     1.0410 C.3   1 <1>   0.3610 
 21 C        2.6710     7.0280     0.5470 C.2   1 <1>   0.5690 
 22 C        1.4940     9.3110     0.7830 C.3   1 <1>  -0.1600 
 23 C        1.2900     7.7360     2.5740 C.3   1 <1>  -0.1600 
 24 O        3.7720     7.5010     0.6940 O.2   1 <1>  -0.5700 
 25 N        2.5770     5.8170    -0.0520 N.am  1 <1>  -0.8000 
 26 C        0.5610     9.9540     1.8100 C.3   1 <1>  -0.1600 
 27 C        0.6420     9.0500     3.0430 C.3   1 <1>  -0.1600 
 28 H       -1.6760     4.9050    -2.8130 H     1 <1>   0.0800 
 29 H       -0.1230     5.6980    -2.8240 H     1 <1>   0.0800 
 30 H       -2.6550     5.0100     1.1700 H     1 <1>   0.0800 
 31 H       -0.0700     2.4870     0.5680 H     1 <1>   0.0800 
 32 H       -2.9510     7.0440    -0.2890 H     1 <1>   0.0800 
 33 H       -2.8090     2.7950     1.8220 H     1 <1>   0.0800 
 34 H       -1.6880     1.4860     2.0550 H     1 <1>   0.0800 
 35 H       -2.4080     1.7250     0.4910 H     1 <1>   0.0800 
 36 H       -1.0230     4.4810     2.6430 H     1 <1>   0.0800 
 37 H        0.5450     4.4930     1.8600 H     1 <1>   0.0800 
 38 H        0.0900     3.1670     2.8890 H     1 <1>   0.0800 
 39 H       -2.7690     2.9460    -1.7940 H     1 <1>   0.1500 
 40 H       -4.9530     5.8590     0.4600 H     1 <1>   0.1500 
 41 H       -4.8310     2.2390    -2.8600 H     1 <1>   0.1500 
 42 H       -7.0120     5.1270    -0.6220 H     1 <1>   0.1500 
 43 H        0.3170     7.2730    -0.6830 H     1 <1>   0.3700 
 44 H       -6.9650     3.3200    -2.2880 H     1 <1>   0.1500 
 45 H        2.4950     9.6530     0.9830 H     1 <1>   0.0800 
 46 H        1.2400     9.5730    -0.2280 H     1 <1>   0.0800 
 47 H        0.7610     6.8640     2.9120 H     1 <1>   0.0800 
 48 H        2.2810     7.6950     2.9910 H     1 <1>   0.0800 
 49 H        3.4270     5.3410    -0.3530 H     1 <1>   0.3700 
 50 H        1.7120     5.2860    -0.2060 H     1 <1>   0.3700 
 51 H        0.8460    10.9680     2.0330 H     1 <1>   0.0800 
 52 H       -0.4470     9.9480     1.4320 H     1 <1>   0.0800 
 53 H       -0.3420     8.8750     3.4440 H     1 <1>   0.0800 
 54 H        1.2490     9.5070     3.8060 H     1 <1>   0.0800 
@<TRIPOS>BOND
  1   1   2  2   
  2   2   3  am  
  3   2   4  1   
  4   3   5  1   
  5   3   6  1   
  6   4   7  1   
  7   4  28  1   
  8   4  29  1   
  9   5   8  1   
 10   5   9  1   
 11   5  30  1   
 12   6  10  1   
 13   6  11  1   
 14   6  31  1   
 15   7   9  1   
 16   8  12  ar  
 17   8  13  ar  
 18   9  14  1   
 19   9  32  1   
 20  10  33  1   
 21  10  34  1   
 22  10  35  1   
 23  11  36  1   
 24  11  37  1   
 25  11  38  1   
 26  12  15  ar  
 27  12  39  1   
 28  13  16  ar  
 29  13  40  1   
 30  14  17  2   
 31  14  18  am  
 32  15  19  ar  
 33  15  41  1   
 34  16  19  ar  
 35  16  42  1   
 36  18  20  1   
 37  18  43  1   
 38  19  44  1   
 39  20  21  1   
 40  20  22  1   
 41  20  23  1   
 42  21  24  2   
 43  21  25  am  
 44  22  26  1   
 45  22  45  1   
 46  22  46  1   
 47  23  27  1   
 48  23  47  1   
 49  23  48  1   
 50  25  49  1   
 51  25  50  1   
 52  26  27  1   
 53  26  51  1   
 54  26  52  1   
 55  27  53  1   
 56  27  54  1   
@<TRIPOS>SUBSTRUCTURE
  1 ****   9 GROUP 4 **** **** 0

# MOE 2024.06 (io_trps.svl 2023.06)
