@<TRIPOS>MOLECULE
NONAME
50 52 1 0 0 
SMALL
USER_CHARGES


@<TRIPOS>ATOM
  1 O        0.4810     0.0280    -0.4180 O.2   1 <1>  -0.5700 
  2 C        1.5260    -0.4840    -0.0550 C.2   1 <1>   0.7150 
  3 N        2.5360     0.3530     0.3930 N.am  1 <1>  -0.6600 
  4 C        1.6500    -1.9290    -0.0970 C.2   1 <1>   0.0550 
  5 C        3.6990    -0.1360     1.1920 C.3   1 <1>   0.1400 
  6 C        2.4030     1.8310     0.2470 C.3   1 <1>   0.1400 
  7 O        2.8100    -2.5190    -0.3620 O.3   1 <1>  -0.2800 
  8 C        0.7160    -2.8890     0.0780 C.2   1 <1>   0.0460 
  9 C        4.9540    -0.2950     0.3190 C.3   1 <1>   0.1100 
 10 C        3.7400     2.5750     0.1380 C.3   1 <1>  -0.1600 
 11 C        2.4870    -3.7940    -0.3240 C.2   1 <1>   0.2980 
 12 N        1.2700    -4.0870    -0.0660 N.2   1 <1>  -0.5650 
 13 C       -0.7630    -2.7860     0.3940 C.3   1 <1>  -0.0590 
 14 N        5.6190     0.9830    -0.0080 N.3   1 <1>  -0.8100 
 15 C        4.7610     1.9010    -0.7810 C.3   1 <1>   0.1100 
 16 C        3.5750    -4.8070    -0.5890 C.3   1 <1>  -0.0600 
 17 C        6.8940     0.7180    -0.7250 C.3   1 <1>   0.2900 
 18 C        7.7800     1.9500    -0.8770 C.2   1 <1>   0.2980 
 19 O        8.2710     2.5430     0.1640 O.3   1 <1>  -0.2800 
 20 N        8.1330     2.5170    -1.9690 N.2   1 <1>  -0.3380 
 21 C        8.9500     3.5260    -0.3320 C.2   1 <1>   0.2980 
 22 N        8.8980     3.5490    -1.6120 N.2   1 <1>  -0.3380 
 23 C        9.6830     4.4780     0.6120 C.3   1 <1>   0.1000 
 24 C       10.1890     5.7390    -0.1070 C.3   1 <1>  -0.2400 
 25 C       10.8560     3.7640     1.2990 C.3   1 <1>  -0.2400 
 26 H        3.4570    -1.0880     1.6290 H     1 <1>   0.0800 
 27 H        3.9050     0.5390     2.0050 H     1 <1>   0.0800 
 28 H        1.8450     2.2160     1.0840 H     1 <1>   0.0800 
 29 H        1.8340     2.0390    -0.6440 H     1 <1>   0.0800 
 30 H        4.7000    -0.8200    -0.5850 H     1 <1>   0.0800 
 31 H        5.6490    -0.9050     0.8700 H     1 <1>   0.0800 
 32 H        4.1690     2.7270     1.1120 H     1 <1>   0.0800 
 33 H        3.5260     3.5510    -0.2580 H     1 <1>   0.0800 
 34 H       -1.0580    -1.7650     0.5530 H     1 <1>   0.0800 
 35 H       -0.9820    -3.3510     1.2820 H     1 <1>   0.0800 
 36 H       -1.3330    -3.1880    -0.4230 H     1 <1>   0.0800 
 37 H        5.3650     2.6820    -1.2110 H     1 <1>   0.0800 
 38 H        4.2720     1.3810    -1.5890 H     1 <1>   0.0800 
 39 H        4.3540    -4.7010     0.1420 H     1 <1>   0.0800 
 40 H        3.9830    -4.6500    -1.5700 H     1 <1>   0.0800 
 41 H        3.1710    -5.8000    -0.5320 H     1 <1>   0.0800 
 42 H        6.6820     0.3210    -1.7020 H     1 <1>   0.0800 
 43 H        7.4600    -0.0170    -0.1810 H     1 <1>   0.0800 
 44 H        8.9800     4.7840     1.3670 H     1 <1>   0.0800 
 45 H       10.9020     5.4770    -0.8690 H     1 <1>   0.0800 
 46 H       10.6570     6.4090     0.5920 H     1 <1>   0.0800 
 47 H        9.3660     6.2510    -0.5730 H     1 <1>   0.0800 
 48 H       11.5700     3.4320     0.5660 H     1 <1>   0.0800 
 49 H       10.4990     2.9080     1.8430 H     1 <1>   0.0800 
 50 H       11.3480     4.4260     1.9890 H     1 <1>   0.0800 
@<TRIPOS>BOND
  1   1   2  2   
  2   2   3  am  
  3   2   4  1   
  4   3   5  1   
  5   3   6  1   
  6   4   7  1   
  7   4   8  2   
  8   5   9  1   
  9   5  26  1   
 10   5  27  1   
 11   6  10  1   
 12   6  28  1   
 13   6  29  1   
 14   7  11  1   
 15   8  12  1   
 16   8  13  1   
 17   9  14  1   
 18   9  30  1   
 19   9  31  1   
 20  10  15  1   
 21  10  32  1   
 22  10  33  1   
 23  11  12  2   
 24  11  16  1   
 25  13  34  1   
 26  13  35  1   
 27  13  36  1   
 28  14  15  1   
 29  14  17  1   
 30  15  37  1   
 31  15  38  1   
 32  16  39  1   
 33  16  40  1   
 34  16  41  1   
 35  17  18  1   
 36  17  42  1   
 37  17  43  1   
 38  18  19  1   
 39  18  20  2   
 40  19  21  1   
 41  20  22  1   
 42  21  22  2   
 43  21  23  1   
 44  23  24  1   
 45  23  25  1   
 46  23  44  1   
 47  24  45  1   
 48  24  46  1   
 49  24  47  1   
 50  25  48  1   
 51  25  49  1   
 52  25  50  1   
@<TRIPOS>SUBSTRUCTURE
  1 ****  14 GROUP 4 **** **** 0

# MOE 2024.06 (io_trps.svl 2023.06)
