@<TRIPOS>MOLECULE
NONAME
48 52 1 0 0 
SMALL
USER_CHARGES


@<TRIPOS>ATOM
  1 S        0.2370    -0.4720    -0.8150 S.3   1 <1>  -0.0800 
  2 C       -0.3120    -1.9220    -1.6610 C.ar  1 <1>   0.2970 
  3 C       -1.0350    -0.6500     0.3900 C.2   1 <1>  -0.1400 
  4 N        0.2690    -2.3660    -2.7550 N.ar  1 <1>  -0.5670 
  5 C       -1.3980    -2.4800    -1.0250 C.ar  1 <1>   0.0000 
  6 C       -1.7850    -1.7370     0.1540 C.2   1 <1>  -0.1810 
  7 C       -1.1720     0.3580     1.5090 C.3   1 <1>   0.0200 
  8 C       -0.3100    -3.4530    -3.2240 C.ar  1 <1>   0.4700 
  9 C       -1.9020    -3.6280    -1.6420 C.ar  1 <1>   0.4100 
 10 C       -2.9410    -2.1100     1.0690 C.3   1 <1>   0.0210 
 11 C       -2.5410     0.1680     2.1860 C.3   1 <1>  -0.1600 
 12 N       -1.3570    -4.1120    -2.7460 N.ar  1 <1>  -0.6200 
 13 N       -2.9780    -4.3210    -1.1420 N.pl3 1 <1>  -0.8380 
 14 C       -2.8790    -1.3230     2.3950 C.3   1 <1>  -0.1600 
 15 C       -4.1730    -4.4860    -2.0160 C.3   1 <1>   0.2090 
 16 C       -2.6860    -5.6140    -0.4650 C.3   1 <1>   0.2090 
 17 C       -4.5010    -5.9790    -1.9870 C.3   1 <1>   0.2000 
 18 C       -3.9240    -6.4850    -0.6710 C.3   1 <1>  -0.0800 
 19 O       -5.8700    -6.2150    -2.0280 O.3   1 <1>  -0.6800 
 20 C       -3.6300    -7.9950    -0.6890 C.3   1 <1>  -0.0170 
 21 C       -3.1220    -8.4850     0.6570 C.ar  1 <1>   0.1670 
 22 N       -1.8450    -8.2550     0.9250 N.ar  1 <1>  -0.6200 
 23 C       -3.9910    -9.1320     1.5240 C.ar  1 <1>  -0.1500 
 24 C       -1.4180    -8.6870     2.1010 C.ar  1 <1>   0.1600 
 25 C       -3.5320    -9.5760     2.7460 C.ar  1 <1>  -0.1500 
 26 C       -2.2050    -9.3410     3.0330 C.ar  1 <1>  -0.1500 
 27 H       -0.3790     0.2000     2.2190 H     1 <1>   0.0800 
 28 H       -1.0910     1.3580     1.1190 H     1 <1>   0.0800 
 29 H        0.1250    -3.8630    -4.1190 H     1 <1>   0.1500 
 30 H       -3.8630    -1.9010     0.5580 H     1 <1>   0.0800 
 31 H       -2.9090    -3.1620     1.2880 H     1 <1>   0.0800 
 32 H       -2.5480     0.6830     3.1310 H     1 <1>   0.0800 
 33 H       -3.3000     0.6090     1.5630 H     1 <1>   0.0800 
 34 H       -3.8210    -1.4160     2.9070 H     1 <1>   0.0800 
 35 H       -2.1220    -1.7630     3.0210 H     1 <1>   0.0800 
 36 H       -4.9820    -3.9080    -1.6070 H     1 <1>   0.0800 
 37 H       -3.9680    -4.1630    -3.0220 H     1 <1>   0.0800 
 38 H       -1.8230    -6.0730    -0.9200 H     1 <1>   0.0800 
 39 H       -2.4860    -5.4630     0.5820 H     1 <1>   0.0800 
 40 H       -4.0410    -6.4650    -2.8300 H     1 <1>   0.0800 
 41 H       -4.6060    -6.2620     0.1300 H     1 <1>   0.0800 
 42 H       -6.3100    -5.7850    -1.2700 H     1 <1>   0.4000 
 43 H       -2.8950    -8.2180    -1.4430 H     1 <1>   0.0800 
 44 H       -4.5280    -8.5260    -0.9490 H     1 <1>   0.0800 
 45 H       -5.0170    -9.2890     1.2480 H     1 <1>   0.1500 
 46 H       -0.3820    -8.5100     2.3350 H     1 <1>   0.1500 
 47 H       -4.1790   -10.0820     3.4410 H     1 <1>   0.1500 
 48 H       -1.7820    -9.6610     3.9670 H     1 <1>   0.1500 
@<TRIPOS>BOND
  1   1   2  1   
  2   1   3  1   
  3   2   4  ar  
  4   2   5  ar  
  5   3   6  2   
  6   3   7  1   
  7   4   8  ar  
  8   5   6  1   
  9   5   9  ar  
 10   6  10  1   
 11   7  11  1   
 12   7  27  1   
 13   7  28  1   
 14   8  12  ar  
 15   8  29  1   
 16   9  12  ar  
 17   9  13  1   
 18  10  14  1   
 19  10  30  1   
 20  10  31  1   
 21  11  14  1   
 22  11  32  1   
 23  11  33  1   
 24  13  15  1   
 25  13  16  1   
 26  14  34  1   
 27  14  35  1   
 28  15  17  1   
 29  15  36  1   
 30  15  37  1   
 31  16  18  1   
 32  16  38  1   
 33  16  39  1   
 34  17  18  1   
 35  17  19  1   
 36  17  40  1   
 37  18  20  1   
 38  18  41  1   
 39  19  42  1   
 40  20  21  1   
 41  20  43  1   
 42  20  44  1   
 43  21  22  ar  
 44  21  23  ar  
 45  22  24  ar  
 46  23  25  ar  
 47  23  45  1   
 48  24  26  ar  
 49  24  46  1   
 50  25  26  ar  
 51  25  47  1   
 52  26  48  1   
@<TRIPOS>SUBSTRUCTURE
  1 ****  16 GROUP 4 **** **** 0

# MOE 2024.06 (io_trps.svl 2023.06)
