@<TRIPOS>MOLECULE
NONAME
56 59 1 0 0 
SMALL
USER_CHARGES


@<TRIPOS>ATOM
  1 O       -1.8620     0.7920     0.9110 O.2   1 <1>  -0.5700 
  2 C       -2.1090     1.1200    -0.2230 C.2   1 <1>   0.5690 
  3 N       -1.3010     1.9530    -0.9280 N.am  1 <1>  -0.7300 
  4 C       -3.3790     0.5740    -0.8730 C.3   1 <1>  -0.0190 
  5 C       -0.0260     2.5120    -0.4110 C.3   1 <1>   0.1400 
  6 C       -4.6240     0.9840    -0.0630 C.3   1 <1>  -0.1600 
  7 C       -3.3060    -0.9600    -0.9980 C.3   1 <1>  -0.1600 
  8 C       -0.2470     3.9320     0.1120 C.3   1 <1>  -0.0170 
  9 C       -5.9000     0.3330    -0.5900 C.3   1 <1>   0.3430 
 10 C       -4.6140    -1.5700    -1.4990 C.3   1 <1>   0.3430 
 11 C        1.0680     4.5220     0.5930 C.ar  1 <1>  -0.1440 
 12 N       -5.7360    -1.1470    -0.6060 N.4   1 <1>  -0.9590 
 13 C        1.8130     5.3510    -0.2310 C.ar  1 <1>  -0.1500 
 14 C        1.5350     4.2280     1.8650 C.ar  1 <1>  -0.1500 
 15 C       -7.0250    -1.8270    -0.9490 C.3   1 <1>   0.5230 
 16 C        3.0130     5.8810     0.2120 C.ar  1 <1>  -0.1500 
 17 C        2.7350     4.7580     2.3090 C.ar  1 <1>  -0.1500 
 18 C       -6.9550    -3.3110    -0.6430 C.2   1 <1>  -0.0400 
 19 C        3.4740     5.5850     1.4820 C.ar  1 <1>  -0.1500 
 20 O       -6.2800    -4.0930    -1.4330 O.3   1 <1>  -0.0190 
 21 C       -7.4810    -4.0720     0.3280 C.2   1 <1>  -0.1500 
 22 N       -6.3080    -5.3260    -1.0430 N.2   1 <1>  -0.4100 
 23 C       -7.0390    -5.3700     0.0300 C.2   1 <1>   0.2350 
 24 C       -7.3320    -6.5770     0.7810 C.ar  1 <1>   0.0540 
 25 C       -6.7450    -7.7960     0.4690 C.ar  1 <1>  -0.1500 
 26 C       -8.2110    -6.6220     1.8560 C.ar  1 <1>  -0.1500 
 27 C       -7.0410    -8.9290     1.2010 C.ar  1 <1>   0.1600 
 28 C       -8.4400    -7.8090     2.5260 C.ar  1 <1>   0.1600 
 29 N       -7.8750    -8.9650     2.2260 N.ar  1 <1>  -0.6200 
 30 H       -1.5390     2.2320    -1.8800 H     1 <1>   0.3700 
 31 H       -3.4620     0.9930    -1.8610 H     1 <1>   0.0800 
 32 H        0.7080     2.5220    -1.1980 H     1 <1>   0.0800 
 33 H        0.3490     1.8930     0.3870 H     1 <1>   0.0800 
 34 H       -4.7320     2.0540    -0.0960 H     1 <1>   0.0800 
 35 H       -4.4950     0.7130     0.9720 H     1 <1>   0.0800 
 36 H       -3.0620    -1.3950    -0.0430 H     1 <1>   0.0800 
 37 H       -2.5130    -1.2250    -1.6760 H     1 <1>   0.0800 
 38 H       -0.9460     3.9060     0.9290 H     1 <1>   0.0800 
 39 H       -0.6560     4.5490    -0.6670 H     1 <1>   0.0800 
 40 H       -6.1030     0.6920    -1.5870 H     1 <1>   0.0800 
 41 H       -6.7270     0.6100     0.0460 H     1 <1>   0.0800 
 42 H       -4.5150    -2.6430    -1.5000 H     1 <1>   0.0800 
 43 H       -4.8040    -1.2460    -2.5100 H     1 <1>   0.0800 
 44 H       -5.4800    -1.4480     0.3450 H     1 <1>   0.4500 
 45 H        1.4650     5.5900    -1.2200 H     1 <1>   0.1500 
 46 H        0.9670     3.5850     2.5160 H     1 <1>   0.1500 
 47 H       -7.2580    -1.6850    -1.9920 H     1 <1>   0.0800 
 48 H       -7.8220    -1.3970    -0.3650 H     1 <1>   0.0800 
 49 H        3.5870     6.5250    -0.4310 H     1 <1>   0.1500 
 50 H        3.0910     4.5250     3.2970 H     1 <1>   0.1500 
 51 H        4.4070     5.9970     1.8270 H     1 <1>   0.1500 
 52 H       -8.1020    -3.7950     1.1590 H     1 <1>   0.1500 
 53 H       -6.0520    -7.8650    -0.3500 H     1 <1>   0.1500 
 54 H       -8.7270    -5.7410     2.1820 H     1 <1>   0.1500 
 55 H       -6.5660    -9.8580     0.9310 H     1 <1>   0.1500 
 56 H       -9.1270    -7.8110     3.3560 H     1 <1>   0.1500 
@<TRIPOS>BOND
  1   1   2  2   
  2   2   3  am  
  3   2   4  1   
  4   3   5  1   
  5   3  30  1   
  6   4   6  1   
  7   4   7  1   
  8   4  31  1   
  9   5   8  1   
 10   5  32  1   
 11   5  33  1   
 12   6   9  1   
 13   6  34  1   
 14   6  35  1   
 15   7  10  1   
 16   7  36  1   
 17   7  37  1   
 18   8  11  1   
 19   8  38  1   
 20   8  39  1   
 21   9  12  1   
 22   9  40  1   
 23   9  41  1   
 24  10  12  1   
 25  10  42  1   
 26  10  43  1   
 27  11  13  ar  
 28  11  14  ar  
 29  12  15  1   
 30  12  44  1   
 31  13  16  ar  
 32  13  45  1   
 33  14  17  ar  
 34  14  46  1   
 35  15  18  1   
 36  15  47  1   
 37  15  48  1   
 38  16  19  ar  
 39  16  49  1   
 40  17  19  ar  
 41  17  50  1   
 42  18  20  1   
 43  18  21  2   
 44  19  51  1   
 45  20  22  1   
 46  21  23  1   
 47  21  52  1   
 48  22  23  2   
 49  23  24  1   
 50  24  25  ar  
 51  24  26  ar  
 52  25  27  ar  
 53  25  53  1   
 54  26  28  ar  
 55  26  54  1   
 56  27  29  ar  
 57  27  55  1   
 58  28  29  ar  
 59  28  56  1   
@<TRIPOS>SUBSTRUCTURE
  1 ****   7 GROUP 4 **** **** 0

# MOE 2024.06 (io_trps.svl 2023.06)
