@<TRIPOS>MOLECULE
NONAME
43 45 1 0 0 
SMALL
USER_CHARGES


@<TRIPOS>ATOM
  1 O       -0.7210     0.5590     1.2590 O.2   1 <1>  -0.5700 
  2 C       -1.6240     1.0940     0.6360 C.2   1 <1>   0.5440 
  3 N       -2.6850     0.2870     0.2640 N.am  1 <1>  -0.6600 
  4 C       -1.5350     2.5280     0.3440 C.ar  1 <1>   0.3960 
  5 C       -3.9260     0.7120    -0.4320 C.3   1 <1>   0.1400 
  6 C       -2.7720    -1.1490     0.6120 C.3   1 <1>   0.1400 
  7 N       -2.1540     3.0740    -0.7200 N.ar  1 <1>  -0.6200 
  8 C       -0.7720     3.3240     1.2080 C.ar  1 <1>   0.1600 
  9 C       -4.8630    -0.5040    -0.3970 C.3   1 <1>   0.2000 
 10 C       -3.9090    -1.6940    -0.2550 C.3   1 <1>  -0.0800 
 11 C       -1.9580     4.3740    -0.8320 C.ar  1 <1>   0.1600 
 12 N       -0.5810     4.6290     1.0980 N.ar  1 <1>  -0.6200 
 13 O       -5.6850    -0.4470     0.7350 O.3   1 <1>  -0.5600 
 14 C       -4.5560    -2.9710     0.3110 C.3   1 <1>   0.0200 
 15 C       -1.1960     5.1360     0.0480 C.ar  1 <1>   0.1670 
 16 C       -6.8440     0.3130     0.5910 C.3   1 <1>   0.0400 
 17 C       -3.6320    -4.1770     0.2740 C.2   1 <1>  -0.0400 
 18 C       -1.0280     6.6280    -0.1620 C.3   1 <1>  -0.0970 
 19 O       -4.0450    -5.3000     0.8000 O.3   1 <1>  -0.0190 
 20 C       -2.3980    -4.3860    -0.2120 C.2   1 <1>  -0.1500 
 21 N       -3.1560    -6.2450     0.6940 N.2   1 <1>  -0.4100 
 22 C       -2.1510    -5.7220     0.0890 C.2   1 <1>   0.1080 
 23 C       -0.8780    -6.4650    -0.2440 C.3   1 <1>  -0.0590 
 24 H       -4.3640     1.5700     0.0470 H     1 <1>   0.0800 
 25 H       -3.6830     0.9520    -1.4520 H     1 <1>   0.0800 
 26 H       -1.8370    -1.6470     0.4180 H     1 <1>   0.0800 
 27 H       -3.0150    -1.2360     1.6570 H     1 <1>   0.0800 
 28 H       -0.2930     2.8400     2.0420 H     1 <1>   0.1500 
 29 H       -5.4760    -0.5820    -1.2790 H     1 <1>   0.0800 
 30 H       -3.5070    -1.9090    -1.2290 H     1 <1>   0.0800 
 31 H       -2.4250     4.8660    -1.6670 H     1 <1>   0.1500 
 32 H       -5.4390    -3.2040    -0.2570 H     1 <1>   0.0800 
 33 H       -4.8600    -2.8040     1.3300 H     1 <1>   0.0800 
 34 H       -7.3800     0.2820     1.5240 H     1 <1>   0.0800 
 35 H       -7.4520    -0.1090    -0.1890 H     1 <1>   0.0800 
 36 H       -6.5830     1.3310     0.3610 H     1 <1>   0.0800 
 37 H       -1.5570     6.9620    -1.0350 H     1 <1>   0.0800 
 38 H        0.0160     6.8580    -0.2770 H     1 <1>   0.0800 
 39 H       -1.4030     7.1550     0.6970 H     1 <1>   0.0800 
 40 H       -1.7250    -3.7190    -0.7190 H     1 <1>   0.1500 
 41 H       -0.7030    -6.4330    -1.3040 H     1 <1>   0.0800 
 42 H       -0.9610    -7.4920     0.0640 H     1 <1>   0.0800 
 43 H       -0.0480    -6.0140     0.2680 H     1 <1>   0.0800 
@<TRIPOS>BOND
  1   1   2  2   
  2   2   3  am  
  3   2   4  1   
  4   3   5  1   
  5   3   6  1   
  6   4   7  ar  
  7   4   8  ar  
  8   5   9  1   
  9   5  24  1   
 10   5  25  1   
 11   6  10  1   
 12   6  26  1   
 13   6  27  1   
 14   7  11  ar  
 15   8  12  ar  
 16   8  28  1   
 17   9  10  1   
 18   9  13  1   
 19   9  29  1   
 20  10  14  1   
 21  10  30  1   
 22  11  15  ar  
 23  11  31  1   
 24  12  15  ar  
 25  13  16  1   
 26  14  17  1   
 27  14  32  1   
 28  14  33  1   
 29  15  18  1   
 30  16  34  1   
 31  16  35  1   
 32  16  36  1   
 33  17  19  1   
 34  17  20  2   
 35  18  37  1   
 36  18  38  1   
 37  18  39  1   
 38  19  21  1   
 39  20  22  1   
 40  20  40  1   
 41  21  22  2   
 42  22  23  1   
 43  23  41  1   
 44  23  42  1   
 45  23  43  1   
@<TRIPOS>SUBSTRUCTURE
  1 ****   3 GROUP 4 **** **** 0

# MOE 2024.06 (io_trps.svl 2023.06)
