@<TRIPOS>MOLECULE
NONAME
56 58 1 0 0 
SMALL
USER_CHARGES


@<TRIPOS>ATOM
  1 O        0.2480     1.2570     0.8030 O.2   1 <1>  -0.5700 
  2 C        0.1830     2.4010     0.4310 C.2   1 <1>   0.5690 
  3 N       -0.8560     3.1850     0.7930 N.am  1 <1>  -0.7300 
  4 C        1.2670     2.9760    -0.4860 C.3   1 <1>   0.1810 
  5 C       -1.0270     4.5880     0.3410 C.3   1 <1>   0.3640 
  6 O        1.2830     4.3860    -0.4880 O.3   1 <1>  -0.5600 
  7 C       -2.4530     4.7710    -0.1680 C.ar  1 <1>  -0.1440 
  8 C        0.0170     4.9870    -0.7320 C.3   1 <1>   0.2610 
  9 C       -3.1730     5.9000     0.1970 C.ar  1 <1>  -0.1500 
 10 C       -3.0500     3.8320    -1.0000 C.ar  1 <1>  -0.1500 
 11 C        0.1060     6.5190    -0.8250 C.2   1 <1>   0.5690 
 12 C       -4.4680     6.0860    -0.2560 C.ar  1 <1>  -0.1500 
 13 C       -4.3450     4.0170    -1.4530 C.ar  1 <1>  -0.1500 
 14 O       -0.4480     7.0320    -1.7700 O.2   1 <1>  -0.5700 
 15 N        0.7610     7.2950     0.1110 N.am  1 <1>  -0.6600 
 16 C       -5.0550     5.1430    -1.0810 C.ar  1 <1>  -0.1500 
 17 C        0.8710     8.7700    -0.0860 C.3   1 <1>   0.2840 
 18 C        1.6010     6.7600     1.2230 C.3   1 <1>   0.0600 
 19 C        2.2870     9.1390    -0.5180 C.ar  1 <1>  -0.1430 
 20 C        3.1080     9.9170     0.2850 C.ar  1 <1>  -0.1500 
 21 C        2.7640     8.6870    -1.7370 C.ar  1 <1>  -0.1500 
 22 C        4.3950    10.2400    -0.1240 C.ar  1 <1>  -0.1430 
 23 C        4.0480     8.9950    -2.1470 C.ar  1 <1>  -0.1500 
 24 C        4.8640     9.7680    -1.3420 C.ar  1 <1>  -0.1500 
 25 C        5.2840    11.1080     0.7460 C.3   1 <1>   0.4860 
 26 N        5.3980    12.4550     0.1160 N.4   1 <1>  -0.9590 
 27 C        6.4370    13.2910     0.7890 C.3   1 <1>   0.2630 
 28 C        4.0760    13.1570     0.0720 C.3   1 <1>   0.2630 
 29 H       -1.6030     2.7830     1.3620 H     1 <1>   0.3700 
 30 H        1.1050     2.6360    -1.4920 H     1 <1>   0.0800 
 31 H        2.2310     2.6370    -0.1550 H     1 <1>   0.0800 
 32 H       -0.8920     5.2210     1.2000 H     1 <1>   0.0800 
 33 H       -0.3200     4.6290    -1.6880 H     1 <1>   0.0800 
 34 H       -2.7330     6.6490     0.8330 H     1 <1>   0.1500 
 35 H       -2.5140     2.9490    -1.3020 H     1 <1>   0.1500 
 36 H       -5.0180     6.9650     0.0300 H     1 <1>   0.1500 
 37 H       -4.8000     3.2830    -2.0960 H     1 <1>   0.1500 
 38 H       -6.0610     5.2880    -1.4330 H     1 <1>   0.1500 
 39 H        0.1750     9.1090    -0.8350 H     1 <1>   0.0800 
 40 H        0.6170     9.2660     0.8340 H     1 <1>   0.0800 
 41 H        1.5990     7.4450     2.0520 H     1 <1>   0.0800 
 42 H        2.6120     6.6310     0.8750 H     1 <1>   0.0800 
 43 H        1.2340     5.8110     1.5700 H     1 <1>   0.0800 
 44 H        2.7350    10.2650     1.2330 H     1 <1>   0.1500 
 45 H        2.1320     8.0820    -2.3690 H     1 <1>   0.1500 
 46 H        4.4060     8.6270    -3.0940 H     1 <1>   0.1500 
 47 H        5.8620     9.9860    -1.6800 H     1 <1>   0.1500 
 48 H        6.2560    10.6490     0.8230 H     1 <1>   0.0800 
 49 H        4.8660    11.1900     1.7360 H     1 <1>   0.0800 
 50 H        5.6800    12.2810    -0.8600 H     1 <1>   0.4500 
 51 H        6.1640    13.4770     1.8150 H     1 <1>   0.0800 
 52 H        6.5390    14.2380     0.2830 H     1 <1>   0.0800 
 53 H        7.3920    12.7900     0.7710 H     1 <1>   0.0800 
 54 H        3.7050    13.3260     1.0690 H     1 <1>   0.0800 
 55 H        3.3550    12.5620    -0.4690 H     1 <1>   0.0800 
 56 H        4.1730    14.1080    -0.4270 H     1 <1>   0.0800 
@<TRIPOS>BOND
  1   1   2  2   
  2   2   3  am  
  3   2   4  1   
  4   3   5  1   
  5   3  29  1   
  6   4   6  1   
  7   4  30  1   
  8   4  31  1   
  9   5   7  1   
 10   5   8  1   
 11   5  32  1   
 12   6   8  1   
 13   7   9  ar  
 14   7  10  ar  
 15   8  11  1   
 16   8  33  1   
 17   9  12  ar  
 18   9  34  1   
 19  10  13  ar  
 20  10  35  1   
 21  11  14  2   
 22  11  15  am  
 23  12  16  ar  
 24  12  36  1   
 25  13  16  ar  
 26  13  37  1   
 27  15  17  1   
 28  15  18  1   
 29  16  38  1   
 30  17  19  1   
 31  17  39  1   
 32  17  40  1   
 33  18  41  1   
 34  18  42  1   
 35  18  43  1   
 36  19  20  ar  
 37  19  21  ar  
 38  20  22  ar  
 39  20  44  1   
 40  21  23  ar  
 41  21  45  1   
 42  22  24  ar  
 43  22  25  1   
 44  23  24  ar  
 45  23  46  1   
 46  24  47  1   
 47  25  26  1   
 48  25  48  1   
 49  25  49  1   
 50  26  27  1   
 51  26  28  1   
 52  26  50  1   
 53  27  51  1   
 54  27  52  1   
 55  27  53  1   
 56  28  54  1   
 57  28  55  1   
 58  28  56  1   
@<TRIPOS>SUBSTRUCTURE
  1 ****  15 GROUP 4 **** **** 0

# MOE 2024.06 (io_trps.svl 2023.06)
