@<TRIPOS>MOLECULE
NONAME
52 54 1 0 0 
SMALL
USER_CHARGES


@<TRIPOS>ATOM
  1 O        0.9660     0.4330    -0.6070 O.2   1 <1>  -0.5700 
  2 C        1.5840    -0.5580    -0.2650 C.2   1 <1>   0.6900 
  3 N        1.2170    -1.8170    -0.7370 N.am  1 <1>  -0.4690 
  4 N        2.6440    -0.4350     0.6130 N.am  1 <1>  -0.4200 
  5 C        1.8770    -2.9820    -0.2980 C.2   1 <1>   0.1230 
  6 C        0.1770    -1.9030    -1.8140 C.3   1 <1>   0.0600 
  7 C        3.3010    -1.5560     1.0660 C.2   1 <1>   0.6160 
  8 C        3.0560     0.9180     1.0910 C.3   1 <1>   0.0600 
  9 C        1.4850    -4.3180    -0.7340 C.2   1 <1>   0.6160 
 10 C        2.8980    -2.8210     0.5820 C.2   1 <1>  -0.1360 
 11 O        4.1970    -1.4680     1.8860 O.2   1 <1>  -0.5700 
 12 O        1.2870    -4.5850    -1.9040 O.2   1 <1>  -0.5700 
 13 N        1.2880    -5.3300     0.1800 N.am  1 <1>  -0.6600 
 14 C        0.4770    -5.1160     1.4160 C.3   1 <1>   0.1400 
 15 C        1.3540    -6.7580    -0.2530 C.3   1 <1>   0.1400 
 16 C       -0.9480    -5.7040     1.2590 C.3   1 <1>   0.4230 
 17 C       -0.0640    -7.3200    -0.4500 C.3   1 <1>   0.3430 
 18 N       -0.9250    -7.1500     0.7860 N.4   1 <1>  -0.9590 
 19 C       -1.7980    -4.8310     0.3060 C.3   1 <1>   0.1200 
 20 C       -2.3410    -7.6290     0.5930 C.3   1 <1>   0.4230 
 21 O       -3.0870    -5.3600     0.1860 O.3   1 <1>  -0.5600 
 22 C       -3.1470    -6.6670    -0.3140 C.3   1 <1>   0.1200 
 23 C       -2.3590    -9.0820     0.0880 C.3   1 <1>  -0.1600 
 24 C       -3.7400    -9.7380     0.2410 C.3   1 <1>  -0.1600 
 25 C       -3.6970   -11.2050    -0.1940 C.3   1 <1>  -0.2400 
 26 H       -0.5350    -2.6740    -1.5850 H     1 <1>   0.0800 
 27 H        0.6530    -2.1300    -2.7520 H     1 <1>   0.0800 
 28 H       -0.3620    -0.9770    -1.9230 H     1 <1>   0.0800 
 29 H        4.0940     0.9210     1.3770 H     1 <1>   0.0800 
 30 H        2.4560     1.1960     1.9400 H     1 <1>   0.0800 
 31 H        2.9200     1.6480     0.3110 H     1 <1>   0.0800 
 32 H        3.4590    -3.6560     0.9580 H     1 <1>   0.1500 
 33 H        0.9720    -5.5870     2.2480 H     1 <1>   0.0800 
 34 H        0.4060    -4.0650     1.6410 H     1 <1>   0.0800 
 35 H        1.9030    -6.8410    -1.1770 H     1 <1>   0.0800 
 36 H        1.8820    -7.3360     0.4870 H     1 <1>   0.0800 
 37 H       -1.4240    -5.6610     2.2240 H     1 <1>   0.0800 
 38 H        0.0100    -8.3630    -0.7090 H     1 <1>   0.0800 
 39 H       -0.5140    -6.8050    -1.2840 H     1 <1>   0.0800 
 40 H       -0.5110    -7.7160     1.5350 H     1 <1>   0.4500 
 41 H       -1.3580    -4.7690    -0.6740 H     1 <1>   0.0800 
 42 H       -1.8950    -3.8340     0.7000 H     1 <1>   0.0800 
 43 H       -2.8280    -7.6250     1.5550 H     1 <1>   0.0800 
 44 H       -4.1840    -6.9510    -0.3330 H     1 <1>   0.0800 
 45 H       -2.7760    -6.6700    -1.3240 H     1 <1>   0.0800 
 46 H       -2.0760    -9.1210    -0.9490 H     1 <1>   0.0800 
 47 H       -1.6540    -9.6610     0.6590 H     1 <1>   0.0800 
 48 H       -4.0620    -9.6910     1.2690 H     1 <1>   0.0800 
 49 H       -4.4730    -9.2260    -0.3610 H     1 <1>   0.0800 
 50 H       -3.0030   -11.7640     0.4090 H     1 <1>   0.0800 
 51 H       -3.4070   -11.2900    -1.2270 H     1 <1>   0.0800 
 52 H       -4.6720   -11.6490    -0.0820 H     1 <1>   0.0800 
@<TRIPOS>BOND
  1   1   2  2   
  2   2   3  am  
  3   2   4  am  
  4   3   5  1   
  5   3   6  1   
  6   4   7  am  
  7   4   8  1   
  8   5   9  1   
  9   5  10  2   
 10   6  26  1   
 11   6  27  1   
 12   6  28  1   
 13   7  10  1   
 14   7  11  2   
 15   8  29  1   
 16   8  30  1   
 17   8  31  1   
 18   9  12  2   
 19   9  13  am  
 20  10  32  1   
 21  13  14  1   
 22  13  15  1   
 23  14  16  1   
 24  14  33  1   
 25  14  34  1   
 26  15  17  1   
 27  15  35  1   
 28  15  36  1   
 29  16  18  1   
 30  16  19  1   
 31  16  37  1   
 32  17  18  1   
 33  17  38  1   
 34  17  39  1   
 35  18  20  1   
 36  18  40  1   
 37  19  21  1   
 38  19  41  1   
 39  19  42  1   
 40  20  22  1   
 41  20  23  1   
 42  20  43  1   
 43  21  22  1   
 44  22  44  1   
 45  22  45  1   
 46  23  24  1   
 47  23  46  1   
 48  23  47  1   
 49  24  25  1   
 50  24  48  1   
 51  24  49  1   
 52  25  50  1   
 53  25  51  1   
 54  25  52  1   
@<TRIPOS>SUBSTRUCTURE
  1 ****  13 GROUP 4 **** **** 0

# MOE 2024.06 (io_trps.svl 2023.06)
