@<TRIPOS>MOLECULE
NONAME
49 51 1 0 0 
SMALL
USER_CHARGES


@<TRIPOS>ATOM
  1 O        0.4800    -0.4150    -1.9480 O.3   1 <1>  -0.5600 
  2 C        1.6780     0.1840    -2.3520 C.3   1 <1>   0.1200 
  3 C        0.6130    -1.6310    -1.2630 C.3   1 <1>   0.1200 
  4 C        2.6000     0.4350    -1.1370 C.3   1 <1>   0.4230 
  5 C        1.4830    -1.4510     0.0050 C.3   1 <1>   0.4230 
  6 N        2.8060    -0.8320    -0.3370 N.4   1 <1>  -0.9590 
  7 C        3.9520     1.0640    -1.5690 C.3   1 <1>   0.1100 
  8 C        1.6830    -2.7590     0.7880 C.3   1 <1>  -0.1600 
  9 C        3.8010    -1.7370    -1.0120 C.3   1 <1>   0.3430 
 10 N        5.1140     0.4160    -0.9040 N.3   1 <1>  -0.8100 
 11 C        0.3910    -3.2390     1.4670 C.3   1 <1>  -0.1600 
 12 C        5.1600    -1.0260    -1.2370 C.3   1 <1>   0.1100 
 13 C        6.3930     1.0900    -1.2030 C.3   1 <1>   0.2530 
 14 C        0.6500    -4.4950     2.3030 C.3   1 <1>  -0.2400 
 15 C        6.3670     2.5050    -0.6590 C.ar  1 <1>  -0.1430 
 16 C        6.1410     2.7500     0.6750 C.ar  1 <1>   0.1600 
 17 C        6.5500     3.6010    -1.4700 C.ar  1 <1>   0.1600 
 18 N        6.0830     3.9640     1.1680 N.ar  1 <1>  -0.6200 
 19 N        6.4970     4.8280    -1.0120 N.ar  1 <1>  -0.6200 
 20 C        6.2680     4.9480     0.2890 C.ar  1 <1>   0.7030 
 21 O        6.2220     6.2140     0.7340 O.3   1 <1>  -0.3620 
 22 C        6.0200     6.5250     2.0980 C.3   1 <1>   0.0400 
 23 H        2.1510    -0.4520    -3.0790 H     1 <1>   0.0800 
 24 H        1.4290     1.1170    -2.8250 H     1 <1>   0.0800 
 25 H       -0.3770    -1.9520    -0.9940 H     1 <1>   0.0800 
 26 H        1.0370    -2.3600    -1.9300 H     1 <1>   0.0800 
 27 H        2.1000     1.1550    -0.5110 H     1 <1>   0.0800 
 28 H        0.9530    -0.7700     0.6510 H     1 <1>   0.0800 
 29 H        3.2750    -0.5160     0.5220 H     1 <1>   0.4500 
 30 H        3.9170     2.1120    -1.3220 H     1 <1>   0.0800 
 31 H        4.0670     0.9950    -2.6380 H     1 <1>   0.0800 
 32 H        2.0340    -3.5360     0.1320 H     1 <1>   0.0800 
 33 H        2.4200    -2.5970     1.5560 H     1 <1>   0.0800 
 34 H        3.9700    -2.6170    -0.4140 H     1 <1>   0.0800 
 35 H        3.4120    -2.0610    -1.9630 H     1 <1>   0.0800 
 36 H        0.0040    -2.4670     2.1120 H     1 <1>   0.0800 
 37 H       -0.3630    -3.4680     0.7320 H     1 <1>   0.0800 
 38 H        5.4570    -1.1600    -2.2640 H     1 <1>   0.0800 
 39 H        5.9050    -1.5050    -0.6230 H     1 <1>   0.0800 
 40 H        7.2010     0.5560    -0.7310 H     1 <1>   0.0800 
 41 H        6.5690     1.0980    -2.2660 H     1 <1>   0.0800 
 42 H        1.3720    -4.2990     3.0760 H     1 <1>   0.0800 
 43 H        1.0130    -5.2980     1.6850 H     1 <1>   0.0800 
 44 H       -0.2640    -4.8190     2.7720 H     1 <1>   0.0800 
 45 H        5.9970     1.9260     1.3530 H     1 <1>   0.1500 
 46 H        6.7390     3.4760    -2.5230 H     1 <1>   0.1500 
 47 H        6.0410     7.5940     2.2070 H     1 <1>   0.0800 
 48 H        6.8090     6.0780     2.6780 H     1 <1>   0.0800 
 49 H        5.0630     6.1400     2.4050 H     1 <1>   0.0800 
@<TRIPOS>BOND
  1   1   2  1   
  2   1   3  1   
  3   2   4  1   
  4   2  23  1   
  5   2  24  1   
  6   3   5  1   
  7   3  25  1   
  8   3  26  1   
  9   4   6  1   
 10   4   7  1   
 11   4  27  1   
 12   5   6  1   
 13   5   8  1   
 14   5  28  1   
 15   6   9  1   
 16   6  29  1   
 17   7  10  1   
 18   7  30  1   
 19   7  31  1   
 20   8  11  1   
 21   8  32  1   
 22   8  33  1   
 23   9  12  1   
 24   9  34  1   
 25   9  35  1   
 26  10  12  1   
 27  10  13  1   
 28  11  14  1   
 29  11  36  1   
 30  11  37  1   
 31  12  38  1   
 32  12  39  1   
 33  13  15  1   
 34  13  40  1   
 35  13  41  1   
 36  14  42  1   
 37  14  43  1   
 38  14  44  1   
 39  15  16  ar  
 40  15  17  ar  
 41  16  18  ar  
 42  16  45  1   
 43  17  19  ar  
 44  17  46  1   
 45  18  20  ar  
 46  19  20  ar  
 47  20  21  1   
 48  21  22  1   
 49  22  47  1   
 50  22  48  1   
 51  22  49  1   
@<TRIPOS>SUBSTRUCTURE
  1 ****   7 GROUP 4 **** **** 0

# MOE 2024.06 (io_trps.svl 2023.06)
