@<TRIPOS>MOLECULE
NONAME
43 44 1 0 0 
SMALL
USER_CHARGES


@<TRIPOS>ATOM
  1 CL      -0.5840    -0.8100    -1.9350 Cl    1 <1>  -0.1230 
  2 C       -1.6070    -2.2160    -1.6940 C.2   1 <1>   0.1230 
  3 C       -2.9850    -2.2510    -1.8290 C.2   1 <1>   0.1390 
  4 C       -1.2250    -3.4580    -1.3460 C.2   1 <1>  -0.3020 
  5 N       -3.4500    -3.4420    -1.5810 N.2   1 <1>  -0.7070 
  6 N       -2.3590    -4.1900    -1.2830 N.pl3 1 <1>   0.3140 
  7 C       -2.4380    -5.6250    -0.9410 C.3   1 <1>   0.0960 
  8 C       -3.7530    -5.9460    -0.2240 C.3   1 <1>   0.1400 
  9 N       -3.7350    -7.3220     0.3370 N.am  1 <1>  -0.7300 
 10 C       -3.6770    -8.4770    -0.3830 C.2   1 <1>   0.5690 
 11 O       -3.5420    -8.4470    -1.5840 O.2   1 <1>  -0.5700 
 12 C       -3.7950    -9.8550     0.3090 C.3   1 <1>   0.3370 
 13 N       -5.1990   -10.2980     0.5840 N.am  1 <1>  -0.6930 
 14 C       -2.9400   -10.0030     1.5760 C.3   1 <1>  -0.2400 
 15 S       -6.2830    -9.2810     1.4790 S.o2  1 <1>   1.3330 
 16 C       -5.6960   -11.3700    -0.1510 C.ar  1 <1>   0.1990 
 17 O       -5.5040    -8.3010     2.2000 O.2   1 <1>  -0.6500 
 18 O       -7.2060   -10.1290     2.1910 O.2   1 <1>  -0.6500 
 19 C       -7.1630    -8.4490     0.1740 C.3   1 <1>  -0.1350 
 20 C       -5.6640   -11.3580    -1.5430 C.ar  1 <1>  -0.1500 
 21 C       -6.2380   -12.4770     0.4900 C.ar  1 <1>  -0.1500 
 22 C       -6.1570   -12.4250    -2.2720 C.ar  1 <1>  -0.1500 
 23 C       -6.7340   -13.5460    -0.2350 C.ar  1 <1>  -0.1500 
 24 C       -6.6930   -13.5210    -1.6180 C.ar  1 <1>  -0.1500 
 25 H       -3.5930    -1.4070    -2.1030 H     1 <1>   0.1500 
 26 H       -0.2430    -3.8440    -1.1500 H     1 <1>   0.1500 
 27 H       -1.6090    -5.8670    -0.3040 H     1 <1>   0.0800 
 28 H       -2.3670    -6.1900    -1.8510 H     1 <1>   0.0800 
 29 H       -4.5720    -5.8560    -0.9180 H     1 <1>   0.0800 
 30 H       -3.9050    -5.2460     0.5810 H     1 <1>   0.0800 
 31 H       -4.0650    -7.4000     1.3150 H     1 <1>   0.3700 
 32 H       -3.3780   -10.5550    -0.3940 H     1 <1>   0.0800 
 33 H       -3.2340    -9.3120     2.3430 H     1 <1>   0.0800 
 34 H       -1.9090    -9.8170     1.3370 H     1 <1>   0.0800 
 35 H       -3.0230   -11.0060     1.9570 H     1 <1>   0.0800 
 36 H       -6.4860    -7.8940    -0.4450 H     1 <1>   0.0800 
 37 H       -7.8820    -7.7710     0.5910 H     1 <1>   0.0800 
 38 H       -7.6810    -9.1640    -0.4350 H     1 <1>   0.0800 
 39 H       -5.2540   -10.5100    -2.0620 H     1 <1>   0.1500 
 40 H       -6.2720   -12.4970     1.5650 H     1 <1>   0.1500 
 41 H       -6.1260   -12.4050    -3.3480 H     1 <1>   0.1500 
 42 H       -7.1520   -14.3950     0.2780 H     1 <1>   0.1500 
 43 H       -7.0780   -14.3530    -2.1840 H     1 <1>   0.1500 
@<TRIPOS>BOND
  1   1   2  1   
  2   2   3  1   
  3   2   4  2   
  4   3   5  2   
  5   3  25  1   
  6   4   6  1   
  7   4  26  1   
  8   5   6  1   
  9   6   7  1   
 10   7   8  1   
 11   7  27  1   
 12   7  28  1   
 13   8   9  1   
 14   8  29  1   
 15   8  30  1   
 16   9  10  am  
 17   9  31  1   
 18  10  11  2   
 19  10  12  1   
 20  12  13  1   
 21  12  14  1   
 22  12  32  1   
 23  13  15  am  
 24  13  16  1   
 25  14  33  1   
 26  14  34  1   
 27  14  35  1   
 28  15  17  2   
 29  15  18  2   
 30  15  19  1   
 31  16  20  ar  
 32  16  21  ar  
 33  19  36  1   
 34  19  37  1   
 35  19  38  1   
 36  20  22  ar  
 37  20  39  1   
 38  21  23  ar  
 39  21  40  1   
 40  22  24  ar  
 41  22  41  1   
 42  23  24  ar  
 43  23  42  1   
 44  24  43  1   
@<TRIPOS>SUBSTRUCTURE
  1 ****  10 GROUP 4 **** **** 0

# MOE 2024.06 (io_trps.svl 2023.06)
