@<TRIPOS>MOLECULE
NONAME
55 58 1 0 0 
SMALL
USER_CHARGES


@<TRIPOS>ATOM
  1 O        3.9940    -1.3170    -1.7370 O.2   1 <1>  -0.5700 
  2 C        3.2060    -1.8020    -0.9570 C.2   1 <1>   0.5690 
  3 N        2.7820    -1.1140     0.1570 N.am  1 <1>  -0.6600 
  4 C        2.7420    -3.2280    -1.2490 C.3   1 <1>   0.1810 
  5 C        1.8430    -1.6910     1.1680 C.3   1 <1>   0.1400 
  6 C        3.2150     0.3020     0.3660 C.3   1 <1>   0.1400 
  7 O        1.3240    -3.3250    -1.2970 O.3   1 <1>  -0.3620 
  8 C        2.0330    -1.0190     2.5320 C.3   1 <1>  -0.1600 
  9 C        2.1290     1.0980     1.0980 C.3   1 <1>  -0.1600 
 10 C        0.7030    -4.4960    -1.5740 C.ar  1 <1>   0.0820 
 11 C        1.7920     0.4990     2.4740 C.3   1 <1>  -0.1600 
 12 C        1.3690    -5.7000    -1.7780 C.ar  1 <1>  -0.1500 
 13 C       -0.6780    -4.4600    -1.6550 C.ar  1 <1>  -0.1500 
 14 C        0.6500    -6.8500    -2.0550 C.ar  1 <1>  -0.1500 
 15 C       -1.3970    -5.6090    -1.9330 C.ar  1 <1>  -0.1500 
 16 C       -0.7360    -6.8130    -2.1300 C.ar  1 <1>  -0.1440 
 17 C       -1.5180    -8.0760    -2.4240 C.3   1 <1>   0.4860 
 18 N       -1.6150    -8.8580    -1.1690 N.4   1 <1>  -0.8970 
 19 C       -2.4310   -10.1180    -1.2450 C.3   1 <1>   0.4720 
 20 C       -2.5760    -8.3090    -0.1490 C.3   1 <1>   0.4720 
 21 C       -3.6110    -9.3580    -0.6030 C.3   1 <1>   0.1080 
 22 C       -4.2290   -10.1090     0.5570 C.ar  1 <1>   0.2020 
 23 N       -3.3830   -10.6020     1.4490 N.ar  1 <1>  -0.6200 
 24 C       -5.6070   -10.2440     0.6350 C.ar  1 <1>  -0.1500 
 25 C       -3.9330   -11.2580     2.4620 C.ar  1 <1>   0.1600 
 26 C       -6.1650   -10.9290     1.6930 C.ar  1 <1>  -0.1500 
 27 C       -5.2940   -11.4460     2.6270 C.ar  1 <1>  -0.1500 
 28 H        3.1050    -3.8840    -0.4820 H     1 <1>   0.0800 
 29 H        3.1290    -3.5330    -2.2040 H     1 <1>   0.0800 
 30 H        2.0140    -2.7480     1.2700 H     1 <1>   0.0800 
 31 H        0.8320    -1.5420     0.8280 H     1 <1>   0.0800 
 32 H        3.4180     0.7680    -0.5840 H     1 <1>   0.0800 
 33 H        4.1250     0.3070     0.9420 H     1 <1>   0.0800 
 34 H        3.0390    -1.2120     2.8630 H     1 <1>   0.0800 
 35 H        1.3660    -1.4630     3.2500 H     1 <1>   0.0800 
 36 H        1.2480     1.1030     0.4800 H     1 <1>   0.0800 
 37 H        2.4470     2.1190     1.2150 H     1 <1>   0.0800 
 38 H        2.3920     0.9720     3.2330 H     1 <1>   0.0800 
 39 H        0.7600     0.7110     2.6970 H     1 <1>   0.0800 
 40 H        2.4410    -5.7600    -1.7280 H     1 <1>   0.1500 
 41 H       -1.1830    -3.5220    -1.5030 H     1 <1>   0.1500 
 42 H        1.1880    -7.7700    -2.2160 H     1 <1>   0.1500 
 43 H       -2.4700    -5.5430    -1.9960 H     1 <1>   0.1500 
 44 H       -1.0020    -8.6490    -3.1780 H     1 <1>   0.0800 
 45 H       -2.4990    -7.8270    -2.7930 H     1 <1>   0.0800 
 46 H       -0.6990    -9.0140    -0.7350 H     1 <1>   0.4500 
 47 H       -2.0130   -10.8820    -0.6150 H     1 <1>   0.0000 
 48 H       -2.6070   -10.4270    -2.2590 H     1 <1>   0.0000 
 49 H       -2.8600    -7.2940    -0.3600 H     1 <1>   0.0000 
 50 H       -2.2070    -8.4680     0.8480 H     1 <1>   0.0000 
 51 H       -4.3100    -8.9750    -1.3260 H     1 <1>   0.0000 
 52 H       -6.2500    -9.8230    -0.1180 H     1 <1>   0.1500 
 53 H       -3.2660   -11.6690     3.2020 H     1 <1>   0.1500 
 54 H       -7.2310   -11.0550     1.7890 H     1 <1>   0.1500 
 55 H       -5.6650   -11.9900     3.4780 H     1 <1>   0.1500 
@<TRIPOS>BOND
  1   1   2  2   
  2   2   3  am  
  3   2   4  1   
  4   3   5  1   
  5   3   6  1   
  6   4   7  1   
  7   4  28  1   
  8   4  29  1   
  9   5   8  1   
 10   5  30  1   
 11   5  31  1   
 12   6   9  1   
 13   6  32  1   
 14   6  33  1   
 15   7  10  1   
 16   8  11  1   
 17   8  34  1   
 18   8  35  1   
 19   9  11  1   
 20   9  36  1   
 21   9  37  1   
 22  10  12  ar  
 23  10  13  ar  
 24  11  38  1   
 25  11  39  1   
 26  12  14  ar  
 27  12  40  1   
 28  13  15  ar  
 29  13  41  1   
 30  14  16  ar  
 31  14  42  1   
 32  15  16  ar  
 33  15  43  1   
 34  16  17  1   
 35  17  18  1   
 36  17  44  1   
 37  17  45  1   
 38  18  19  1   
 39  18  20  1   
 40  18  46  1   
 41  19  21  1   
 42  19  47  1   
 43  19  48  1   
 44  20  21  1   
 45  20  49  1   
 46  20  50  1   
 47  21  22  1   
 48  21  51  1   
 49  22  23  ar  
 50  22  24  ar  
 51  23  25  ar  
 52  24  26  ar  
 53  24  52  1   
 54  25  27  ar  
 55  25  53  1   
 56  26  27  ar  
 57  26  54  1   
 58  27  55  1   
@<TRIPOS>SUBSTRUCTURE
  1 ****  15 GROUP 4 **** **** 0

# MOE 2024.06 (io_trps.svl 2023.06)
