@<TRIPOS>MOLECULE
NONAME
40 41 1 0 0 
SMALL
USER_CHARGES


@<TRIPOS>ATOM
  1 O        0.9840     0.1820     0.7970 O.3   1 <1>  -0.5600 
  2 C        1.4070    -0.2560    -0.4620 C.3   1 <1>   0.1200 
  3 C        0.1170    -0.7330     1.4010 C.3   1 <1>   0.1200 
  4 C        0.9570    -1.7110    -0.5790 C.3   1 <1>   0.2000 
  5 C       -0.2760    -1.7290     0.3140 C.3   1 <1>   0.2890 
  6 O        0.6220    -2.1080    -1.8920 O.3   1 <1>  -0.5600 
  7 N       -0.6320    -3.0930     0.8310 N.pl3 1 <1>  -0.8690 
  8 C        1.7080    -2.1420    -2.7740 C.3   1 <1>   0.0400 
  9 C       -1.1160    -4.1420     0.1170 C.ar  1 <1>   0.4610 
 10 N       -1.0760    -4.1220    -1.2230 N.ar  1 <1>  -0.1790 
 11 C       -1.6610    -5.2670     0.6890 C.ar  1 <1>  -0.1500 
 12 C       -1.5540    -5.1330    -1.9690 C.ar  1 <1>   0.7710 
 13 C       -2.1320    -6.2740    -0.1280 C.ar  1 <1>   0.3930 
 14 N       -2.0850    -6.2160    -1.4580 N.ar  1 <1>  -0.6200 
 15 N       -1.4950    -5.0610    -3.2990 N.pl3 1 <1>  -0.9000 
 16 O       -2.6550    -7.3460     0.4640 O.3   1 <1>  -0.3620 
 17 C       -3.2170    -8.4500    -0.2150 C.3   1 <1>   0.2000 
 18 C       -4.6700    -8.1240    -0.5620 C.3   1 <1>  -0.2400 
 19 C       -3.1280    -9.6500     0.7240 C.3   1 <1>  -0.2400 
 20 H        0.9250     0.3630    -1.2000 H     1 <1>   0.0800 
 21 H        2.4760    -0.1520    -0.5200 H     1 <1>   0.0800 
 22 H        0.6600    -1.2130     2.1970 H     1 <1>   0.0800 
 23 H       -0.7320    -0.1990     1.7910 H     1 <1>   0.0800 
 24 H        1.7190    -2.3640    -0.1870 H     1 <1>   0.0800 
 25 H       -1.1140    -1.3110    -0.2200 H     1 <1>   0.0800 
 26 H       -0.6280    -3.1530     1.8590 H     1 <1>   0.4000 
 27 H        1.3680    -2.5150    -3.7240 H     1 <1>   0.0800 
 28 H        2.4720    -2.7940    -2.3840 H     1 <1>   0.0800 
 29 H        2.0990    -1.1480    -2.9070 H     1 <1>   0.0800 
 30 H       -0.5940    -3.3470    -1.6820 H     1 <1>   0.4570 
 31 H       -1.7280    -5.3720     1.7560 H     1 <1>   0.1500 
 32 H       -1.1650    -4.2790    -3.8660 H     1 <1>   0.4000 
 33 H       -1.8670    -5.8480    -3.8390 H     1 <1>   0.4000 
 34 H       -2.6430    -8.6480    -1.1050 H     1 <1>   0.0800 
 35 H       -5.2290    -7.8990     0.3290 H     1 <1>   0.0800 
 36 H       -5.1270    -8.9670    -1.0480 H     1 <1>   0.0800 
 37 H       -4.7160    -7.2870    -1.2340 H     1 <1>   0.0800 
 38 H       -3.6760    -9.4620     1.6310 H     1 <1>   0.0800 
 39 H       -2.1010    -9.8550     0.9640 H     1 <1>   0.0800 
 40 H       -3.5430   -10.5200     0.2480 H     1 <1>   0.0800 
@<TRIPOS>BOND
  1   1   2  1   
  2   1   3  1   
  3   2   4  1   
  4   2  20  1   
  5   2  21  1   
  6   3   5  1   
  7   3  22  1   
  8   3  23  1   
  9   4   5  1   
 10   4   6  1   
 11   4  24  1   
 12   5   7  1   
 13   5  25  1   
 14   6   8  1   
 15   7   9  1   
 16   7  26  1   
 17   8  27  1   
 18   8  28  1   
 19   8  29  1   
 20   9  10  ar  
 21   9  11  ar  
 22  10  12  ar  
 23  10  30  1   
 24  11  13  ar  
 25  11  31  1   
 26  12  14  ar  
 27  12  15  1   
 28  13  14  ar  
 29  13  16  1   
 30  15  32  1   
 31  15  33  1   
 32  16  17  1   
 33  17  18  1   
 34  17  19  1   
 35  17  34  1   
 36  18  35  1   
 37  18  36  1   
 38  18  37  1   
 39  19  38  1   
 40  19  39  1   
 41  19  40  1   
@<TRIPOS>SUBSTRUCTURE
  1 ****   9 GROUP 4 **** **** 0

# MOE 2024.06 (io_trps.svl 2023.06)
