@<TRIPOS>MOLECULE
NONAME
56 59 1 0 0 
SMALL
USER_CHARGES


@<TRIPOS>ATOM
  1 O       -0.2340    -1.1460     1.0240 O.2   1 <1>  -0.5700 
  2 C       -0.6470    -0.0220     1.1960 C.2   1 <1>   0.5690 
  3 N       -1.8960     0.3590     0.7630 N.am  1 <1>  -0.6600 
  4 C        0.2740     0.9380     1.9400 C.3   1 <1>   0.0440 
  5 C       -2.4610     1.7460     0.8700 C.3   1 <1>   0.1400 
  6 C       -2.8390    -0.6340     0.1720 C.3   1 <1>   0.1400 
  7 C        0.9920     1.9210     1.0200 C.ar  1 <1>  -0.1440 
  8 C       -2.9710     2.2630    -0.4910 C.3   1 <1>   0.1440 
  9 C       -3.3310    -0.1540    -1.1980 C.3   1 <1>  -0.1600 
 10 C        0.9530     3.2840     1.2710 C.ar  1 <1>  -0.1500 
 11 C        1.7040     1.4560    -0.0750 C.ar  1 <1>  -0.1500 
 12 C       -3.6220     3.6160    -0.2720 C.ar  1 <1>   0.1660 
 13 C       -3.9550     1.2480    -1.1100 C.3   1 <1>  -0.1600 
 14 C       -1.8030     2.5980    -1.4580 C.3   1 <1>  -0.1600 
 15 C        1.6090     4.1780     0.4410 C.ar  1 <1>   0.0820 
 16 C        2.3630     2.3410    -0.9100 C.ar  1 <1>  -0.1500 
 17 N       -4.7560     3.8160     0.3530 N.ar  1 <1>  -0.6200 
 18 C       -2.8730     4.6270    -0.7890 C.ar  1 <1>  -0.1440 
 19 C       -1.6080     4.1240    -1.4340 C.3   1 <1>  -0.0170 
 20 O        1.5030     5.4920     0.7570 O.3   1 <1>  -0.3620 
 21 C        2.3200     3.7010    -0.6570 C.ar  1 <1>  -0.1500 
 22 C       -5.1420     5.0910     0.4410 C.ar  1 <1>   0.7200 
 23 C       -3.3450     5.9070    -0.6480 C.ar  1 <1>   0.1600 
 24 C        2.1900     6.4810     0.0230 C.3   1 <1>   0.0400 
 25 N       -4.4800     6.1510    -0.0360 N.ar  1 <1>  -0.6200 
 26 N       -6.3370     5.3390     1.0900 N.pl3 1 <1>  -0.8380 
 27 C       -7.3290     4.2620     1.3610 C.3   1 <1>   0.1290 
 28 C       -6.7340     6.7080     1.5170 C.3   1 <1>   0.1290 
 29 H        1.0170     0.3590     2.4560 H     1 <1>   0.0800 
 30 H       -0.2920     1.4580     2.6890 H     1 <1>   0.0800 
 31 H       -1.7330     2.4370     1.2500 H     1 <1>   0.0800 
 32 H       -3.2840     1.7250     1.5630 H     1 <1>   0.0800 
 33 H       -3.6770    -0.7540     0.8370 H     1 <1>   0.0800 
 34 H       -2.3650    -1.5950     0.0630 H     1 <1>   0.0800 
 35 H       -4.0620    -0.8500    -1.5710 H     1 <1>   0.0800 
 36 H       -2.5020    -0.1540    -1.8840 H     1 <1>   0.0800 
 37 H        0.4140     3.6740     2.1150 H     1 <1>   0.1500 
 38 H        1.7480     0.3980    -0.2810 H     1 <1>   0.1500 
 39 H       -4.2660     1.5800    -2.0850 H     1 <1>   0.0800 
 40 H       -4.8360     1.1960    -0.4930 H     1 <1>   0.0800 
 41 H       -2.0670     2.3120    -2.4610 H     1 <1>   0.0800 
 42 H       -0.8960     2.0830    -1.1950 H     1 <1>   0.0800 
 43 H        2.9130     1.9670    -1.7570 H     1 <1>   0.1500 
 44 H       -1.4820     4.5220    -2.4250 H     1 <1>   0.0800 
 45 H       -0.7650     4.3930    -0.8250 H     1 <1>   0.0800 
 46 H        2.8410     4.3650    -1.3190 H     1 <1>   0.1500 
 47 H       -2.7860     6.7390    -1.0390 H     1 <1>   0.1500 
 48 H        1.9800     7.4350     0.4710 H     1 <1>   0.0800 
 49 H        1.8380     6.4700    -0.9930 H     1 <1>   0.0800 
 50 H        3.2460     6.2800     0.0690 H     1 <1>   0.0800 
 51 H       -7.2360     3.4720     0.6360 H     1 <1>   0.0800 
 52 H       -8.3280     4.6560     1.3040 H     1 <1>   0.0800 
 53 H       -7.1590     3.8580     2.3430 H     1 <1>   0.0800 
 54 H       -5.8630     7.3010     1.7400 H     1 <1>   0.0800 
 55 H       -7.3430     6.6590     2.4020 H     1 <1>   0.0800 
 56 H       -7.2870     7.1850     0.7270 H     1 <1>   0.0800 
@<TRIPOS>BOND
  1   1   2  2   
  2   2   3  am  
  3   2   4  1   
  4   3   5  1   
  5   3   6  1   
  6   4   7  1   
  7   4  29  1   
  8   4  30  1   
  9   5   8  1   
 10   5  31  1   
 11   5  32  1   
 12   6   9  1   
 13   6  33  1   
 14   6  34  1   
 15   7  10  ar  
 16   7  11  ar  
 17   8  12  1   
 18   8  13  1   
 19   8  14  1   
 20   9  13  1   
 21   9  35  1   
 22   9  36  1   
 23  10  15  ar  
 24  10  37  1   
 25  11  16  ar  
 26  11  38  1   
 27  12  17  ar  
 28  12  18  ar  
 29  13  39  1   
 30  13  40  1   
 31  14  19  1   
 32  14  41  1   
 33  14  42  1   
 34  15  20  1   
 35  15  21  ar  
 36  16  21  ar  
 37  16  43  1   
 38  17  22  ar  
 39  18  19  1   
 40  18  23  ar  
 41  19  44  1   
 42  19  45  1   
 43  20  24  1   
 44  21  46  1   
 45  22  25  ar  
 46  22  26  1   
 47  23  25  ar  
 48  23  47  1   
 49  24  48  1   
 50  24  49  1   
 51  24  50  1   
 52  26  27  1   
 53  26  28  1   
 54  27  51  1   
 55  27  52  1   
 56  27  53  1   
 57  28  54  1   
 58  28  55  1   
 59  28  56  1   
@<TRIPOS>SUBSTRUCTURE
  1 ****   8 GROUP 4 **** **** 0

# MOE 2024.06 (io_trps.svl 2023.06)
