@<TRIPOS>MOLECULE
NONAME
47 49 1 0 0 
SMALL
USER_CHARGES


@<TRIPOS>ATOM
  1 CL      -0.4680    -6.6080    -1.9110 Cl    1 <1>  -0.1770 
  2 C       -1.0750    -5.0380    -1.4310 C.ar  1 <1>   0.1770 
  3 C       -1.4640    -4.1260    -2.4030 C.ar  1 <1>   0.0830 
  4 C       -1.1650    -4.7260    -0.0880 C.ar  1 <1>  -0.1500 
  5 O       -1.3840    -4.4310    -3.7110 O.3   1 <1>  -0.5330 
  6 C       -1.9410    -2.8850    -2.0210 C.ar  1 <1>  -0.1500 
  7 C       -1.6550    -3.4850     0.2980 C.ar  1 <1>  -0.1440 
  8 C       -2.0330    -2.5670    -0.6750 C.ar  1 <1>  -0.1500 
  9 C       -1.7830    -3.1430     1.7810 C.3   1 <1>   0.0440 
 10 C       -2.5160    -4.2120     2.5870 C.2   1 <1>   0.5690 
 11 O       -1.8690    -4.7720     3.4420 O.2   1 <1>  -0.5700 
 12 N       -3.8410    -4.5270     2.3680 N.am  1 <1>  -0.6600 
 13 C       -4.6880    -3.8470     1.3410 C.3   1 <1>   0.2200 
 14 C       -4.4730    -5.6190     3.1760 C.3   1 <1>   0.0600 
 15 C       -4.9510    -4.7220     0.1200 C.3   1 <1>  -0.1600 
 16 C       -6.0820    -3.4500     1.8230 C.3   1 <1>  -0.1600 
 17 C       -6.1470    -4.0570    -0.5720 C.3   1 <1>  -0.0800 
 18 C       -6.8870    -3.2610     0.5290 C.3   1 <1>  -0.0800 
 19 C       -7.0160    -5.0600    -1.3540 C.3   1 <1>   0.1400 
 20 C       -8.3710    -3.6440     0.6750 C.3   1 <1>  -0.0990 
 21 N       -8.3410    -4.4610    -1.6520 N.am  1 <1>  -0.6600 
 22 C       -9.0220    -3.7710    -0.6870 C.2   1 <1>   0.5690 
 23 C       -8.8880    -4.6830    -3.0170 C.3   1 <1>   0.0600 
 24 O      -10.1060    -3.2700    -0.8660 O.2   1 <1>  -0.5700 
 25 H       -0.8580    -5.4530     0.6450 H     1 <1>   0.1500 
 26 H       -0.9950    -5.3160    -3.8610 H     1 <1>   0.4500 
 27 H       -2.2350    -2.1770    -2.7760 H     1 <1>   0.1500 
 28 H       -2.4030    -1.5960    -0.3930 H     1 <1>   0.1500 
 29 H       -2.2870    -2.2050     1.9170 H     1 <1>   0.0800 
 30 H       -0.7940    -3.0290     2.1870 H     1 <1>   0.0800 
 31 H       -4.2110    -2.9460     1.0030 H     1 <1>   0.0800 
 32 H       -5.1630    -6.1870     2.5790 H     1 <1>   0.0800 
 33 H       -4.9980    -5.1900     4.0120 H     1 <1>   0.0800 
 34 H       -3.7260    -6.2950     3.5540 H     1 <1>   0.0800 
 35 H       -4.0960    -4.7650    -0.5300 H     1 <1>   0.0800 
 36 H       -5.2110    -5.7180     0.4290 H     1 <1>   0.0800 
 37 H       -6.5270    -4.2360     2.4040 H     1 <1>   0.0800 
 38 H       -6.0540    -2.5470     2.4060 H     1 <1>   0.0800 
 39 H       -5.7600    -3.3450    -1.2820 H     1 <1>   0.0800 
 40 H       -6.8450    -2.2200     0.2510 H     1 <1>   0.0800 
 41 H       -7.1740    -5.9510    -0.7710 H     1 <1>   0.0800 
 42 H       -6.5170    -5.3360    -2.2670 H     1 <1>   0.0800 
 43 H       -8.8900    -2.9030     1.2550 H     1 <1>   0.0800 
 44 H       -8.4710    -4.5920     1.1720 H     1 <1>   0.0800 
 45 H       -8.2310    -4.2450    -3.7480 H     1 <1>   0.0800 
 46 H       -9.8600    -4.2300    -3.1130 H     1 <1>   0.0800 
 47 H       -8.9800    -5.7380    -3.2050 H     1 <1>   0.0800 
@<TRIPOS>BOND
  1   1   2  1   
  2   2   3  ar  
  3   2   4  ar  
  4   3   5  1   
  5   3   6  ar  
  6   4   7  ar  
  7   4  25  1   
  8   5  26  1   
  9   6   8  ar  
 10   6  27  1   
 11   7   8  ar  
 12   7   9  1   
 13   8  28  1   
 14   9  10  1   
 15   9  29  1   
 16   9  30  1   
 17  10  11  2   
 18  10  12  am  
 19  12  13  1   
 20  12  14  1   
 21  13  15  1   
 22  13  16  1   
 23  13  31  1   
 24  14  32  1   
 25  14  33  1   
 26  14  34  1   
 27  15  17  1   
 28  15  35  1   
 29  15  36  1   
 30  16  18  1   
 31  16  37  1   
 32  16  38  1   
 33  17  18  1   
 34  17  19  1   
 35  17  39  1   
 36  18  20  1   
 37  18  40  1   
 38  19  21  1   
 39  19  41  1   
 40  19  42  1   
 41  20  22  1   
 42  20  43  1   
 43  20  44  1   
 44  21  22  am  
 45  21  23  1   
 46  22  24  2   
 47  23  45  1   
 48  23  46  1   
 49  23  47  1   
@<TRIPOS>SUBSTRUCTURE
  1 ****  15 GROUP 4 **** **** 0

# MOE 2024.06 (io_trps.svl 2023.06)
