@<TRIPOS>MOLECULE
NONAME
51 54 1 0 0 
SMALL
USER_CHARGES


@<TRIPOS>ATOM
  1 O       -2.0420    -0.0860    -1.1620 O.co2 1 <1>  -0.9000 
  2 C       -2.7500    -0.0580    -0.1520 C.2   1 <1>   0.9060 
  3 O       -2.3860     0.4190     0.9260 O.co2 1 <1>  -0.9000 
  4 C       -4.0570    -0.8510    -0.1700 C.3   1 <1>   0.2370 
  5 N       -3.8990    -2.3480     0.0670 N.4   1 <1>  -0.9590 
  6 C       -3.2840    -2.6200     1.4190 C.3   1 <1>   0.4230 
  7 C       -3.2040    -2.9830    -1.0970 C.3   1 <1>   0.3430 
  8 C       -1.7320    -2.6320     1.4790 C.3   1 <1>   0.1200 
  9 C       -3.8700    -3.9540     1.9490 C.3   1 <1>   0.1400 
 10 C       -2.5270    -4.3440    -0.8260 C.3   1 <1>  -0.0800 
 11 O       -1.2010    -3.8800     1.1290 O.3   1 <1>  -0.5600 
 12 N       -4.3860    -4.8600     0.8510 N.am  1 <1>  -0.6600 
 13 C       -1.1270    -4.1290    -0.2310 C.3   1 <1>   0.1200 
 14 C       -3.3400    -5.4220    -0.0600 C.3   1 <1>   0.1400 
 15 C       -5.7130    -4.8300     0.5250 C.2   1 <1>   0.5690 
 16 O       -6.3590    -3.8330     0.7330 O.2   1 <1>  -0.5700 
 17 C       -6.4050    -6.0120    -0.1200 C.3   1 <1>  -0.0990 
 18 C       -6.4700    -7.1860     0.8620 C.3   1 <1>   0.0960 
 19 N       -7.0750    -8.3610     0.2090 N.pl3 1 <1>   0.0480 
 20 C       -8.3880    -8.5500    -0.0870 C.ar  1 <1>  -0.1520 
 21 C       -6.4340    -9.4510    -0.2880 C.2   1 <1>   0.0360 
 22 C       -8.4450    -9.7580    -0.7590 C.ar  1 <1>   0.2270 
 23 C       -9.5460    -7.8030     0.1520 C.ar  1 <1>  -0.1500 
 24 N       -7.2020   -10.3020    -0.8710 N.2   1 <1>  -0.5650 
 25 C       -9.6680   -10.2470    -1.2130 C.ar  1 <1>  -0.1500 
 26 C      -10.7510    -8.2950    -0.3010 C.ar  1 <1>  -0.1500 
 27 C      -10.8130    -9.5160    -0.9840 C.ar  1 <1>  -0.1500 
 28 H       -4.5210    -0.6800    -1.1230 H     1 <1>   0.0800 
 29 H       -4.6870    -0.4300     0.5920 H     1 <1>   0.0800 
 30 H       -4.8420    -2.7740     0.1410 H     1 <1>   0.4500 
 31 H       -3.5990    -1.8350     2.0860 H     1 <1>   0.0800 
 32 H       -3.9220    -3.1050    -1.8910 H     1 <1>   0.0800 
 33 H       -2.4470    -2.3070    -1.4630 H     1 <1>   0.0800 
 34 H       -1.4340    -2.4510     2.4960 H     1 <1>   0.0800 
 35 H       -1.2820    -1.8650     0.8750 H     1 <1>   0.0800 
 36 H       -4.6820    -3.7140     2.6130 H     1 <1>   0.0800 
 37 H       -3.1410    -4.4790     2.5410 H     1 <1>   0.0800 
 38 H       -2.3320    -4.7550    -1.8000 H     1 <1>   0.0800 
 39 H       -0.6050    -3.3150    -0.7100 H     1 <1>   0.0800 
 40 H       -0.5370    -5.0220    -0.3520 H     1 <1>   0.0800 
 41 H       -2.6690    -6.0350     0.5210 H     1 <1>   0.0800 
 42 H       -3.7990    -6.0700    -0.7830 H     1 <1>   0.0800 
 43 H       -7.4050    -5.7180    -0.3860 H     1 <1>   0.0800 
 44 H       -5.8990    -6.2980    -1.0210 H     1 <1>   0.0800 
 45 H       -7.0650    -6.9220     1.7190 H     1 <1>   0.0800 
 46 H       -5.4830    -7.4480     1.1980 H     1 <1>   0.0800 
 47 H       -5.3690    -9.5730    -0.1930 H     1 <1>   0.1500 
 48 H       -9.4950    -6.8680     0.6790 H     1 <1>   0.1500 
 49 H       -9.6840   -11.1860    -1.7330 H     1 <1>   0.1500 
 50 H      -11.6600    -7.7430    -0.1320 H     1 <1>   0.1500 
 51 H      -11.7660    -9.8790    -1.3280 H     1 <1>   0.1500 
@<TRIPOS>BOND
  1   1   2  ar  
  2   2   3  ar  
  3   2   4  1   
  4   4   5  1   
  5   4  28  1   
  6   4  29  1   
  7   5   6  1   
  8   5   7  1   
  9   5  30  1   
 10   6   8  1   
 11   6   9  1   
 12   6  31  1   
 13   7  10  1   
 14   7  32  1   
 15   7  33  1   
 16   8  11  1   
 17   8  34  1   
 18   8  35  1   
 19   9  12  1   
 20   9  36  1   
 21   9  37  1   
 22  10  13  1   
 23  10  14  1   
 24  10  38  1   
 25  11  13  1   
 26  12  14  1   
 27  12  15  am  
 28  13  39  1   
 29  13  40  1   
 30  14  41  1   
 31  14  42  1   
 32  15  16  2   
 33  15  17  1   
 34  17  18  1   
 35  17  43  1   
 36  17  44  1   
 37  18  19  1   
 38  18  45  1   
 39  18  46  1   
 40  19  20  1   
 41  19  21  1   
 42  20  22  ar  
 43  20  23  ar  
 44  21  24  2   
 45  21  47  1   
 46  22  24  1   
 47  22  25  ar  
 48  23  26  ar  
 49  23  48  1   
 50  25  27  ar  
 51  25  49  1   
 52  26  27  ar  
 53  26  50  1   
 54  27  51  1   
@<TRIPOS>SUBSTRUCTURE
  1 ****  15 GROUP 4 **** **** 0

# MOE 2024.06 (io_trps.svl 2023.06)
