@<TRIPOS>MOLECULE
NONAME
40 42 1 0 0 
SMALL
USER_CHARGES


@<TRIPOS>ATOM
  1 CL      -1.2500    -0.9320    -1.7090 Cl    1 <1>  -0.1770 
  2 C       -2.6610    -0.1250    -1.0770 C.ar  1 <1>   0.1770 
  3 C       -3.9060    -0.4340    -1.5900 C.ar  1 <1>  -0.1500 
  4 C       -2.5160     0.8140    -0.0730 C.ar  1 <1>  -0.1500 
  5 C       -5.0240     0.2050    -1.0830 C.ar  1 <1>  -0.1500 
  6 C       -3.6410     1.4460     0.4270 C.ar  1 <1>  -0.1500 
  7 C       -4.9130     1.1470    -0.0590 C.ar  1 <1>   0.0540 
  8 C       -6.0820     1.8010     0.4840 C.2   1 <1>   0.2350 
  9 N       -6.2770     3.0940     0.4240 N.2   1 <1>  -0.7070 
 10 C       -7.1450     1.1660     1.1380 C.2   1 <1>  -0.1810 
 11 N       -7.4660     3.3000     1.0140 N.pl3 1 <1>   0.3000 
 12 C       -8.0080     2.1520     1.4560 C.2   1 <1>  -0.3020 
 13 C       -7.2680    -0.3210     1.4360 C.3   1 <1>   0.2910 
 14 N       -8.6180    -0.8150     1.1340 N.3   1 <1>  -0.8100 
 15 C       -8.9450    -0.6650    -0.3180 C.3   1 <1>   0.1710 
 16 C       -8.7640    -2.2280     1.5280 C.3   1 <1>   0.1100 
 17 C      -10.1830    -1.4260    -0.8190 C.2   1 <1>   0.5690 
 18 C      -10.1950    -2.7440     1.3000 C.3   1 <1>   0.1400 
 19 O      -10.6630    -1.0800    -1.8760 O.2   1 <1>  -0.5700 
 20 N      -10.6820    -2.4690    -0.0840 N.am  1 <1>  -0.6600 
 21 C      -11.7950    -3.3710    -0.5900 C.3   1 <1>   0.0340 
 22 C      -11.6400    -4.8760    -0.3340 C.2   1 <1>   0.9060 
 23 O      -11.9980    -5.3330     0.7610 O.co2 1 <1>  -0.9000 
 24 O      -11.1640    -5.6020    -1.2160 O.co2 1 <1>  -0.9000 
 25 H       -3.9940    -1.1620    -2.3770 H     1 <1>   0.1500 
 26 H       -1.5370     1.0460     0.3060 H     1 <1>   0.1500 
 27 H       -5.9960    -0.0170    -1.4850 H     1 <1>   0.1500 
 28 H       -3.5480     2.1870     1.2020 H     1 <1>   0.1500 
 29 H       -7.8820     4.2350     1.1020 H     1 <1>   0.2700 
 30 H       -8.9550     2.0900     1.9610 H     1 <1>   0.1500 
 31 H       -7.0620    -0.4710     2.4820 H     1 <1>   0.0800 
 32 H       -6.5420    -0.8810     0.8720 H     1 <1>   0.0800 
 33 H       -8.1160    -1.0100    -0.9070 H     1 <1>   0.0800 
 34 H       -9.0940     0.3770    -0.5380 H     1 <1>   0.0800 
 35 H       -8.5260    -2.3400     2.5710 H     1 <1>   0.0800 
 36 H       -8.0830    -2.8420     0.9620 H     1 <1>   0.0800 
 37 H      -10.8630    -2.2790     2.0020 H     1 <1>   0.0800 
 38 H      -10.2000    -3.8020     1.4930 H     1 <1>   0.0800 
 39 H      -11.9000    -3.2440    -1.6500 H     1 <1>   0.0800 
 40 H      -12.7140    -3.0670    -0.1300 H     1 <1>   0.0800 
@<TRIPOS>BOND
  1   1   2  1   
  2   2   3  ar  
  3   2   4  ar  
  4   3   5  ar  
  5   3  25  1   
  6   4   6  ar  
  7   4  26  1   
  8   5   7  ar  
  9   5  27  1   
 10   6   7  ar  
 11   6  28  1   
 12   7   8  1   
 13   8   9  2   
 14   8  10  1   
 15   9  11  1   
 16  10  12  2   
 17  10  13  1   
 18  11  12  1   
 19  11  29  1   
 20  12  30  1   
 21  13  14  1   
 22  13  31  1   
 23  13  32  1   
 24  14  15  1   
 25  14  16  1   
 26  15  17  1   
 27  15  33  1   
 28  15  34  1   
 29  16  18  1   
 30  16  35  1   
 31  16  36  1   
 32  17  19  2   
 33  17  20  am  
 34  18  20  1   
 35  18  37  1   
 36  18  38  1   
 37  20  21  1   
 38  21  22  1   
 39  21  39  1   
 40  21  40  1   
 41  22  23  ar  
 42  22  24  ar  
@<TRIPOS>SUBSTRUCTURE
  1 ****  15 GROUP 4 **** **** 0

# MOE 2024.06 (io_trps.svl 2023.06)
