@<TRIPOS>MOLECULE
NONAME
48 49 1 0 0 
SMALL
USER_CHARGES


@<TRIPOS>ATOM
  1 F       -2.6090     0.1900     1.6210 F     1 <1>  -0.1900 
  2 C       -2.8310     0.4580     0.3600 C.ar  1 <1>   0.1900 
  3 C       -2.9700     1.7890    -0.0090 C.ar  1 <1>   0.0820 
  4 C       -2.9310    -0.5990    -0.5450 C.ar  1 <1>   0.0860 
  5 O       -2.9790     2.7600     0.9420 O.3   1 <1>  -0.3630 
  6 C       -3.1570     2.0600    -1.3590 C.ar  1 <1>   0.1900 
  7 C       -2.9070    -1.9920    -0.1540 C.2   1 <1>   0.5440 
  8 C       -3.0920    -0.2660    -1.8930 C.ar  1 <1>  -0.1500 
  9 C       -1.9050     3.6780     0.9370 C.3   1 <1>   0.0400 
 10 F       -3.3220     3.2890    -1.7680 F     1 <1>  -0.1900 
 11 C       -3.2040     1.0520    -2.3050 C.ar  1 <1>  -0.1500 
 12 O       -2.0210    -2.6970    -0.5920 O.2   1 <1>  -0.5700 
 13 N       -3.9050    -2.5650     0.6110 N.am  1 <1>  -0.6600 
 14 C       -4.0270    -4.0560     0.7000 C.3   1 <1>   0.3210 
 15 C       -5.0010    -1.8250     1.3030 C.3   1 <1>   0.1400 
 16 C       -5.1970    -4.5520    -0.1500 C.2   1 <1>   0.0460 
 17 C       -6.0210    -1.2600     0.2980 C.3   1 <1>   0.3430 
 18 N       -6.4820    -4.3940     0.2480 N.2   1 <1>  -0.5650 
 19 C       -5.1400    -5.1960    -1.3400 C.2   1 <1>  -0.3320 
 20 N       -6.9360    -0.2430     0.9190 N.4   1 <1>  -0.9590 
 21 C       -7.1670    -4.9690    -0.6870 C.2   1 <1>   0.0360 
 22 N       -6.4100    -5.4750    -1.6830 N.pl3 1 <1>   0.0330 
 23 C       -3.9510    -5.5900    -2.2010 C.3   1 <1>  -0.0600 
 24 C       -8.0840     0.0280     0.0020 C.3   1 <1>   0.2630 
 25 C       -6.2280     1.0340     1.2660 C.3   1 <1>   0.2630 
 26 H       -3.1280    -1.0600    -2.6230 H     1 <1>   0.1500 
 27 H       -1.9830     4.2940     1.8150 H     1 <1>   0.0800 
 28 H       -1.9620     4.2950     0.0570 H     1 <1>   0.0800 
 29 H       -0.9760     3.1340     0.9550 H     1 <1>   0.0800 
 30 H       -3.3290     1.3000    -3.3460 H     1 <1>   0.1500 
 31 H       -4.1860    -4.3460     1.7230 H     1 <1>   0.0800 
 32 H       -3.1210    -4.5350     0.3760 H     1 <1>   0.0800 
 33 H       -4.5760    -1.0430     1.8990 H     1 <1>   0.0800 
 34 H       -5.5130    -2.4930     1.9750 H     1 <1>   0.0800 
 35 H       -6.6020    -2.0790    -0.0910 H     1 <1>   0.0800 
 36 H       -5.4950    -0.8080    -0.5240 H     1 <1>   0.0800 
 37 H       -7.3190    -0.6600     1.7830 H     1 <1>   0.4500 
 38 H       -8.2400    -5.0550    -0.6920 H     1 <1>   0.1500 
 39 H       -6.7350    -5.9790    -2.5140 H     1 <1>   0.2700 
 40 H       -3.0340    -5.2030    -1.7910 H     1 <1>   0.0800 
 41 H       -4.0640    -5.1950    -3.1950 H     1 <1>   0.0800 
 42 H       -3.8720    -6.6620    -2.2590 H     1 <1>   0.0800 
 43 H       -7.7330     0.4550    -0.9230 H     1 <1>   0.0800 
 44 H       -8.7750     0.7170     0.4610 H     1 <1>   0.0800 
 45 H       -8.6100    -0.8880    -0.2180 H     1 <1>   0.0800 
 46 H       -5.8120     1.4870     0.3810 H     1 <1>   0.0800 
 47 H       -5.4270     0.8500     1.9650 H     1 <1>   0.0800 
 48 H       -6.9150     1.7320     1.7170 H     1 <1>   0.0800 
@<TRIPOS>BOND
  1   1   2  1   
  2   2   3  ar  
  3   2   4  ar  
  4   3   5  1   
  5   3   6  ar  
  6   4   7  1   
  7   4   8  ar  
  8   5   9  1   
  9   6  10  1   
 10   6  11  ar  
 11   7  12  2   
 12   7  13  am  
 13   8  11  ar  
 14   8  26  1   
 15   9  27  1   
 16   9  28  1   
 17   9  29  1   
 18  11  30  1   
 19  13  14  1   
 20  13  15  1   
 21  14  16  1   
 22  14  31  1   
 23  14  32  1   
 24  15  17  1   
 25  15  33  1   
 26  15  34  1   
 27  16  18  1   
 28  16  19  2   
 29  17  20  1   
 30  17  35  1   
 31  17  36  1   
 32  18  21  2   
 33  19  22  1   
 34  19  23  1   
 35  20  24  1   
 36  20  25  1   
 37  20  37  1   
 38  21  22  1   
 39  21  38  1   
 40  22  39  1   
 41  23  40  1   
 42  23  41  1   
 43  23  42  1   
 44  24  43  1   
 45  24  44  1   
 46  24  45  1   
 47  25  46  1   
 48  25  47  1   
 49  25  48  1   
@<TRIPOS>SUBSTRUCTURE
  1 ****   4 GROUP 4 **** **** 0

# MOE 2024.06 (io_trps.svl 2023.06)
