@<TRIPOS>MOLECULE
NONAME
46 48 1 0 0 
SMALL
USER_CHARGES


@<TRIPOS>ATOM
  1 O       -2.6110    -2.0180    -1.6780 O.3   1 <1>  -0.8290 
  2 C       -2.0530    -2.9690    -1.0870 C.ar  1 <1>   0.1390 
  3 N       -2.4170    -4.2380    -1.3900 N.ar  1 <1>  -0.3100 
  4 C       -1.0770    -2.6930    -0.1330 C.ar  1 <1>  -0.1500 
  5 N       -1.8500    -5.2430    -0.7710 N.ar  1 <1>  -0.3100 
  6 C       -0.4960    -3.7480     0.5090 C.ar  1 <1>  -0.1500 
  7 C       -0.9260    -5.0150     0.1550 C.ar  1 <1>   0.1670 
  8 C       -0.3600    -6.2430     0.8470 C.3   1 <1>  -0.0160 
  9 C       -1.3130    -6.7320     1.9520 C.3   1 <1>  -0.0990 
 10 C       -1.5430    -8.2300     1.8960 C.2   1 <1>   0.5690 
 11 O       -0.9290    -8.9280     2.6680 O.2   1 <1>  -0.5700 
 12 N       -2.4230    -8.7570     0.9930 N.am  1 <1>  -0.6600 
 13 C       -3.1300    -8.0200    -0.0890 C.3   1 <1>   0.1400 
 14 C       -2.8170   -10.1800     0.9740 C.3   1 <1>   0.1400 
 15 C       -4.1350    -9.0130    -0.6830 C.3   1 <1>   0.2000 
 16 C       -3.5100   -10.3790    -0.3780 C.3   1 <1>  -0.0800 
 17 O       -5.3690    -8.9180    -0.0250 O.3   1 <1>  -0.5600 
 18 C       -4.5050   -11.5540    -0.3940 C.3   1 <1>   0.0200 
 19 C       -6.1810    -7.8670    -0.4510 C.3   1 <1>   0.0400 
 20 C       -3.8300   -12.9110    -0.2690 C.2   1 <1>  -0.0400 
 21 O       -4.5790   -13.9790    -0.1910 O.3   1 <1>  -0.0190 
 22 C       -2.5480   -13.3080    -0.2200 C.2   1 <1>  -0.1500 
 23 N       -3.8700   -15.0660    -0.0910 N.2   1 <1>  -0.4100 
 24 C       -2.6420   -14.6920    -0.1040 C.2   1 <1>   0.1080 
 25 C       -1.4630   -15.6340    -0.0050 C.3   1 <1>  -0.0590 
 26 H       -0.8300    -1.6670     0.0550 H     1 <1>   0.1500 
 27 H        0.2560    -3.5960     1.2590 H     1 <1>   0.1500 
 28 H       -0.2140    -7.0110     0.1080 H     1 <1>   0.0800 
 29 H        0.6020    -6.0210     1.2710 H     1 <1>   0.0800 
 30 H       -2.2640    -6.2360     1.8790 H     1 <1>   0.0800 
 31 H       -0.9040    -6.4780     2.9120 H     1 <1>   0.0800 
 32 H       -3.6080    -7.1300     0.2800 H     1 <1>   0.0800 
 33 H       -2.4160    -7.7550    -0.8470 H     1 <1>   0.0800 
 34 H       -1.9570   -10.8160     1.0910 H     1 <1>   0.0800 
 35 H       -3.5070   -10.3550     1.7820 H     1 <1>   0.0800 
 36 H       -4.2860    -8.8620    -1.7390 H     1 <1>   0.0800 
 37 H       -2.7480   -10.5580    -1.1160 H     1 <1>   0.0800 
 38 H       -5.0610   -11.5360    -1.3140 H     1 <1>   0.0800 
 39 H       -5.2090   -11.4450     0.4130 H     1 <1>   0.0800 
 40 H       -7.0940    -7.8990     0.1170 H     1 <1>   0.0800 
 41 H       -6.4020    -7.9890    -1.4970 H     1 <1>   0.0800 
 42 H       -5.6860    -6.9270    -0.2800 H     1 <1>   0.0800 
 43 H       -1.6390   -12.7380    -0.2590 H     1 <1>   0.1500 
 44 H       -0.8630   -15.3790     0.8480 H     1 <1>   0.0800 
 45 H       -0.8650   -15.5650    -0.8950 H     1 <1>   0.0800 
 46 H       -1.8110   -16.6460     0.1030 H     1 <1>   0.0800 
@<TRIPOS>BOND
  1   1   2  1   
  2   2   3  ar  
  3   2   4  ar  
  4   3   5  ar  
  5   4   6  ar  
  6   4  26  1   
  7   5   7  ar  
  8   6   7  ar  
  9   6  27  1   
 10   7   8  1   
 11   8   9  1   
 12   8  28  1   
 13   8  29  1   
 14   9  10  1   
 15   9  30  1   
 16   9  31  1   
 17  10  11  2   
 18  10  12  am  
 19  12  13  1   
 20  12  14  1   
 21  13  15  1   
 22  13  32  1   
 23  13  33  1   
 24  14  16  1   
 25  14  34  1   
 26  14  35  1   
 27  15  16  1   
 28  15  17  1   
 29  15  36  1   
 30  16  18  1   
 31  16  37  1   
 32  17  19  1   
 33  18  20  1   
 34  18  38  1   
 35  18  39  1   
 36  19  40  1   
 37  19  41  1   
 38  19  42  1   
 39  20  21  1   
 40  20  22  2   
 41  21  23  1   
 42  22  24  1   
 43  22  43  1   
 44  23  24  2   
 45  24  25  1   
 46  25  44  1   
 47  25  45  1   
 48  25  46  1   
@<TRIPOS>SUBSTRUCTURE
  1 ****  13 GROUP 4 **** **** 0

# MOE 2024.06 (io_trps.svl 2023.06)
