@<TRIPOS>MOLECULE
NONAME
52 54 1 0 0 
SMALL
USER_CHARGES


@<TRIPOS>ATOM
  1 O       -0.0940    -1.6150    -1.7570 O.2   1 <1>  -0.5700 
  2 C        0.2420    -1.7850    -0.6080 C.2   1 <1>   0.5690 
  3 N        1.5480    -1.8470    -0.2490 N.am  1 <1>  -0.7300 
  4 C       -0.8740    -1.9210     0.4440 C.3   1 <1>   0.4040 
  5 C        2.6740    -1.8410    -1.2030 C.3   1 <1>   0.2840 
  6 N       -2.1920    -1.3490    -0.0240 N.4   1 <1>  -0.9590 
  7 C        3.8330    -2.5430    -0.5160 C.ar  1 <1>  -0.1430 
  8 C       -3.3670    -1.8710     0.7410 C.3   1 <1>   0.3430 
  9 C       -2.1580     0.1400    -0.0840 C.3   1 <1>   0.3430 
 10 C        4.7640    -1.8580     0.2600 C.ar  1 <1>  -0.1430 
 11 C        3.9440    -3.9190    -0.6640 C.ar  1 <1>  -0.1500 
 12 C       -4.7020    -1.4060     0.1220 C.3   1 <1>   0.0000 
 13 C       -3.4460     0.6550    -0.7240 C.3   1 <1>  -0.1600 
 14 C        5.7890    -2.5630     0.8740 C.ar  1 <1>  -0.1500 
 15 C        4.7010    -0.3490     0.4550 C.3   1 <1>  -0.0970 
 16 C        4.9680    -4.6130    -0.0470 C.ar  1 <1>  -0.1500 
 17 C       -5.8440    -1.9570     1.0000 C.3   1 <1>   0.2000 
 18 C       -4.6980     0.1380     0.0030 C.3   1 <1>  -0.1600 
 19 C       -4.9440    -2.1040    -1.2320 C.3   1 <1>  -0.1600 
 20 C        5.8920    -3.9340     0.7230 C.ar  1 <1>  -0.1500 
 21 O       -7.0220    -1.2920     0.7260 O.3   1 <1>  -0.6800 
 22 C       -6.0230    -3.4080     0.5580 C.3   1 <1>  -0.1600 
 23 C       -5.5570    -3.4730    -0.9040 C.3   1 <1>  -0.1600 
 24 H        1.8660    -2.0550     0.7030 H     1 <1>   0.3700 
 25 H       -0.5640    -1.4330     1.3510 H     1 <1>   0.0800 
 26 H       -0.9940    -2.9710     0.6500 H     1 <1>   0.0800 
 27 H        2.3990    -2.3620    -2.1050 H     1 <1>   0.0800 
 28 H        2.9300    -0.8290    -1.4660 H     1 <1>   0.0800 
 29 H       -2.2780    -1.6560    -1.0080 H     1 <1>   0.4500 
 30 H       -3.3440    -2.9480     0.7530 H     1 <1>   0.0800 
 31 H       -3.3150    -1.5220     1.7590 H     1 <1>   0.0800 
 32 H       -2.0630     0.5460     0.9110 H     1 <1>   0.0800 
 33 H       -1.3130     0.4680    -0.6700 H     1 <1>   0.0800 
 34 H        3.2320    -4.4600    -1.2620 H     1 <1>   0.1500 
 35 H       -3.4420     1.7310    -0.6990 H     1 <1>   0.0800 
 36 H       -3.4710     0.3630    -1.7600 H     1 <1>   0.0800 
 37 H        6.5190    -2.0500     1.4740 H     1 <1>   0.1500 
 38 H        5.4200    -0.0250     1.1870 H     1 <1>   0.0800 
 39 H        3.7260    -0.0520     0.7940 H     1 <1>   0.0800 
 40 H        4.9200     0.1500    -0.4720 H     1 <1>   0.0800 
 41 H        5.0480    -5.6800    -0.1680 H     1 <1>   0.1500 
 42 H       -5.6550    -1.8610     2.0570 H     1 <1>   0.0800 
 43 H       -5.5750     0.4790    -0.5210 H     1 <1>   0.0800 
 44 H       -4.7350     0.5670     0.9900 H     1 <1>   0.0800 
 45 H       -5.6650    -1.5400    -1.8010 H     1 <1>   0.0800 
 46 H       -4.0580    -2.2030    -1.8330 H     1 <1>   0.0800 
 47 H        6.6920    -4.4700     1.2040 H     1 <1>   0.1500 
 48 H       -7.3240    -1.5080    -0.1770 H     1 <1>   0.4000 
 49 H       -5.3930    -4.0410     1.1570 H     1 <1>   0.0800 
 50 H       -7.0390    -3.7440     0.6800 H     1 <1>   0.0800 
 51 H       -4.8300    -4.2580    -1.0260 H     1 <1>   0.0800 
 52 H       -6.3880    -3.6760    -1.5600 H     1 <1>   0.0800 
@<TRIPOS>BOND
  1   1   2  2   
  2   2   3  am  
  3   2   4  1   
  4   3   5  1   
  5   3  24  1   
  6   4   6  1   
  7   4  25  1   
  8   4  26  1   
  9   5   7  1   
 10   5  27  1   
 11   5  28  1   
 12   6   8  1   
 13   6   9  1   
 14   6  29  1   
 15   7  10  ar  
 16   7  11  ar  
 17   8  12  1   
 18   8  30  1   
 19   8  31  1   
 20   9  13  1   
 21   9  32  1   
 22   9  33  1   
 23  10  14  ar  
 24  10  15  1   
 25  11  16  ar  
 26  11  34  1   
 27  12  17  1   
 28  12  18  1   
 29  12  19  1   
 30  13  18  1   
 31  13  35  1   
 32  13  36  1   
 33  14  20  ar  
 34  14  37  1   
 35  15  38  1   
 36  15  39  1   
 37  15  40  1   
 38  16  20  ar  
 39  16  41  1   
 40  17  21  1   
 41  17  22  1   
 42  17  42  1   
 43  18  43  1   
 44  18  44  1   
 45  19  23  1   
 46  19  45  1   
 47  19  46  1   
 48  20  47  1   
 49  21  48  1   
 50  22  23  1   
 51  22  49  1   
 52  22  50  1   
 53  23  51  1   
 54  23  52  1   
@<TRIPOS>SUBSTRUCTURE
  1 ****   4 GROUP 4 **** **** 0

# MOE 2024.06 (io_trps.svl 2023.06)
