@<TRIPOS>MOLECULE
NONAME
51 53 1 0 0 
SMALL
USER_CHARGES


@<TRIPOS>ATOM
  1 O        2.2080     0.5820    -2.0960 O.2   1 <1>  -0.5700 
  2 C        2.7410    -0.2520    -1.4110 C.2   1 <1>   0.5690 
  3 N        2.7630    -0.1540    -0.0660 N.am  1 <1>  -0.7300 
  4 C        3.4360    -1.4430    -2.0350 C.3   1 <1>  -0.0990 
  5 C        3.4170    -1.1570     0.7950 C.3   1 <1>   0.1400 
  6 C        3.1580    -2.7450    -1.2500 C.3   1 <1>  -0.0800 
  7 C        3.0700    -2.5690     0.2840 C.3   1 <1>  -0.0800 
  8 C        4.1990    -3.8370    -1.5280 C.3   1 <1>  -0.1600 
  9 C        3.9470    -3.6560     0.9230 C.3   1 <1>  -0.1600 
 10 C        4.4390    -4.5630    -0.2050 C.3   1 <1>   0.2200 
 11 N        5.8550    -5.0210    -0.0300 N.am  1 <1>  -0.6600 
 12 C        7.0040    -4.2560    -0.1970 C.2   1 <1>   0.5440 
 13 C        5.9780    -6.5030     0.0970 C.3   1 <1>   0.0600 
 14 O        8.0260    -4.8130    -0.5510 O.2   1 <1>  -0.5700 
 15 C        7.0560    -2.8260     0.0320 C.ar  1 <1>   0.0860 
 16 C        7.0710    -1.9250    -1.0310 C.ar  1 <1>  -0.1500 
 17 C        7.1160    -2.3040     1.3210 C.ar  1 <1>  -0.1500 
 18 C        7.0420    -0.5500    -0.8310 C.ar  1 <1>   0.0830 
 19 C        7.0920    -0.9400     1.5420 C.ar  1 <1>  -0.1500 
 20 O        7.0480     0.3180    -1.8840 O.3   1 <1>  -0.3630 
 21 C        7.0150    -0.0530     0.4820 C.ar  1 <1>   0.0830 
 22 C        7.3650    -0.0970    -3.1950 C.3   1 <1>   0.0400 
 23 O        6.9030     1.2550     0.8260 O.3   1 <1>  -0.3630 
 24 C        6.1220     2.1420     0.0560 C.3   1 <1>   0.1200 
 25 C        5.6930     3.2980     0.9550 C.3   1 <1>  -0.2400 
 26 H        2.3320     0.6680     0.3620 H     1 <1>   0.3700 
 27 H        3.1160    -1.5500    -3.0550 H     1 <1>   0.0800 
 28 H        4.4850    -1.2190    -2.0370 H     1 <1>   0.0800 
 29 H        4.4790    -0.9990     0.7560 H     1 <1>   0.0800 
 30 H        3.0880    -1.0380     1.8140 H     1 <1>   0.0800 
 31 H        2.1990    -3.1150    -1.5730 H     1 <1>   0.0800 
 32 H        2.0490    -2.7600     0.5720 H     1 <1>   0.0800 
 33 H        5.1040    -3.4120    -1.9040 H     1 <1>   0.0800 
 34 H        3.8310    -4.5260    -2.2670 H     1 <1>   0.0800 
 35 H        3.3680    -4.2340     1.6210 H     1 <1>   0.0800 
 36 H        4.7630    -3.2230     1.4600 H     1 <1>   0.0800 
 37 H        3.7940    -5.4260    -0.2110 H     1 <1>   0.0800 
 38 H        5.2950    -6.8670     0.8430 H     1 <1>   0.0800 
 39 H        6.9770    -6.7780     0.3920 H     1 <1>   0.0800 
 40 H        5.7580    -6.9660    -0.8490 H     1 <1>   0.0800 
 41 H        7.1040    -2.3410    -2.0180 H     1 <1>   0.1500 
 42 H        7.1710    -2.9830     2.1550 H     1 <1>   0.1500 
 43 H        7.1230    -0.5510     2.5440 H     1 <1>   0.1500 
 44 H        7.4250     0.7790    -3.8160 H     1 <1>   0.0800 
 45 H        6.5870    -0.7450    -3.5560 H     1 <1>   0.0800 
 46 H        8.3150    -0.6010    -3.1820 H     1 <1>   0.0800 
 47 H        6.7230     2.4990    -0.7620 H     1 <1>   0.0800 
 48 H        5.2640     1.6130    -0.3210 H     1 <1>   0.0800 
 49 H        6.5590     3.8130     1.3310 H     1 <1>   0.0800 
 50 H        5.1070     2.9280     1.7770 H     1 <1>   0.0800 
 51 H        5.0970     3.9920     0.3920 H     1 <1>   0.0800 
@<TRIPOS>BOND
  1   1   2  2   
  2   2   3  am  
  3   2   4  1   
  4   3   5  1   
  5   3  26  1   
  6   4   6  1   
  7   4  27  1   
  8   4  28  1   
  9   5   7  1   
 10   5  29  1   
 11   5  30  1   
 12   6   7  1   
 13   6   8  1   
 14   6  31  1   
 15   7   9  1   
 16   7  32  1   
 17   8  10  1   
 18   8  33  1   
 19   8  34  1   
 20   9  10  1   
 21   9  35  1   
 22   9  36  1   
 23  10  11  1   
 24  10  37  1   
 25  11  12  am  
 26  11  13  1   
 27  12  14  2   
 28  12  15  1   
 29  13  38  1   
 30  13  39  1   
 31  13  40  1   
 32  15  16  ar  
 33  15  17  ar  
 34  16  18  ar  
 35  16  41  1   
 36  17  19  ar  
 37  17  42  1   
 38  18  20  1   
 39  18  21  ar  
 40  19  21  ar  
 41  19  43  1   
 42  20  22  1   
 43  21  23  1   
 44  22  44  1   
 45  22  45  1   
 46  22  46  1   
 47  23  24  1   
 48  24  25  1   
 49  24  47  1   
 50  24  48  1   
 51  25  49  1   
 52  25  50  1   
 53  25  51  1   
@<TRIPOS>SUBSTRUCTURE
  1 ****  16 GROUP 4 **** **** 0

# MOE 2024.06 (io_trps.svl 2023.06)
