@<TRIPOS>MOLECULE
NONAME
44 46 1 0 0 
SMALL
USER_CHARGES


@<TRIPOS>ATOM
  1 S       -0.9940    -0.6300     1.4410 S.3   1 <1>  -0.0800 
  2 C       -1.7460    -1.2290    -0.0310 C.2   1 <1>  -0.1400 
  3 C       -1.0300     1.0200     0.8470 C.2   1 <1>  -0.1100 
  4 C       -1.9860    -0.2080    -0.8790 C.2   1 <1>  -0.1500 
  5 C       -1.9950    -2.7270    -0.1100 C.3   1 <1>   0.3800 
  6 C       -1.5790     1.0700    -0.3800 C.2   1 <1>  -0.1500 
  7 O       -2.3020    -3.0380    -1.4230 O.3   1 <1>  -0.6800 
  8 C       -3.1450    -3.1880     0.8150 C.3   1 <1>  -0.0800 
  9 C       -3.3110    -4.7240     0.7990 C.3   1 <1>  -0.1600 
 10 C       -4.4870    -2.4900     0.4930 C.3   1 <1>  -0.1600 
 11 C       -4.4870    -5.1910     1.6620 C.3   1 <1>   0.2090 
 12 C       -5.6190    -3.0170     1.3730 C.3   1 <1>   0.2090 
 13 N       -5.7240    -4.4940     1.1860 N.pl3 1 <1>  -0.8380 
 14 C       -6.7390    -5.1830     0.5990 C.ar  1 <1>   0.7710 
 15 N       -6.8010    -6.4990     0.7260 N.ar  1 <1>  -0.6200 
 16 N       -7.6530    -4.5000    -0.1150 N.ar  1 <1>  -0.1790 
 17 C       -7.7870    -7.1350     0.1350 C.ar  1 <1>   0.4100 
 18 C       -8.6890    -5.1210    -0.7300 C.ar  1 <1>   0.2110 
 19 N       -7.8020    -8.4640     0.2780 N.pl3 1 <1>  -0.8690 
 20 C       -8.7730    -6.4650    -0.6080 C.ar  1 <1>  -0.1500 
 21 C       -8.6100    -9.5200    -0.4440 C.3   1 <1>   0.1030 
 22 C       -7.9460   -10.9040    -0.5100 C.2   1 <1>   0.9060 
 23 O       -6.9400   -11.1200     0.1800 O.co2 1 <1>  -0.9000 
 24 O       -8.4430   -11.7550    -1.2570 O.co2 1 <1>  -0.9000 
 25 H       -0.6300     1.7870     1.4870 H     1 <1>   0.1500 
 26 H       -2.4420    -0.2950    -1.8500 H     1 <1>   0.1500 
 27 H       -1.0880    -3.2510     0.1420 H     1 <1>   0.0800 
 28 H       -1.7170     1.9620    -0.9660 H     1 <1>   0.1500 
 29 H       -1.6090    -2.6630    -1.9990 H     1 <1>   0.4000 
 30 H       -2.8700    -2.9120     1.8180 H     1 <1>   0.0800 
 31 H       -2.4100    -5.1900     1.1580 H     1 <1>   0.0800 
 32 H       -3.4730    -5.0700    -0.2070 H     1 <1>   0.0800 
 33 H       -4.7410    -2.6440    -0.5410 H     1 <1>   0.0800 
 34 H       -4.3880    -1.4300     0.6510 H     1 <1>   0.0800 
 35 H       -4.3090    -4.9450     2.6950 H     1 <1>   0.0800 
 36 H       -4.5690    -6.2630     1.5930 H     1 <1>   0.0800 
 37 H       -6.5390    -2.5140     1.1380 H     1 <1>   0.0800 
 38 H       -5.3950    -2.8080     2.4070 H     1 <1>   0.0800 
 39 H       -7.4790    -3.5070    -0.1920 H     1 <1>   0.4570 
 40 H       -9.4020    -4.5380    -1.2900 H     1 <1>   0.1500 
 41 H       -7.0130    -8.9280     0.7620 H     1 <1>   0.4000 
 42 H       -9.5610    -7.0380    -1.0580 H     1 <1>   0.1500 
 43 H       -8.7940    -9.2130    -1.4550 H     1 <1>   0.0800 
 44 H       -9.5510    -9.6470     0.0540 H     1 <1>   0.0800 
@<TRIPOS>BOND
  1   1   2  1   
  2   1   3  1   
  3   2   4  2   
  4   2   5  1   
  5   3   6  2   
  6   3  25  1   
  7   4   6  1   
  8   4  26  1   
  9   5   7  1   
 10   5   8  1   
 11   5  27  1   
 12   6  28  1   
 13   7  29  1   
 14   8   9  1   
 15   8  10  1   
 16   8  30  1   
 17   9  11  1   
 18   9  31  1   
 19   9  32  1   
 20  10  12  1   
 21  10  33  1   
 22  10  34  1   
 23  11  13  1   
 24  11  35  1   
 25  11  36  1   
 26  12  13  1   
 27  12  37  1   
 28  12  38  1   
 29  13  14  1   
 30  14  15  ar  
 31  14  16  ar  
 32  15  17  ar  
 33  16  18  ar  
 34  16  39  1   
 35  17  19  1   
 36  17  20  ar  
 37  18  20  ar  
 38  18  40  1   
 39  19  21  1   
 40  19  41  1   
 41  20  42  1   
 42  21  22  1   
 43  21  43  1   
 44  21  44  1   
 45  22  23  ar  
 46  22  24  ar  
@<TRIPOS>SUBSTRUCTURE
  1 ****  13 GROUP 4 **** **** 0

# MOE 2024.06 (io_trps.svl 2023.06)
