@<TRIPOS>MOLECULE
NONAME
53 56 1 0 0 
SMALL
USER_CHARGES


@<TRIPOS>ATOM
  1 O       -3.2160     1.4470    -1.4430 O.2   1 <1>  -0.5700 
  2 C       -2.6390     1.2010    -0.4130 C.2   1 <1>   0.5690 
  3 N       -2.3720    -0.0690    -0.0300 N.am  1 <1>  -0.7300 
  4 C       -2.2000     2.3420     0.4740 C.3   1 <1>  -0.0990 
  5 C       -2.7000    -1.2780    -0.8210 C.3   1 <1>   0.2200 
  6 C       -0.9570     3.0220    -0.1030 C.3   1 <1>   0.0210 
  7 C       -3.8990    -2.0150    -0.2370 C.3   1 <1>  -0.0800 
  8 C       -1.6050    -2.3130    -0.6090 C.3   1 <1>   0.1200 
  9 C       -0.3450     4.1120     0.7730 C.2   1 <1>  -0.1810 
 10 C       -3.2710    -2.9190     0.8330 C.3   1 <1>   0.1200 
 11 C       -5.0480    -1.1290     0.2830 C.3   1 <1>  -0.0160 
 12 O       -1.8870    -2.8750     0.6350 O.3   1 <1>  -0.5600 
 13 C       -0.7030     4.7330     1.9170 C.2   1 <1>  -0.0400 
 14 C        0.8730     4.7230     0.4600 C.2   1 <1>   0.1080 
 15 C       -6.2450    -1.9770     0.7010 C.ar  1 <1>  -0.1440 
 16 O        0.2320     5.5960     2.2110 O.3   1 <1>  -0.0190 
 17 C       -1.8760     4.6620     2.8770 C.3   1 <1>  -0.0600 
 18 N        1.1920     5.6010     1.3390 N.2   1 <1>  -0.4100 
 19 C        1.7360     4.4190    -0.7470 C.3   1 <1>  -0.0590 
 20 C       -7.1480    -2.5250    -0.2400 C.ar  1 <1>   0.0000 
 21 C       -6.4730    -2.2390     2.0200 C.ar  1 <1>  -0.1500 
 22 C       -8.2090    -3.3240     0.2540 C.ar  1 <1>   0.3100 
 23 C       -7.0650    -2.3280    -1.6390 C.ar  1 <1>  -0.1500 
 24 C       -7.5590    -3.0350     2.4040 C.ar  1 <1>   0.1600 
 25 N       -8.3990    -3.5680     1.5760 N.ar  1 <1>  -0.6200 
 26 C       -9.1120    -3.8930    -0.6570 C.ar  1 <1>  -0.1500 
 27 C       -7.9640    -2.8960    -2.4990 C.ar  1 <1>  -0.1500 
 28 C       -9.0000    -3.6910    -2.0050 C.ar  1 <1>  -0.1500 
 29 H       -1.9040    -0.2750     0.8570 H     1 <1>   0.3700 
 30 H       -3.0050     3.0500     0.5280 H     1 <1>   0.0800 
 31 H       -1.9910     1.9700     1.4600 H     1 <1>   0.0800 
 32 H       -2.8320    -1.0290    -1.8610 H     1 <1>   0.0800 
 33 H       -1.2090     3.4490    -1.0590 H     1 <1>   0.0800 
 34 H       -0.2080     2.2680    -0.2720 H     1 <1>   0.0800 
 35 H       -4.2870    -2.6600    -1.0050 H     1 <1>   0.0800 
 36 H       -0.6180    -1.8860    -0.6010 H     1 <1>   0.0800 
 37 H       -1.6640    -3.0940    -1.3480 H     1 <1>   0.0800 
 38 H       -3.6060    -3.9380     0.7360 H     1 <1>   0.0800 
 39 H       -3.4700    -2.5650     1.8290 H     1 <1>   0.0800 
 40 H       -5.3430    -0.4230    -0.4730 H     1 <1>   0.0800 
 41 H       -4.7100    -0.5540     1.1270 H     1 <1>   0.0800 
 42 H       -2.6300     3.9750     2.5530 H     1 <1>   0.0800 
 43 H       -2.3210     5.6360     2.9660 H     1 <1>   0.0800 
 44 H       -1.5260     4.3570     3.8470 H     1 <1>   0.0800 
 45 H        1.1620     4.5340    -1.6470 H     1 <1>   0.0800 
 46 H        2.1090     3.4130    -0.6860 H     1 <1>   0.0800 
 47 H        2.5700     5.0960    -0.7800 H     1 <1>   0.0800 
 48 H       -5.8340    -1.8510     2.7920 H     1 <1>   0.1500 
 49 H       -6.2800    -1.7160    -2.0410 H     1 <1>   0.1500 
 50 H       -7.7020    -3.2170     3.4560 H     1 <1>   0.1500 
 51 H       -9.9030    -4.4980    -0.2530 H     1 <1>   0.1500 
 52 H       -7.8880    -2.7380    -3.5620 H     1 <1>   0.1500 
 53 H       -9.7010    -4.1340    -2.6920 H     1 <1>   0.1500 
@<TRIPOS>BOND
  1   1   2  2   
  2   2   3  am  
  3   2   4  1   
  4   3   5  1   
  5   3  29  1   
  6   4   6  1   
  7   4  30  1   
  8   4  31  1   
  9   5   7  1   
 10   5   8  1   
 11   5  32  1   
 12   6   9  1   
 13   6  33  1   
 14   6  34  1   
 15   7  10  1   
 16   7  11  1   
 17   7  35  1   
 18   8  12  1   
 19   8  36  1   
 20   8  37  1   
 21   9  13  2   
 22   9  14  1   
 23  10  12  1   
 24  10  38  1   
 25  10  39  1   
 26  11  15  1   
 27  11  40  1   
 28  11  41  1   
 29  13  16  1   
 30  13  17  1   
 31  14  18  2   
 32  14  19  1   
 33  15  20  ar  
 34  15  21  ar  
 35  16  18  1   
 36  17  42  1   
 37  17  43  1   
 38  17  44  1   
 39  19  45  1   
 40  19  46  1   
 41  19  47  1   
 42  20  22  ar  
 43  20  23  ar  
 44  21  24  ar  
 45  21  48  1   
 46  22  25  ar  
 47  22  26  ar  
 48  23  27  ar  
 49  23  49  1   
 50  24  25  ar  
 51  24  50  1   
 52  26  28  ar  
 53  26  51  1   
 54  27  28  ar  
 55  27  52  1   
 56  28  53  1   
@<TRIPOS>SUBSTRUCTURE
  1 ****   3 GROUP 4 **** **** 0

# MOE 2024.06 (io_trps.svl 2023.06)
