@<TRIPOS>MOLECULE
NONAME
34 34 1 0 0 
SMALL
USER_CHARGES


@<TRIPOS>ATOM
  1 CL       0.7950     3.5810     2.4440 Cl    1 <1>  -0.1770 
  2 C        2.2420     3.2510     1.5160 C.ar  1 <1>   0.1770 
  3 C        2.8150     4.2200     0.7290 C.ar  1 <1>   0.1600 
  4 C        2.8410     2.0170     1.5510 C.ar  1 <1>   0.1600 
  5 N        3.9030     3.9880     0.0260 N.ar  1 <1>  -0.6200 
  6 N        3.9280     1.7570     0.8570 N.ar  1 <1>  -0.6200 
  7 C        4.4110     2.7550     0.1160 C.ar  1 <1>   0.7200 
  8 N        5.5420     2.4970    -0.6200 N.pl3 1 <1>  -0.8380 
  9 C        5.9050     3.3040    -1.8420 C.3   1 <1>   0.2700 
 10 C        6.5060     1.4220    -0.2510 C.3   1 <1>   0.1290 
 11 C        6.8610     4.4690    -1.5610 C.2   1 <1>   0.5690 
 12 O        7.8310     4.6240    -2.2660 O.2   1 <1>  -0.5700 
 13 N        6.5810     5.2990    -0.5220 N.am  1 <1>  -0.7300 
 14 C        7.3670     6.4700    -0.0950 C.3   1 <1>   0.1400 
 15 C        6.4350     7.6750     0.0260 C.3   1 <1>  -0.1600 
 16 C        7.2020     8.9270     0.4700 C.3   1 <1>  -0.1600 
 17 C        6.2660    10.1340     0.5880 C.3   1 <1>  -0.2400 
 18 H        2.3680     5.1980     0.6820 H     1 <1>   0.1500 
 19 H        2.4190     1.2350     2.1580 H     1 <1>   0.1500 
 20 H        5.0130     3.7050    -2.2890 H     1 <1>   0.0800 
 21 H        6.3620     2.6570    -2.5690 H     1 <1>   0.0800 
 22 H        6.3910     1.1460     0.7830 H     1 <1>   0.0800 
 23 H        7.5150     1.7670    -0.3980 H     1 <1>   0.0800 
 24 H        6.3330     0.5560    -0.8650 H     1 <1>   0.0800 
 25 H        5.7470     5.0640     0.0330 H     1 <1>   0.3700 
 26 H        8.1420     6.6720    -0.8170 H     1 <1>   0.0800 
 27 H        7.8290     6.2580     0.8540 H     1 <1>   0.0800 
 28 H        5.6630     7.4570     0.7430 H     1 <1>   0.0800 
 29 H        5.9760     7.8590    -0.9300 H     1 <1>   0.0800 
 30 H        7.9760     9.1490    -0.2450 H     1 <1>   0.0800 
 31 H        7.6690     8.7480     1.4240 H     1 <1>   0.0800 
 32 H        5.8040    10.3450    -0.3600 H     1 <1>   0.0800 
 33 H        6.8220    11.0020     0.8970 H     1 <1>   0.0800 
 34 H        5.4960     9.9440     1.3150 H     1 <1>   0.0800 
@<TRIPOS>BOND
  1   1   2  1   
  2   2   3  ar  
  3   2   4  ar  
  4   3   5  ar  
  5   3  18  1   
  6   4   6  ar  
  7   4  19  1   
  8   5   7  ar  
  9   6   7  ar  
 10   7   8  1   
 11   8   9  1   
 12   8  10  1   
 13   9  11  1   
 14   9  20  1   
 15   9  21  1   
 16  10  22  1   
 17  10  23  1   
 18  10  24  1   
 19  11  12  2   
 20  11  13  am  
 21  13  14  1   
 22  13  25  1   
 23  14  15  1   
 24  14  26  1   
 25  14  27  1   
 26  15  16  1   
 27  15  28  1   
 28  15  29  1   
 29  16  17  1   
 30  16  30  1   
 31  16  31  1   
 32  17  32  1   
 33  17  33  1   
 34  17  34  1   
@<TRIPOS>SUBSTRUCTURE
  1 ****   5 GROUP 4 **** **** 0

# MOE 2024.06 (io_trps.svl 2023.06)
