@<TRIPOS>MOLECULE
NONAME
53 55 1 0 0 
SMALL
USER_CHARGES


@<TRIPOS>ATOM
  1 O        0.2750     1.3910    -0.5930 O.2   1 <1>  -0.5700 
  2 C        0.0150     2.5580    -0.4140 C.2   1 <1>   0.5690 
  3 N       -1.0610     2.9650     0.3260 N.am  1 <1>  -0.6600 
  4 C        0.9100     3.6050    -1.0760 C.3   1 <1>   0.1810 
  5 C       -1.3920     4.4200     0.4900 C.3   1 <1>   0.3640 
  6 C       -1.9380     2.0060     1.0590 C.3   1 <1>   0.0600 
  7 O        0.8700     4.8480    -0.4210 O.3   1 <1>  -0.5600 
  8 C       -2.8580     4.6860     0.0980 C.ar  1 <1>  -0.1430 
  9 C       -0.4300     5.3930    -0.2530 C.3   1 <1>   0.2610 
 10 C       -3.4440     4.3080    -1.1160 C.ar  1 <1>  -0.1430 
 11 C       -3.6400     5.3530     1.0340 C.ar  1 <1>  -0.1500 
 12 C       -0.3140     6.7520     0.4560 C.2   1 <1>   0.5690 
 13 C       -4.7800     4.6040    -1.3510 C.ar  1 <1>  -0.1500 
 14 C       -2.7050     3.5590    -2.2210 C.3   1 <1>  -0.0960 
 15 C       -4.9680     5.6450     0.7880 C.ar  1 <1>  -0.1500 
 16 O       -1.0990     7.0810     1.3160 O.2   1 <1>  -0.5700 
 17 N        0.6970     7.5840     0.0990 N.am  1 <1>  -0.7300 
 18 C       -5.5410     5.2690    -0.4090 C.ar  1 <1>  -0.1500 
 19 C        0.9740     8.8850     0.7210 C.3   1 <1>   0.3210 
 20 C        2.4250     9.2290     0.4660 C.2   1 <1>  -0.1810 
 21 C        3.5250     8.5640     0.9960 C.2   1 <1>   0.1390 
 22 C        2.9560    10.2090    -0.2960 C.2   1 <1>  -0.3020 
 23 N        4.6470     9.0810     0.6010 N.2   1 <1>  -0.7070 
 24 N        4.2970    10.1040    -0.1990 N.pl3 1 <1>   0.3140 
 25 C        5.3010    10.9620    -0.8570 C.3   1 <1>   0.0960 
 26 C        5.5130    12.2630    -0.0680 C.3   1 <1>  -0.1600 
 27 C        6.5550    13.1620    -0.7420 C.3   1 <1>  -0.2400 
 28 H        0.6120     3.7440    -2.0990 H     1 <1>   0.0800 
 29 H        1.9270     3.2600    -1.0560 H     1 <1>   0.0800 
 30 H       -1.2860     4.6250     1.5420 H     1 <1>   0.0800 
 31 H       -1.9950     2.2820     2.0970 H     1 <1>   0.0800 
 32 H       -1.5480     1.0050     0.9900 H     1 <1>   0.0800 
 33 H       -2.9280     2.0180     0.6370 H     1 <1>   0.0800 
 34 H       -0.8200     5.5890    -1.2320 H     1 <1>   0.0800 
 35 H       -3.2170     5.6640     1.9740 H     1 <1>   0.1500 
 36 H       -5.2460     4.3160    -2.2770 H     1 <1>   0.1500 
 37 H       -3.2820     3.5450    -3.1280 H     1 <1>   0.0800 
 38 H       -2.5360     2.5400    -1.9240 H     1 <1>   0.0800 
 39 H       -1.7660     4.0230    -2.4450 H     1 <1>   0.0800 
 40 H       -5.5520     6.1650     1.5280 H     1 <1>   0.1500 
 41 H        1.4340     7.2350    -0.5200 H     1 <1>   0.3700 
 42 H       -6.5750     5.4920    -0.6070 H     1 <1>   0.1500 
 43 H        0.3330     9.6330     0.2850 H     1 <1>   0.0800 
 44 H        0.7820     8.8370     1.7790 H     1 <1>   0.0800 
 45 H        3.4640     7.7160     1.6580 H     1 <1>   0.1500 
 46 H        2.4700    10.9620    -0.8880 H     1 <1>   0.1500 
 47 H        6.2230    10.4130    -0.9160 H     1 <1>   0.0800 
 48 H        4.9640    11.1780    -1.8530 H     1 <1>   0.0800 
 49 H        4.5800    12.7950     0.0070 H     1 <1>   0.0800 
 50 H        5.8460    12.0190     0.9270 H     1 <1>   0.0800 
 51 H        6.2360    13.4340    -1.7330 H     1 <1>   0.0800 
 52 H        7.5030    12.6560    -0.8070 H     1 <1>   0.0800 
 53 H        6.6890    14.0620    -0.1680 H     1 <1>   0.0800 
@<TRIPOS>BOND
  1   1   2  2   
  2   2   3  am  
  3   2   4  1   
  4   3   5  1   
  5   3   6  1   
  6   4   7  1   
  7   4  28  1   
  8   4  29  1   
  9   5   8  1   
 10   5   9  1   
 11   5  30  1   
 12   6  31  1   
 13   6  32  1   
 14   6  33  1   
 15   7   9  1   
 16   8  10  ar  
 17   8  11  ar  
 18   9  12  1   
 19   9  34  1   
 20  10  13  ar  
 21  10  14  1   
 22  11  15  ar  
 23  11  35  1   
 24  12  16  2   
 25  12  17  am  
 26  13  18  ar  
 27  13  36  1   
 28  14  37  1   
 29  14  38  1   
 30  14  39  1   
 31  15  18  ar  
 32  15  40  1   
 33  17  19  1   
 34  17  41  1   
 35  18  42  1   
 36  19  20  1   
 37  19  43  1   
 38  19  44  1   
 39  20  21  1   
 40  20  22  2   
 41  21  23  2   
 42  21  45  1   
 43  22  24  1   
 44  22  46  1   
 45  23  24  1   
 46  24  25  1   
 47  25  26  1   
 48  25  47  1   
 49  25  48  1   
 50  26  27  1   
 51  26  49  1   
 52  26  50  1   
 53  27  51  1   
 54  27  52  1   
 55  27  53  1   
@<TRIPOS>SUBSTRUCTURE
  1 ****  12 GROUP 4 **** **** 0

# MOE 2024.06 (io_trps.svl 2023.06)
