@<TRIPOS>MOLECULE
NONAME
41 42 1 0 0 
SMALL
USER_CHARGES


@<TRIPOS>ATOM
  1 S        0.8130     0.2010    -1.3350 S.o2  1 <1>   1.3330 
  2 O       -0.0030     1.0930    -2.1270 O.2   1 <1>  -0.6500 
  3 O        1.1330    -1.1150    -1.8420 O.2   1 <1>  -0.6500 
  4 N        0.0330     0.0040     0.1620 N.am  1 <1>  -0.8490 
  5 C        2.3520     1.0240    -0.9160 C.3   1 <1>  -0.0550 
  6 C       -0.6360     1.2230     0.6320 C.3   1 <1>   0.1160 
  7 C       -0.9230    -1.1070     0.1410 C.3   1 <1>   0.1160 
  8 C        3.3440     0.1510    -0.1180 C.3   1 <1>  -0.0800 
  9 C        4.7140     0.7760     0.0980 C.3   1 <1>   0.2200 
 10 C        2.9030    -0.1960     1.3100 C.3   1 <1>   0.1200 
 11 N        4.5870     2.2060     0.4560 N.am  1 <1>  -0.7300 
 12 C        5.1900    -0.0010     1.3180 C.3   1 <1>   0.1200 
 13 O        4.0530    -0.1790     2.1060 O.3   1 <1>  -0.5600 
 14 C        4.8570     3.2790    -0.3410 C.2   1 <1>   0.7160 
 15 O        5.1950     3.0720    -1.4940 O.2   1 <1>  -0.5700 
 16 C        4.7150     4.6240     0.1940 C.2   1 <1>   0.2030 
 17 N        4.2810     4.9250     1.4070 N.2   1 <1>  -0.7070 
 18 C        5.0220     5.7950    -0.5110 C.2   1 <1>  -0.1500 
 19 N        4.3150     6.2650     1.4760 N.pl3 1 <1>   0.3000 
 20 C        4.7570     6.8140     0.3320 C.2   1 <1>  -0.3320 
 21 C        4.8790     8.3130     0.1740 C.3   1 <1>   0.7800 
 22 F        5.6680     8.7850     1.1280 F     1 <1>  -0.3400 
 23 F        3.7000     8.8690     0.4120 F     1 <1>  -0.3400 
 24 H        2.8330     1.3180    -1.8300 H     1 <1>   0.0800 
 25 H        2.1350     1.9210    -0.3710 H     1 <1>   0.0800 
 26 H       -1.0400     1.0660     1.6180 H     1 <1>   0.0800 
 27 H       -1.4370     1.4960    -0.0360 H     1 <1>   0.0800 
 28 H        0.0650     2.0380     0.6810 H     1 <1>   0.0800 
 29 H       -1.3900    -1.2160     1.1050 H     1 <1>   0.0800 
 30 H       -0.4130    -2.0270    -0.0910 H     1 <1>   0.0800 
 31 H       -1.6810    -0.9340    -0.6050 H     1 <1>   0.0800 
 32 H        3.4850    -0.7760    -0.6470 H     1 <1>   0.0800 
 33 H        5.3690     0.6510    -0.7480 H     1 <1>   0.0800 
 34 H        2.4520    -1.1720     1.3640 H     1 <1>   0.0800 
 35 H        2.2260     0.5390     1.7080 H     1 <1>   0.0800 
 36 H        4.3070     2.4070     1.4220 H     1 <1>   0.3700 
 37 H        5.9440     0.5220     1.8790 H     1 <1>   0.0800 
 38 H        5.5500    -0.9740     1.0340 H     1 <1>   0.0800 
 39 H        5.3920     5.8150    -1.5220 H     1 <1>   0.1500 
 40 H        4.0320     6.7890     2.3160 H     1 <1>   0.2700 
 41 H        5.2410     8.6520    -0.7810 H     1 <1>   0.0800 
@<TRIPOS>BOND
  1   1   2  2   
  2   1   3  2   
  3   1   4  am  
  4   1   5  1   
  5   4   6  1   
  6   4   7  1   
  7   5   8  1   
  8   5  24  1   
  9   5  25  1   
 10   6  26  1   
 11   6  27  1   
 12   6  28  1   
 13   7  29  1   
 14   7  30  1   
 15   7  31  1   
 16   8   9  1   
 17   8  10  1   
 18   8  32  1   
 19   9  11  1   
 20   9  12  1   
 21   9  33  1   
 22  10  13  1   
 23  10  34  1   
 24  10  35  1   
 25  11  14  am  
 26  11  36  1   
 27  12  13  1   
 28  12  37  1   
 29  12  38  1   
 30  14  15  2   
 31  14  16  1   
 32  16  17  2   
 33  16  18  1   
 34  17  19  1   
 35  18  20  2   
 36  18  39  1   
 37  19  20  1   
 38  19  40  1   
 39  20  21  1   
 40  21  22  1   
 41  21  23  1   
 42  21  41  1   
@<TRIPOS>SUBSTRUCTURE
  1 ****  11 GROUP 4 **** **** 0

# MOE 2024.06 (io_trps.svl 2023.06)
