@<TRIPOS>MOLECULE
NONAME
44 45 1 0 0 
SMALL
USER_CHARGES


@<TRIPOS>ATOM
  1 O        0.9320    -0.3100    -2.1150 O.2   1 <1>  -0.5700 
  2 C        1.5260    -0.7680    -1.1570 C.2   1 <1>   0.5440 
  3 N        2.2260     0.0780    -0.3220 N.am  1 <1>  -0.6600 
  4 C        1.4840    -2.1940    -0.9210 C.ar  1 <1>   0.0860 
  5 C        2.2900     1.5460    -0.5930 C.3   1 <1>   0.2200 
  6 C        3.0950    -0.4030     0.7880 C.3   1 <1>   0.1400 
  7 C        0.6200    -2.7670     0.0170 C.ar  1 <1>   0.1660 
  8 C        2.3310    -3.0440    -1.6160 C.ar  1 <1>  -0.1500 
  9 C        3.6510     2.1360    -0.1580 C.3   1 <1>  -0.1600 
 10 C        1.1070     2.2310     0.1040 C.3   1 <1>  -0.1600 
 11 C        4.5690    -0.1540     0.4330 C.3   1 <1>  -0.1600 
 12 N        0.5760    -4.0570     0.3110 N.ar  1 <1>  -0.6200 
 13 C       -0.3560    -1.8960     0.7900 C.3   1 <1>  -0.0970 
 14 C        2.2820    -4.3890    -1.3250 C.ar  1 <1>  -0.1500 
 15 C        4.7970     1.1370    -0.3760 C.3   1 <1>  -0.1600 
 16 C        0.9870     3.7060    -0.2800 C.3   1 <1>   0.1200 
 17 C        1.3990    -4.8430    -0.3600 C.ar  1 <1>   0.1670 
 18 O       -0.0750     4.2460     0.4330 O.3   1 <1>  -0.5600 
 19 C        1.3290    -6.3170    -0.0190 C.3   1 <1>  -0.0970 
 20 C       -0.3310     5.5810     0.1400 C.3   1 <1>   0.0400 
 21 H        2.1950     1.6930    -1.6570 H     1 <1>   0.0800 
 22 H        2.9390    -1.4470     0.9960 H     1 <1>   0.0800 
 23 H        2.8410     0.1470     1.6780 H     1 <1>   0.0800 
 24 H        3.0030    -2.6520    -2.3590 H     1 <1>   0.1500 
 25 H        3.6160     2.4090     0.8830 H     1 <1>   0.0800 
 26 H        3.8440     3.0320    -0.7200 H     1 <1>   0.0800 
 27 H        1.2180     2.1490     1.1690 H     1 <1>   0.0800 
 28 H        0.1990     1.7360    -0.1920 H     1 <1>   0.0800 
 29 H        4.9430    -0.9920    -0.1280 H     1 <1>   0.0800 
 30 H        5.1300    -0.1090     1.3500 H     1 <1>   0.0800 
 31 H       -0.8040    -1.1610     0.1450 H     1 <1>   0.0800 
 32 H        0.1560    -1.3970     1.5910 H     1 <1>   0.0800 
 33 H       -1.1440    -2.4990     1.2060 H     1 <1>   0.0800 
 34 H        2.9230    -5.0770    -1.8450 H     1 <1>   0.1500 
 35 H        5.7400     1.5810    -0.1050 H     1 <1>   0.0800 
 36 H        4.8380     0.8910    -1.4240 H     1 <1>   0.0800 
 37 H        0.7860     3.8050    -1.3330 H     1 <1>   0.0800 
 38 H        1.8790     4.2490    -0.0200 H     1 <1>   0.0800 
 39 H        1.5540    -6.4540     1.0230 H     1 <1>   0.0800 
 40 H        2.0270    -6.8850    -0.6050 H     1 <1>   0.0800 
 41 H        0.3360    -6.6810    -0.2100 H     1 <1>   0.0800 
 42 H       -1.1630     5.9020     0.7430 H     1 <1>   0.0800 
 43 H       -0.5830     5.6740    -0.9020 H     1 <1>   0.0800 
 44 H        0.5370     6.1710     0.3770 H     1 <1>   0.0800 
@<TRIPOS>BOND
  1   1   2  2   
  2   2   3  am  
  3   2   4  1   
  4   3   5  1   
  5   3   6  1   
  6   4   7  ar  
  7   4   8  ar  
  8   5   9  1   
  9   5  10  1   
 10   5  21  1   
 11   6  11  1   
 12   6  22  1   
 13   6  23  1   
 14   7  12  ar  
 15   7  13  1   
 16   8  14  ar  
 17   8  24  1   
 18   9  15  1   
 19   9  25  1   
 20   9  26  1   
 21  10  16  1   
 22  10  27  1   
 23  10  28  1   
 24  11  15  1   
 25  11  29  1   
 26  11  30  1   
 27  12  17  ar  
 28  13  31  1   
 29  13  32  1   
 30  13  33  1   
 31  14  17  ar  
 32  14  34  1   
 33  15  35  1   
 34  15  36  1   
 35  16  18  1   
 36  16  37  1   
 37  16  38  1   
 38  17  19  1   
 39  18  20  1   
 40  19  39  1   
 41  19  40  1   
 42  19  41  1   
 43  20  42  1   
 44  20  43  1   
 45  20  44  1   
@<TRIPOS>SUBSTRUCTURE
  1 ****   3 GROUP 4 **** **** 0

# MOE 2024.06 (io_trps.svl 2023.06)
