@<TRIPOS>MOLECULE
NONAME
39 39 1 0 0 
SMALL
USER_CHARGES


@<TRIPOS>ATOM
  1 O       -1.0120    -0.7840    -0.5490 O.2   1 <1>  -0.5700 
  2 C       -1.6050     0.2630    -0.4270 C.2   1 <1>   0.5690 
  3 N       -2.7510     0.3430     0.3240 N.am  1 <1>  -0.6600 
  4 C       -1.0350     1.4690    -1.1610 C.3   1 <1>  -0.0990 
  5 C       -3.2470    -0.8710     1.0390 C.3   1 <1>   0.3200 
  6 C       -3.7020     1.4970     0.3330 C.3   1 <1>   0.1400 
  7 C       -0.4290     2.5120    -0.2070 C.3   1 <1>  -0.1600 
  8 C       -4.0450    -1.7520     0.0950 C.2   1 <1>   0.0060 
  9 C       -3.7000     2.2040     1.6930 C.3   1 <1>   0.1200 
 10 C        0.0760     3.7410    -0.9620 C.3   1 <1>   0.1400 
 11 N       -5.3090    -2.0120     0.2050 N.2   1 <1>  -0.5650 
 12 N       -3.4590    -2.3460    -0.9660 N.pl3 1 <1>   0.0330 
 13 O       -4.1670     3.4990     1.5250 O.3   1 <1>  -0.6800 
 14 N        0.5250     4.7470     0.0210 N.am  1 <1>  -0.7300 
 15 C       -5.5600    -2.8210    -0.8440 C.2   1 <1>   0.0770 
 16 C       -4.4410    -3.0360    -1.5710 C.2   1 <1>  -0.3020 
 17 C       -0.1610     5.7930     0.5350 C.2   1 <1>   0.5690 
 18 O        0.3510     6.4970     1.3660 O.2   1 <1>  -0.5700 
 19 C       -1.5720     6.0880     0.0900 C.3   1 <1>  -0.1790 
 20 H       -1.8000     1.9090    -1.7720 H     1 <1>   0.0800 
 21 H       -0.2650     1.1210    -1.8280 H     1 <1>   0.0800 
 22 H       -3.8690    -0.5880     1.8690 H     1 <1>   0.0800 
 23 H       -2.4140    -1.4320     1.4290 H     1 <1>   0.0800 
 24 H       -4.6960     1.1410     0.1160 H     1 <1>   0.0800 
 25 H       -3.4370     2.2080    -0.4270 H     1 <1>   0.0800 
 26 H        0.3850     2.0640     0.3360 H     1 <1>   0.0800 
 27 H       -1.1730     2.8270     0.4990 H     1 <1>   0.0800 
 28 H       -2.7030     2.2620     2.0950 H     1 <1>   0.0800 
 29 H       -4.3480     1.6950     2.3870 H     1 <1>   0.0800 
 30 H       -0.7110     4.1510    -1.5720 H     1 <1>   0.0800 
 31 H        0.8990     3.4760    -1.6040 H     1 <1>   0.0800 
 32 H       -2.4670    -2.2430    -1.2240 H     1 <1>   0.2700 
 33 H       -4.2210     3.9630     2.3850 H     1 <1>   0.4000 
 34 H        1.4660     4.6210     0.4020 H     1 <1>   0.3700 
 35 H       -6.5480    -3.2120    -1.0230 H     1 <1>   0.1500 
 36 H       -4.2940    -3.6230    -2.4580 H     1 <1>   0.1500 
 37 H       -2.1940     5.2260     0.2420 H     1 <1>   0.0800 
 38 H       -1.5760     6.3610    -0.9470 H     1 <1>   0.0800 
 39 H       -1.9680     6.9050     0.6650 H     1 <1>   0.0800 
@<TRIPOS>BOND
  1   1   2  2   
  2   2   3  am  
  3   2   4  1   
  4   3   5  1   
  5   3   6  1   
  6   4   7  1   
  7   4  20  1   
  8   4  21  1   
  9   5   8  1   
 10   5  22  1   
 11   5  23  1   
 12   6   9  1   
 13   6  24  1   
 14   6  25  1   
 15   7  10  1   
 16   7  26  1   
 17   7  27  1   
 18   8  11  2   
 19   8  12  1   
 20   9  13  1   
 21   9  28  1   
 22   9  29  1   
 23  10  14  1   
 24  10  30  1   
 25  10  31  1   
 26  11  15  1   
 27  12  16  1   
 28  12  32  1   
 29  13  33  1   
 30  14  17  am  
 31  14  34  1   
 32  15  16  2   
 33  15  35  1   
 34  16  36  1   
 35  17  18  2   
 36  17  19  1   
 37  19  37  1   
 38  19  38  1   
 39  19  39  1   
@<TRIPOS>SUBSTRUCTURE
  1 ****   3 GROUP 4 **** **** 0

# MOE 2024.06 (io_trps.svl 2023.06)
