@<TRIPOS>MOLECULE
NONAME
46 48 1 0 0 
SMALL
USER_CHARGES


@<TRIPOS>ATOM
  1 F       -1.1870     0.7710     0.5880 F     1 <1>  -0.1900 
  2 C       -0.5310     1.8540     0.2620 C.ar  1 <1>   0.1900 
  3 C       -0.8860     3.1140     0.7560 C.ar  1 <1>   0.0820 
  4 C        0.5390     1.6920    -0.5970 C.ar  1 <1>  -0.1500 
  5 O       -1.9120     3.4070     1.6030 O.3   1 <1>  -0.3630 
  6 C       -0.1260     4.2000     0.3570 C.ar  1 <1>  -0.1500 
  7 C        1.2800     2.7990    -0.9720 C.ar  1 <1>  -0.1500 
  8 C       -2.8540     2.4460     2.0290 C.3   1 <1>   0.0400 
  9 C        0.9710     4.0780    -0.5000 C.ar  1 <1>   0.0860 
 10 C        1.7660     5.2330    -0.8890 C.2   1 <1>   0.5440 
 11 O        2.5870     5.1710    -1.7860 O.2   1 <1>  -0.5700 
 12 N        1.6830     6.4270    -0.2180 N.am  1 <1>  -0.6600 
 13 C        2.3420     6.4880     1.1370 C.3   1 <1>   0.2200 
 14 C        1.5700     7.6890    -1.0190 C.3   1 <1>   0.1400 
 15 C        1.7680     7.6080     2.0210 C.3   1 <1>   0.1200 
 16 C        3.8840     6.5960     1.0130 C.3   1 <1>   0.3430 
 17 C        2.5370     8.8200    -0.6180 C.3   1 <1>  -0.0800 
 18 O        2.4360     8.8130     1.8080 O.3   1 <1>  -0.5600 
 19 N        4.3240     7.0140    -0.3630 N.4   1 <1>  -0.9590 
 20 C        2.0920     9.5300     0.6710 C.3   1 <1>   0.1200 
 21 C        4.0390     8.4580    -0.6090 C.3   1 <1>   0.3430 
 22 C        5.8190     6.7720    -0.4920 C.3   1 <1>   0.2370 
 23 C        6.6710     7.5190     0.5390 C.2   1 <1>   0.9060 
 24 O        7.0430     8.6630     0.2630 O.co2 1 <1>  -0.9000 
 25 O        6.8300     6.9910     1.6440 O.co2 1 <1>  -0.9000 
 26 H        0.7860     0.7110    -0.9650 H     1 <1>   0.1500 
 27 H       -0.4090     5.1690     0.7260 H     1 <1>   0.1500 
 28 H        2.1130     2.6720    -1.6430 H     1 <1>   0.1500 
 29 H       -3.5860     2.9430     2.6400 H     1 <1>   0.0800 
 30 H       -2.3500     1.6920     2.6080 H     1 <1>   0.0800 
 31 H       -3.3320     2.0150     1.1670 H     1 <1>   0.0800 
 32 H        2.1270     5.5660     1.6480 H     1 <1>   0.0800 
 33 H        1.7300     7.4610    -2.0610 H     1 <1>   0.0800 
 34 H        0.5580     8.0480    -0.9360 H     1 <1>   0.0800 
 35 H        1.9310     7.3540     3.0530 H     1 <1>   0.0800 
 36 H        0.7110     7.7390     1.8670 H     1 <1>   0.0800 
 37 H        4.3110     5.6340     1.2390 H     1 <1>   0.0800 
 38 H        4.2680     7.2860     1.7480 H     1 <1>   0.0800 
 39 H        2.4310     9.5700    -1.3800 H     1 <1>   0.0800 
 40 H        3.7930     6.4320    -1.0420 H     1 <1>   0.4500 
 41 H        1.0300     9.7100     0.6810 H     1 <1>   0.0800 
 42 H        2.5920    10.4810     0.7480 H     1 <1>   0.0800 
 43 H        4.5460     9.0550     0.1340 H     1 <1>   0.0800 
 44 H        4.4580     8.7240    -1.5650 H     1 <1>   0.0800 
 45 H        6.0280     5.7250    -0.3760 H     1 <1>   0.0800 
 46 H        6.1550     7.0790    -1.4660 H     1 <1>   0.0800 
@<TRIPOS>BOND
  1   1   2  1   
  2   2   3  ar  
  3   2   4  ar  
  4   3   5  1   
  5   3   6  ar  
  6   4   7  ar  
  7   4  26  1   
  8   5   8  1   
  9   6   9  ar  
 10   6  27  1   
 11   7   9  ar  
 12   7  28  1   
 13   8  29  1   
 14   8  30  1   
 15   8  31  1   
 16   9  10  1   
 17  10  11  2   
 18  10  12  am  
 19  12  13  1   
 20  12  14  1   
 21  13  15  1   
 22  13  16  1   
 23  13  32  1   
 24  14  17  1   
 25  14  33  1   
 26  14  34  1   
 27  15  18  1   
 28  15  35  1   
 29  15  36  1   
 30  16  19  1   
 31  16  37  1   
 32  16  38  1   
 33  17  20  1   
 34  17  21  1   
 35  17  39  1   
 36  18  20  1   
 37  19  21  1   
 38  19  22  1   
 39  19  40  1   
 40  20  41  1   
 41  20  42  1   
 42  21  43  1   
 43  21  44  1   
 44  22  23  1   
 45  22  45  1   
 46  22  46  1   
 47  23  24  ar  
 48  23  25  ar  
@<TRIPOS>SUBSTRUCTURE
  1 ****  12 GROUP 4 **** **** 0

# MOE 2024.06 (io_trps.svl 2023.06)
