@<TRIPOS>MOLECULE
NONAME
48 50 1 0 0 
SMALL
USER_CHARGES


@<TRIPOS>ATOM
  1 O       -1.0410     0.0900     1.1360 O.3   1 <1>  -0.3630 
  2 C       -2.1720     0.7040     1.5780 C.ar  1 <1>   0.0820 
  3 C        0.0540     0.7900     0.5790 C.3   1 <1>   0.2000 
  4 C       -3.2510    -0.1050     1.9300 C.ar  1 <1>  -0.1440 
  5 C       -2.2910     2.0890     1.6780 C.ar  1 <1>  -0.1500 
  6 C       -0.2860     1.2260    -0.8480 C.3   1 <1>  -0.1600 
  7 C        1.1850    -0.2130     0.3870 C.3   1 <1>  -0.1600 
  8 C       -4.4310     0.4790     2.3630 C.ar  1 <1>  -0.1500 
  9 C       -3.1710    -1.6250     1.8500 C.3   1 <1>   0.2530 
 10 C       -3.4720     2.6590     2.1170 C.ar  1 <1>  -0.1500 
 11 C        0.0340     0.0290    -1.7540 C.3   1 <1>  -0.1600 
 12 C        0.8370    -0.9600    -0.9020 C.3   1 <1>  -0.1600 
 13 C       -4.5440     1.8550     2.4570 C.ar  1 <1>  -0.1500 
 14 N       -3.9760    -2.1570     0.7310 N.3   1 <1>  -0.8100 
 15 C       -4.0350    -3.6340     0.8090 C.3   1 <1>   0.2900 
 16 C       -3.4470    -1.7030    -0.5810 C.3   1 <1>   0.1100 
 17 C       -5.1850    -4.1870    -0.0170 C.2   1 <1>   0.0070 
 18 C       -4.2300    -0.5060    -1.1530 C.3   1 <1>   0.1200 
 19 N       -5.2610    -5.3960    -0.4780 N.2   1 <1>  -0.5650 
 20 N       -6.2510    -3.4230    -0.3290 N.pl3 1 <1>   0.0330 
 21 O       -5.5210    -0.8820    -1.5190 O.3   1 <1>  -0.6800 
 22 C       -6.4440    -5.4180    -1.1240 C.2   1 <1>   0.0770 
 23 C       -7.0630    -4.2190    -1.0470 C.2   1 <1>  -0.3020 
 24 H        0.3380     1.5930     1.2360 H     1 <1>   0.0800 
 25 H       -1.4790     2.7400     1.4200 H     1 <1>   0.1500 
 26 H        0.3600     2.0440    -1.1150 H     1 <1>   0.0800 
 27 H       -1.3070     1.5500    -0.9470 H     1 <1>   0.0800 
 28 H        1.2920    -0.8700     1.2320 H     1 <1>   0.0800 
 29 H        2.1060     0.3260     0.2450 H     1 <1>   0.0800 
 30 H       -5.2700    -0.1440     2.6200 H     1 <1>   0.1500 
 31 H       -3.5500    -2.0200     2.7770 H     1 <1>   0.0800 
 32 H       -2.1500    -1.9530     1.7560 H     1 <1>   0.0800 
 33 H       -3.5600     3.7290     2.1920 H     1 <1>   0.1500 
 34 H        0.6060     0.3510    -2.6070 H     1 <1>   0.0800 
 35 H       -0.8730    -0.4350    -2.1000 H     1 <1>   0.0800 
 36 H        0.2180    -1.8070    -0.6620 H     1 <1>   0.0800 
 37 H        1.7200    -1.3060    -1.4110 H     1 <1>   0.0800 
 38 H       -5.4660     2.2960     2.7930 H     1 <1>   0.1500 
 39 H       -4.2010    -3.9370     1.8280 H     1 <1>   0.0800 
 40 H       -3.1060    -4.0670     0.4780 H     1 <1>   0.0800 
 41 H       -3.4830    -2.5010    -1.3020 H     1 <1>   0.0800 
 42 H       -2.4120    -1.4240    -0.4780 H     1 <1>   0.0800 
 43 H       -3.7360    -0.1320    -2.0320 H     1 <1>   0.0800 
 44 H       -4.3010     0.2910    -0.4350 H     1 <1>   0.0800 
 45 H       -6.3250    -2.4200    -0.1020 H     1 <1>   0.2700 
 46 H       -5.4830    -1.6160    -2.1630 H     1 <1>   0.4000 
 47 H       -6.7920    -6.3090    -1.6200 H     1 <1>   0.1500 
 48 H       -8.0040    -3.8950    -1.4500 H     1 <1>   0.1500 
@<TRIPOS>BOND
  1   1   2  1   
  2   1   3  1   
  3   2   4  ar  
  4   2   5  ar  
  5   3   6  1   
  6   3   7  1   
  7   3  24  1   
  8   4   8  ar  
  9   4   9  1   
 10   5  10  ar  
 11   5  25  1   
 12   6  11  1   
 13   6  26  1   
 14   6  27  1   
 15   7  12  1   
 16   7  28  1   
 17   7  29  1   
 18   8  13  ar  
 19   8  30  1   
 20   9  14  1   
 21   9  31  1   
 22   9  32  1   
 23  10  13  ar  
 24  10  33  1   
 25  11  12  1   
 26  11  34  1   
 27  11  35  1   
 28  12  36  1   
 29  12  37  1   
 30  13  38  1   
 31  14  15  1   
 32  14  16  1   
 33  15  17  1   
 34  15  39  1   
 35  15  40  1   
 36  16  18  1   
 37  16  41  1   
 38  16  42  1   
 39  17  19  2   
 40  17  20  1   
 41  18  21  1   
 42  18  43  1   
 43  18  44  1   
 44  19  22  1   
 45  20  23  1   
 46  20  45  1   
 47  21  46  1   
 48  22  23  2   
 49  22  47  1   
 50  23  48  1   
@<TRIPOS>SUBSTRUCTURE
  1 ****  16 GROUP 4 **** **** 0

# MOE 2024.06 (io_trps.svl 2023.06)
