@<TRIPOS>MOLECULE
NONAME
41 41 1 0 0 
SMALL
USER_CHARGES


@<TRIPOS>ATOM
  1 O       -1.9070    -0.7050     2.8340 O.2   1 <1>  -0.5700 
  2 C       -1.8190    -0.5940     1.6370 C.2   1 <1>   0.6590 
  3 O       -1.6310     0.6180     1.1160 O.3   1 <1>  -0.4300 
  4 C       -1.8270    -1.8600     0.7380 C.3   1 <1>   0.2510 
  5 C       -2.1280     1.2090    -0.0640 C.3   1 <1>   0.2800 
  6 N       -3.1130    -2.5770     0.7390 N.3   1 <1>  -0.9900 
  7 C       -0.7060    -2.8300     1.1580 C.3   1 <1>  -0.1600 
  8 C       -3.5190     0.6730    -0.4250 C.3   1 <1>  -0.2400 
  9 C       -1.1120     1.0170    -1.1940 C.3   1 <1>  -0.2400 
 10 C       -2.2370     2.6980     0.2620 C.3   1 <1>  -0.2400 
 11 C       -0.5240    -4.0580     0.2340 C.3   1 <1>  -0.0800 
 12 C       -1.2850    -5.2930     0.7590 C.3   1 <1>  -0.1600 
 13 C        0.9710    -4.4000     0.0930 C.3   1 <1>  -0.1600 
 14 C       -1.0770    -6.5120    -0.1500 C.3   1 <1>  -0.1600 
 15 C        1.1920    -5.6180    -0.8140 C.3   1 <1>  -0.1600 
 16 C        0.4130    -6.8370    -0.3070 C.3   1 <1>  -0.1600 
 17 H       -1.6230    -1.5650    -0.2690 H     1 <1>   0.0800 
 18 H       -3.3710    -2.7380     1.7220 H     1 <1>   0.3600 
 19 H       -2.9610    -3.4990     0.3180 H     1 <1>   0.3600 
 20 H        0.2040    -2.2550     1.1530 H     1 <1>   0.0800 
 21 H       -0.8560    -3.1430     2.1770 H     1 <1>   0.0800 
 22 H       -3.9500     1.2760    -1.2040 H     1 <1>   0.0800 
 23 H       -4.1710     0.7120     0.4290 H     1 <1>   0.0800 
 24 H       -3.4770    -0.3340    -0.7950 H     1 <1>   0.0800 
 25 H       -1.4040     1.6040    -2.0460 H     1 <1>   0.0800 
 26 H       -1.0530    -0.0030    -1.5170 H     1 <1>   0.0800 
 27 H       -0.1380     1.3460    -0.8780 H     1 <1>   0.0800 
 28 H       -2.5950     3.2470    -0.5900 H     1 <1>   0.0800 
 29 H       -1.2760     3.0920     0.5410 H     1 <1>   0.0800 
 30 H       -2.9240     2.8500     1.0750 H     1 <1>   0.0800 
 31 H       -0.8930    -3.8140    -0.7490 H     1 <1>   0.0800 
 32 H       -0.9340    -5.5340     1.7480 H     1 <1>   0.0800 
 33 H       -2.3380    -5.0970     0.8300 H     1 <1>   0.0800 
 34 H        1.5010    -3.5600    -0.3210 H     1 <1>   0.0800 
 35 H        1.3860    -4.6050     1.0660 H     1 <1>   0.0800 
 36 H       -1.5880    -7.3630     0.2660 H     1 <1>   0.0800 
 37 H       -1.5030    -6.3120    -1.1190 H     1 <1>   0.0800 
 38 H        0.8710    -5.3810    -1.8140 H     1 <1>   0.0800 
 39 H        2.2420    -5.8540    -0.8530 H     1 <1>   0.0800 
 40 H        0.5340    -7.6560    -0.9940 H     1 <1>   0.0800 
 41 H        0.8120    -7.1430     0.6450 H     1 <1>   0.0800 
@<TRIPOS>BOND
  1   1   2  2   
  2   2   3  1   
  3   2   4  1   
  4   3   5  1   
  5   4   6  1   
  6   4   7  1   
  7   4  17  1   
  8   5   8  1   
  9   5   9  1   
 10   5  10  1   
 11   6  18  1   
 12   6  19  1   
 13   7  11  1   
 14   7  20  1   
 15   7  21  1   
 16   8  22  1   
 17   8  23  1   
 18   8  24  1   
 19   9  25  1   
 20   9  26  1   
 21   9  27  1   
 22  10  28  1   
 23  10  29  1   
 24  10  30  1   
 25  11  12  1   
 26  11  13  1   
 27  11  31  1   
 28  12  14  1   
 29  12  32  1   
 30  12  33  1   
 31  13  15  1   
 32  13  34  1   
 33  13  35  1   
 34  14  16  1   
 35  14  36  1   
 36  14  37  1   
 37  15  16  1   
 38  15  38  1   
 39  15  39  1   
 40  16  40  1   
 41  16  41  1   
@<TRIPOS>SUBSTRUCTURE
  1 ****   4 GROUP 4 **** **** 0

# MOE 2024.06 (io_trps.svl 2023.06)
