@<TRIPOS>MOLECULE
NONAME
54 56 1 0 0 
SMALL
USER_CHARGES


@<TRIPOS>ATOM
  1 O       -0.0240    -2.6620     2.3800 O.2   1 <1>  -0.5700 
  2 C        0.3070    -2.0300     1.3990 C.2   1 <1>   0.6900 
  3 N        0.9760    -2.6110     0.3590 N.am  1 <1>  -0.6600 
  4 N       -0.0300    -0.7370     1.3500 N.am  1 <1>  -0.8000 
  5 C        1.2590    -4.0900     0.3490 C.3   1 <1>   0.2010 
  6 C        1.4830    -1.8740    -0.8330 C.3   1 <1>   0.0600 
  7 C        0.6730    -4.8210    -0.8640 C.2   1 <1>   0.5690 
  8 O        1.4410    -5.0930    -1.7600 O.2   1 <1>  -0.5700 
  9 N       -0.6610    -5.1530    -0.9370 N.am  1 <1>  -0.6600 
 10 C       -1.2260    -5.8680    -2.1160 C.3   1 <1>   0.1400 
 11 C       -1.6830    -4.8190     0.0950 C.3   1 <1>   0.1400 
 12 C       -1.8860    -7.1680    -1.6510 C.3   1 <1>  -0.1600 
 13 C       -2.3400    -6.1090     0.5860 C.3   1 <1>  -0.1600 
 14 C       -2.9510    -6.9180    -0.5720 C.3   1 <1>   0.4240 
 15 O       -3.9300    -6.1210    -1.1960 O.3   1 <1>  -0.5600 
 16 C       -3.5380    -8.2560    -0.0720 C.ar  1 <1>  -0.1440 
 17 C       -5.2030    -6.1030    -0.6290 C.3   1 <1>   0.1200 
 18 C       -4.8960    -8.5280    -0.1640 C.ar  1 <1>  -0.1440 
 19 C       -2.7120    -9.2200     0.4930 C.ar  1 <1>  -0.1500 
 20 C       -5.8230    -7.4900    -0.7660 C.3   1 <1>  -0.0170 
 21 C       -5.4070    -9.7330     0.2900 C.ar  1 <1>  -0.1500 
 22 C       -3.2030   -10.4320     0.9470 C.ar  1 <1>   0.0830 
 23 C       -4.5790   -10.6980     0.8570 C.ar  1 <1>   0.0830 
 24 O       -2.2600   -11.2730     1.4590 O.3   1 <1>  -0.3630 
 25 O       -5.0820   -11.8730     1.3380 O.3   1 <1>  -0.3620 
 26 C       -2.3910   -12.6730     1.3500 C.3   1 <1>   0.0400 
 27 C       -6.4680   -12.1210     1.4220 C.3   1 <1>   0.0400 
 28 H       -0.5860    -0.3540     2.1110 H     1 <1>   0.3700 
 29 H        0.0490    -0.1940     0.4970 H     1 <1>   0.3700 
 30 H        0.8920    -4.5570     1.2440 H     1 <1>   0.0800 
 31 H        2.3250    -4.2300     0.3400 H     1 <1>   0.0800 
 32 H        1.6860    -0.8460    -0.5900 H     1 <1>   0.0800 
 33 H        0.7530    -1.9190    -1.6230 H     1 <1>   0.0800 
 34 H        2.3970    -2.3240    -1.1820 H     1 <1>   0.0800 
 35 H       -0.4550    -6.0920    -2.8330 H     1 <1>   0.0800 
 36 H       -1.9530    -5.2350    -2.5960 H     1 <1>   0.0800 
 37 H       -2.4240    -4.1720    -0.3430 H     1 <1>   0.0800 
 38 H       -1.2490    -4.3030     0.9290 H     1 <1>   0.0800 
 39 H       -1.1170    -7.8140    -1.2740 H     1 <1>   0.0800 
 40 H       -2.3430    -7.6640    -2.4870 H     1 <1>   0.0800 
 41 H       -3.0930    -5.8830     1.3170 H     1 <1>   0.0800 
 42 H       -1.5920    -6.6990     1.0820 H     1 <1>   0.0800 
 43 H       -5.7900    -5.3740    -1.1590 H     1 <1>   0.0800 
 44 H       -5.1280    -5.8110     0.4040 H     1 <1>   0.0800 
 45 H       -1.6570    -9.0450     0.5900 H     1 <1>   0.1500 
 46 H       -5.9840    -7.7080    -1.8070 H     1 <1>   0.0800 
 47 H       -6.7740    -7.5030    -0.2650 H     1 <1>   0.0800 
 48 H       -6.4620    -9.9020     0.1940 H     1 <1>   0.1500 
 49 H       -1.4180   -13.1110     1.4770 H     1 <1>   0.0800 
 50 H       -2.7820   -12.9150     0.3770 H     1 <1>   0.0800 
 51 H       -3.0500   -13.0210     2.1250 H     1 <1>   0.0800 
 52 H       -6.6080   -13.0770     1.8930 H     1 <1>   0.0800 
 53 H       -6.8800   -12.1400     0.4290 H     1 <1>   0.0800 
 54 H       -6.9250   -11.3500     2.0170 H     1 <1>   0.0800 
@<TRIPOS>BOND
  1   1   2  2   
  2   2   3  am  
  3   2   4  am  
  4   3   5  1   
  5   3   6  1   
  6   4  28  1   
  7   4  29  1   
  8   5   7  1   
  9   5  30  1   
 10   5  31  1   
 11   6  32  1   
 12   6  33  1   
 13   6  34  1   
 14   7   8  2   
 15   7   9  am  
 16   9  10  1   
 17   9  11  1   
 18  10  12  1   
 19  10  35  1   
 20  10  36  1   
 21  11  13  1   
 22  11  37  1   
 23  11  38  1   
 24  12  14  1   
 25  12  39  1   
 26  12  40  1   
 27  13  14  1   
 28  13  41  1   
 29  13  42  1   
 30  14  15  1   
 31  14  16  1   
 32  15  17  1   
 33  16  18  ar  
 34  16  19  ar  
 35  17  20  1   
 36  17  43  1   
 37  17  44  1   
 38  18  20  1   
 39  18  21  ar  
 40  19  22  ar  
 41  19  45  1   
 42  20  46  1   
 43  20  47  1   
 44  21  23  ar  
 45  21  48  1   
 46  22  23  ar  
 47  22  24  1   
 48  23  25  1   
 49  24  26  1   
 50  25  27  1   
 51  26  49  1   
 52  26  50  1   
 53  26  51  1   
 54  27  52  1   
 55  27  53  1   
 56  27  54  1   
@<TRIPOS>SUBSTRUCTURE
  1 ****  13 GROUP 4 **** **** 0

# MOE 2024.06 (io_trps.svl 2023.06)
