@<TRIPOS>MOLECULE
NONAME
45 47 1 0 0 
SMALL
USER_CHARGES


@<TRIPOS>ATOM
  1 S       -0.1150    -0.0880    -0.8540 S.o2  1 <1>   1.4470 
  2 O        0.0310    -0.0410    -2.2910 O.2   1 <1>  -0.6500 
  3 O       -0.9990     0.8330    -0.1790 O.2   1 <1>  -0.6500 
  4 N        1.3900     0.2520    -0.1920 N.am  1 <1>  -0.9140 
  5 C       -0.4330    -1.7900    -0.3180 C.ar  1 <1>  -0.0090 
  6 C        2.0800     1.3540    -0.8580 C.3   1 <1>   0.1160 
  7 C       -1.5880    -2.1240     0.3790 C.ar  1 <1>  -0.1500 
  8 C        0.4710    -2.8060    -0.6000 C.ar  1 <1>  -0.1500 
  9 C       -1.8320    -3.4260     0.7800 C.ar  1 <1>  -0.1500 
 10 C        0.2340    -4.1110    -0.2020 C.ar  1 <1>  -0.1500 
 11 C       -0.9220    -4.4270     0.4900 C.ar  1 <1>  -0.1430 
 12 C       -1.1990    -5.8580     0.9190 C.3   1 <1>  -0.0170 
 13 C       -2.0450    -6.5720    -0.1400 C.3   1 <1>  -0.0990 
 14 C       -2.3450    -7.9930     0.2760 C.2   1 <1>   0.5690 
 15 O       -3.1390    -8.1780     1.1660 O.2   1 <1>  -0.5700 
 16 N       -1.7080    -9.0080    -0.3560 N.am  1 <1>  -0.6550 
 17 C       -1.8790   -10.4340    -0.0160 C.3   1 <1>   0.2250 
 18 C       -3.2760   -10.9960    -0.4150 C.3   1 <1>   0.0000 
 19 C       -1.2600   -11.3950    -1.0620 C.3   1 <1>   0.0000 
 20 C       -2.5450   -12.2500    -0.9230 C.3   1 <1>   0.2580 
 21 C       -4.1180   -11.5120     0.7420 C.3   1 <1>  -0.1600 
 22 O       -2.5100   -13.1290     0.1560 O.3   1 <1>  -0.5380 
 23 C       -3.6430   -12.9520     0.9490 C.3   1 <1>   0.1200 
 24 H        1.1630     0.5580     0.7540 H     1 <1>   0.4200 
 25 H        2.3140     1.0820    -1.8740 H     1 <1>   0.0800 
 26 H        2.9980     1.5750    -0.3420 H     1 <1>   0.0800 
 27 H        1.4590     2.2350    -0.8670 H     1 <1>   0.0800 
 28 H       -2.3080    -1.3570     0.6110 H     1 <1>   0.1500 
 29 H        1.3730    -2.5700    -1.1390 H     1 <1>   0.1500 
 30 H       -2.7370    -3.6560     1.3170 H     1 <1>   0.1500 
 31 H        0.9550    -4.8750    -0.4360 H     1 <1>   0.1500 
 32 H       -0.2720    -6.3850     1.0630 H     1 <1>   0.0800 
 33 H       -1.7230    -5.8580     1.8610 H     1 <1>   0.0800 
 34 H       -1.5330    -6.5630    -1.0840 H     1 <1>   0.0800 
 35 H       -2.9780    -6.0520    -0.2630 H     1 <1>   0.0800 
 36 H       -1.0310    -8.8160    -1.0940 H     1 <1>   0.3700 
 37 H       -1.5850   -10.6620     0.9940 H     1 <1>   0.0000 
 38 H       -3.7840   -10.4490    -1.1910 H     1 <1>   0.0000 
 39 H       -0.3700   -11.9020    -0.7320 H     1 <1>   0.0000 
 40 H       -1.1740   -10.9560    -2.0410 H     1 <1>   0.0000 
 41 H       -2.9460   -12.7080    -1.8100 H     1 <1>   0.0000 
 42 H       -5.1630   -11.5010     0.4910 H     1 <1>   0.0800 
 43 H       -3.9680   -10.9170     1.6260 H     1 <1>   0.0800 
 44 H       -4.3890   -13.6560     0.6200 H     1 <1>   0.0800 
 45 H       -3.3800   -13.1490     1.9740 H     1 <1>   0.0800 
@<TRIPOS>BOND
  1   1   2  2   
  2   1   3  2   
  3   1   4  am  
  4   1   5  1   
  5   4   6  1   
  6   4  24  1   
  7   5   7  ar  
  8   5   8  ar  
  9   6  25  1   
 10   6  26  1   
 11   6  27  1   
 12   7   9  ar  
 13   7  28  1   
 14   8  10  ar  
 15   8  29  1   
 16   9  11  ar  
 17   9  30  1   
 18  10  11  ar  
 19  10  31  1   
 20  11  12  1   
 21  12  13  1   
 22  12  32  1   
 23  12  33  1   
 24  13  14  1   
 25  13  34  1   
 26  13  35  1   
 27  14  15  2   
 28  14  16  am  
 29  16  17  1   
 30  16  36  1   
 31  17  18  1   
 32  17  19  1   
 33  17  37  1   
 34  18  20  1   
 35  18  21  1   
 36  18  38  1   
 37  19  20  1   
 38  19  39  1   
 39  19  40  1   
 40  20  22  1   
 41  20  41  1   
 42  21  23  1   
 43  21  42  1   
 44  21  43  1   
 45  22  23  1   
 46  23  44  1   
 47  23  45  1   
@<TRIPOS>SUBSTRUCTURE
  1 ****  13 GROUP 4 **** **** 0

# MOE 2024.06 (io_trps.svl 2023.06)
