@<TRIPOS>MOLECULE
NONAME
42 45 1 0 0 
SMALL
USER_CHARGES


@<TRIPOS>ATOM
  1 S        0.3410     0.8560    -1.7970 S.3   1 <1>  -0.0800 
  2 C       -0.8550     1.3590    -0.6130 C.2   1 <1>  -0.1400 
  3 C       -0.7490    -0.3740    -2.4230 C.2   1 <1>  -0.1100 
  4 C       -1.9750     0.6330    -0.7330 C.2   1 <1>  -0.1810 
  5 C       -0.6040     2.4780     0.3920 C.3   1 <1>   0.4600 
  6 C       -1.9210    -0.3630    -1.7590 C.2   1 <1>  -0.1500 
  7 C       -3.1460     0.9120     0.1810 C.3   1 <1>   0.0210 
  8 O       -1.6960     2.5270     1.2930 O.3   1 <1>  -0.5600 
  9 C        0.6400     2.1870     1.2380 C.3   1 <1>  -0.1600 
 10 C       -0.4690     3.8390    -0.3050 C.3   1 <1>  -0.1600 
 11 C       -2.9910     2.3240     0.7790 C.3   1 <1>   0.1200 
 12 C        0.9320     3.3190     2.2240 C.3   1 <1>   0.1400 
 13 C       -0.1680     4.9560     0.6950 C.3   1 <1>   0.1400 
 14 N        1.0480     4.6020     1.4760 N.am  1 <1>  -0.6600 
 15 C        2.1920     5.3770     1.5220 C.2   1 <1>   0.5440 
 16 O        3.0780     5.0790     2.3030 O.2   1 <1>  -0.5700 
 17 C        2.3540     6.5710     0.7200 C.ar  1 <1>   0.0860 
 18 C        2.5320     6.5400    -0.6730 C.ar  1 <1>   0.0820 
 19 C        2.3500     7.8190     1.3420 C.ar  1 <1>  -0.1500 
 20 O        2.5620     5.3680    -1.3270 O.3   1 <1>  -0.5320 
 21 C        2.6880     7.7050    -1.4150 C.ar  1 <1>  -0.1500 
 22 C        2.5040     8.9630     0.5900 C.ar  1 <1>   0.1900 
 23 C        2.6730     8.9340    -0.7820 C.ar  1 <1>  -0.1500 
 24 F        2.4910    10.1220     1.1930 F     1 <1>  -0.1900 
 25 H       -0.3910    -0.9840    -3.2330 H     1 <1>   0.1500 
 26 H       -2.7540    -1.0160    -1.9480 H     1 <1>   0.1500 
 27 H       -3.1750     0.1820     0.9690 H     1 <1>   0.0800 
 28 H       -4.0670     0.8580    -0.3700 H     1 <1>   0.0800 
 29 H        1.4950     2.0700     0.5980 H     1 <1>   0.0800 
 30 H        0.5000     1.2640     1.7690 H     1 <1>   0.0800 
 31 H       -1.3620     4.0640    -0.8560 H     1 <1>   0.0800 
 32 H        0.3370     3.7890    -1.0130 H     1 <1>   0.0800 
 33 H       -3.6890     2.4630     1.5860 H     1 <1>   0.0800 
 34 H       -3.1810     3.0710     0.0280 H     1 <1>   0.0800 
 35 H        1.8410     3.1030     2.7590 H     1 <1>   0.0800 
 36 H        0.1340     3.4010     2.9420 H     1 <1>   0.0800 
 37 H       -0.9950     5.0710     1.3750 H     1 <1>   0.0800 
 38 H       -0.0360     5.8850     0.1720 H     1 <1>   0.0800 
 39 H        2.2310     7.8840     2.4090 H     1 <1>   0.1500 
 40 H        2.7900     5.4370    -2.2720 H     1 <1>   0.4500 
 41 H        2.8220     7.6600    -2.4810 H     1 <1>   0.1500 
 42 H        2.7910     9.8520    -1.3300 H     1 <1>   0.1500 
@<TRIPOS>BOND
  1   1   2  1   
  2   1   3  1   
  3   2   4  2   
  4   2   5  1   
  5   3   6  2   
  6   3  25  1   
  7   4   6  1   
  8   4   7  1   
  9   5   8  1   
 10   5   9  1   
 11   5  10  1   
 12   6  26  1   
 13   7  11  1   
 14   7  27  1   
 15   7  28  1   
 16   8  11  1   
 17   9  12  1   
 18   9  29  1   
 19   9  30  1   
 20  10  13  1   
 21  10  31  1   
 22  10  32  1   
 23  11  33  1   
 24  11  34  1   
 25  12  14  1   
 26  12  35  1   
 27  12  36  1   
 28  13  14  1   
 29  13  37  1   
 30  13  38  1   
 31  14  15  am  
 32  15  16  2   
 33  15  17  1   
 34  17  18  ar  
 35  17  19  ar  
 36  18  20  1   
 37  18  21  ar  
 38  19  22  ar  
 39  19  39  1   
 40  20  40  1   
 41  21  23  ar  
 42  21  41  1   
 43  22  23  ar  
 44  22  24  1   
 45  23  42  1   
@<TRIPOS>SUBSTRUCTURE
  1 ****  13 GROUP 4 **** **** 0

# MOE 2024.06 (io_trps.svl 2023.06)
