@<TRIPOS>MOLECULE
NONAME
51 54 1 0 0 
SMALL
USER_CHARGES


@<TRIPOS>ATOM
  1 O       -2.5460     1.0160    -2.1580 O.2   1 <1>  -0.5700 
  2 C       -2.0950     0.9710    -1.0410 C.2   1 <1>   0.5690 
  3 N       -1.8090    -0.2010    -0.4290 N.am  1 <1>  -0.7300 
  4 C       -1.8450     2.2610    -0.3030 C.3   1 <1>  -0.0990 
  5 C       -1.9750    -1.5420    -1.0360 C.3   1 <1>   0.2200 
  6 C       -0.9140     3.1610    -1.1200 C.3   1 <1>   0.0960 
  7 C       -3.1750    -2.2710    -0.4450 C.3   1 <1>  -0.0800 
  8 C       -0.8430    -2.4350    -0.5510 C.3   1 <1>   0.1200 
  9 N       -0.6290     4.3990    -0.3690 N.pl3 1 <1>   0.0480 
 10 C       -2.6030    -2.9080     0.8290 C.3   1 <1>   0.1200 
 11 C       -4.4370    -1.4180    -0.2170 C.3   1 <1>  -0.0170 
 12 O       -1.2110    -2.7990     0.7430 O.3   1 <1>  -0.5600 
 13 C        0.3000     4.5340     0.6140 C.ar  1 <1>  -0.1520 
 14 C       -1.2800     5.5950    -0.4210 C.2   1 <1>   0.0060 
 15 C       -5.5890    -2.2760     0.2800 C.ar  1 <1>  -0.1440 
 16 C        0.1450     5.8200     1.0940 C.ar  1 <1>   0.2270 
 17 C        1.2670     3.6770     1.1510 C.ar  1 <1>  -0.1500 
 18 N       -0.8520     6.4620     0.4260 N.2   1 <1>  -0.5650 
 19 C       -2.4120     5.8830    -1.3870 C.3   1 <1>  -0.0600 
 20 C       -5.9250    -2.3520     1.6170 C.ar  1 <1>  -0.1500 
 21 C       -6.3600    -3.0260    -0.5850 C.ar  1 <1>  -0.1500 
 22 C        0.9560     6.2830     2.1280 C.ar  1 <1>  -0.1500 
 23 C        2.0640     4.1410     2.1730 C.ar  1 <1>  -0.1500 
 24 C       -6.9810    -3.1560     2.0130 C.ar  1 <1>   0.1600 
 25 C       -7.3950    -3.7980    -0.0850 C.ar  1 <1>   0.1600 
 26 C        1.9100     5.4440     2.6630 C.ar  1 <1>  -0.1500 
 27 N       -7.7230    -3.8840     1.1940 N.ar  1 <1>  -0.6200 
 28 H       -1.4570    -0.2320     0.5320 H     1 <1>   0.3700 
 29 H       -2.7880     2.7540    -0.1530 H     1 <1>   0.0800 
 30 H       -1.4050     2.0530     0.6550 H     1 <1>   0.0800 
 31 H       -2.0150    -1.4740    -2.1110 H     1 <1>   0.0800 
 32 H       -1.3690     3.4120    -2.0610 H     1 <1>   0.0800 
 33 H        0.0140     2.6560    -1.3180 H     1 <1>   0.0800 
 34 H       -3.4320    -3.0730    -1.1140 H     1 <1>   0.0800 
 35 H        0.1090    -1.9350    -0.5330 H     1 <1>   0.0800 
 36 H       -0.7780    -3.3320    -1.1430 H     1 <1>   0.0800 
 37 H       -2.8690    -3.9480     0.9060 H     1 <1>   0.0800 
 38 H       -2.9170    -2.3860     1.7160 H     1 <1>   0.0800 
 39 H       -4.7190    -0.9450    -1.1430 H     1 <1>   0.0800 
 40 H       -4.2420    -0.6380     0.4970 H     1 <1>   0.0800 
 41 H        1.3830     2.6790     0.7700 H     1 <1>   0.1500 
 42 H       -2.7800     6.8810    -1.2270 H     1 <1>   0.0800 
 43 H       -3.2190     5.1910    -1.2330 H     1 <1>   0.0800 
 44 H       -2.0620     5.8070    -2.4000 H     1 <1>   0.0800 
 45 H       -5.3790    -1.7950     2.3560 H     1 <1>   0.1500 
 46 H       -6.1660    -3.0170    -1.6420 H     1 <1>   0.1500 
 47 H        0.8140     7.2860     2.4810 H     1 <1>   0.1500 
 48 H        2.8170     3.5060     2.6070 H     1 <1>   0.1500 
 49 H       -7.2290    -3.2040     3.0600 H     1 <1>   0.1500 
 50 H       -7.9860    -4.3770    -0.7750 H     1 <1>   0.1500 
 51 H        2.5450     5.7860     3.4620 H     1 <1>   0.1500 
@<TRIPOS>BOND
  1   1   2  2   
  2   2   3  am  
  3   2   4  1   
  4   3   5  1   
  5   3  28  1   
  6   4   6  1   
  7   4  29  1   
  8   4  30  1   
  9   5   7  1   
 10   5   8  1   
 11   5  31  1   
 12   6   9  1   
 13   6  32  1   
 14   6  33  1   
 15   7  10  1   
 16   7  11  1   
 17   7  34  1   
 18   8  12  1   
 19   8  35  1   
 20   8  36  1   
 21   9  13  1   
 22   9  14  1   
 23  10  12  1   
 24  10  37  1   
 25  10  38  1   
 26  11  15  1   
 27  11  39  1   
 28  11  40  1   
 29  13  16  ar  
 30  13  17  ar  
 31  14  18  2   
 32  14  19  1   
 33  15  20  ar  
 34  15  21  ar  
 35  16  18  1   
 36  16  22  ar  
 37  17  23  ar  
 38  17  41  1   
 39  19  42  1   
 40  19  43  1   
 41  19  44  1   
 42  20  24  ar  
 43  20  45  1   
 44  21  25  ar  
 45  21  46  1   
 46  22  26  ar  
 47  22  47  1   
 48  23  26  ar  
 49  23  48  1   
 50  24  27  ar  
 51  24  49  1   
 52  25  27  ar  
 53  25  50  1   
 54  26  51  1   
@<TRIPOS>SUBSTRUCTURE
  1 ****   2 GROUP 4 **** **** 0

# MOE 2024.06 (io_trps.svl 2023.06)
