@<TRIPOS>MOLECULE
NONAME
49 52 1 0 0 
SMALL
USER_CHARGES


@<TRIPOS>ATOM
  1 O       -1.0340    -0.3750     0.4230 O.3   1 <1>  -0.2800 
  2 C       -1.1190     0.8630     0.8450 C.2   1 <1>   0.4250 
  3 C       -1.6140    -0.9970     1.4080 C.2   1 <1>   0.2980 
  4 N       -1.6840     0.9720     1.9980 N.2   1 <1>  -0.3380 
  5 C       -0.6030     1.9360     0.0270 C.ar  1 <1>   0.0530 
  6 N       -2.0080    -0.2470     2.3610 N.2   1 <1>  -0.3380 
  7 C       -1.7770    -2.5130     1.3410 C.3   1 <1>   0.2900 
  8 C       -0.0930     1.6980    -1.2510 C.ar  1 <1>   0.1600 
  9 C       -0.5920     3.2550     0.4670 C.ar  1 <1>  -0.1500 
 10 N       -2.5310    -2.9670     0.1450 N.3   1 <1>  -0.8100 
 11 N        0.3980     2.6090    -2.0760 N.ar  1 <1>  -0.6200 
 12 C       -0.0860     4.2200    -0.3750 C.ar  1 <1>  -0.1500 
 13 C       -2.4060    -4.4310    -0.0260 C.3   1 <1>   0.1100 
 14 C       -3.9320    -2.5080     0.1810 C.3   1 <1>   0.1100 
 15 C        0.3910     3.8510    -1.6200 C.ar  1 <1>   0.1600 
 16 C       -3.0190    -4.9700    -1.3300 C.3   1 <1>   0.2090 
 17 C       -4.4840    -2.4090    -1.2430 C.3   1 <1>  -0.1600 
 18 N       -4.5170    -4.9450    -1.2760 N.pl3 1 <1>  -0.8380 
 19 C       -5.1360    -3.6860    -1.7900 C.3   1 <1>   0.2090 
 20 C       -5.2600    -5.9850    -0.8140 C.ar  1 <1>   0.1000 
 21 C       -6.3380    -5.7830     0.0580 C.ar  1 <1>  -0.1500 
 22 C       -4.9920    -7.3080    -1.1870 C.ar  1 <1>  -0.1500 
 23 C       -7.0920    -6.8330     0.5180 C.ar  1 <1>   0.2180 
 24 C       -5.7580    -8.3410    -0.7150 C.ar  1 <1>   0.2110 
 25 N       -6.7930    -8.0970     0.1270 N.ar  1 <1>  -0.1790 
 26 C       -8.2620    -6.6270     1.4650 C.3   1 <1>  -0.0970 
 27 H       -2.2730    -2.8540     2.2330 H     1 <1>   0.0800 
 28 H       -0.7910    -2.9410     1.3220 H     1 <1>   0.0800 
 29 H       -0.0920     0.6850    -1.6160 H     1 <1>   0.1500 
 30 H       -0.9710     3.5140     1.4420 H     1 <1>   0.1500 
 31 H       -0.0590     5.2510    -0.0720 H     1 <1>   0.1500 
 32 H       -2.8550    -4.9400     0.8100 H     1 <1>   0.0800 
 33 H       -1.3590    -4.6790    -0.0400 H     1 <1>   0.0800 
 34 H       -3.9790    -1.5210     0.6100 H     1 <1>   0.0800 
 35 H       -4.5350    -3.1600     0.7910 H     1 <1>   0.0800 
 36 H        0.7860     4.6110    -2.2720 H     1 <1>   0.1500 
 37 H       -2.6780    -5.9790    -1.4670 H     1 <1>   0.0800 
 38 H       -2.6620    -4.3930    -2.1650 H     1 <1>   0.0800 
 39 H       -3.6990    -2.0900    -1.9050 H     1 <1>   0.0800 
 40 H       -5.2310    -1.6360    -1.2640 H     1 <1>   0.0800 
 41 H       -5.0670    -3.6790    -2.8640 H     1 <1>   0.0800 
 42 H       -6.1830    -3.6750    -1.5430 H     1 <1>   0.0800 
 43 H       -6.5540    -4.7780     0.3700 H     1 <1>   0.1500 
 44 H       -4.1830    -7.5010    -1.8670 H     1 <1>   0.1500 
 45 H       -5.5540    -9.3590    -1.0060 H     1 <1>   0.1500 
 46 H       -7.3620    -8.8760     0.4720 H     1 <1>   0.4570 
 47 H       -8.3830    -5.5830     1.6950 H     1 <1>   0.0800 
 48 H       -8.0980    -7.1550     2.3870 H     1 <1>   0.0800 
 49 H       -9.1750    -6.9770     1.0160 H     1 <1>   0.0800 
@<TRIPOS>BOND
  1   1   2  1   
  2   1   3  1   
  3   2   4  2   
  4   2   5  1   
  5   3   6  2   
  6   3   7  1   
  7   4   6  1   
  8   5   8  ar  
  9   5   9  ar  
 10   7  10  1   
 11   7  27  1   
 12   7  28  1   
 13   8  11  ar  
 14   8  29  1   
 15   9  12  ar  
 16   9  30  1   
 17  10  13  1   
 18  10  14  1   
 19  11  15  ar  
 20  12  15  ar  
 21  12  31  1   
 22  13  16  1   
 23  13  32  1   
 24  13  33  1   
 25  14  17  1   
 26  14  34  1   
 27  14  35  1   
 28  15  36  1   
 29  16  18  1   
 30  16  37  1   
 31  16  38  1   
 32  17  19  1   
 33  17  39  1   
 34  17  40  1   
 35  18  19  1   
 36  18  20  1   
 37  19  41  1   
 38  19  42  1   
 39  20  21  ar  
 40  20  22  ar  
 41  21  23  ar  
 42  21  43  1   
 43  22  24  ar  
 44  22  44  1   
 45  23  25  ar  
 46  23  26  1   
 47  24  25  ar  
 48  24  45  1   
 49  25  46  1   
 50  26  47  1   
 51  26  48  1   
 52  26  49  1   
@<TRIPOS>SUBSTRUCTURE
  1 ****  10 GROUP 4 **** **** 0

# MOE 2024.06 (io_trps.svl 2023.06)
