@<TRIPOS>MOLECULE
NONAME
49 50 1 0 0 
SMALL
USER_CHARGES


@<TRIPOS>ATOM
  1 S        0.6970     0.9680    -0.3940 S.o2  1 <1>   1.3330 
  2 O       -0.3470     1.9310    -0.6630 O.2   1 <1>  -0.6500 
  3 O        0.4920    -0.4210    -0.7380 O.2   1 <1>  -0.6500 
  4 N        1.0210     1.0430     1.2720 N.am  1 <1>  -0.8490 
  5 C        2.2270     1.5150    -1.1550 C.3   1 <1>  -0.0550 
  6 C        0.0940     0.2120     2.0440 C.3   1 <1>   0.1160 
  7 C        1.0160     2.4130     1.8040 C.3   1 <1>   0.1160 
  8 C        3.3770     0.4830    -1.0970 C.3   1 <1>  -0.0800 
  9 C        4.6830     0.9320    -1.7390 C.3   1 <1>   0.2200 
 10 C        3.8230     0.0790     0.3140 C.3   1 <1>   0.1200 
 11 N        5.0150     2.3090    -1.3200 N.am  1 <1>  -0.7300 
 12 C        5.6590    -0.0190    -1.0610 C.3   1 <1>   0.1200 
 13 O        5.2050    -0.1300     0.2570 O.3   1 <1>  -0.5600 
 14 C        4.6760     3.4580    -1.9670 C.2   1 <1>   0.5440 
 15 O        4.2590     3.3640    -3.1060 O.2   1 <1>  -0.5700 
 16 C        4.7940     4.7500    -1.3130 C.ar  1 <1>   0.0860 
 17 C        4.6110     4.9410     0.0670 C.ar  1 <1>   0.0820 
 18 C        5.1070     5.8680    -2.0890 C.ar  1 <1>  -0.1500 
 19 O        4.2910     3.8580     0.8320 O.3   1 <1>  -0.3630 
 20 C        4.7270     6.2210     0.6330 C.ar  1 <1>   0.0820 
 21 C        5.2420     7.1230    -1.5350 C.ar  1 <1>  -0.1500 
 22 C        5.0420     3.5670     1.9940 C.3   1 <1>   0.0400 
 23 O        4.4950     6.3790     1.9690 O.3   1 <1>  -0.3630 
 24 C        5.0540     7.3020    -0.1780 C.ar  1 <1>  -0.1500 
 25 C        4.5010     7.6470     2.5890 C.3   1 <1>   0.0400 
 26 H        2.0340     1.7330    -2.1880 H     1 <1>   0.0800 
 27 H        2.5290     2.4310    -0.6930 H     1 <1>   0.0800 
 28 H        0.3320     0.2610     3.0920 H     1 <1>   0.0800 
 29 H        0.1720    -0.8160     1.7290 H     1 <1>   0.0800 
 30 H       -0.9200     0.5430     1.8930 H     1 <1>   0.0800 
 31 H        1.2910     2.4070     2.8440 H     1 <1>   0.0800 
 32 H        0.0370     2.8540     1.7030 H     1 <1>   0.0800 
 33 H        1.7250     3.0260     1.2740 H     1 <1>   0.0800 
 34 H        3.0490    -0.4110    -1.5980 H     1 <1>   0.0800 
 35 H        4.6860     0.8430    -2.8130 H     1 <1>   0.0800 
 36 H        3.3400    -0.8250     0.6450 H     1 <1>   0.0800 
 37 H        3.6470     0.8670     1.0260 H     1 <1>   0.0800 
 38 H        5.2170     2.3870    -0.3180 H     1 <1>   0.3700 
 39 H        6.6700     0.3470    -1.0690 H     1 <1>   0.0800 
 40 H        5.6150    -0.9960    -1.5090 H     1 <1>   0.0800 
 41 H        5.2470     5.7400    -3.1490 H     1 <1>   0.1500 
 42 H        5.4900     7.9650    -2.1610 H     1 <1>   0.1500 
 43 H        5.0190     2.5040     2.1570 H     1 <1>   0.0800 
 44 H        4.5960     4.0710     2.8330 H     1 <1>   0.0800 
 45 H        6.0570     3.8960     1.8550 H     1 <1>   0.0800 
 46 H        5.1620     8.2940     0.2180 H     1 <1>   0.1500 
 47 H        4.2570     7.5120     3.6270 H     1 <1>   0.0800 
 48 H        3.7610     8.2700     2.1190 H     1 <1>   0.0800 
 49 H        5.4830     8.0760     2.4990 H     1 <1>   0.0800 
@<TRIPOS>BOND
  1   1   2  2   
  2   1   3  2   
  3   1   4  am  
  4   1   5  1   
  5   4   6  1   
  6   4   7  1   
  7   5   8  1   
  8   5  26  1   
  9   5  27  1   
 10   6  28  1   
 11   6  29  1   
 12   6  30  1   
 13   7  31  1   
 14   7  32  1   
 15   7  33  1   
 16   8   9  1   
 17   8  10  1   
 18   8  34  1   
 19   9  11  1   
 20   9  12  1   
 21   9  35  1   
 22  10  13  1   
 23  10  36  1   
 24  10  37  1   
 25  11  14  am  
 26  11  38  1   
 27  12  13  1   
 28  12  39  1   
 29  12  40  1   
 30  14  15  2   
 31  14  16  1   
 32  16  17  ar  
 33  16  18  ar  
 34  17  19  1   
 35  17  20  ar  
 36  18  21  ar  
 37  18  41  1   
 38  19  22  1   
 39  20  23  1   
 40  20  24  ar  
 41  21  24  ar  
 42  21  42  1   
 43  22  43  1   
 44  22  44  1   
 45  22  45  1   
 46  23  25  1   
 47  24  46  1   
 48  25  47  1   
 49  25  48  1   
 50  25  49  1   
@<TRIPOS>SUBSTRUCTURE
  1 ****  19 GROUP 4 **** **** 0

# MOE 2024.06 (io_trps.svl 2023.06)
