@<TRIPOS>MOLECULE
NONAME
46 47 1 0 0 
SMALL
USER_CHARGES


@<TRIPOS>ATOM
  1 O       -0.6910     1.1740    -2.1880 O.2   1 <1>  -0.5700 
  2 C       -0.2110     0.1760    -1.7050 C.2   1 <1>   0.5690 
  3 N        1.1110    -0.1070    -1.7870 N.am  1 <1>  -0.7300 
  4 C       -1.1040    -0.8020    -0.9350 C.3   1 <1>   0.1710 
  5 C        2.1510     0.8450    -2.1990 C.3   1 <1>   0.2840 
  6 N       -0.3860    -1.6010     0.1060 N.3   1 <1>  -0.8100 
  7 C        2.7910     1.3970    -0.9380 C.ar  1 <1>  -0.1430 
  8 C       -1.2280    -2.7270     0.5610 C.3   1 <1>   0.2900 
  9 C        0.0270    -0.7430     1.2360 C.3   1 <1>   0.0300 
 10 C        3.9930     0.8920    -0.4660 C.ar  1 <1>  -0.1500 
 11 C        2.1550     2.4070    -0.2320 C.ar  1 <1>  -0.1500 
 12 C       -0.4840    -3.6520     1.5080 C.2   1 <1>  -0.0400 
 13 C        4.5490     1.3920     0.6970 C.ar  1 <1>  -0.1500 
 14 C        2.7140     2.9070     0.9300 C.ar  1 <1>  -0.1500 
 15 O       -0.5390    -3.4520     2.7990 O.3   1 <1>  -0.0190 
 16 C        0.2770    -4.7360     1.2920 C.2   1 <1>  -0.1500 
 17 C        3.9190     2.4090     1.4050 C.ar  1 <1>   0.1170 
 18 N        0.1460    -4.3420     3.4570 N.2   1 <1>  -0.4100 
 19 C        0.6500    -5.1280     2.5740 C.2   1 <1>   0.1080 
 20 N        4.4600     2.9210     2.5870 N.am  1 <1>  -0.5470 
 21 C        1.5300    -6.3160     2.8960 C.3   1 <1>  -0.0590 
 22 C        5.6980     3.4100     2.8550 C.2   1 <1>   0.5690 
 23 O        5.9710     3.7710     3.9690 O.2   1 <1>  -0.5700 
 24 C        6.7410     3.5310     1.7690 C.3   1 <1>  -0.1790 
 25 H        1.4230    -0.8840    -1.1960 H     1 <1>   0.3700 
 26 H       -1.5320    -1.4660    -1.6630 H     1 <1>   0.0800 
 27 H       -1.9060    -0.2470    -0.4810 H     1 <1>   0.0800 
 28 H        1.7160     1.6450    -2.7760 H     1 <1>   0.0800 
 29 H        2.8800     0.3410    -2.8090 H     1 <1>   0.0800 
 30 H       -1.5260    -3.3040    -0.2960 H     1 <1>   0.0800 
 31 H       -2.1170    -2.3580     1.0440 H     1 <1>   0.0800 
 32 H        0.6010     0.0980     0.8860 H     1 <1>   0.0800 
 33 H        0.6480    -1.2990     1.9180 H     1 <1>   0.0800 
 34 H       -0.8340    -0.3770     1.7690 H     1 <1>   0.0800 
 35 H        4.4950     0.1020    -0.9970 H     1 <1>   0.1500 
 36 H        1.2170     2.8000    -0.5890 H     1 <1>   0.1500 
 37 H        5.4730     0.9840     1.0640 H     1 <1>   0.1500 
 38 H        2.2130     3.6900     1.4680 H     1 <1>   0.1500 
 39 H        0.5540    -5.2080     0.3680 H     1 <1>   0.1500 
 40 H        3.8300     2.9900     3.3860 H     1 <1>   0.3700 
 41 H        2.4840    -6.2040     2.4160 H     1 <1>   0.0800 
 42 H        1.0620    -7.2200     2.5530 H     1 <1>   0.0800 
 43 H        1.6800    -6.3830     3.9590 H     1 <1>   0.0800 
 44 H        6.2850     3.8280     0.8440 H     1 <1>   0.0800 
 45 H        7.2400     2.5900     1.6410 H     1 <1>   0.0800 
 46 H        7.4670     4.2720     2.0510 H     1 <1>   0.0800 
@<TRIPOS>BOND
  1   1   2  2   
  2   2   3  am  
  3   2   4  1   
  4   3   5  1   
  5   3  25  1   
  6   4   6  1   
  7   4  26  1   
  8   4  27  1   
  9   5   7  1   
 10   5  28  1   
 11   5  29  1   
 12   6   8  1   
 13   6   9  1   
 14   7  10  ar  
 15   7  11  ar  
 16   8  12  1   
 17   8  30  1   
 18   8  31  1   
 19   9  32  1   
 20   9  33  1   
 21   9  34  1   
 22  10  13  ar  
 23  10  35  1   
 24  11  14  ar  
 25  11  36  1   
 26  12  15  1   
 27  12  16  2   
 28  13  17  ar  
 29  13  37  1   
 30  14  17  ar  
 31  14  38  1   
 32  15  18  1   
 33  16  19  1   
 34  16  39  1   
 35  17  20  1   
 36  18  19  2   
 37  19  21  1   
 38  20  22  am  
 39  20  40  1   
 40  21  41  1   
 41  21  42  1   
 42  21  43  1   
 43  22  23  2   
 44  22  24  1   
 45  24  44  1   
 46  24  45  1   
 47  24  46  1   
@<TRIPOS>SUBSTRUCTURE
  1 ****   9 GROUP 4 **** **** 0

# MOE 2024.06 (io_trps.svl 2023.06)
