@<TRIPOS>MOLECULE
NONAME
41 44 1 0 0 
SMALL
USER_CHARGES


@<TRIPOS>ATOM
  1 S        0.1090     1.0230    -2.6150 S.3   1 <1>  -0.0800 
  2 C        0.0790     2.0420    -1.1910 C.2   1 <1>  -0.1400 
  3 C        1.6700     1.6840    -3.0770 C.2   1 <1>  -0.1100 
  4 C        1.1800     2.7970    -1.0930 C.2   1 <1>  -0.1810 
  5 C       -1.0700     2.0480    -0.2200 C.3   1 <1>   0.0200 
  6 C        2.0930     2.5980    -2.1820 C.2   1 <1>  -0.1500 
  7 C        1.3800     3.7540     0.0860 C.3   1 <1>   0.4610 
  8 C       -0.9570     3.3390     0.6070 C.3   1 <1>   0.1200 
  9 O        0.3630     3.5440     1.0520 O.3   1 <1>  -0.5600 
 10 C        2.7030     3.4510     0.8000 C.3   1 <1>  -0.1600 
 11 C        1.3390     5.2190    -0.3760 C.3   1 <1>  -0.1600 
 12 C        2.9820     4.4420     1.9320 C.3   1 <1>   0.1400 
 13 C        1.6250     6.1740     0.7830 C.3   1 <1>   0.1400 
 14 N        2.9440     5.8220     1.3750 N.am  1 <1>  -0.6600 
 15 C        4.0710     6.6310     1.3300 C.2   1 <1>   0.5440 
 16 O        5.0060     6.3350     2.0580 O.2   1 <1>  -0.5700 
 17 C        4.1930     7.8220     0.4800 C.ar  1 <1>   0.3960 
 18 N        3.7100     7.8170    -0.7750 N.ar  1 <1>  -0.6200 
 19 C        4.8340     8.9480     1.0030 C.ar  1 <1>  -0.1500 
 20 C        3.8640     8.9200    -1.4730 C.ar  1 <1>   0.3930 
 21 C        4.9890    10.0970     0.2570 C.ar  1 <1>  -0.1500 
 22 O        3.3690     8.8880    -2.7060 O.3   1 <1>  -0.5320 
 23 C        4.4840    10.0740    -1.0210 C.ar  1 <1>  -0.1500 
 24 H        2.1130     1.3130    -3.9850 H     1 <1>   0.1500 
 25 H       -1.0140     1.1880     0.4220 H     1 <1>   0.0800 
 26 H       -2.0070     2.0320    -0.7450 H     1 <1>   0.0800 
 27 H        3.0160     3.1470    -2.2440 H     1 <1>   0.1500 
 28 H       -1.5910     3.2830     1.4740 H     1 <1>   0.0800 
 29 H       -1.2540     4.1880     0.0170 H     1 <1>   0.0800 
 30 H        3.5150     3.5060     0.0990 H     1 <1>   0.0800 
 31 H        2.6750     2.4490     1.1870 H     1 <1>   0.0800 
 32 H        0.3890     5.4450    -0.8190 H     1 <1>   0.0800 
 33 H        2.0850     5.3740    -1.1340 H     1 <1>   0.0800 
 34 H        3.9410     4.2290     2.3710 H     1 <1>   0.0800 
 35 H        2.2340     4.3490     2.7010 H     1 <1>   0.0800 
 36 H        0.8640     6.0700     1.5380 H     1 <1>   0.0800 
 37 H        1.6080     7.1930     0.4420 H     1 <1>   0.0800 
 38 H        5.2140     8.9070     2.0090 H     1 <1>   0.1500 
 39 H        5.4830    10.9660     0.6590 H     1 <1>   0.1500 
 40 H        3.5250     9.7040    -3.2040 H     1 <1>   0.4500 
 41 H        4.5710    10.9360    -1.6560 H     1 <1>   0.1500 
@<TRIPOS>BOND
  1   1   2  1   
  2   1   3  1   
  3   2   4  2   
  4   2   5  1   
  5   3   6  2   
  6   3  24  1   
  7   4   6  1   
  8   4   7  1   
  9   5   8  1   
 10   5  25  1   
 11   5  26  1   
 12   6  27  1   
 13   7   9  1   
 14   7  10  1   
 15   7  11  1   
 16   8   9  1   
 17   8  28  1   
 18   8  29  1   
 19  10  12  1   
 20  10  30  1   
 21  10  31  1   
 22  11  13  1   
 23  11  32  1   
 24  11  33  1   
 25  12  14  1   
 26  12  34  1   
 27  12  35  1   
 28  13  14  1   
 29  13  36  1   
 30  13  37  1   
 31  14  15  am  
 32  15  16  2   
 33  15  17  1   
 34  17  18  ar  
 35  17  19  ar  
 36  18  20  ar  
 37  19  21  ar  
 38  19  38  1   
 39  20  22  1   
 40  20  23  ar  
 41  21  23  ar  
 42  21  39  1   
 43  22  40  1   
 44  23  41  1   
@<TRIPOS>SUBSTRUCTURE
  1 ****  11 GROUP 4 **** **** 0

# MOE 2024.06 (io_trps.svl 2023.06)
