@<TRIPOS>MOLECULE
NONAME
40 42 1 0 0 
SMALL
USER_CHARGES


@<TRIPOS>ATOM
  1 O        0.5630     0.8820     0.8890 O.3   1 <1>  -0.0190 
  2 N        1.5700     0.0590     0.9470 N.2   1 <1>  -0.4100 
  3 C        0.9050     2.0410     0.3910 C.2   1 <1>  -0.0400 
  4 C        2.5790     0.6990     0.4760 C.2   1 <1>   0.1080 
  5 C        2.2150     1.9870     0.0970 C.2   1 <1>  -0.1500 
  6 C       -0.1540     3.1220     0.2490 C.3   1 <1>   0.0200 
  7 C        3.9720     0.1220     0.3540 C.3   1 <1>  -0.0590 
  8 C        0.4360     4.4810    -0.1670 C.3   1 <1>  -0.0800 
  9 C       -0.5920     5.5610    -0.4920 C.3   1 <1>   0.2000 
 10 C        1.2980     5.1310     0.9130 C.3   1 <1>   0.2090 
 11 O       -1.6380     5.4850     0.4400 O.3   1 <1>  -0.5600 
 12 C        0.1930     6.8710    -0.3170 C.3   1 <1>   0.2090 
 13 N        1.3710     6.5680     0.5490 N.pl3 1 <1>  -0.8380 
 14 C       -2.8190     6.1180     0.0590 C.3   1 <1>   0.0400 
 15 C        2.5900     7.0250     0.1070 C.ar  1 <1>   0.4100 
 16 N        3.0850     6.4740    -0.9950 N.ar  1 <1>  -0.6200 
 17 C        3.2340     8.0250     0.8200 C.ar  1 <1>  -0.1500 
 18 C        4.2540     6.9410    -1.3950 C.ar  1 <1>   0.1600 
 19 C        4.4540     8.5100     0.4020 C.ar  1 <1>   0.0730 
 20 C        4.9660     7.9340    -0.7500 C.ar  1 <1>  -0.1500 
 21 C        5.1530     9.5420     1.1110 C.1   1 <1>   0.4840 
 22 N        5.7180    10.3630     1.6650 N.1   1 <1>  -0.5570 
 23 H        2.8620     2.7310    -0.3300 H     1 <1>   0.1500 
 24 H       -0.8690     2.8020    -0.4870 H     1 <1>   0.0800 
 25 H       -0.6730     3.2210     1.1870 H     1 <1>   0.0800 
 26 H        4.3040     0.1820    -0.6650 H     1 <1>   0.0800 
 27 H        3.9690    -0.9090     0.6600 H     1 <1>   0.0800 
 28 H        4.6490     0.6690     0.9830 H     1 <1>   0.0800 
 29 H        1.0510     4.3450    -1.0390 H     1 <1>   0.0800 
 30 H       -0.9910     5.4480    -1.4850 H     1 <1>   0.0800 
 31 H        2.2780     4.6870     0.9620 H     1 <1>   0.0800 
 32 H        0.8220     5.0420     1.8750 H     1 <1>   0.0800 
 33 H       -0.4140     7.6350     0.1350 H     1 <1>   0.0800 
 34 H        0.5320     7.2150    -1.2790 H     1 <1>   0.0800 
 35 H       -3.5340     5.9940     0.8530 H     1 <1>   0.0800 
 36 H       -3.1950     5.6590    -0.8390 H     1 <1>   0.0800 
 37 H       -2.6340     7.1660    -0.0990 H     1 <1>   0.0800 
 38 H        2.7560     8.4080     1.7030 H     1 <1>   0.1500 
 39 H        4.6670     6.5060    -2.2890 H     1 <1>   0.1500 
 40 H        5.9130     8.2580    -1.1430 H     1 <1>   0.1500 
@<TRIPOS>BOND
  1   1   2  1   
  2   1   3  1   
  3   2   4  2   
  4   3   5  2   
  5   3   6  1   
  6   4   5  1   
  7   4   7  1   
  8   5  23  1   
  9   6   8  1   
 10   6  24  1   
 11   6  25  1   
 12   7  26  1   
 13   7  27  1   
 14   7  28  1   
 15   8   9  1   
 16   8  10  1   
 17   8  29  1   
 18   9  11  1   
 19   9  12  1   
 20   9  30  1   
 21  10  13  1   
 22  10  31  1   
 23  10  32  1   
 24  11  14  1   
 25  12  13  1   
 26  12  33  1   
 27  12  34  1   
 28  13  15  1   
 29  14  35  1   
 30  14  36  1   
 31  14  37  1   
 32  15  16  ar  
 33  15  17  ar  
 34  16  18  ar  
 35  17  19  ar  
 36  17  38  1   
 37  18  20  ar  
 38  18  39  1   
 39  19  20  ar  
 40  19  21  1   
 41  20  40  1   
 42  21  22  3   
@<TRIPOS>SUBSTRUCTURE
  1 ****  10 GROUP 4 **** **** 0

# MOE 2024.06 (io_trps.svl 2023.06)
