@<TRIPOS>MOLECULE
NONAME
41 42 1 0 0 
SMALL
USER_CHARGES


@<TRIPOS>ATOM
  1 S       -0.7000    -0.4200     0.2370 S.3   1 <1>  -0.3320 
  2 C       -0.4870     1.2960    -0.2710 C.ar  1 <1>   0.1020 
  3 C       -1.9590    -1.1640    -0.9080 C.3   1 <1>   0.1310 
  4 C        0.4300     2.0510     0.4350 C.ar  1 <1>  -0.1500 
  5 C       -1.2050     1.8500    -1.3210 C.ar  1 <1>  -0.1500 
  6 C       -2.2110    -2.6240    -0.5500 C.2   1 <1>   0.5690 
  7 C        0.6420     3.3780     0.0970 C.ar  1 <1>   0.0830 
  8 C       -0.9950     3.1760    -1.6590 C.ar  1 <1>  -0.1500 
  9 O       -1.8310    -3.4650    -1.3350 O.2   1 <1>  -0.5700 
 10 N       -2.8900    -2.9820     0.5880 N.am  1 <1>  -0.6600 
 11 O        1.5580     4.0580     0.8320 O.3   1 <1>  -0.3630 
 12 C       -0.0780     3.9390    -0.9560 C.ar  1 <1>  -0.1500 
 13 C       -3.0090    -4.4210     0.9650 C.3   1 <1>   0.3200 
 14 C       -3.6370    -2.0300     1.4640 C.3   1 <1>   0.1400 
 15 C        1.8540     5.4110     0.5670 C.3   1 <1>   0.0400 
 16 C       -4.1680    -5.0650     0.2240 C.2   1 <1>   0.0060 
 17 C       -5.1020    -1.9320     1.0230 C.3   1 <1>   0.1200 
 18 N       -5.2520    -5.5120     0.7750 N.2   1 <1>  -0.5650 
 19 N       -4.1400    -5.2120    -1.1170 N.pl3 1 <1>   0.0330 
 20 O       -5.7300    -0.9290     1.7460 O.3   1 <1>  -0.6800 
 21 C       -5.9690    -5.9780    -0.2670 C.2   1 <1>   0.0770 
 22 C       -5.3070    -5.8020    -1.4310 C.2   1 <1>  -0.3020 
 23 H       -1.5610    -1.0910    -1.9030 H     1 <1>   0.0800 
 24 H       -2.8600    -0.5870    -0.8250 H     1 <1>   0.0800 
 25 H        0.9820     1.6140     1.2450 H     1 <1>   0.1500 
 26 H       -1.9190     1.2770    -1.8790 H     1 <1>   0.1500 
 27 H       -1.5470     3.6170    -2.4720 H     1 <1>   0.1500 
 28 H        0.0630     4.9640    -1.2410 H     1 <1>   0.1500 
 29 H       -3.1650    -4.5160     2.0250 H     1 <1>   0.0800 
 30 H       -2.0980    -4.9390     0.7190 H     1 <1>   0.0800 
 31 H       -3.1890    -1.0530     1.4170 H     1 <1>   0.0800 
 32 H       -3.5870    -2.3660     2.4850 H     1 <1>   0.0800 
 33 H        2.6040     5.7320     1.2680 H     1 <1>   0.0800 
 34 H        0.9610     5.9960     0.6950 H     1 <1>   0.0800 
 35 H        2.2330     5.4960    -0.4360 H     1 <1>   0.0800 
 36 H       -5.6290    -2.8550     1.1920 H     1 <1>   0.0800 
 37 H       -5.1630    -1.6680    -0.0180 H     1 <1>   0.0800 
 38 H       -3.3720    -4.8970    -1.7270 H     1 <1>   0.2700 
 39 H       -5.9560    -1.2410     2.6450 H     1 <1>   0.4000 
 40 H       -6.9400    -6.4230    -0.1220 H     1 <1>   0.1500 
 41 H       -5.5920    -6.0560    -2.4360 H     1 <1>   0.1500 
@<TRIPOS>BOND
  1   1   2  1   
  2   1   3  1   
  3   2   4  ar  
  4   2   5  ar  
  5   3   6  1   
  6   3  23  1   
  7   3  24  1   
  8   4   7  ar  
  9   4  25  1   
 10   5   8  ar  
 11   5  26  1   
 12   6   9  2   
 13   6  10  am  
 14   7  11  1   
 15   7  12  ar  
 16   8  12  ar  
 17   8  27  1   
 18  10  13  1   
 19  10  14  1   
 20  11  15  1   
 21  12  28  1   
 22  13  16  1   
 23  13  29  1   
 24  13  30  1   
 25  14  17  1   
 26  14  31  1   
 27  14  32  1   
 28  15  33  1   
 29  15  34  1   
 30  15  35  1   
 31  16  18  2   
 32  16  19  1   
 33  17  20  1   
 34  17  36  1   
 35  17  37  1   
 36  18  21  1   
 37  19  22  1   
 38  19  38  1   
 39  20  39  1   
 40  21  22  2   
 41  21  40  1   
 42  22  41  1   
@<TRIPOS>SUBSTRUCTURE
  1 ****   3 GROUP 4 **** **** 0

# MOE 2024.06 (io_trps.svl 2023.06)
