@<TRIPOS>MOLECULE
NONAME
48 51 1 0 0 
SMALL
USER_CHARGES


@<TRIPOS>ATOM
  1 O       -1.9050    -0.0130    -2.3820 O.2   1 <1>  -0.5700 
  2 C       -2.1380     0.4200    -1.2790 C.2   1 <1>   0.5690 
  3 N       -2.3590    -0.4080    -0.2280 N.am  1 <1>  -0.7300 
  4 C       -2.2140     1.9290    -1.0680 C.3   1 <1>  -0.0190 
  5 C       -2.3440    -1.8870    -0.2860 C.3   1 <1>   0.2200 
  6 C       -1.2550     2.4780    -0.0080 C.3   1 <1>  -0.1600 
  7 C       -3.5850     2.4300    -0.6070 C.3   1 <1>  -0.1600 
  8 C       -3.7570    -2.4490    -0.2450 C.3   1 <1>  -0.0800 
  9 C       -1.7950    -2.4230     1.0280 C.3   1 <1>   0.1200 
 10 C       -1.8380     3.8350     0.3940 C.3   1 <1>  -0.1600 
 11 C       -3.3190     3.8120    -0.0070 C.3   1 <1>  -0.1600 
 12 C       -4.0790    -2.4550     1.2530 C.3   1 <1>   0.1200 
 13 C       -4.7890    -1.7360    -1.1430 C.3   1 <1>  -0.0170 
 14 O       -2.8580    -2.3410     1.9290 O.3   1 <1>  -0.5600 
 15 C       -6.1460    -2.4340    -1.0840 C.ar  1 <1>  -0.1440 
 16 C       -7.2090    -2.0190    -0.2430 C.ar  1 <1>   0.0000 
 17 C       -6.3600    -3.5230    -1.8760 C.ar  1 <1>  -0.1500 
 18 C       -8.4020    -2.7840    -0.2700 C.ar  1 <1>   0.3100 
 19 C       -7.1690    -0.8970     0.6200 C.ar  1 <1>  -0.1500 
 20 C       -7.5840    -4.2010    -1.8340 C.ar  1 <1>   0.1600 
 21 N       -8.5720    -3.8680    -1.0680 N.ar  1 <1>  -0.6200 
 22 C       -9.4690    -2.4140     0.5640 C.ar  1 <1>  -0.1500 
 23 C       -8.2280    -0.5620     1.4180 C.ar  1 <1>  -0.1500 
 24 C       -9.3940    -1.3300     1.3940 C.ar  1 <1>  -0.1500 
 25 H       -2.5650    -0.0260     0.6970 H     1 <1>   0.3700 
 26 H       -1.9830     2.4080    -2.0040 H     1 <1>   0.0800 
 27 H       -1.7800    -2.2290    -1.1380 H     1 <1>   0.0800 
 28 H       -1.2430     1.8330     0.8530 H     1 <1>   0.0800 
 29 H       -0.2520     2.5680    -0.3900 H     1 <1>   0.0800 
 30 H       -4.2870     2.4730    -1.4220 H     1 <1>   0.0800 
 31 H       -3.9770     1.7840     0.1590 H     1 <1>   0.0800 
 32 H       -3.7060    -3.4770    -0.5590 H     1 <1>   0.0800 
 33 H       -0.9590    -1.8540     1.3960 H     1 <1>   0.0800 
 34 H       -1.5220    -3.4600     0.9340 H     1 <1>   0.0800 
 35 H       -1.7210     4.0040     1.4510 H     1 <1>   0.0800 
 36 H       -1.3340     4.6230    -0.1400 H     1 <1>   0.0800 
 37 H       -3.5000     4.5710    -0.7490 H     1 <1>   0.0800 
 38 H       -3.9600     3.9960     0.8390 H     1 <1>   0.0800 
 39 H       -4.5650    -3.3670     1.5560 H     1 <1>   0.0800 
 40 H       -4.6800    -1.6120     1.5390 H     1 <1>   0.0800 
 41 H       -4.4290    -1.7610    -2.1570 H     1 <1>   0.0800 
 42 H       -4.8820    -0.6980    -0.8860 H     1 <1>   0.0800 
 43 H       -5.6030    -3.8890    -2.5460 H     1 <1>   0.1500 
 44 H       -6.2910    -0.2840     0.6560 H     1 <1>   0.1500 
 45 H       -7.7080    -5.0560    -2.4770 H     1 <1>   0.1500 
 46 H      -10.3570    -3.0180     0.5250 H     1 <1>   0.1500 
 47 H       -8.1810     0.2930     2.0700 H     1 <1>   0.1500 
 48 H      -10.2210    -1.0580     2.0280 H     1 <1>   0.1500 
@<TRIPOS>BOND
  1   1   2  2   
  2   2   3  am  
  3   2   4  1   
  4   3   5  1   
  5   3  25  1   
  6   4   6  1   
  7   4   7  1   
  8   4  26  1   
  9   5   8  1   
 10   5   9  1   
 11   5  27  1   
 12   6  10  1   
 13   6  28  1   
 14   6  29  1   
 15   7  11  1   
 16   7  30  1   
 17   7  31  1   
 18   8  12  1   
 19   8  13  1   
 20   8  32  1   
 21   9  14  1   
 22   9  33  1   
 23   9  34  1   
 24  10  11  1   
 25  10  35  1   
 26  10  36  1   
 27  11  37  1   
 28  11  38  1   
 29  12  14  1   
 30  12  39  1   
 31  12  40  1   
 32  13  15  1   
 33  13  41  1   
 34  13  42  1   
 35  15  16  ar  
 36  15  17  ar  
 37  16  18  ar  
 38  16  19  ar  
 39  17  20  ar  
 40  17  43  1   
 41  18  21  ar  
 42  18  22  ar  
 43  19  23  ar  
 44  19  44  1   
 45  20  21  ar  
 46  20  45  1   
 47  22  24  ar  
 48  22  46  1   
 49  23  24  ar  
 50  23  47  1   
 51  24  48  1   
@<TRIPOS>SUBSTRUCTURE
  1 ****  13 GROUP 4 **** **** 0

# MOE 2024.06 (io_trps.svl 2023.06)
