@<TRIPOS>MOLECULE
NONAME
37 38 1 0 0 
SMALL
USER_CHARGES


@<TRIPOS>ATOM
  1 F       -0.6440    -0.0410    -0.8240 F     1 <1>  -0.1900 
  2 C       -1.6290    -0.8380    -0.4730 C.ar  1 <1>   0.1900 
  3 C       -2.7050    -0.4310     0.3110 C.ar  1 <1>   0.3930 
  4 C       -1.5930    -2.1370    -0.9090 C.ar  1 <1>   0.1600 
  5 O       -2.8930     0.8110     0.8160 O.3   1 <1>  -0.3620 
  6 N       -3.6590    -1.2810     0.6250 N.ar  1 <1>  -0.6200 
  7 N       -2.5440    -2.9940    -0.6010 N.ar  1 <1>  -0.6200 
  8 C       -1.9880     1.8830     0.6680 C.3   1 <1>   0.0400 
  9 C       -3.5220    -2.5100     0.1600 C.ar  1 <1>   0.7200 
 10 N       -4.5220    -3.3460     0.5150 N.pl3 1 <1>  -0.8690 
 11 C       -4.8690    -4.5580    -0.2440 C.3   1 <1>   0.2090 
 12 C       -6.1190    -5.1840     0.3690 C.3   1 <1>  -0.1600 
 13 C       -6.5110    -6.4720    -0.3640 C.3   1 <1>   0.0210 
 14 C       -7.7600    -7.0760     0.2550 C.2   1 <1>  -0.1810 
 15 C       -7.8750    -8.0390     1.1850 C.2   1 <1>  -0.0400 
 16 C       -9.0870    -6.7440    -0.0220 C.2   1 <1>   0.1080 
 17 O       -9.1460    -8.2330     1.4100 O.3   1 <1>  -0.0190 
 18 C       -6.8560    -8.8580     1.9490 C.3   1 <1>  -0.0600 
 19 N       -9.8920    -7.4530     0.6840 N.2   1 <1>  -0.4100 
 20 C       -9.5530    -5.6990    -1.0130 C.3   1 <1>  -0.0590 
 21 H       -0.7740    -2.4750    -1.5180 H     1 <1>   0.1500 
 22 H       -2.3870     2.7300     1.1970 H     1 <1>   0.0800 
 23 H       -1.8910     2.1200    -0.3760 H     1 <1>   0.0800 
 24 H       -1.0400     1.6040     1.0930 H     1 <1>   0.0800 
 25 H       -5.2920    -2.8470     0.9580 H     1 <1>   0.4000 
 26 H       -4.0440    -5.2500    -0.2000 H     1 <1>   0.0800 
 27 H       -5.0450    -4.2960    -1.2750 H     1 <1>   0.0800 
 28 H       -6.9320    -4.4830     0.3160 H     1 <1>   0.0800 
 29 H       -5.9300    -5.4140     1.4030 H     1 <1>   0.0800 
 30 H       -5.7050    -7.1810    -0.3020 H     1 <1>   0.0800 
 31 H       -6.6900    -6.2690    -1.4050 H     1 <1>   0.0800 
 32 H       -5.8570    -8.5780     1.6720 H     1 <1>   0.0800 
 33 H       -6.9990    -9.9020     1.7370 H     1 <1>   0.0800 
 34 H       -6.9820    -8.6970     3.0040 H     1 <1>   0.0800 
 35 H       -9.1840    -4.7320    -0.7280 H     1 <1>   0.0800 
 36 H      -10.6270    -5.6670    -1.0330 H     1 <1>   0.0800 
 37 H       -9.1960    -5.9440    -1.9960 H     1 <1>   0.0800 
@<TRIPOS>BOND
  1   1   2  1   
  2   2   3  ar  
  3   2   4  ar  
  4   3   5  1   
  5   3   6  ar  
  6   4   7  ar  
  7   4  21  1   
  8   5   8  1   
  9   6   9  ar  
 10   7   9  ar  
 11   8  22  1   
 12   8  23  1   
 13   8  24  1   
 14   9  10  1   
 15  10  11  1   
 16  10  25  1   
 17  11  12  1   
 18  11  26  1   
 19  11  27  1   
 20  12  13  1   
 21  12  28  1   
 22  12  29  1   
 23  13  14  1   
 24  13  30  1   
 25  13  31  1   
 26  14  15  2   
 27  14  16  1   
 28  15  17  1   
 29  15  18  1   
 30  16  19  2   
 31  16  20  1   
 32  17  19  1   
 33  18  32  1   
 34  18  33  1   
 35  18  34  1   
 36  20  35  1   
 37  20  36  1   
 38  20  37  1   
@<TRIPOS>SUBSTRUCTURE
  1 ****  11 GROUP 4 **** **** 0

# MOE 2024.06 (io_trps.svl 2023.06)
