@<TRIPOS>MOLECULE
NONAME
52 55 1 0 0 
SMALL
USER_CHARGES


@<TRIPOS>ATOM
  1 O        0.6190    -0.4950     1.6050 O.3   1 <1>  -0.6800 
  2 C        0.6630    -1.8320     1.2630 C.3   1 <1>   0.2000 
  3 C        1.9050    -2.1630     0.4200 C.3   1 <1>   0.0000 
  4 C       -0.5350    -2.2350     0.4110 C.3   1 <1>  -0.1600 
  5 C        3.1330    -2.2700     1.3520 C.3   1 <1>   0.3430 
  6 C        2.1680    -1.1330    -0.7150 C.3   1 <1>  -0.1600 
  7 C        1.4820    -3.5160    -0.1850 C.3   1 <1>  -0.1600 
  8 C       -0.0240    -3.3900    -0.4640 C.3   1 <1>  -0.1600 
  9 N        4.4140    -1.8140     0.7170 N.4   1 <1>  -0.9590 
 10 C        3.4410    -1.4660    -1.5190 C.3   1 <1>  -0.1600 
 11 C        4.5080    -2.2130    -0.7120 C.3   1 <1>   0.3430 
 12 C        5.5990    -2.2490     1.5010 C.3   1 <1>   0.4860 
 13 C        6.8350    -1.5280     0.9920 C.ar  1 <1>  -0.1440 
 14 C        7.7640    -2.1970     0.1890 C.ar  1 <1>   0.0000 
 15 C        7.0340    -0.1980     1.3330 C.ar  1 <1>  -0.1500 
 16 C        7.5960    -3.5820    -0.1890 C.ar  1 <1>   0.0000 
 17 C        8.8760    -1.4940    -0.2600 C.ar  1 <1>  -0.1500 
 18 C        8.1470     0.4820     0.8740 C.ar  1 <1>  -0.1500 
 19 C        7.2750    -3.9270    -1.4990 C.ar  1 <1>  -0.1500 
 20 C        7.7440    -4.6050     0.7430 C.ar  1 <1>  -0.1500 
 21 C        9.0690    -0.1680     0.0750 C.ar  1 <1>  -0.1500 
 22 C        7.0750    -5.2470    -1.8590 C.ar  1 <1>  -0.1500 
 23 C        7.5440    -5.9260     0.3880 C.ar  1 <1>  -0.1500 
 24 C        7.2040    -6.2490    -0.9140 C.ar  1 <1>  -0.1500 
 25 H       -0.2670    -0.2640     1.9530 H     1 <1>   0.4000 
 26 H        0.6590    -2.4110     2.1720 H     1 <1>   0.0800 
 27 H       -1.3600    -2.5510     1.0250 H     1 <1>   0.0800 
 28 H       -0.8440    -1.4180    -0.2190 H     1 <1>   0.0800 
 29 H        3.2280    -3.2920     1.6800 H     1 <1>   0.0800 
 30 H        2.9480    -1.6620     2.2230 H     1 <1>   0.0800 
 31 H        1.3270    -1.0630    -1.3840 H     1 <1>   0.0800 
 32 H        2.2950    -0.1570    -0.2780 H     1 <1>   0.0800 
 33 H        2.0220    -3.7810    -1.0770 H     1 <1>   0.0800 
 34 H        1.6260    -4.3010     0.5390 H     1 <1>   0.0800 
 35 H       -0.5330    -4.3110    -0.2320 H     1 <1>   0.0800 
 36 H       -0.1940    -3.1590    -1.5030 H     1 <1>   0.0800 
 37 H        4.4100    -0.7870     0.7170 H     1 <1>   0.4500 
 38 H        3.8630    -0.5540    -1.9050 H     1 <1>   0.0800 
 39 H        3.1840    -2.0700    -2.3720 H     1 <1>   0.0800 
 40 H        5.4830    -1.9780    -1.1090 H     1 <1>   0.0800 
 41 H        4.3550    -3.2770    -0.7980 H     1 <1>   0.0800 
 42 H        5.4590    -2.0060     2.5420 H     1 <1>   0.0800 
 43 H        5.7220    -3.3160     1.4190 H     1 <1>   0.0800 
 44 H        6.3330     0.3270     1.9600 H     1 <1>   0.1500 
 45 H        9.6020    -1.9960    -0.8780 H     1 <1>   0.1500 
 46 H        8.3020     1.5150     1.1380 H     1 <1>   0.1500 
 47 H        7.1920    -3.1560    -2.2450 H     1 <1>   0.1500 
 48 H        8.0280    -4.3650     1.7530 H     1 <1>   0.1500 
 49 H        9.9380     0.3590    -0.2820 H     1 <1>   0.1500 
 50 H        6.8270    -5.5010    -2.8770 H     1 <1>   0.1500 
 51 H        7.6620    -6.7080     1.1190 H     1 <1>   0.1500 
 52 H        7.0520    -7.2780    -1.1930 H     1 <1>   0.1500 
@<TRIPOS>BOND
  1   1   2  1   
  2   1  25  1   
  3   2   3  1   
  4   2   4  1   
  5   2  26  1   
  6   3   5  1   
  7   3   6  1   
  8   3   7  1   
  9   4   8  1   
 10   4  27  1   
 11   4  28  1   
 12   5   9  1   
 13   5  29  1   
 14   5  30  1   
 15   6  10  1   
 16   6  31  1   
 17   6  32  1   
 18   7   8  1   
 19   7  33  1   
 20   7  34  1   
 21   8  35  1   
 22   8  36  1   
 23   9  11  1   
 24   9  12  1   
 25   9  37  1   
 26  10  11  1   
 27  10  38  1   
 28  10  39  1   
 29  11  40  1   
 30  11  41  1   
 31  12  13  1   
 32  12  42  1   
 33  12  43  1   
 34  13  14  ar  
 35  13  15  ar  
 36  14  16  1   
 37  14  17  ar  
 38  15  18  ar  
 39  15  44  1   
 40  16  19  ar  
 41  16  20  ar  
 42  17  21  ar  
 43  17  45  1   
 44  18  21  ar  
 45  18  46  1   
 46  19  22  ar  
 47  19  47  1   
 48  20  23  ar  
 49  20  48  1   
 50  21  49  1   
 51  22  24  ar  
 52  22  50  1   
 53  23  24  ar  
 54  23  51  1   
 55  24  52  1   
@<TRIPOS>SUBSTRUCTURE
  1 ****  11 GROUP 4 **** **** 0

# MOE 2024.06 (io_trps.svl 2023.06)
