@<TRIPOS>MOLECULE
NONAME
49 51 1 0 0 
SMALL
USER_CHARGES


@<TRIPOS>ATOM
  1 S       -0.1740    -0.5230     0.4650 S.3   1 <1>  -0.0800 
  2 C       -1.4160    -1.0090    -0.6450 C.2   1 <1>   0.4420 
  3 C       -0.5640     1.1140     0.0670 C.2   1 <1>   0.1980 
  4 N       -1.9930    -0.0010    -1.1920 N.2   1 <1>  -0.3380 
  5 N       -1.6220    -2.3660    -0.7910 N.am  1 <1>  -0.4940 
  6 N       -1.5020     1.2050    -0.7820 N.2   1 <1>  -0.3380 
  7 C        0.2070     2.2330     0.7310 C.3   1 <1>   0.0200 
  8 C       -2.5200    -3.0140    -1.5960 C.2   1 <1>   0.5690 
  9 C       -0.3390     3.5750     0.2280 C.3   1 <1>   0.3430 
 10 O       -3.2720    -2.4380    -2.3350 O.2   1 <1>  -0.5700 
 11 C       -2.6050    -4.5340    -1.5740 C.3   1 <1>  -0.0190 
 12 N        0.3190     4.7600     0.8750 N.4   1 <1>  -0.9590 
 13 C       -3.6760    -5.0990    -0.6160 C.3   1 <1>   0.2800 
 14 C       -1.3330    -5.3130    -1.2210 C.3   1 <1>  -0.0990 
 15 C       -0.4490     6.0010     0.5420 C.3   1 <1>   0.2630 
 16 C        1.7510     4.9210     0.4610 C.3   1 <1>   0.2630 
 17 O       -3.1860    -6.3800    -0.2930 O.3   1 <1>  -0.4300 
 18 C       -3.8190    -4.3220     0.7130 C.3   1 <1>  -0.1600 
 19 C       -5.0500    -5.2640    -1.2930 C.3   1 <1>  -0.1600 
 20 C       -1.9120    -6.5410    -0.5820 C.2   1 <1>   0.6590 
 21 C       -4.8640    -4.9500     1.6500 C.3   1 <1>  -0.1600 
 22 C       -6.1040    -5.8750    -0.3540 C.3   1 <1>  -0.1600 
 23 O       -1.2910    -7.5400    -0.3530 O.2   1 <1>  -0.5700 
 24 C       -6.2230    -5.0750     0.9490 C.3   1 <1>  -0.1600 
 25 H       -1.0280    -2.9460    -0.2090 H     1 <1>   0.3700 
 26 H        1.2460     2.1260     0.4800 H     1 <1>   0.0800 
 27 H        0.0810     2.1560     1.7950 H     1 <1>   0.0800 
 28 H       -1.3980     3.6010     0.4290 H     1 <1>   0.0800 
 29 H       -0.2150     3.6270    -0.8430 H     1 <1>   0.0800 
 30 H       -2.8800    -4.8320    -2.5710 H     1 <1>   0.0800 
 31 H        0.2820     4.6380     1.9000 H     1 <1>   0.4500 
 32 H       -0.7140    -4.8250    -0.4950 H     1 <1>   0.0800 
 33 H       -0.7590    -5.5690    -2.0930 H     1 <1>   0.0800 
 34 H       -0.4440     6.1700    -0.5230 H     1 <1>   0.0800 
 35 H       -0.0100     6.8570     1.0290 H     1 <1>   0.0800 
 36 H       -1.4720     5.9080     0.8690 H     1 <1>   0.0800 
 37 H        1.8210     5.0370    -0.6090 H     1 <1>   0.0800 
 38 H        2.3290     4.0590     0.7530 H     1 <1>   0.0800 
 39 H        2.1800     5.7920     0.9300 H     1 <1>   0.0800 
 40 H       -4.1360    -3.3150     0.5040 H     1 <1>   0.0800 
 41 H       -2.8730    -4.2720     1.2200 H     1 <1>   0.0800 
 42 H       -4.9560    -5.8800    -2.1700 H     1 <1>   0.0800 
 43 H       -5.3950    -4.2950    -1.6140 H     1 <1>   0.0800 
 44 H       -4.9710    -4.3430     2.5330 H     1 <1>   0.0800 
 45 H       -4.5330    -5.9270     1.9600 H     1 <1>   0.0800 
 46 H       -5.8290    -6.8910    -0.1230 H     1 <1>   0.0800 
 47 H       -7.0590    -5.8990    -0.8510 H     1 <1>   0.0800 
 48 H       -6.6060    -4.0920     0.7310 H     1 <1>   0.0800 
 49 H       -6.9230    -5.5620     1.6060 H     1 <1>   0.0800 
@<TRIPOS>BOND
  1   1   2  1   
  2   1   3  1   
  3   2   4  2   
  4   2   5  1   
  5   3   6  2   
  6   3   7  1   
  7   4   6  1   
  8   5   8  am  
  9   5  25  1   
 10   7   9  1   
 11   7  26  1   
 12   7  27  1   
 13   8  10  2   
 14   8  11  1   
 15   9  12  1   
 16   9  28  1   
 17   9  29  1   
 18  11  13  1   
 19  11  14  1   
 20  11  30  1   
 21  12  15  1   
 22  12  16  1   
 23  12  31  1   
 24  13  17  1   
 25  13  18  1   
 26  13  19  1   
 27  14  20  1   
 28  14  32  1   
 29  14  33  1   
 30  15  34  1   
 31  15  35  1   
 32  15  36  1   
 33  16  37  1   
 34  16  38  1   
 35  16  39  1   
 36  17  20  1   
 37  18  21  1   
 38  18  40  1   
 39  18  41  1   
 40  19  22  1   
 41  19  42  1   
 42  19  43  1   
 43  20  23  2   
 44  21  24  1   
 45  21  44  1   
 46  21  45  1   
 47  22  24  1   
 48  22  46  1   
 49  22  47  1   
 50  24  48  1   
 51  24  49  1   
@<TRIPOS>SUBSTRUCTURE
  1 ****   5 GROUP 4 **** **** 0

# MOE 2024.06 (io_trps.svl 2023.06)
