@<TRIPOS>MOLECULE
NONAME
43 45 1 0 0 
SMALL
USER_CHARGES


@<TRIPOS>ATOM
  1 CL       1.0050    -0.2750    -1.6170 Cl    1 <1>  -0.1770 
  2 C        0.5420    -1.8950    -1.1670 C.ar  1 <1>   0.1770 
  3 C       -0.6000    -2.1120    -0.4180 C.ar  1 <1>   0.1600 
  4 C        1.3150    -2.9610    -1.5580 C.ar  1 <1>  -0.1500 
  5 N       -1.0230    -3.3070    -0.0370 N.ar  1 <1>  -0.6200 
  6 C        0.8800    -4.2090    -1.1610 C.ar  1 <1>  -0.1500 
  7 C       -0.2860    -4.3770    -0.4020 C.ar  1 <1>   0.3960 
  8 C       -0.6920    -5.7380    -0.0050 C.2   1 <1>   0.5440 
  9 O        0.0640    -6.6760    -0.2170 O.2   1 <1>  -0.5700 
 10 N       -1.9150    -6.0530     0.5710 N.am  1 <1>  -0.6600 
 11 C       -2.0970    -7.3850     1.2320 C.3   1 <1>   0.1400 
 12 C       -3.1770    -5.4140     0.0600 C.3   1 <1>   0.1400 
 13 C       -2.9030    -8.2200     0.2290 C.3   1 <1>   0.4230 
 14 C       -4.4590    -6.2110     0.3850 C.3   1 <1>  -0.1600 
 15 N       -2.7850    -9.7100     0.2860 N.4   1 <1>  -0.9590 
 16 C       -4.3710    -7.7700     0.2910 C.3   1 <1>  -0.1060 
 17 C       -3.4480   -10.3330    -0.8930 C.3   1 <1>   0.3430 
 18 C       -1.4010   -10.2090     0.4930 C.3   1 <1>   0.2630 
 19 C       -5.0570    -8.3660     1.5360 C.2   1 <1>   0.9060 
 20 C       -5.0470    -8.3120    -0.9880 C.3   1 <1>  -0.1600 
 21 C       -4.8960    -9.8460    -1.0610 C.3   1 <1>  -0.1600 
 22 O       -6.2300    -8.0750     1.7590 O.co2 1 <1>  -0.9000 
 23 O       -4.4360    -9.1640     2.2570 O.co2 1 <1>  -0.9000 
 24 H       -1.1850    -1.2580    -0.1240 H     1 <1>   0.1500 
 25 H        2.2090    -2.8200    -2.1410 H     1 <1>   0.1500 
 26 H        1.4560    -5.0740    -1.4410 H     1 <1>   0.1500 
 27 H       -1.1430    -7.8240     1.4500 H     1 <1>   0.0800 
 28 H       -2.6300    -7.2650     2.1600 H     1 <1>   0.0800 
 29 H       -3.2720    -4.4300     0.4870 H     1 <1>   0.0800 
 30 H       -3.0970    -5.3010    -1.0080 H     1 <1>   0.0800 
 31 H       -2.5220    -7.9280    -0.7350 H     1 <1>   0.0800 
 32 H       -4.7200    -5.9450     1.3970 H     1 <1>   0.0800 
 33 H       -5.2710    -5.8480    -0.2190 H     1 <1>   0.0800 
 34 H       -3.3660    -9.9230     1.1410 H     1 <1>   0.4500 
 35 H       -2.8920   -10.0820    -1.7820 H     1 <1>   0.0800 
 36 H       -3.4470   -11.4050    -0.7860 H     1 <1>   0.0800 
 37 H       -0.7540    -9.8530    -0.2920 H     1 <1>   0.0800 
 38 H       -1.3920   -11.2860     0.4980 H     1 <1>   0.0800 
 39 H       -1.0210    -9.8640     1.4400 H     1 <1>   0.0800 
 40 H       -6.0960    -8.0600    -0.9750 H     1 <1>   0.0800 
 41 H       -4.6060    -7.8590    -1.8590 H     1 <1>   0.0800 
 42 H       -5.2780   -10.1960    -2.0030 H     1 <1>   0.0800 
 43 H       -5.5010   -10.3010    -0.2930 H     1 <1>   0.0800 
@<TRIPOS>BOND
  1   1   2  1   
  2   2   3  ar  
  3   2   4  ar  
  4   3   5  ar  
  5   3  24  1   
  6   4   6  ar  
  7   4  25  1   
  8   5   7  ar  
  9   6   7  ar  
 10   6  26  1   
 11   7   8  1   
 12   8   9  2   
 13   8  10  am  
 14  10  11  1   
 15  10  12  1   
 16  11  13  1   
 17  11  27  1   
 18  11  28  1   
 19  12  14  1   
 20  12  29  1   
 21  12  30  1   
 22  13  15  1   
 23  13  16  1   
 24  13  31  1   
 25  14  16  1   
 26  14  32  1   
 27  14  33  1   
 28  15  17  1   
 29  15  18  1   
 30  15  34  1   
 31  16  19  1   
 32  16  20  1   
 33  17  21  1   
 34  17  35  1   
 35  17  36  1   
 36  18  37  1   
 37  18  38  1   
 38  18  39  1   
 39  19  22  ar  
 40  19  23  ar  
 41  20  21  1   
 42  20  40  1   
 43  20  41  1   
 44  21  42  1   
 45  21  43  1   
@<TRIPOS>SUBSTRUCTURE
  1 ****  10 GROUP 4 **** **** 0

# MOE 2024.06 (io_trps.svl 2023.06)
