@<TRIPOS>MOLECULE
NONAME
46 47 1 0 0 
SMALL
USER_CHARGES


@<TRIPOS>ATOM
  1 CL      -2.0870    -2.9230     2.6140 Cl    1 <1>  -0.1770 
  2 C       -2.8740    -2.5350     1.0990 C.ar  1 <1>   0.1770 
  3 C       -2.8030    -1.2520     0.5710 C.ar  1 <1>   0.0820 
  4 C       -3.5600    -3.5480     0.4540 C.ar  1 <1>  -0.1500 
  5 O       -2.0970    -0.3000     1.2320 O.3   1 <1>  -0.3630 
  6 C       -3.4650    -0.9860    -0.6360 C.ar  1 <1>   0.0830 
  7 C       -4.2000    -3.2880    -0.7490 C.ar  1 <1>  -0.1440 
  8 C       -0.7250    -0.2290     0.9150 C.3   1 <1>   0.0400 
  9 O       -3.5080     0.2240    -1.2550 O.3   1 <1>  -0.3630 
 10 C       -4.1400    -2.0090    -1.2850 C.ar  1 <1>  -0.1500 
 11 C       -4.9640    -4.3890    -1.4570 C.3   1 <1>   0.4860 
 12 C       -3.5940     1.4140    -0.4990 C.3   1 <1>   0.0400 
 13 N       -6.2250    -4.6190    -0.7140 N.4   1 <1>  -0.9590 
 14 C       -6.7890    -5.9660    -0.9880 C.3   1 <1>   0.5240 
 15 C       -7.2030    -3.4950    -0.8230 C.3   1 <1>   0.3430 
 16 C       -5.9580    -6.9500    -0.1770 C.2   1 <1>   0.0460 
 17 C       -8.2050    -3.4860     0.3410 C.3   1 <1>   0.1200 
 18 N       -5.4690    -6.5740     1.0260 N.2   1 <1>  -0.5650 
 19 C       -5.5820    -8.2140    -0.4730 C.2   1 <1>  -0.3020 
 20 O       -9.1960    -2.5710     0.0360 O.3   1 <1>  -0.6800 
 21 C       -4.8180    -7.6120     1.4370 C.2   1 <1>   0.0060 
 22 N       -4.8490    -8.6480     0.5700 N.pl3 1 <1>   0.0330 
 23 C       -4.0850    -7.6790     2.7620 C.3   1 <1>  -0.0600 
 24 H       -3.5780    -4.5270     0.9040 H     1 <1>   0.1500 
 25 H       -0.2890     0.5710     1.4850 H     1 <1>   0.0800 
 26 H       -0.6200    -0.0340    -0.1380 H     1 <1>   0.0800 
 27 H       -0.2560    -1.1620     1.1740 H     1 <1>   0.0800 
 28 H       -4.6210    -1.7760    -2.2190 H     1 <1>   0.1500 
 29 H       -4.3640    -5.2860    -1.4550 H     1 <1>   0.0800 
 30 H       -5.1700    -4.1110    -2.4780 H     1 <1>   0.0800 
 31 H       -4.0010     2.1840    -1.1290 H     1 <1>   0.0800 
 32 H       -2.6090     1.6960    -0.1770 H     1 <1>   0.0800 
 33 H       -4.2380     1.2520     0.3470 H     1 <1>   0.0800 
 34 H       -5.9200    -4.7150     0.2730 H     1 <1>   0.4500 
 35 H       -6.7550    -6.2030    -2.0390 H     1 <1>   0.0800 
 36 H       -7.8090    -6.0190    -0.6470 H     1 <1>   0.0800 
 37 H       -7.7430    -3.5720    -1.7530 H     1 <1>   0.0800 
 38 H       -6.6790    -2.5540    -0.8120 H     1 <1>   0.0800 
 39 H       -7.7260    -3.1760     1.2540 H     1 <1>   0.0800 
 40 H       -8.6750    -4.4440     0.4730 H     1 <1>   0.0800 
 41 H       -5.7850    -8.8250    -1.3360 H     1 <1>   0.1500 
 42 H       -9.8300    -2.4640     0.7770 H     1 <1>   0.4000 
 43 H       -4.4100    -9.5670     0.6940 H     1 <1>   0.2700 
 44 H       -4.1930    -6.7480     3.2900 H     1 <1>   0.0800 
 45 H       -3.0390    -7.8620     2.6000 H     1 <1>   0.0800 
 46 H       -4.4920    -8.4660     3.3710 H     1 <1>   0.0800 
@<TRIPOS>BOND
  1   1   2  1   
  2   2   3  ar  
  3   2   4  ar  
  4   3   5  1   
  5   3   6  ar  
  6   4   7  ar  
  7   4  24  1   
  8   5   8  1   
  9   6   9  1   
 10   6  10  ar  
 11   7  10  ar  
 12   7  11  1   
 13   8  25  1   
 14   8  26  1   
 15   8  27  1   
 16   9  12  1   
 17  10  28  1   
 18  11  13  1   
 19  11  29  1   
 20  11  30  1   
 21  12  31  1   
 22  12  32  1   
 23  12  33  1   
 24  13  14  1   
 25  13  15  1   
 26  13  34  1   
 27  14  16  1   
 28  14  35  1   
 29  14  36  1   
 30  15  17  1   
 31  15  37  1   
 32  15  38  1   
 33  16  18  1   
 34  16  19  2   
 35  17  20  1   
 36  17  39  1   
 37  17  40  1   
 38  18  21  2   
 39  19  22  1   
 40  19  41  1   
 41  20  42  1   
 42  21  22  1   
 43  21  23  1   
 44  22  43  1   
 45  23  44  1   
 46  23  45  1   
 47  23  46  1   
@<TRIPOS>SUBSTRUCTURE
  1 ****   7 GROUP 4 **** **** 0

# MOE 2024.06 (io_trps.svl 2023.06)
