@<TRIPOS>MOLECULE
NONAME
62 64 1 0 0 
SMALL
USER_CHARGES


@<TRIPOS>ATOM
  1 O        1.4140    -0.3780     1.4240 O.co2 1 <1>  -0.9000 
  2 C        1.4010     0.4320     0.4830 C.2   1 <1>   0.9060 
  3 O        0.5010     1.2610     0.3590 O.co2 1 <1>  -0.9000 
  4 C        2.5550     0.4080    -0.5380 C.3   1 <1>  -0.1060 
  5 C        3.8510    -0.0170     0.1900 C.3   1 <1>   0.4230 
  6 C        2.7780     1.8220    -1.1490 C.3   1 <1>  -0.1600 
  7 C        2.2550    -0.5900    -1.6820 C.3   1 <1>  -0.1600 
  8 N        3.7240    -1.4210     0.7090 N.4   1 <1>  -0.9590 
  9 C        4.2180     1.0320     1.2640 C.3   1 <1>   0.1400 
 10 C        3.1970     2.8530    -0.0890 C.3   1 <1>   0.1400 
 11 C        2.2370    -2.0400    -1.1740 C.3   1 <1>  -0.1600 
 12 C        3.4980    -2.3990    -0.3850 C.3   1 <1>   0.3430 
 13 C        4.7940    -1.8520     1.6470 C.3   1 <1>   0.2630 
 14 N        4.4230     2.3520     0.5970 N.am  1 <1>  -0.6600 
 15 C        5.6790     2.8840     0.4640 C.2   1 <1>   0.5690 
 16 O        6.6580     2.2380     0.7600 O.2   1 <1>  -0.5700 
 17 C        5.8620     4.2920    -0.0920 C.3   1 <1>  -0.0990 
 18 C        7.2570     4.8980     0.1510 C.3   1 <1>  -0.1600 
 19 C        7.3600     6.3240    -0.4040 C.3   1 <1>  -0.0170 
 20 C        8.7380     6.9070    -0.1410 C.ar  1 <1>  -0.1430 
 21 C        8.9930     7.6060     1.0270 C.ar  1 <1>  -0.1500 
 22 C        9.7560     6.7490    -1.0670 C.ar  1 <1>  -0.1500 
 23 C       10.2470     8.1410     1.2650 C.ar  1 <1>  -0.1500 
 24 C       11.0100     7.2860    -0.8280 C.ar  1 <1>  -0.1500 
 25 C       11.2690     7.9890     0.3400 C.ar  1 <1>  -0.1430 
 26 C       12.6460     8.5880     0.6180 C.3   1 <1>   0.0630 
 27 C       13.0110     9.6340    -0.4400 C.3   1 <1>  -0.2400 
 28 C       13.7150     7.4930     0.6930 C.3   1 <1>  -0.2400 
 29 H        4.6520    -0.0060    -0.5290 H     1 <1>   0.0800 
 30 H        1.8660     2.1600    -1.6120 H     1 <1>   0.0800 
 31 H        3.5340     1.7890    -1.9130 H     1 <1>   0.0800 
 32 H        1.2990    -0.3520    -2.1200 H     1 <1>   0.0800 
 33 H        3.0020    -0.4980    -2.4520 H     1 <1>   0.0800 
 34 H        2.8090    -1.3520     1.2340 H     1 <1>   0.4500 
 35 H        5.1170     0.7460     1.7760 H     1 <1>   0.0800 
 36 H        3.4320     1.1250     1.9940 H     1 <1>   0.0800 
 37 H        2.4080     2.9840     0.6360 H     1 <1>   0.0800 
 38 H        3.3670     3.8030    -0.5610 H     1 <1>   0.0800 
 39 H        2.1400    -2.7100    -2.0100 H     1 <1>   0.0800 
 40 H        1.3750    -2.1930    -0.5450 H     1 <1>   0.0800 
 41 H        4.3480    -2.4020    -1.0470 H     1 <1>   0.0800 
 42 H        3.3840    -3.3880     0.0290 H     1 <1>   0.0800 
 43 H        5.7550    -1.8140     1.1610 H     1 <1>   0.0800 
 44 H        4.6090    -2.8590     1.9820 H     1 <1>   0.0800 
 45 H        4.8130    -1.2080     2.5110 H     1 <1>   0.0800 
 46 H        5.6700     4.2600    -1.1490 H     1 <1>   0.0800 
 47 H        5.1300     4.9300     0.3680 H     1 <1>   0.0800 
 48 H        7.4620     4.9120     1.2080 H     1 <1>   0.0800 
 49 H        8.0050     4.2810    -0.3180 H     1 <1>   0.0800 
 50 H        6.6150     6.9500     0.0560 H     1 <1>   0.0800 
 51 H        7.1710     6.3170    -1.4640 H     1 <1>   0.0800 
 52 H        8.2160     7.7340     1.7600 H     1 <1>   0.1500 
 53 H        9.5790     6.2060    -1.9780 H     1 <1>   0.1500 
 54 H       10.4200     8.6790     2.1800 H     1 <1>   0.1500 
 55 H       11.7850     7.1500    -1.5610 H     1 <1>   0.1500 
 56 H       12.6190     9.0850     1.5730 H     1 <1>   0.0800 
 57 H       13.1000     9.1810    -1.4110 H     1 <1>   0.0800 
 58 H       13.9450    10.1050    -0.1920 H     1 <1>   0.0800 
 59 H       12.2470    10.3890    -0.4840 H     1 <1>   0.0800 
 60 H       13.8170     6.9920    -0.2520 H     1 <1>   0.0800 
 61 H       13.4390     6.7660     1.4370 H     1 <1>   0.0800 
 62 H       14.6650     7.9170     0.9640 H     1 <1>   0.0800 
@<TRIPOS>BOND
  1   1   2  ar  
  2   2   3  ar  
  3   2   4  1   
  4   4   5  1   
  5   4   6  1   
  6   4   7  1   
  7   5   8  1   
  8   5   9  1   
  9   5  29  1   
 10   6  10  1   
 11   6  30  1   
 12   6  31  1   
 13   7  11  1   
 14   7  32  1   
 15   7  33  1   
 16   8  12  1   
 17   8  13  1   
 18   8  34  1   
 19   9  14  1   
 20   9  35  1   
 21   9  36  1   
 22  10  14  1   
 23  10  37  1   
 24  10  38  1   
 25  11  12  1   
 26  11  39  1   
 27  11  40  1   
 28  12  41  1   
 29  12  42  1   
 30  13  43  1   
 31  13  44  1   
 32  13  45  1   
 33  14  15  am  
 34  15  16  2   
 35  15  17  1   
 36  17  18  1   
 37  17  46  1   
 38  17  47  1   
 39  18  19  1   
 40  18  48  1   
 41  18  49  1   
 42  19  20  1   
 43  19  50  1   
 44  19  51  1   
 45  20  21  ar  
 46  20  22  ar  
 47  21  23  ar  
 48  21  52  1   
 49  22  24  ar  
 50  22  53  1   
 51  23  25  ar  
 52  23  54  1   
 53  24  25  ar  
 54  24  55  1   
 55  25  26  1   
 56  26  27  1   
 57  26  28  1   
 58  26  56  1   
 59  27  57  1   
 60  27  58  1   
 61  27  59  1   
 62  28  60  1   
 63  28  61  1   
 64  28  62  1   
@<TRIPOS>SUBSTRUCTURE
  1 ****  15 GROUP 4 **** **** 0

# MOE 2024.06 (io_trps.svl 2023.06)
