@<TRIPOS>MOLECULE
NONAME
45 48 1 0 0 
SMALL
USER_CHARGES


@<TRIPOS>ATOM
  1 S        0.4770     0.0860     0.6630 S.3   1 <1>  -0.0800 
  2 C       -0.9400     1.1030     0.3670 C.2   1 <1>  -0.0450 
  3 C       -0.3760    -1.3720     0.2110 C.2   1 <1>  -0.1100 
  4 C       -1.9610     0.3030    -0.0380 C.2   1 <1>  -0.1810 
  5 C       -0.8520     2.5250     0.6040 C.2   1 <1>   0.7150 
  6 C       -1.6430    -1.0820    -0.1310 C.2   1 <1>  -0.1810 
  7 C       -3.3830     0.7200    -0.3730 C.3   1 <1>   0.0210 
  8 O       -1.6990     3.0540     1.3060 O.2   1 <1>  -0.5700 
  9 N        0.1130     3.3310     0.0230 N.am  1 <1>  -0.6600 
 10 C       -2.7340    -2.0380    -0.5740 C.3   1 <1>   0.0210 
 11 C       -4.3770    -0.2280     0.3200 C.3   1 <1>  -0.1600 
 12 C        0.3250     4.7320     0.5290 C.3   1 <1>   0.1400 
 13 C        0.8820     2.9030    -1.1880 C.3   1 <1>   0.1400 
 14 C       -4.0430    -1.7350     0.1770 C.3   1 <1>  -0.1600 
 15 C        1.7860     5.1450     0.8240 C.3   1 <1>   0.2200 
 16 C        2.4130     3.0460    -1.0950 C.3   1 <1>  -0.0190 
 17 N        2.5310     5.4470    -0.4310 N.am  1 <1>  -0.6600 
 18 C        2.5780     4.1790     1.7370 C.3   1 <1>   0.1200 
 19 C        2.8320     4.4770    -1.3410 C.2   1 <1>   0.5690 
 20 C        3.1160     2.4680     0.1480 C.3   1 <1>   0.1200 
 21 C        2.9150     6.8730    -0.6400 C.3   1 <1>   0.0600 
 22 O        2.5250     2.8340     1.3560 O.3   1 <1>  -0.5600 
 23 O        3.4320     4.7180    -2.3630 O.2   1 <1>  -0.5700 
 24 H        0.1640    -2.3000     0.2540 H     1 <1>   0.1500 
 25 H       -3.5670     1.7330    -0.0620 H     1 <1>   0.0800 
 26 H       -3.5190     0.6670    -1.4380 H     1 <1>   0.0800 
 27 H       -2.8920    -1.9100    -1.6300 H     1 <1>   0.0800 
 28 H       -2.4330    -3.0570    -0.4020 H     1 <1>   0.0800 
 29 H       -4.3790     0.0160     1.3690 H     1 <1>   0.0800 
 30 H       -5.3670    -0.0370    -0.0530 H     1 <1>   0.0800 
 31 H       -0.0960     5.4220    -0.1800 H     1 <1>   0.0800 
 32 H       -0.2180     4.8580     1.4490 H     1 <1>   0.0800 
 33 H        0.6570     1.8790    -1.4210 H     1 <1>   0.0800 
 34 H        0.5360     3.4860    -2.0250 H     1 <1>   0.0800 
 35 H       -4.8540    -2.2400    -0.3170 H     1 <1>   0.0800 
 36 H       -3.9620    -2.1530     1.1660 H     1 <1>   0.0800 
 37 H        1.7210     6.0690     1.3710 H     1 <1>   0.0800 
 38 H        2.8050     2.4920    -1.9280 H     1 <1>   0.0800 
 39 H        2.1580     4.2230     2.7260 H     1 <1>   0.0800 
 40 H        3.6090     4.4790     1.7980 H     1 <1>   0.0800 
 41 H        4.1510     2.7640     0.1710 H     1 <1>   0.0800 
 42 H        3.0790     1.3940     0.1040 H     1 <1>   0.0800 
 43 H        3.5580     7.1980     0.1580 H     1 <1>   0.0800 
 44 H        2.0330     7.4890    -0.6620 H     1 <1>   0.0800 
 45 H        3.4390     6.9970    -1.5730 H     1 <1>   0.0800 
@<TRIPOS>BOND
  1   1   2  1   
  2   1   3  1   
  3   2   4  2   
  4   2   5  1   
  5   3   6  2   
  6   3  24  1   
  7   4   6  1   
  8   4   7  1   
  9   5   8  2   
 10   5   9  am  
 11   6  10  1   
 12   7  11  1   
 13   7  25  1   
 14   7  26  1   
 15   9  12  1   
 16   9  13  1   
 17  10  14  1   
 18  10  27  1   
 19  10  28  1   
 20  11  14  1   
 21  11  29  1   
 22  11  30  1   
 23  12  15  1   
 24  12  31  1   
 25  12  32  1   
 26  13  16  1   
 27  13  33  1   
 28  13  34  1   
 29  14  35  1   
 30  14  36  1   
 31  15  17  1   
 32  15  18  1   
 33  15  37  1   
 34  16  19  1   
 35  16  20  1   
 36  16  38  1   
 37  17  19  am  
 38  17  21  1   
 39  18  22  1   
 40  18  39  1   
 41  18  40  1   
 42  19  23  2   
 43  20  22  1   
 44  20  41  1   
 45  20  42  1   
 46  21  43  1   
 47  21  44  1   
 48  21  45  1   
@<TRIPOS>SUBSTRUCTURE
  1 ****   9 GROUP 4 **** **** 0

# MOE 2024.06 (io_trps.svl 2023.06)
