@<TRIPOS>MOLECULE
NONAME
44 47 1 0 0 
SMALL
USER_CHARGES


@<TRIPOS>ATOM
  1 O       -1.2180     1.1070     1.7870 O.2   1 <1>  -0.5700 
  2 C       -1.4200     1.7980     0.7970 C.2   1 <1>   0.7160 
  3 N       -2.4260     1.3710    -0.0660 N.am  1 <1>  -0.6600 
  4 C       -0.6140     3.0130     0.5680 C.2   1 <1>   0.4300 
  5 C       -2.9480    -0.0270     0.0280 C.3   1 <1>   0.1400 
  6 C       -3.0250     2.2620    -1.1030 C.3   1 <1>   0.1400 
  7 N       -0.1960     3.8170     1.5310 N.2   1 <1>  -0.7070 
  8 N       -0.2310     3.3960    -0.6750 N.2   1 <1>  -0.5650 
  9 C       -4.1450    -0.1050     0.9850 C.3   1 <1>   0.1400 
 10 C       -4.5430     2.1010    -1.2760 C.3   1 <1>  -0.1600 
 11 N        0.4960     4.7300     0.8800 N.pl3 1 <1>   0.6010 
 12 C        0.4560     4.4620    -0.4520 C.2   1 <1>   0.3120 
 13 N       -5.3860     0.4540     0.3620 N.am  1 <1>  -0.6600 
 14 C       -5.3170     1.9060     0.0330 C.3   1 <1>   0.1400 
 15 C        1.1820     5.8310     1.3460 C.2   1 <1>  -0.1810 
 16 N        1.0720     5.2480    -1.3990 N.2   1 <1>  -0.5760 
 17 C       -6.5120    -0.2790     0.0580 C.2   1 <1>   0.5770 
 18 C        1.8010     6.6170     0.4260 C.2   1 <1>  -0.1360 
 19 C        1.7150     6.2780    -0.9550 C.2   1 <1>   0.3760 
 20 O       -7.4840     0.2440    -0.4370 O.2   1 <1>  -0.5700 
 21 C       -6.5630    -1.7840     0.3300 C.3   1 <1>   0.0530 
 22 C       -5.7000    -2.6400    -0.6380 C.3   1 <1>   0.0000 
 23 C       -7.7930    -2.5620    -0.2230 C.3   1 <1>   0.0000 
 24 C       -6.8130    -3.7160    -0.5550 C.3   1 <1>   0.0000 
 25 H       -2.1670    -0.6680     0.4010 H     1 <1>   0.0800 
 26 H       -3.2240    -0.3910    -0.9460 H     1 <1>   0.0800 
 27 H       -2.5330     2.0860    -2.0450 H     1 <1>   0.0800 
 28 H       -2.8390     3.2870    -0.8290 H     1 <1>   0.0800 
 29 H       -3.9160     0.4390     1.8860 H     1 <1>   0.0800 
 30 H       -4.2900    -1.1300     1.2650 H     1 <1>   0.0800 
 31 H       -4.7570     1.2910    -1.9500 H     1 <1>   0.0800 
 32 H       -4.9060     2.9950    -1.7500 H     1 <1>   0.0800 
 33 H       -6.3140     2.2970    -0.0860 H     1 <1>   0.0800 
 34 H       -4.8520     2.4480     0.8390 H     1 <1>   0.0800 
 35 H        1.1790     5.9880     2.4090 H     1 <1>   0.1500 
 36 H        2.3600     7.4940     0.6990 H     1 <1>   0.1500 
 37 H        2.2150     6.9220    -1.6570 H     1 <1>   0.0600 
 38 H       -6.3810    -2.0320     1.3630 H     1 <1>   0.0000 
 39 H       -4.7590    -2.9590    -0.2260 H     1 <1>   0.0000 
 40 H       -5.6150    -2.2080    -1.6210 H     1 <1>   0.0000 
 41 H       -8.2210    -2.1330    -1.1140 H     1 <1>   0.0000 
 42 H       -8.5220    -2.8140     0.5260 H     1 <1>   0.0000 
 43 H       -6.6750    -4.3950     0.2700 H     1 <1>   0.0000 
 44 H       -7.0160    -4.2060    -1.4900 H     1 <1>   0.0000 
@<TRIPOS>BOND
  1   1   2  2   
  2   2   3  am  
  3   2   4  1   
  4   3   5  1   
  5   3   6  1   
  6   4   7  2   
  7   4   8  1   
  8   5   9  1   
  9   5  25  1   
 10   5  26  1   
 11   6  10  1   
 12   6  27  1   
 13   6  28  1   
 14   7  11  1   
 15   8  12  2   
 16   9  13  1   
 17   9  29  1   
 18   9  30  1   
 19  10  14  1   
 20  10  31  1   
 21  10  32  1   
 22  11  12  1   
 23  11  15  1   
 24  12  16  1   
 25  13  14  1   
 26  13  17  am  
 27  14  33  1   
 28  14  34  1   
 29  15  18  2   
 30  15  35  1   
 31  16  19  2   
 32  17  20  2   
 33  17  21  1   
 34  18  19  1   
 35  18  36  1   
 36  19  37  1   
 37  21  22  1   
 38  21  23  1   
 39  21  38  1   
 40  22  24  1   
 41  22  39  1   
 42  22  40  1   
 43  23  24  1   
 44  23  41  1   
 45  23  42  1   
 46  24  43  1   
 47  24  44  1   
@<TRIPOS>SUBSTRUCTURE
  1 ****   3 GROUP 4 **** **** 0

# MOE 2024.06 (io_trps.svl 2023.06)
