@<TRIPOS>MOLECULE
NONAME
52 54 1 0 0 
SMALL
USER_CHARGES


@<TRIPOS>ATOM
  1 O       -0.0400     1.0040     1.1870 O.2   1 <1>  -0.5700 
  2 C        0.1560     2.0460     0.5880 C.2   1 <1>   0.6900 
  3 N       -0.8670     2.9370     0.3810 N.am  1 <1>  -0.6600 
  4 N        1.4000     2.3730     0.1310 N.am  1 <1>  -0.5470 
  5 C       -2.2000     2.7230     1.0160 C.3   1 <1>   0.1400 
  6 C       -0.8390     3.9740    -0.6960 C.3   1 <1>   0.1400 
  7 C        2.5990     1.6440     0.0800 C.ar  1 <1>   0.1170 
  8 C       -3.2330     2.2470    -0.0290 C.3   1 <1>   0.0000 
  9 C       -2.2460     4.2970    -1.2260 C.3   1 <1>  -0.1600 
 10 C        3.8240     2.3170     0.1060 C.ar  1 <1>  -0.1430 
 11 C        2.6000     0.2570    -0.0250 C.ar  1 <1>  -0.1500 
 12 C       -4.6490     2.3500     0.5650 C.3   1 <1>   0.2000 
 13 C       -3.0850     3.0190    -1.3790 C.3   1 <1>  -0.1600 
 14 C       -3.1330     0.7350    -0.2880 C.3   1 <1>  -0.1600 
 15 C        5.0100     1.6030     0.0280 C.ar  1 <1>  -0.1500 
 16 C        3.8830     3.8360     0.2250 C.3   1 <1>  -0.0970 
 17 C        3.7850    -0.4500    -0.1000 C.ar  1 <1>  -0.1500 
 18 O       -5.1510     3.6510     0.4770 O.3   1 <1>  -0.5600 
 19 C       -5.5020     1.3530    -0.2270 C.3   1 <1>  -0.1600 
 20 C       -4.5180     0.3210    -0.7970 C.3   1 <1>  -0.1600 
 21 C        4.9980     0.2150    -0.0750 C.ar  1 <1>   0.0830 
 22 C       -6.2920     3.8940     1.2370 C.3   1 <1>   0.0400 
 23 O        6.1180    -0.5520    -0.1550 O.3   1 <1>  -0.3630 
 24 C        7.4010     0.0280    -0.0940 C.3   1 <1>   0.0400 
 25 H        1.4830     3.3530    -0.1000 H     1 <1>   0.3700 
 26 H       -2.1290     2.0160     1.8250 H     1 <1>   0.0800 
 27 H       -2.5260     3.6570     1.4390 H     1 <1>   0.0800 
 28 H       -0.3820     4.8720    -0.3170 H     1 <1>   0.0800 
 29 H       -0.2450     3.6060    -1.5160 H     1 <1>   0.0800 
 30 H       -2.7420     4.9720    -0.5490 H     1 <1>   0.0800 
 31 H       -2.1640     4.7970    -2.1740 H     1 <1>   0.0800 
 32 H        1.6680    -0.2770    -0.0490 H     1 <1>   0.1500 
 33 H       -4.6190     2.0570     1.6010 H     1 <1>   0.0800 
 34 H       -2.5930     2.3980    -2.1060 H     1 <1>   0.0800 
 35 H       -4.0490     3.2700    -1.7860 H     1 <1>   0.0800 
 36 H       -2.3460     0.4770    -0.9750 H     1 <1>   0.0800 
 37 H       -2.9380     0.2230     0.6390 H     1 <1>   0.0800 
 38 H        5.9400     2.1360     0.0500 H     1 <1>   0.1500 
 39 H        4.8980     4.1770     0.3220 H     1 <1>   0.0800 
 40 H        3.3380     4.1580     1.0950 H     1 <1>   0.0800 
 41 H        3.4560     4.2910    -0.6500 H     1 <1>   0.0800 
 42 H        3.7750    -1.5210    -0.1770 H     1 <1>   0.1500 
 43 H       -6.2230     0.8800     0.4160 H     1 <1>   0.0800 
 44 H       -6.0080     1.8530    -1.0350 H     1 <1>   0.0800 
 45 H       -4.7620    -0.6800    -0.4820 H     1 <1>   0.0800 
 46 H       -4.5370     0.3620    -1.8730 H     1 <1>   0.0800 
 47 H       -6.5640     4.9260     1.1070 H     1 <1>   0.0800 
 48 H       -6.0760     3.7050     2.2740 H     1 <1>   0.0800 
 49 H       -7.0930     3.2640     0.8940 H     1 <1>   0.0800 
 50 H        8.1270    -0.7620    -0.1580 H     1 <1>   0.0800 
 51 H        7.5060     0.5460     0.8420 H     1 <1>   0.0800 
 52 H        7.5190     0.7010    -0.9250 H     1 <1>   0.0800 
@<TRIPOS>BOND
  1   1   2  2   
  2   2   3  am  
  3   2   4  am  
  4   3   5  1   
  5   3   6  1   
  6   4   7  1   
  7   4  25  1   
  8   5   8  1   
  9   5  26  1   
 10   5  27  1   
 11   6   9  1   
 12   6  28  1   
 13   6  29  1   
 14   7  10  ar  
 15   7  11  ar  
 16   8  12  1   
 17   8  13  1   
 18   8  14  1   
 19   9  13  1   
 20   9  30  1   
 21   9  31  1   
 22  10  15  ar  
 23  10  16  1   
 24  11  17  ar  
 25  11  32  1   
 26  12  18  1   
 27  12  19  1   
 28  12  33  1   
 29  13  34  1   
 30  13  35  1   
 31  14  20  1   
 32  14  36  1   
 33  14  37  1   
 34  15  21  ar  
 35  15  38  1   
 36  16  39  1   
 37  16  40  1   
 38  16  41  1   
 39  17  21  ar  
 40  17  42  1   
 41  18  22  1   
 42  19  20  1   
 43  19  43  1   
 44  19  44  1   
 45  20  45  1   
 46  20  46  1   
 47  21  23  1   
 48  22  47  1   
 49  22  48  1   
 50  22  49  1   
 51  23  24  1   
 52  24  50  1   
 53  24  51  1   
 54  24  52  1   
@<TRIPOS>SUBSTRUCTURE
  1 ****   2 GROUP 4 **** **** 0

# MOE 2024.06 (io_trps.svl 2023.06)
