@<TRIPOS>MOLECULE
NONAME
47 50 1 0 0 
SMALL
USER_CHARGES


@<TRIPOS>ATOM
  1 O       -0.7610     1.0110    -1.6330 O.2   1 <1>  -0.5700 
  2 C       -0.4040     1.9170    -0.9160 C.2   1 <1>   0.5690 
  3 N       -1.2700     2.8590    -0.4190 N.am  1 <1>  -0.5090 
  4 C        1.0920     2.0140    -0.5960 C.3   1 <1>   0.1810 
  5 C       -0.7690     4.0410     0.3520 C.3   1 <1>   0.3640 
  6 C       -2.7420     2.7460    -0.5650 C.3   1 <1>   0.0490 
  7 O        1.3940     2.9180     0.4390 O.3   1 <1>  -0.5600 
  8 C       -1.3990     5.3360    -0.1640 C.ar  1 <1>  -0.1440 
  9 C        0.7690     4.1760     0.2950 C.3   1 <1>   0.2610 
 10 C       -3.5910     2.7280     0.6700 C.3   1 <1>  -0.2000 
 11 C       -3.4310     1.4860    -0.1450 C.3   1 <1>  -0.2000 
 12 C       -1.9170     6.2550     0.7390 C.ar  1 <1>   0.1600 
 13 C       -1.4510     5.6360    -1.5140 C.ar  1 <1>  -0.1500 
 14 C        1.2600     5.1830     1.3460 C.2   1 <1>   0.5690 
 15 N       -2.4650     7.4150     0.4140 N.ar  1 <1>  -0.6200 
 16 C       -2.0180     6.8400    -1.8690 C.ar  1 <1>  -0.1500 
 17 O        0.6350     5.2980     2.3790 O.2   1 <1>  -0.5700 
 18 N        2.3460     5.9810     1.0880 N.am  1 <1>  -0.6600 
 19 C       -2.5020     7.6790    -0.8810 C.ar  1 <1>   0.1600 
 20 C        2.4900     7.2820     1.7990 C.3   1 <1>   0.3200 
 21 C        3.3210     5.7510    -0.0140 C.3   1 <1>   0.0600 
 22 C        1.9740     8.3990     0.9070 C.2   1 <1>  -0.0400 
 23 O        2.7700     8.9230    -0.0070 O.3   1 <1>  -0.2800 
 24 C        0.7600     8.9900     0.8710 C.2   1 <1>  -0.1500 
 25 C        2.0870     9.8570    -0.6400 C.2   1 <1>  -0.0100 
 26 C        0.8350     9.9500    -0.1460 C.2   1 <1>  -0.1500 
 27 H        1.6240     2.3170    -1.4780 H     1 <1>   0.0800 
 28 H        1.4500     1.0460    -0.2960 H     1 <1>   0.0800 
 29 H       -1.0600     3.8930     1.3770 H     1 <1>   0.0800 
 30 H       -3.1130     3.2580    -1.4380 H     1 <1>   0.1000 
 31 H        1.0340     4.5580    -0.6730 H     1 <1>   0.0800 
 32 H       -3.1330     2.7480     1.6430 H     1 <1>   0.1000 
 33 H       -4.5410     3.2310     0.6490 H     1 <1>   0.1000 
 34 H       -4.2660     1.1410    -0.7290 H     1 <1>   0.1000 
 35 H       -2.8320     0.6770     0.2360 H     1 <1>   0.1000 
 36 H       -1.8730     6.0300     1.7930 H     1 <1>   0.1500 
 37 H       -1.0710     4.9620    -2.2620 H     1 <1>   0.1500 
 38 H       -2.0880     7.1280    -2.9020 H     1 <1>   0.1500 
 39 H       -2.9440     8.6170    -1.1720 H     1 <1>   0.1500 
 40 H        1.9250     7.2750     2.7150 H     1 <1>   0.0800 
 41 H        3.5210     7.4570     2.0480 H     1 <1>   0.0800 
 42 H        4.3040     6.0600     0.2980 H     1 <1>   0.0800 
 43 H        3.0360     6.3250    -0.8790 H     1 <1>   0.0800 
 44 H        3.3630     4.7080    -0.2720 H     1 <1>   0.0800 
 45 H       -0.1100     8.7870     1.4720 H     1 <1>   0.1500 
 46 H        2.5690    10.4080    -1.4280 H     1 <1>   0.1500 
 47 H        0.0360    10.6060    -0.4410 H     1 <1>   0.1500 
@<TRIPOS>BOND
  1   1   2  2   
  2   2   3  am  
  3   2   4  1   
  4   3   5  1   
  5   3   6  1   
  6   4   7  1   
  7   4  27  1   
  8   4  28  1   
  9   5   8  1   
 10   5   9  1   
 11   5  29  1   
 12   6  10  1   
 13   6  11  1   
 14   6  30  1   
 15   7   9  1   
 16   8  12  ar  
 17   8  13  ar  
 18   9  14  1   
 19   9  31  1   
 20  10  11  1   
 21  10  32  1   
 22  10  33  1   
 23  11  34  1   
 24  11  35  1   
 25  12  15  ar  
 26  12  36  1   
 27  13  16  ar  
 28  13  37  1   
 29  14  17  2   
 30  14  18  am  
 31  15  19  ar  
 32  16  19  ar  
 33  16  38  1   
 34  18  20  1   
 35  18  21  1   
 36  19  39  1   
 37  20  22  1   
 38  20  40  1   
 39  20  41  1   
 40  21  42  1   
 41  21  43  1   
 42  21  44  1   
 43  22  23  1   
 44  22  24  2   
 45  23  25  1   
 46  24  26  1   
 47  24  45  1   
 48  25  26  2   
 49  25  46  1   
 50  26  47  1   
@<TRIPOS>SUBSTRUCTURE
  1 ****   8 GROUP 4 **** **** 0

# MOE 2024.06 (io_trps.svl 2023.06)
