@<TRIPOS>MOLECULE
NONAME
52 55 1 0 0 
SMALL
USER_CHARGES


@<TRIPOS>ATOM
  1 O        1.0270    -0.0690     2.1670 O.2   1 <1>  -0.5700 
  2 C        1.2160    -0.8970     1.3010 C.2   1 <1>   0.9370 
  3 N        2.4340    -0.8940     0.6080 N.pl3 1 <1>  -0.5760 
  4 C        0.2230    -1.8560     0.9820 C.2   1 <1>  -0.1360 
  5 C        2.6270    -1.8040    -0.3830 C.cat 1 <1>   0.7390 
  6 C        3.4500    -0.0240     0.9250 C.2   1 <1>   0.1910 
  7 C        0.4290    -2.7230    -0.0230 C.2   1 <1>   0.2030 
  8 N        1.6130    -2.6190    -0.7080 N.pl3 1 <1>  -0.6450 
  9 C        3.8590    -1.8640    -1.0450 C.2   1 <1>  -0.1800 
 10 C        4.6520    -0.0620     0.2760 C.2   1 <1>  -0.1500 
 11 C       -0.5570    -3.8240    -0.4280 C.3   1 <1>   0.2480 
 12 C        4.8790    -1.0040    -0.7340 C.2   1 <1>  -0.1380 
 13 N       -0.5130    -4.9990     0.4790 N.3   1 <1>  -0.8100 
 14 C        6.2220    -1.0630    -1.4390 C.3   1 <1>  -0.1020 
 15 C        0.8180    -5.6370     0.6670 C.3   1 <1>   0.1100 
 16 C       -1.5670    -5.9890     0.1710 C.3   1 <1>   0.1100 
 17 C        1.3680    -6.4040    -0.5690 C.3   1 <1>  -0.1060 
 18 C       -1.0480    -7.2400    -0.5560 C.3   1 <1>  -0.1600 
 19 C        2.1950    -5.3950    -1.3750 C.2   1 <1>   0.9060 
 20 C        0.1720    -6.9250    -1.4240 C.3   1 <1>   0.2000 
 21 C        2.2640    -7.5900    -0.0800 C.3   1 <1>  -0.0650 
 22 O        1.7140    -4.7830    -2.3380 O.co2 1 <1>  -0.9000 
 23 O        3.2590    -4.9590    -0.9310 O.co2 1 <1>  -0.9000 
 24 O        0.4840    -8.0810    -2.1270 O.3   1 <1>  -0.6800 
 25 C        3.2260    -7.3050     1.0870 C.3   1 <1>  -0.1950 
 26 C        3.8450    -8.4480     1.8280 C.3   1 <1>  -0.2000 
 27 C        2.8460    -7.5620     2.5130 C.3   1 <1>  -0.2000 
 28 H       -0.6670    -1.8580     1.5790 H     1 <1>   0.1500 
 29 H        3.2820     0.7000     1.7090 H     1 <1>   0.1500 
 30 H        1.8460    -3.3660    -1.4130 H     1 <1>   0.4500 
 31 H        3.9770    -2.6230    -1.8000 H     1 <1>   0.1500 
 32 H        5.4380     0.6250     0.5380 H     1 <1>   0.1500 
 33 H       -0.3900    -4.1210    -1.4470 H     1 <1>   0.0800 
 34 H       -1.5470    -3.4070    -0.3850 H     1 <1>   0.0800 
 35 H        6.4190    -0.1330    -1.9410 H     1 <1>   0.0800 
 36 H        6.2350    -1.8550    -2.1680 H     1 <1>   0.0800 
 37 H        7.0050    -1.2480    -0.7250 H     1 <1>   0.0800 
 38 H        1.5390    -4.9110     1.0030 H     1 <1>   0.0800 
 39 H        0.7010    -6.3360     1.4750 H     1 <1>   0.0800 
 40 H       -2.0280    -6.2960     1.0950 H     1 <1>   0.0800 
 41 H       -2.3350    -5.5280    -0.4270 H     1 <1>   0.0800 
 42 H       -1.8380    -7.6390    -1.1670 H     1 <1>   0.0800 
 43 H       -0.7880    -7.9820     0.1780 H     1 <1>   0.0800 
 44 H       -0.1320    -6.1980    -2.1570 H     1 <1>   0.0800 
 45 H        1.6350    -8.4080     0.2220 H     1 <1>   0.0800 
 46 H        2.8580    -7.9280    -0.9130 H     1 <1>   0.0800 
 47 H        0.9570    -8.7020    -1.5460 H     1 <1>   0.4000 
 48 H        3.8850    -6.4760     0.8900 H     1 <1>   0.1000 
 49 H        3.5570    -9.4540     1.5760 H     1 <1>   0.1000 
 50 H        4.8830    -8.3740     2.1030 H     1 <1>   0.1000 
 51 H        3.1910    -6.8730     3.2640 H     1 <1>   0.1000 
 52 H        1.8780    -7.9710     2.7410 H     1 <1>   0.1000 
@<TRIPOS>BOND
  1   1   2  2   
  2   2   3  1   
  3   2   4  1   
  4   3   5  ar  
  5   3   6  1   
  6   4   7  2   
  7   4  28  1   
  8   5   8  ar  
  9   5   9  1   
 10   6  10  2   
 11   6  29  1   
 12   7   8  1   
 13   7  11  1   
 14   8  30  1   
 15   9  12  2   
 16   9  31  1   
 17  10  12  1   
 18  10  32  1   
 19  11  13  1   
 20  11  33  1   
 21  11  34  1   
 22  12  14  1   
 23  13  15  1   
 24  13  16  1   
 25  14  35  1   
 26  14  36  1   
 27  14  37  1   
 28  15  17  1   
 29  15  38  1   
 30  15  39  1   
 31  16  18  1   
 32  16  40  1   
 33  16  41  1   
 34  17  19  1   
 35  17  20  1   
 36  17  21  1   
 37  18  20  1   
 38  18  42  1   
 39  18  43  1   
 40  19  22  ar  
 41  19  23  ar  
 42  20  24  1   
 43  20  44  1   
 44  21  25  1   
 45  21  45  1   
 46  21  46  1   
 47  24  47  1   
 48  25  26  1   
 49  25  27  1   
 50  25  48  1   
 51  26  27  1   
 52  26  49  1   
 53  26  50  1   
 54  27  51  1   
 55  27  52  1   
@<TRIPOS>SUBSTRUCTURE
  1 ****   8 GROUP 4 **** **** 0

# MOE 2024.06 (io_trps.svl 2023.06)
