@<TRIPOS>MOLECULE
NONAME
53 55 1 0 0 
SMALL
USER_CHARGES


@<TRIPOS>ATOM
  1 O       -0.5700     1.5370     2.1620 O.2   1 <1>  -0.5700 
  2 C       -0.2250     2.4010     1.3880 C.2   1 <1>   0.5690 
  3 N       -1.1560     3.2140     0.7760 N.am  1 <1>  -0.6600 
  4 C        1.2890     2.5020     1.1550 C.3   1 <1>  -0.0190 
  5 C       -2.6190     3.0270     1.0420 C.3   1 <1>   0.1400 
  6 C       -0.9100     4.2840    -0.2310 C.3   1 <1>   0.1400 
  7 C        1.9060     3.8240     1.6650 C.3   1 <1>  -0.1600 
  8 C        1.7220     2.1470    -0.2850 C.3   1 <1>  -0.1600 
  9 C       -3.3670     2.6120    -0.2510 C.3   1 <1>   0.0000 
 10 C       -1.5980     3.9160    -1.5510 C.3   1 <1>  -0.1600 
 11 C        3.4160     3.8720     1.4210 C.3   1 <1>   0.1400 
 12 C        3.2370     2.2590    -0.4630 C.3   1 <1>   0.1400 
 13 C       -4.8730     2.4350     0.0080 C.3   1 <1>   0.2000 
 14 C       -3.1010     3.6590    -1.3550 C.3   1 <1>  -0.1600 
 15 C       -2.9560     1.1920    -0.6780 C.3   1 <1>  -0.1600 
 16 N        3.6810     3.6070    -0.0180 N.am  1 <1>  -0.6600 
 17 O       -5.3680     3.4290     0.8550 O.3   1 <1>  -0.5600 
 18 C       -5.0260     1.0410     0.6270 C.3   1 <1>  -0.1600 
 19 C       -3.7850     0.2470     0.1970 C.3   1 <1>  -0.1600 
 20 C        4.2200     4.5040    -0.9050 C.2   1 <1>   0.5690 
 21 C       -6.7560     3.5210     0.9050 C.3   1 <1>   0.0400 
 22 O        4.3540     4.2510    -2.0770 O.2   1 <1>  -0.5700 
 23 C        4.6660     5.8720    -0.4420 C.3   1 <1>  -0.1790 
 24 H        1.7220     1.7350     1.7740 H     1 <1>   0.0800 
 25 H       -2.7800     2.2930     1.8110 H     1 <1>   0.0800 
 26 H       -3.0180     3.9570     1.4070 H     1 <1>   0.0800 
 27 H       -1.3190     5.2080     0.1420 H     1 <1>   0.0800 
 28 H        0.1340     4.4400    -0.4070 H     1 <1>   0.0800 
 29 H        1.7170     3.9140     2.7210 H     1 <1>   0.0800 
 30 H        1.4600     4.6760     1.1910 H     1 <1>   0.0800 
 31 H        1.2580     2.7840    -1.0100 H     1 <1>   0.0800 
 32 H        1.4160     1.1400    -0.5070 H     1 <1>   0.0800 
 33 H       -1.4610     4.7170    -2.2550 H     1 <1>   0.0800 
 34 H       -1.1250     3.0400    -1.9600 H     1 <1>   0.0800 
 35 H        3.9050     3.1140     2.0100 H     1 <1>   0.0800 
 36 H        3.8030     4.8270     1.7260 H     1 <1>   0.0800 
 37 H        3.4950     2.0900    -1.4950 H     1 <1>   0.0800 
 38 H        3.7360     1.5110     0.1290 H     1 <1>   0.0800 
 39 H       -5.3990     2.4780    -0.9310 H     1 <1>   0.0800 
 40 H       -3.5380     3.3400    -2.2850 H     1 <1>   0.0800 
 41 H       -3.5760     4.5830    -1.0720 H     1 <1>   0.0800 
 42 H       -3.2230     1.0320    -1.7080 H     1 <1>   0.0800 
 43 H       -1.9020     1.0080    -0.5670 H     1 <1>   0.0800 
 44 H       -5.0520     1.1110     1.7010 H     1 <1>   0.0800 
 45 H       -5.9240     0.5680     0.2720 H     1 <1>   0.0800 
 46 H       -3.2140    -0.0280     1.0690 H     1 <1>   0.0800 
 47 H       -4.0490    -0.6480    -0.3400 H     1 <1>   0.0800 
 48 H       -7.0130     4.3290     1.5660 H     1 <1>   0.0800 
 49 H       -7.1640     2.6010     1.2850 H     1 <1>   0.0800 
 50 H       -7.1350     3.7260    -0.0810 H     1 <1>   0.0800 
 51 H        5.4330     5.7720     0.3020 H     1 <1>   0.0800 
 52 H        3.8300     6.4110    -0.0390 H     1 <1>   0.0800 
 53 H        5.0630     6.4240    -1.2740 H     1 <1>   0.0800 
@<TRIPOS>BOND
  1   1   2  2   
  2   2   3  am  
  3   2   4  1   
  4   3   5  1   
  5   3   6  1   
  6   4   7  1   
  7   4   8  1   
  8   4  24  1   
  9   5   9  1   
 10   5  25  1   
 11   5  26  1   
 12   6  10  1   
 13   6  27  1   
 14   6  28  1   
 15   7  11  1   
 16   7  29  1   
 17   7  30  1   
 18   8  12  1   
 19   8  31  1   
 20   8  32  1   
 21   9  13  1   
 22   9  14  1   
 23   9  15  1   
 24  10  14  1   
 25  10  33  1   
 26  10  34  1   
 27  11  16  1   
 28  11  35  1   
 29  11  36  1   
 30  12  16  1   
 31  12  37  1   
 32  12  38  1   
 33  13  17  1   
 34  13  18  1   
 35  13  39  1   
 36  14  40  1   
 37  14  41  1   
 38  15  19  1   
 39  15  42  1   
 40  15  43  1   
 41  16  20  am  
 42  17  21  1   
 43  18  19  1   
 44  18  44  1   
 45  18  45  1   
 46  19  46  1   
 47  19  47  1   
 48  20  22  2   
 49  20  23  1   
 50  21  48  1   
 51  21  49  1   
 52  21  50  1   
 53  23  51  1   
 54  23  52  1   
 55  23  53  1   
@<TRIPOS>SUBSTRUCTURE
  1 ****   3 GROUP 4 **** **** 0

# MOE 2024.06 (io_trps.svl 2023.06)
