@<TRIPOS>MOLECULE
NONAME
55 58 1 0 0 
SMALL
USER_CHARGES


@<TRIPOS>ATOM
  1 O       -1.4670    -0.0160    -1.5690 O.2   1 <1>  -0.5700 
  2 C       -1.6100     0.4210    -0.4420 C.2   1 <1>   0.5440 
  3 N       -1.8180    -0.4810     0.5640 N.am  1 <1>  -0.7300 
  4 C       -1.5700     1.8470    -0.1780 C.ar  1 <1>   0.0860 
  5 C       -1.8600    -1.9540     0.4020 C.3   1 <1>   0.2200 
  6 C       -0.9980     2.7310    -1.0960 C.ar  1 <1>  -0.1500 
  7 C       -2.0960     2.4060     0.9900 C.ar  1 <1>  -0.1500 
  8 C       -3.2920    -2.4720     0.4390 C.3   1 <1>  -0.0800 
  9 C       -1.2990    -2.6020     1.6590 C.3   1 <1>   0.1200 
 10 C       -0.9390     4.0940    -0.8730 C.ar  1 <1>  -0.1430 
 11 C       -2.0430     3.7650     1.2250 C.ar  1 <1>  -0.1500 
 12 C       -3.5730    -2.6000     1.9400 C.3   1 <1>   0.1200 
 13 C       -4.3300    -1.6380    -0.3350 C.3   1 <1>  -0.0160 
 14 O       -2.3360    -2.5470     2.5910 O.3   1 <1>  -0.5600 
 15 C       -1.4650     4.6290     0.3030 C.ar  1 <1>   0.1000 
 16 C       -0.3010     5.0050    -1.9110 C.3   1 <1>  -0.0970 
 17 C       -5.6990    -2.2990    -0.2900 C.ar  1 <1>  -0.1430 
 18 N       -1.4200     5.9910     0.5540 N.pl3 1 <1>  -0.8380 
 19 C       -6.0280    -3.3430    -1.1290 C.ar  1 <1>  -0.1500 
 20 C       -6.6820    -1.8910     0.5900 C.ar  1 <1>  -0.1500 
 21 C       -2.6980     6.7530     0.4640 C.3   1 <1>   0.2090 
 22 C       -0.5490     6.4670     1.6660 C.3   1 <1>   0.2090 
 23 C       -7.2850    -3.9190    -1.0460 C.ar  1 <1>   0.1600 
 24 C       -7.9080    -2.5350     0.5920 C.ar  1 <1>   0.1600 
 25 C       -2.4310     8.2690     0.4870 C.3   1 <1>   0.1200 
 26 C       -0.3990     7.9980     1.6230 C.3   1 <1>   0.1200 
 27 N       -8.2330    -3.5410    -0.2040 N.ar  1 <1>  -0.6200 
 28 O       -1.6520     8.6260     1.5970 O.3   1 <1>  -0.5600 
 29 H       -1.9100    -0.1700     1.5320 H     1 <1>   0.3700 
 30 H       -1.3300    -2.2570    -0.4860 H     1 <1>   0.0800 
 31 H       -0.5920     2.3240    -2.0060 H     1 <1>   0.1500 
 32 H       -2.5600     1.7750     1.7250 H     1 <1>   0.1500 
 33 H       -3.2890    -3.4670     0.0280 H     1 <1>   0.0800 
 34 H       -0.4340    -2.0900     2.0430 H     1 <1>   0.0800 
 35 H       -1.0660    -3.6380     1.4840 H     1 <1>   0.0800 
 36 H       -2.4540     4.1740     2.1290 H     1 <1>   0.1500 
 37 H       -4.0560    -3.5330     2.1770 H     1 <1>   0.0800 
 38 H       -4.1670    -1.7800     2.3040 H     1 <1>   0.0800 
 39 H       -4.0150    -1.5380    -1.3590 H     1 <1>   0.0800 
 40 H       -4.4000    -0.6470     0.0770 H     1 <1>   0.0800 
 41 H        0.0650     4.4450    -2.7520 H     1 <1>   0.0800 
 42 H        0.5210     5.5380    -1.4680 H     1 <1>   0.0800 
 43 H       -1.0250     5.7190    -2.2600 H     1 <1>   0.0800 
 44 H       -5.3190    -3.7140    -1.8460 H     1 <1>   0.1500 
 45 H       -6.5070    -1.0800     1.2730 H     1 <1>   0.1500 
 46 H       -3.2050     6.4890    -0.4470 H     1 <1>   0.0800 
 47 H       -3.3330     6.4920     1.2920 H     1 <1>   0.0800 
 48 H       -0.9780     6.1800     2.6100 H     1 <1>   0.0800 
 49 H        0.4190     6.0050     1.5820 H     1 <1>   0.0800 
 50 H       -7.5240    -4.7330    -1.7090 H     1 <1>   0.1500 
 51 H       -8.6630    -2.2040     1.2850 H     1 <1>   0.1500 
 52 H       -3.3590     8.8080     0.5490 H     1 <1>   0.0800 
 53 H       -1.9140     8.5690    -0.4080 H     1 <1>   0.0800 
 54 H        0.1520     8.2930     0.7470 H     1 <1>   0.0800 
 55 H        0.1250     8.3450     2.4960 H     1 <1>   0.0800 
@<TRIPOS>BOND
  1   1   2  2   
  2   2   3  am  
  3   2   4  1   
  4   3   5  1   
  5   3  29  1   
  6   4   6  ar  
  7   4   7  ar  
  8   5   8  1   
  9   5   9  1   
 10   5  30  1   
 11   6  10  ar  
 12   6  31  1   
 13   7  11  ar  
 14   7  32  1   
 15   8  12  1   
 16   8  13  1   
 17   8  33  1   
 18   9  14  1   
 19   9  34  1   
 20   9  35  1   
 21  10  15  ar  
 22  10  16  1   
 23  11  15  ar  
 24  11  36  1   
 25  12  14  1   
 26  12  37  1   
 27  12  38  1   
 28  13  17  1   
 29  13  39  1   
 30  13  40  1   
 31  15  18  1   
 32  16  41  1   
 33  16  42  1   
 34  16  43  1   
 35  17  19  ar  
 36  17  20  ar  
 37  18  21  1   
 38  18  22  1   
 39  19  23  ar  
 40  19  44  1   
 41  20  24  ar  
 42  20  45  1   
 43  21  25  1   
 44  21  46  1   
 45  21  47  1   
 46  22  26  1   
 47  22  48  1   
 48  22  49  1   
 49  23  27  ar  
 50  23  50  1   
 51  24  27  ar  
 52  24  51  1   
 53  25  28  1   
 54  25  52  1   
 55  25  53  1   
 56  26  28  1   
 57  26  54  1   
 58  26  55  1   
@<TRIPOS>SUBSTRUCTURE
  1 ****   7 GROUP 4 **** **** 0

# MOE 2024.06 (io_trps.svl 2023.06)
