@<TRIPOS>MOLECULE
NONAME
45 46 1 0 0 
SMALL
USER_CHARGES


@<TRIPOS>ATOM
  1 S       -1.0520     0.3880    -0.3450 S.3   1 <1>  -0.4600 
  2 C       -1.4780    -1.2650     0.2650 C.3   1 <1>   0.0700 
  3 C        0.5490     0.7120     0.4390 C.3   1 <1>  -0.0100 
  4 C       -2.8210    -1.6550    -0.3530 C.3   1 <1>  -0.0990 
  5 C       -3.3090    -3.0200     0.1040 C.2   1 <1>   0.5690 
  6 O       -2.6250    -3.6500     0.8790 O.2   1 <1>  -0.5700 
  7 N       -4.5050    -3.5100    -0.3520 N.am  1 <1>  -0.6600 
  8 C       -4.9800    -4.8730     0.0480 C.3   1 <1>   0.1400 
  9 C       -5.4580    -2.7670    -1.2250 C.3   1 <1>   0.1400 
 10 C       -6.0430    -4.8160     1.1560 C.3   1 <1>   0.1400 
 11 C       -6.4110    -1.8800    -0.4080 C.3   1 <1>  -0.1600 
 12 N       -7.1850    -3.9160     0.7980 N.am  1 <1>  -0.6600 
 13 C       -6.8720    -2.4670     0.9330 C.3   1 <1>   0.1400 
 14 C       -8.4270    -4.3520     0.3740 C.2   1 <1>   0.7150 
 15 O       -9.3260    -3.5320     0.3040 O.2   1 <1>  -0.5700 
 16 C       -8.6960    -5.7280     0.0040 C.2   1 <1>   0.0550 
 17 O       -7.7790    -6.4730    -0.6020 O.3   1 <1>  -0.2800 
 18 C       -9.8180    -6.4670     0.1490 C.2   1 <1>   0.0460 
 19 C       -8.4180    -7.6110    -0.7740 C.2   1 <1>   0.2980 
 20 N       -9.6230    -7.6810    -0.3520 N.2   1 <1>  -0.5650 
 21 C      -11.1590    -6.1160     0.7610 C.3   1 <1>  -0.0590 
 22 C       -7.6800    -8.7390    -1.4540 C.3   1 <1>  -0.0600 
 23 H       -1.5360    -1.2140     1.3380 H     1 <1>   0.0800 
 24 H       -0.6940    -1.9400    -0.0340 H     1 <1>   0.0800 
 25 H        0.8740     1.6880     0.1270 H     1 <1>   0.0800 
 26 H        1.2400    -0.0440     0.1110 H     1 <1>   0.0800 
 27 H        0.4120     0.6760     1.5050 H     1 <1>   0.0800 
 28 H       -2.7190    -1.6660    -1.4220 H     1 <1>   0.0800 
 29 H       -3.5500    -0.9170    -0.0790 H     1 <1>   0.0800 
 30 H       -4.1500    -5.4630     0.3970 H     1 <1>   0.0800 
 31 H       -5.3840    -5.3780    -0.8110 H     1 <1>   0.0800 
 32 H       -6.0440    -3.4790    -1.7820 H     1 <1>   0.0800 
 33 H       -4.9250    -2.1690    -1.9420 H     1 <1>   0.0800 
 34 H       -5.5790    -4.4610     2.0600 H     1 <1>   0.0800 
 35 H       -6.4000    -5.8090     1.3610 H     1 <1>   0.0800 
 36 H       -7.2790    -1.6760    -1.0080 H     1 <1>   0.0800 
 37 H       -5.9400    -0.9330    -0.2180 H     1 <1>   0.0800 
 38 H       -7.7380    -1.9320     1.2850 H     1 <1>   0.0800 
 39 H       -6.0940    -2.3370     1.6650 H     1 <1>   0.0800 
 40 H      -11.1480    -5.1260     1.1780 H     1 <1>   0.0800 
 41 H      -11.3950    -6.8170     1.5390 H     1 <1>   0.0800 
 42 H      -11.9210    -6.1660     0.0060 H     1 <1>   0.0800 
 43 H       -6.8080    -8.9970    -0.8830 H     1 <1>   0.0800 
 44 H       -7.3830    -8.4340    -2.4400 H     1 <1>   0.0800 
 45 H       -8.3180    -9.6000    -1.5290 H     1 <1>   0.0800 
@<TRIPOS>BOND
  1   1   2  1   
  2   1   3  1   
  3   2   4  1   
  4   2  23  1   
  5   2  24  1   
  6   3  25  1   
  7   3  26  1   
  8   3  27  1   
  9   4   5  1   
 10   4  28  1   
 11   4  29  1   
 12   5   6  2   
 13   5   7  am  
 14   7   8  1   
 15   7   9  1   
 16   8  10  1   
 17   8  30  1   
 18   8  31  1   
 19   9  11  1   
 20   9  32  1   
 21   9  33  1   
 22  10  12  1   
 23  10  34  1   
 24  10  35  1   
 25  11  13  1   
 26  11  36  1   
 27  11  37  1   
 28  12  13  1   
 29  12  14  am  
 30  13  38  1   
 31  13  39  1   
 32  14  15  2   
 33  14  16  1   
 34  16  17  1   
 35  16  18  2   
 36  17  19  1   
 37  18  20  1   
 38  18  21  1   
 39  19  20  2   
 40  19  22  1   
 41  21  40  1   
 42  21  41  1   
 43  21  42  1   
 44  22  43  1   
 45  22  44  1   
 46  22  45  1   
@<TRIPOS>SUBSTRUCTURE
  1 ****   8 GROUP 4 **** **** 0

# MOE 2024.06 (io_trps.svl 2023.06)
