@<TRIPOS>MOLECULE
NONAME
57 59 1 0 0 
SMALL
USER_CHARGES


@<TRIPOS>ATOM
  1 O       -0.6570     0.4110     0.3470 O.2   1 <1>  -0.5700 
  2 C       -1.2420     1.4710     0.4100 C.2   1 <1>   0.5690 
  3 N       -2.5640     1.5200     0.7980 N.am  1 <1>  -0.6600 
  4 C       -0.4660     2.7500     0.0270 C.3   1 <1>   0.2610 
  5 C       -3.2390     0.2710     1.2640 C.3   1 <1>   0.1400 
  6 C       -3.4220     2.7390     0.6830 C.3   1 <1>   0.1400 
  7 O       -0.7340     3.1060    -1.3010 O.3   1 <1>  -0.6800 
  8 C        1.0550     2.6110     0.2200 C.3   1 <1>  -0.0160 
  9 C       -3.7610    -0.5510     0.0760 C.3   1 <1>   0.1400 
 10 C       -4.7700     2.4830    -0.0050 C.3   1 <1>  -0.1600 
 11 C        1.7730     3.9530     0.1510 C.ar  1 <1>  -0.1430 
 12 N       -4.9580     0.0830    -0.5660 N.am  1 <1>  -0.6600 
 13 C       -4.7240     1.4440    -1.1310 C.3   1 <1>   0.1400 
 14 C        2.1510     4.4890    -1.0700 C.ar  1 <1>  -0.1500 
 15 C        2.0570     4.6530     1.3150 C.ar  1 <1>  -0.1500 
 16 C       -6.2060    -0.4870    -0.6340 C.2   1 <1>   0.5690 
 17 C        2.8050     5.7080    -1.1290 C.ar  1 <1>  -0.1500 
 18 C        2.7100     5.8720     1.2580 C.ar  1 <1>  -0.1500 
 19 O       -7.1480     0.1060    -1.1080 O.2   1 <1>  -0.5700 
 20 C       -6.4440    -1.8900    -0.0990 C.3   1 <1>  -0.0990 
 21 C        3.0850     6.4010     0.0360 C.ar  1 <1>  -0.1500 
 22 C       -7.8840    -2.3610    -0.3010 C.3   1 <1>   0.1200 
 23 O       -8.0020    -3.6630     0.2300 O.3   1 <1>  -0.3630 
 24 C       -9.1830    -4.3300     0.1890 C.ar  1 <1>   0.0820 
 25 C      -10.3500    -3.8070    -0.3620 C.ar  1 <1>  -0.1500 
 26 C       -9.2000    -5.6030     0.7360 C.ar  1 <1>  -0.1500 
 27 C      -11.5130    -4.5580    -0.3620 C.ar  1 <1>  -0.1500 
 28 C      -10.3630    -6.3530     0.7360 C.ar  1 <1>  -0.1500 
 29 C      -11.5210    -5.8290     0.1860 C.ar  1 <1>  -0.1500 
 30 H       -0.8040     3.5590     0.6490 H     1 <1>   0.0800 
 31 H       -4.0460     0.5070     1.9350 H     1 <1>   0.0800 
 32 H       -2.5280    -0.3260     1.8080 H     1 <1>   0.0800 
 33 H       -2.9110     3.4910     0.1100 H     1 <1>   0.0800 
 34 H       -3.5940     3.1430     1.6660 H     1 <1>   0.0800 
 35 H       -0.4580     2.3770    -1.8900 H     1 <1>   0.4000 
 36 H        1.4580     1.9320    -0.5100 H     1 <1>   0.0800 
 37 H        1.2390     2.1750     1.1860 H     1 <1>   0.0800 
 38 H       -3.9980    -1.5350     0.4320 H     1 <1>   0.0800 
 39 H       -2.9780    -0.6580    -0.6540 H     1 <1>   0.0800 
 40 H       -5.0990     3.4170    -0.4230 H     1 <1>   0.0800 
 41 H       -5.5110     2.1970     0.7210 H     1 <1>   0.0800 
 42 H       -3.7790     1.4780    -1.6460 H     1 <1>   0.0800 
 43 H       -5.4920     1.6720    -1.8510 H     1 <1>   0.0800 
 44 H        1.9330     3.9620    -1.9810 H     1 <1>   0.1500 
 45 H        1.7730     4.2530     2.2720 H     1 <1>   0.1500 
 46 H        3.0930     6.1170    -2.0810 H     1 <1>   0.1500 
 47 H        2.9270     6.4090     2.1650 H     1 <1>   0.1500 
 48 H       -6.2250    -1.8980     0.9520 H     1 <1>   0.0800 
 49 H       -5.7870    -2.5680    -0.6110 H     1 <1>   0.0800 
 50 H        3.5920     7.3480    -0.0100 H     1 <1>   0.1500 
 51 H       -8.1280    -2.3940    -1.3490 H     1 <1>   0.0800 
 52 H       -8.5700    -1.7150     0.2190 H     1 <1>   0.0800 
 53 H      -10.3740    -2.8240    -0.7940 H     1 <1>   0.1500 
 54 H       -8.2970    -6.0030     1.1600 H     1 <1>   0.1500 
 55 H      -12.4140    -4.1520    -0.7890 H     1 <1>   0.1500 
 56 H      -10.3670    -7.3410     1.1620 H     1 <1>   0.1500 
 57 H      -12.4270    -6.4110     0.1850 H     1 <1>   0.1500 
@<TRIPOS>BOND
  1   1   2  2   
  2   2   3  am  
  3   2   4  1   
  4   3   5  1   
  5   3   6  1   
  6   4   7  1   
  7   4   8  1   
  8   4  30  1   
  9   5   9  1   
 10   5  31  1   
 11   5  32  1   
 12   6  10  1   
 13   6  33  1   
 14   6  34  1   
 15   7  35  1   
 16   8  11  1   
 17   8  36  1   
 18   8  37  1   
 19   9  12  1   
 20   9  38  1   
 21   9  39  1   
 22  10  13  1   
 23  10  40  1   
 24  10  41  1   
 25  11  14  ar  
 26  11  15  ar  
 27  12  13  1   
 28  12  16  am  
 29  13  42  1   
 30  13  43  1   
 31  14  17  ar  
 32  14  44  1   
 33  15  18  ar  
 34  15  45  1   
 35  16  19  2   
 36  16  20  1   
 37  17  21  ar  
 38  17  46  1   
 39  18  21  ar  
 40  18  47  1   
 41  20  22  1   
 42  20  48  1   
 43  20  49  1   
 44  21  50  1   
 45  22  23  1   
 46  22  51  1   
 47  22  52  1   
 48  23  24  1   
 49  24  25  ar  
 50  24  26  ar  
 51  25  27  ar  
 52  25  53  1   
 53  26  28  ar  
 54  26  54  1   
 55  27  29  ar  
 56  27  55  1   
 57  28  29  ar  
 58  28  56  1   
 59  29  57  1   
@<TRIPOS>SUBSTRUCTURE
  1 ****   9 GROUP 4 **** **** 0

# MOE 2024.06 (io_trps.svl 2023.06)
