@<TRIPOS>MOLECULE
NONAME
55 58 1 0 0 
SMALL
USER_CHARGES


@<TRIPOS>ATOM
  1 O        3.2610    -0.5940    -1.3750 O.2   1 <1>  -0.5700 
  2 C        2.4170    -1.0450    -0.6250 C.2   1 <1>   0.5440 
  3 N        1.8330    -0.2340     0.3190 N.am  1 <1>  -0.4940 
  4 C        1.9990    -2.4300    -0.7360 C.ar  1 <1>   0.0860 
  5 C        2.0250     1.1380     0.6130 C.2   1 <1>  -0.0880 
  6 C        2.0250    -3.0900    -1.9640 C.ar  1 <1>  -0.1500 
  7 C        1.5510    -3.1580     0.3690 C.ar  1 <1>  -0.1500 
  8 N        3.2070     1.8190     0.7250 N.pl3 1 <1>   0.3140 
  9 C        1.0390     2.0310     0.8720 C.2   1 <1>  -0.1810 
 10 C        1.6100    -4.4030    -2.0930 C.ar  1 <1>  -0.1500 
 11 C        1.1330    -4.4700     0.2450 C.ar  1 <1>  -0.1500 
 12 N        2.9790     3.1200     1.0580 N.2   1 <1>  -0.7070 
 13 C        4.5890     1.2460     0.6170 C.3   1 <1>   0.1760 
 14 C        1.6920     3.2280     1.1350 C.2   1 <1>   0.1390 
 15 C       -0.4650     1.8350     0.8820 C.3   1 <1>  -0.0590 
 16 C        1.1560    -5.1030    -0.9870 C.ar  1 <1>  -0.1430 
 17 C        5.5110     1.7090     1.7530 C.3   1 <1>  -0.1600 
 18 C        5.3030     1.7300    -0.6480 C.3   1 <1>  -0.1600 
 19 C        0.6910    -6.5520    -1.1130 C.3   1 <1>   0.2390 
 20 C        6.2360     2.9650     1.2500 C.3   1 <1>  -0.1600 
 21 C        5.9970     3.0370    -0.2620 C.3   1 <1>  -0.1600 
 22 N       -0.6830    -6.7300    -0.5950 N.pl3 1 <1>   0.3140 
 23 N       -0.9120    -7.3850     0.5610 N.2   1 <1>  -0.7070 
 24 C       -1.8440    -6.3150    -1.1580 C.2   1 <1>  -0.3320 
 25 C       -2.1980    -7.3730     0.7050 C.2   1 <1>   0.1080 
 26 C       -2.8380    -6.7180    -0.3390 C.2   1 <1>  -0.1500 
 27 C       -1.9570    -5.5430    -2.4610 C.3   1 <1>  -0.0600 
 28 C       -2.8860    -8.0120     1.8890 C.3   1 <1>  -0.0590 
 29 H        0.9990    -0.6320     0.7470 H     1 <1>   0.3700 
 30 H        2.3780    -2.5570    -2.8310 H     1 <1>   0.1500 
 31 H        1.5330    -2.7030     1.3430 H     1 <1>   0.1500 
 32 H        1.6460    -4.8740    -3.0610 H     1 <1>   0.1500 
 33 H        0.7850    -5.0060     1.1150 H     1 <1>   0.1500 
 34 H        4.5140     0.1760     0.6270 H     1 <1>   0.0800 
 35 H        1.1950     4.1520     1.3770 H     1 <1>   0.1500 
 36 H       -0.7270     0.8690     0.4920 H     1 <1>   0.0800 
 37 H       -0.9330     2.5870     0.2720 H     1 <1>   0.0800 
 38 H       -0.8380     1.9200     1.8870 H     1 <1>   0.0800 
 39 H        6.2410     0.9410     1.9350 H     1 <1>   0.0800 
 40 H        4.9670     1.8920     2.6640 H     1 <1>   0.0800 
 41 H        4.6220     1.8510    -1.4730 H     1 <1>   0.0800 
 42 H        6.0480     1.0030    -0.9200 H     1 <1>   0.0800 
 43 H        1.3470    -7.1890    -0.5500 H     1 <1>   0.0800 
 44 H        0.7080    -6.8700    -2.1380 H     1 <1>   0.0800 
 45 H        7.2870     2.9110     1.4750 H     1 <1>   0.0800 
 46 H        5.8220     3.8410     1.7210 H     1 <1>   0.0800 
 47 H        5.3350     3.8610    -0.4730 H     1 <1>   0.0800 
 48 H        6.9130     3.1760    -0.8100 H     1 <1>   0.0800 
 49 H       -3.8990    -6.5780    -0.4430 H     1 <1>   0.1500 
 50 H       -1.5320    -6.1090    -3.2700 H     1 <1>   0.0800 
 51 H       -1.4440    -4.6010    -2.3800 H     1 <1>   0.0800 
 52 H       -2.9910    -5.3480    -2.6860 H     1 <1>   0.0800 
 53 H       -2.6430    -9.0580     1.9210 H     1 <1>   0.0800 
 54 H       -3.9510    -7.8980     1.8110 H     1 <1>   0.0800 
 55 H       -2.5440    -7.5460     2.7950 H     1 <1>   0.0800 
@<TRIPOS>BOND
  1   1   2  2   
  2   2   3  am  
  3   2   4  1   
  4   3   5  1   
  5   3  29  1   
  6   4   6  ar  
  7   4   7  ar  
  8   5   8  1   
  9   5   9  2   
 10   6  10  ar  
 11   6  30  1   
 12   7  11  ar  
 13   7  31  1   
 14   8  12  1   
 15   8  13  1   
 16   9  14  1   
 17   9  15  1   
 18  10  16  ar  
 19  10  32  1   
 20  11  16  ar  
 21  11  33  1   
 22  12  14  2   
 23  13  17  1   
 24  13  18  1   
 25  13  34  1   
 26  14  35  1   
 27  15  36  1   
 28  15  37  1   
 29  15  38  1   
 30  16  19  1   
 31  17  20  1   
 32  17  39  1   
 33  17  40  1   
 34  18  21  1   
 35  18  41  1   
 36  18  42  1   
 37  19  22  1   
 38  19  43  1   
 39  19  44  1   
 40  20  21  1   
 41  20  45  1   
 42  20  46  1   
 43  21  47  1   
 44  21  48  1   
 45  22  23  1   
 46  22  24  1   
 47  23  25  2   
 48  24  26  2   
 49  24  27  1   
 50  25  26  1   
 51  25  28  1   
 52  26  49  1   
 53  27  50  1   
 54  27  51  1   
 55  27  52  1   
 56  28  53  1   
 57  28  54  1   
 58  28  55  1   
@<TRIPOS>SUBSTRUCTURE
  1 ****   4 GROUP 4 **** **** 0

# MOE 2024.06 (io_trps.svl 2023.06)
