@<TRIPOS>MOLECULE
NONAME
39 41 1 0 0 
SMALL
USER_CHARGES


@<TRIPOS>ATOM
  1 O        0.0820     0.4030     1.1620 O.2   1 <1>  -0.5700 
  2 C       -0.5650     1.3650     0.7690 C.2   1 <1>   0.6160 
  3 N       -1.9210     1.2780     0.5030 N.am  1 <1>  -0.4200 
  4 C        0.0250     2.6260     0.5640 C.2   1 <1>  -0.1240 
  5 C       -2.5940     2.4100     0.0680 C.2   1 <1>   0.4490 
  6 C       -2.6240    -0.0270     0.6900 C.3   1 <1>   0.0600 
  7 C       -0.7080     3.6570     0.1430 C.2   1 <1>   0.0330 
  8 C        1.4650     2.9930     0.7630 C.3   1 <1>   0.3470 
  9 N       -2.0440     3.5640    -0.1130 N.2   1 <1>  -0.6210 
 10 C       -4.0800     2.3100    -0.2180 C.3   1 <1>  -0.1790 
 11 C        0.1320     4.9030     0.0010 C.3   1 <1>   0.3470 
 12 N        1.4990     4.4650     0.4480 N.pl3 1 <1>  -0.8380 
 13 C        2.6070     5.0640    -0.1820 C.ar  1 <1>   0.4100 
 14 N        3.5620     4.2220    -0.5470 N.ar  1 <1>  -0.6200 
 15 C        2.7020     6.4870    -0.4150 C.ar  1 <1>   0.4100 
 16 C        4.5710     4.8130    -1.1680 C.ar  1 <1>   0.1600 
 17 N        3.7220     7.0440    -1.0510 N.ar  1 <1>  -0.6200 
 18 N        1.7370     7.4010     0.0450 N.pl3 1 <1>  -0.8380 
 19 C        4.6450     6.1680    -1.4160 C.ar  1 <1>   0.1600 
 20 C        1.7050     7.6050     1.5160 C.3   1 <1>   0.1290 
 21 C        1.4930     8.6450    -0.7370 C.3   1 <1>   0.1290 
 22 H       -1.9450    -0.7970     1.0130 H     1 <1>   0.0800 
 23 H       -3.0670    -0.3380    -0.2390 H     1 <1>   0.0800 
 24 H       -3.3920     0.0790     1.4360 H     1 <1>   0.0800 
 25 H        2.0790     2.4140     0.0950 H     1 <1>   0.0800 
 26 H        1.7700     2.8230     1.7800 H     1 <1>   0.0800 
 27 H       -4.2590     1.5970    -1.0010 H     1 <1>   0.0800 
 28 H       -4.4590     3.2640    -0.5390 H     1 <1>   0.0800 
 29 H       -4.6110     2.0190     0.6690 H     1 <1>   0.0800 
 30 H       -0.2440     5.6810     0.6400 H     1 <1>   0.0800 
 31 H        0.1480     5.2390    -1.0220 H     1 <1>   0.0800 
 32 H        5.3750     4.1790    -1.4960 H     1 <1>   0.1500 
 33 H        5.5030     6.5570    -1.9340 H     1 <1>   0.1500 
 34 H        1.9330     6.6840     2.0250 H     1 <1>   0.0800 
 35 H        0.7270     7.9340     1.8190 H     1 <1>   0.0800 
 36 H        2.4340     8.3460     1.7980 H     1 <1>   0.0800 
 37 H        1.5150     8.4220    -1.7910 H     1 <1>   0.0800 
 38 H        2.2570     9.3710    -0.5200 H     1 <1>   0.0800 
 39 H        0.5290     9.0510    -0.4900 H     1 <1>   0.0800 
@<TRIPOS>BOND
  1   1   2  2   
  2   2   3  am  
  3   2   4  1   
  4   3   5  1   
  5   3   6  1   
  6   4   7  2   
  7   4   8  1   
  8   5   9  2   
  9   5  10  1   
 10   6  22  1   
 11   6  23  1   
 12   6  24  1   
 13   7   9  1   
 14   7  11  1   
 15   8  12  1   
 16   8  25  1   
 17   8  26  1   
 18  10  27  1   
 19  10  28  1   
 20  10  29  1   
 21  11  12  1   
 22  11  30  1   
 23  11  31  1   
 24  12  13  1   
 25  13  14  ar  
 26  13  15  ar  
 27  14  16  ar  
 28  15  17  ar  
 29  15  18  1   
 30  16  19  ar  
 31  16  32  1   
 32  17  19  ar  
 33  18  20  1   
 34  18  21  1   
 35  19  33  1   
 36  20  34  1   
 37  20  35  1   
 38  20  36  1   
 39  21  37  1   
 40  21  38  1   
 41  21  39  1   
@<TRIPOS>SUBSTRUCTURE
  1 ****  12 GROUP 4 **** **** 0

# MOE 2024.06 (io_trps.svl 2023.06)
