@<TRIPOS>MOLECULE
NONAME
42 43 1 0 0 
SMALL
USER_CHARGES


@<TRIPOS>ATOM
  1 S        0.0760    -0.5660    -0.3350 S.o2  1 <1>   1.0900 
  2 O       -0.2410    -0.6080    -1.7430 O.2   1 <1>  -0.6500 
  3 O        1.1250    -1.4050     0.1920 O.2   1 <1>  -0.6500 
  4 C       -1.4240    -0.9090     0.5660 C.3   1 <1>  -0.0550 
  5 C        0.4460     1.1220     0.1000 C.3   1 <1>  -0.1350 
  6 C       -1.8590    -2.3520     0.3390 C.3   1 <1>   0.1100 
  7 N       -3.1370    -2.5950     1.0260 N.3   1 <1>  -0.8100 
  8 C       -4.3020    -2.1170     0.2440 C.3   1 <1>   0.1100 
  9 C       -3.3730    -4.0290     1.2270 C.3   1 <1>   0.1100 
 10 C       -5.0200    -3.3440    -0.3500 C.3   1 <1>   0.2000 
 11 C       -4.0840    -4.5090    -0.0350 C.3   1 <1>  -0.0800 
 12 O       -6.2430    -3.5440     0.3020 O.3   1 <1>  -0.5600 
 13 C       -4.7680    -5.8780     0.1280 C.3   1 <1>   0.0200 
 14 C       -7.3030    -2.7800    -0.1820 C.3   1 <1>   0.0400 
 15 C       -3.7780    -7.0250     0.2560 C.2   1 <1>  -0.0400 
 16 O       -4.2310    -8.2220     0.5200 O.3   1 <1>  -0.0190 
 17 C       -2.4420    -7.1090     0.1490 C.2   1 <1>  -0.1500 
 18 N       -3.2720    -9.1000     0.5980 N.2   1 <1>  -0.4100 
 19 C       -2.1820    -8.4570     0.3790 C.2   1 <1>   0.1080 
 20 C       -0.8080    -9.0880     0.3720 C.3   1 <1>  -0.0590 
 21 H       -1.2640    -0.7660     1.6170 H     1 <1>   0.0800 
 22 H       -2.2000    -0.2470     0.2400 H     1 <1>   0.0800 
 23 H       -0.3530     1.7730    -0.1970 H     1 <1>   0.0800 
 24 H        1.3420     1.4390    -0.3970 H     1 <1>   0.0800 
 25 H        0.5960     1.2150     1.1580 H     1 <1>   0.0800 
 26 H       -1.0970    -2.9980     0.7450 H     1 <1>   0.0800 
 27 H       -1.9490    -2.5600    -0.7150 H     1 <1>   0.0800 
 28 H       -4.9670    -1.5830     0.9000 H     1 <1>   0.0800 
 29 H       -3.9900    -1.4570    -0.5460 H     1 <1>   0.0800 
 30 H       -2.4620    -4.5680     1.4230 H     1 <1>   0.0800 
 31 H       -4.0290    -4.1490     2.0740 H     1 <1>   0.0800 
 32 H       -5.1930    -3.2510    -1.4080 H     1 <1>   0.0800 
 33 H       -3.3600    -4.5750    -0.8270 H     1 <1>   0.0800 
 34 H       -5.3960    -6.0660    -0.7250 H     1 <1>   0.0800 
 35 H       -5.3990    -5.8680     1.0000 H     1 <1>   0.0800 
 36 H       -8.1760    -3.0160     0.4010 H     1 <1>   0.0800 
 37 H       -7.4800    -3.0310    -1.2140 H     1 <1>   0.0800 
 38 H       -7.0720    -1.7350    -0.0790 H     1 <1>   0.0800 
 39 H       -1.7120    -6.3520    -0.0630 H     1 <1>   0.1500 
 40 H       -0.1380    -8.5120     0.9830 H     1 <1>   0.0800 
 41 H       -0.4310    -9.1260    -0.6330 H     1 <1>   0.0800 
 42 H       -0.8630   -10.0880     0.7630 H     1 <1>   0.0800 
@<TRIPOS>BOND
  1   1   2  2   
  2   1   3  2   
  3   1   4  1   
  4   1   5  1   
  5   4   6  1   
  6   4  21  1   
  7   4  22  1   
  8   5  23  1   
  9   5  24  1   
 10   5  25  1   
 11   6   7  1   
 12   6  26  1   
 13   6  27  1   
 14   7   8  1   
 15   7   9  1   
 16   8  10  1   
 17   8  28  1   
 18   8  29  1   
 19   9  11  1   
 20   9  30  1   
 21   9  31  1   
 22  10  11  1   
 23  10  12  1   
 24  10  32  1   
 25  11  13  1   
 26  11  33  1   
 27  12  14  1   
 28  13  15  1   
 29  13  34  1   
 30  13  35  1   
 31  14  36  1   
 32  14  37  1   
 33  14  38  1   
 34  15  16  1   
 35  15  17  2   
 36  16  18  1   
 37  17  19  1   
 38  17  39  1   
 39  18  19  2   
 40  19  20  1   
 41  20  40  1   
 42  20  41  1   
 43  20  42  1   
@<TRIPOS>SUBSTRUCTURE
  1 ****   9 GROUP 4 **** **** 0

# MOE 2024.06 (io_trps.svl 2023.06)
