@<TRIPOS>MOLECULE
NONAME
57 60 1 0 0 
SMALL
USER_CHARGES


@<TRIPOS>ATOM
  1 O        1.9050    -0.1860    -0.0720 O.3   1 <1>  -0.5600 
  2 C        2.7290    -1.2780     0.2560 C.3   1 <1>   0.4240 
  3 C        0.6010    -0.1740     0.4290 C.3   1 <1>   0.1200 
  4 C        1.9470    -2.6040     0.2990 C.ar  1 <1>  -0.1440 
  5 C        3.4110    -0.9600     1.6020 C.3   1 <1>  -0.1600 
  6 C        3.7880    -1.3200    -0.8510 C.3   1 <1>  -0.1600 
  7 C       -0.1730    -1.3470    -0.1640 C.3   1 <1>  -0.0160 
  8 C        0.5750    -2.6390     0.0990 C.ar  1 <1>  -0.1440 
  9 C        2.6070    -3.8020     0.5360 C.ar  1 <1>  -0.1500 
 10 C        4.6130    -0.0170     1.4840 C.3   1 <1>   0.3430 
 11 C        4.5030     0.0230    -1.0200 C.3   1 <1>   0.3430 
 12 C       -0.1100    -3.8420     0.1360 C.ar  1 <1>  -0.1500 
 13 C        1.9420    -5.0160     0.5790 C.ar  1 <1>   0.0830 
 14 N        4.5110     0.8010     0.2530 N.4   1 <1>  -0.9590 
 15 C        0.5510    -5.0450     0.3760 C.ar  1 <1>   0.0830 
 16 O        2.7650    -6.0780     0.8240 O.3   1 <1>  -0.3630 
 17 C        5.3940     1.9940     0.2030 C.3   1 <1>   0.5230 
 18 O       -0.1320    -6.2260     0.4180 O.3   1 <1>  -0.3630 
 19 C        2.3300    -7.4180     0.8170 C.3   1 <1>   0.0400 
 20 C        4.6510     3.1000    -0.5330 C.2   1 <1>   0.0060 
 21 C       -1.5260    -6.3070     0.2160 C.3   1 <1>   0.0400 
 22 N        3.3650     3.0810    -0.7150 N.2   1 <1>  -0.5650 
 23 N        5.2580     4.1990    -1.0500 N.pl3 1 <1>   0.0480 
 24 C        3.1160     4.2210    -1.3840 C.2   1 <1>   0.0770 
 25 C        4.2560     4.9120    -1.5950 C.2   1 <1>  -0.3020 
 26 C        6.6860     4.5950    -1.0460 C.3   1 <1>   0.0960 
 27 C        7.0740     5.2120     0.3010 C.3   1 <1>  -0.2400 
 28 H        0.1450     0.7590     0.1450 H     1 <1>   0.0800 
 29 H        0.6310    -0.2380     1.5030 H     1 <1>   0.0800 
 30 H        3.7660    -1.8680     2.0520 H     1 <1>   0.0800 
 31 H        2.6940    -0.5490     2.2880 H     1 <1>   0.0800 
 32 H        3.3230    -1.5970    -1.7800 H     1 <1>   0.0800 
 33 H        4.5170    -2.0770    -0.6290 H     1 <1>   0.0800 
 34 H       -0.2890    -1.2020    -1.2230 H     1 <1>   0.0800 
 35 H       -1.1510    -1.3850     0.2810 H     1 <1>   0.0800 
 36 H        3.6690    -3.8240     0.6950 H     1 <1>   0.1500 
 37 H        5.5200    -0.5990     1.4460 H     1 <1>   0.0800 
 38 H        4.6530     0.6180     2.3550 H     1 <1>   0.0800 
 39 H        3.9820     0.6020    -1.7680 H     1 <1>   0.0800 
 40 H        5.5090    -0.1490    -1.3660 H     1 <1>   0.0800 
 41 H       -1.1700    -3.8200    -0.0280 H     1 <1>   0.1500 
 42 H        3.5570     1.2290     0.2520 H     1 <1>   0.4500 
 43 H        6.3170     1.7580    -0.2990 H     1 <1>   0.0800 
 44 H        5.6120     2.3350     1.2000 H     1 <1>   0.0800 
 45 H        3.1840    -8.0490     0.9810 H     1 <1>   0.0800 
 46 H        1.8910    -7.6370    -0.1410 H     1 <1>   0.0800 
 47 H        1.6160    -7.5570     1.6090 H     1 <1>   0.0800 
 48 H       -1.8150    -7.3400     0.2970 H     1 <1>   0.0800 
 49 H       -1.7590    -5.9400    -0.7680 H     1 <1>   0.0800 
 50 H       -2.0240    -5.7300     0.9750 H     1 <1>   0.0800 
 51 H        2.1160     4.4930    -1.6830 H     1 <1>   0.1500 
 52 H        4.3980     5.8550    -2.0930 H     1 <1>   0.1500 
 53 H        6.8430     5.3140    -1.8310 H     1 <1>   0.0800 
 54 H        7.2950     3.7340    -1.2560 H     1 <1>   0.0800 
 55 H        6.4730     6.0830     0.4970 H     1 <1>   0.0800 
 56 H        8.1050     5.5170     0.2750 H     1 <1>   0.0800 
 57 H        6.9500     4.5080     1.1030 H     1 <1>   0.0800 
@<TRIPOS>BOND
  1   1   2  1   
  2   1   3  1   
  3   2   4  1   
  4   2   5  1   
  5   2   6  1   
  6   3   7  1   
  7   3  28  1   
  8   3  29  1   
  9   4   8  ar  
 10   4   9  ar  
 11   5  10  1   
 12   5  30  1   
 13   5  31  1   
 14   6  11  1   
 15   6  32  1   
 16   6  33  1   
 17   7   8  1   
 18   7  34  1   
 19   7  35  1   
 20   8  12  ar  
 21   9  13  ar  
 22   9  36  1   
 23  10  14  1   
 24  10  37  1   
 25  10  38  1   
 26  11  14  1   
 27  11  39  1   
 28  11  40  1   
 29  12  15  ar  
 30  12  41  1   
 31  13  15  ar  
 32  13  16  1   
 33  14  17  1   
 34  14  42  1   
 35  15  18  1   
 36  16  19  1   
 37  17  20  1   
 38  17  43  1   
 39  17  44  1   
 40  18  21  1   
 41  19  45  1   
 42  19  46  1   
 43  19  47  1   
 44  20  22  2   
 45  20  23  1   
 46  21  48  1   
 47  21  49  1   
 48  21  50  1   
 49  22  24  1   
 50  23  25  1   
 51  23  26  1   
 52  24  25  2   
 53  24  51  1   
 54  25  52  1   
 55  26  27  1   
 56  26  53  1   
 57  26  54  1   
 58  27  55  1   
 59  27  56  1   
 60  27  57  1   
@<TRIPOS>SUBSTRUCTURE
  1 ****   2 GROUP 4 **** **** 0

# MOE 2024.06 (io_trps.svl 2023.06)
