@<TRIPOS>MOLECULE
NONAME
43 45 1 0 0 
SMALL
USER_CHARGES


@<TRIPOS>ATOM
  1 F       -0.5130    -0.4710     2.4470 F     1 <1>  -0.1900 
  2 C       -1.3660    -0.8580     1.5300 C.ar  1 <1>   0.1900 
  3 C       -1.4830    -2.2090     1.2480 C.ar  1 <1>   0.1900 
  4 C       -2.1420     0.0830     0.8680 C.ar  1 <1>  -0.1440 
  5 F       -0.7420    -3.0860     1.8800 F     1 <1>  -0.1900 
  6 C       -2.3800    -2.6630     0.3010 C.ar  1 <1>  -0.1500 
  7 C       -3.0550    -0.3700    -0.0860 C.ar  1 <1>   0.0830 
  8 C       -1.9880     1.5640     1.1930 C.3   1 <1>   0.2540 
  9 C       -3.1670    -1.7360    -0.3640 C.ar  1 <1>  -0.1500 
 10 O       -3.8120     0.5640    -0.7210 O.3   1 <1>  -0.3630 
 11 N       -0.7570     2.1060     0.5870 N.3   1 <1>  -0.8100 
 12 C       -4.7470     0.2190    -1.7210 C.3   1 <1>   0.0400 
 13 C       -0.3740     3.3780     1.2360 C.3   1 <1>   0.1100 
 14 C       -0.8920     2.2240    -0.8780 C.3   1 <1>   0.1100 
 15 C        1.0350     3.8950     0.8720 C.3   1 <1>   0.2200 
 16 C        0.4320     2.5120    -1.6020 C.3   1 <1>  -0.0190 
 17 N        1.0080     4.6420    -0.4220 N.am  1 <1>  -0.6600 
 18 C        2.1080     2.7740     0.9120 C.3   1 <1>   0.1200 
 19 C        0.7380     4.0000    -1.6000 C.2   1 <1>   0.5690 
 20 C        1.6020     1.6340    -1.1120 C.3   1 <1>   0.1200 
 21 C        1.4050     6.0740    -0.3720 C.3   1 <1>   0.0600 
 22 O        2.5360     2.3420    -0.3510 O.3   1 <1>  -0.5600 
 23 O        0.6950     4.5870    -2.6580 O.2   1 <1>  -0.5700 
 24 H       -2.4590    -3.7160     0.0950 H     1 <1>   0.1500 
 25 H       -1.9360     1.6640     2.2640 H     1 <1>   0.0800 
 26 H       -2.8410     2.1290     0.8600 H     1 <1>   0.0800 
 27 H       -3.8630    -2.1000    -1.0960 H     1 <1>   0.1500 
 28 H       -5.2070     1.1250    -2.0740 H     1 <1>   0.0800 
 29 H       -5.4940    -0.4260    -1.2940 H     1 <1>   0.0800 
 30 H       -4.2310    -0.2670    -2.5300 H     1 <1>   0.0800 
 31 H       -1.1020     4.1400     1.0180 H     1 <1>   0.0800 
 32 H       -0.3780     3.2190     2.3010 H     1 <1>   0.0800 
 33 H       -1.2620     1.2920    -1.2670 H     1 <1>   0.0800 
 34 H       -1.6150     2.9850    -1.1220 H     1 <1>   0.0800 
 35 H        1.2940     4.5950     1.6460 H     1 <1>   0.0800 
 36 H        0.2590     2.2420    -2.6270 H     1 <1>   0.0800 
 37 H        1.7570     1.9210     1.4680 H     1 <1>   0.0800 
 38 H        2.9790     3.1530     1.4130 H     1 <1>   0.0800 
 39 H        2.1360     1.2580    -1.9670 H     1 <1>   0.0800 
 40 H        1.2510     0.7930    -0.5390 H     1 <1>   0.0800 
 41 H        0.7380     6.6150     0.2760 H     1 <1>   0.0800 
 42 H        1.3640     6.5150    -1.3530 H     1 <1>   0.0800 
 43 H        2.4120     6.1570    -0.0020 H     1 <1>   0.0800 
@<TRIPOS>BOND
  1   1   2  1   
  2   2   3  ar  
  3   2   4  ar  
  4   3   5  1   
  5   3   6  ar  
  6   4   7  ar  
  7   4   8  1   
  8   6   9  ar  
  9   6  24  1   
 10   7   9  ar  
 11   7  10  1   
 12   8  11  1   
 13   8  25  1   
 14   8  26  1   
 15   9  27  1   
 16  10  12  1   
 17  11  13  1   
 18  11  14  1   
 19  12  28  1   
 20  12  29  1   
 21  12  30  1   
 22  13  15  1   
 23  13  31  1   
 24  13  32  1   
 25  14  16  1   
 26  14  33  1   
 27  14  34  1   
 28  15  17  1   
 29  15  18  1   
 30  15  35  1   
 31  16  19  1   
 32  16  20  1   
 33  16  36  1   
 34  17  19  am  
 35  17  21  1   
 36  18  22  1   
 37  18  37  1   
 38  18  38  1   
 39  19  23  2   
 40  20  22  1   
 41  20  39  1   
 42  20  40  1   
 43  21  41  1   
 44  21  42  1   
 45  21  43  1   
@<TRIPOS>SUBSTRUCTURE
  1 ****  11 GROUP 4 **** **** 0

# MOE 2024.06 (io_trps.svl 2023.06)
