@<TRIPOS>MOLECULE
NONAME
53 55 1 0 0 
SMALL
USER_CHARGES


@<TRIPOS>ATOM
  1 O        1.7850     0.6170    -1.1850 O.2   1 <1>  -0.5700 
  2 C        2.5250    -0.3350    -1.1490 C.2   1 <1>   0.5690 
  3 N        3.8010    -0.2740    -1.6030 N.am  1 <1>  -0.7300 
  4 C        2.0250    -1.6330    -0.5620 C.3   1 <1>  -0.0990 
  5 C        4.4360     0.8400    -2.3460 C.3   1 <1>   0.1400 
  6 C        0.9380    -2.2630    -1.4460 C.3   1 <1>   0.0200 
  7 C        4.9000     1.9330    -1.3770 C.3   1 <1>  -0.1600 
  8 C        0.4550    -3.5960    -0.8960 C.2   1 <1>   0.0060 
  9 C        3.8510     3.0400    -1.2070 C.3   1 <1>   0.3540 
 10 N        1.0630    -4.2830     0.0070 N.2   1 <1>  -0.5650 
 11 N       -0.6880    -4.1770    -1.3400 N.pl3 1 <1>   0.0330 
 12 N        4.0210     3.7060     0.1070 N.pl3 1 <1>  -0.4570 
 13 C        0.2860    -5.3940     0.1850 C.ar  1 <1>   0.2270 
 14 C       -0.8120    -5.3380    -0.6520 C.ar  1 <1>  -0.1520 
 15 N        4.9640     4.6620     0.3030 N.2   1 <1>  -0.2600 
 16 C        3.3370     3.5020     1.2170 C.cat 1 <1>   0.6560 
 17 C        0.4640    -6.4860     1.0450 C.ar  1 <1>  -0.1430 
 18 C       -1.7680    -6.3520    -0.6650 C.ar  1 <1>  -0.1500 
 19 C        4.8140     5.0040     1.5320 C.2   1 <1>   0.4850 
 20 N        3.8170     4.3080     2.1320 N.pl3 1 <1>  -0.7000 
 21 C        2.2050     2.5210     1.4270 C.3   1 <1>  -0.0960 
 22 C       -0.4870    -7.4940     1.0450 C.ar  1 <1>  -0.1430 
 23 C        1.6960    -6.5060     1.9430 C.3   1 <1>  -0.0970 
 24 C       -1.5940    -7.4190     0.1850 C.ar  1 <1>  -0.1500 
 25 C        5.6270     6.0490     2.2610 C.3   1 <1>  -0.0720 
 26 C       -0.3790    -8.7050     1.9620 C.3   1 <1>  -0.0970 
 27 H        4.3740    -1.1210    -1.5320 H     1 <1>   0.3700 
 28 H        1.6200    -1.4430     0.4150 H     1 <1>   0.0800 
 29 H        2.8430    -2.3210    -0.4530 H     1 <1>   0.0800 
 30 H        3.7460     1.2350    -3.0740 H     1 <1>   0.0800 
 31 H        5.2880     0.4480    -2.8780 H     1 <1>   0.0800 
 32 H        1.3280    -2.4190    -2.4360 H     1 <1>   0.0800 
 33 H        0.1050    -1.5850    -1.5140 H     1 <1>   0.0800 
 34 H        5.7910     2.3880    -1.7720 H     1 <1>   0.0800 
 35 H        5.1490     1.4880    -0.4300 H     1 <1>   0.0800 
 36 H        2.8550     2.6550    -1.2770 H     1 <1>   0.0800 
 37 H        3.9640     3.7700    -1.9900 H     1 <1>   0.0800 
 38 H       -1.3360    -3.8220    -2.0470 H     1 <1>   0.2700 
 39 H       -2.6160    -6.2950    -1.3230 H     1 <1>   0.1500 
 40 H        3.5150     4.4060     3.1000 H     1 <1>   0.4500 
 41 H        1.4330     2.6880     0.6980 H     1 <1>   0.0800 
 42 H        1.7840     2.6360     2.4080 H     1 <1>   0.0800 
 43 H        2.5720     1.5170     1.3230 H     1 <1>   0.0800 
 44 H        2.5110    -5.9890     1.4690 H     1 <1>   0.0800 
 45 H        2.0200    -7.5090     2.1450 H     1 <1>   0.0800 
 46 H        1.4730    -6.0110     2.8710 H     1 <1>   0.0800 
 47 H       -2.3210    -8.2110     0.1910 H     1 <1>   0.1500 
 48 H        6.3590     6.4740     1.5970 H     1 <1>   0.0800 
 49 H        6.1360     5.6040     3.0960 H     1 <1>   0.0800 
 50 H        4.9850     6.8350     2.6130 H     1 <1>   0.0800 
 51 H       -0.1360    -8.3940     2.9620 H     1 <1>   0.0800 
 52 H        0.3880    -9.3660     1.6020 H     1 <1>   0.0800 
 53 H       -1.3070    -9.2450     2.0000 H     1 <1>   0.0800 
@<TRIPOS>BOND
  1   1   2  2   
  2   2   3  am  
  3   2   4  1   
  4   3   5  1   
  5   3  27  1   
  6   4   6  1   
  7   4  28  1   
  8   4  29  1   
  9   5   7  1   
 10   5  30  1   
 11   5  31  1   
 12   6   8  1   
 13   6  32  1   
 14   6  33  1   
 15   7   9  1   
 16   7  34  1   
 17   7  35  1   
 18   8  10  2   
 19   8  11  1   
 20   9  12  1   
 21   9  36  1   
 22   9  37  1   
 23  10  13  1   
 24  11  14  1   
 25  11  38  1   
 26  12  15  1   
 27  12  16  ar  
 28  13  14  ar  
 29  13  17  ar  
 30  14  18  ar  
 31  15  19  2   
 32  16  20  ar  
 33  16  21  1   
 34  17  22  ar  
 35  17  23  1   
 36  18  24  ar  
 37  18  39  1   
 38  19  20  1   
 39  19  25  1   
 40  20  40  1   
 41  21  41  1   
 42  21  42  1   
 43  21  43  1   
 44  22  24  ar  
 45  22  26  1   
 46  23  44  1   
 47  23  45  1   
 48  23  46  1   
 49  24  47  1   
 50  25  48  1   
 51  25  49  1   
 52  25  50  1   
 53  26  51  1   
 54  26  52  1   
 55  26  53  1   
@<TRIPOS>SUBSTRUCTURE
  1 ****   4 GROUP 4 **** **** 0

# MOE 2024.06 (io_trps.svl 2023.06)
