@<TRIPOS>MOLECULE
NONAME
48 50 1 0 0 
SMALL
USER_CHARGES


@<TRIPOS>ATOM
  1 S        0.1820    -0.4510    -0.4490 S.3   1 <1>  -0.0800 
  2 C       -0.6380    -1.2870     0.8520 C.2   1 <1>   0.1980 
  3 C       -0.2740    -1.7330    -1.5320 C.2   1 <1>  -0.1100 
  4 N       -1.1870    -2.3830     0.5070 N.2   1 <1>  -0.5650 
  5 C       -0.6090    -0.6350     2.2160 C.3   1 <1>  -0.0600 
  6 C       -0.9780    -2.6470    -0.8460 C.2   1 <1>   0.0460 
  7 C       -1.5860    -3.9300    -1.3920 C.3   1 <1>   0.5240 
  8 N       -2.9540    -4.0350    -0.8220 N.4   1 <1>  -0.9590 
  9 C       -3.4440    -5.4490    -0.7070 C.3   1 <1>   0.3430 
 10 C       -3.9160    -3.1370    -1.5200 C.3   1 <1>   0.3430 
 11 C       -4.6360    -5.6290     0.2590 C.3   1 <1>   0.1400 
 12 C       -4.7770    -2.3820    -0.5090 C.3   1 <1>  -0.1600 
 13 N       -5.7170    -4.6110     0.0510 N.am  1 <1>  -0.6600 
 14 C       -5.4020    -3.2560     0.5810 C.3   1 <1>   0.1400 
 15 C       -6.9660    -4.8600    -0.4800 C.2   1 <1>   0.5690 
 16 O       -7.6790    -3.9420    -0.8100 O.2   1 <1>  -0.5700 
 17 C       -7.4970    -6.2710    -0.7330 C.3   1 <1>   0.1810 
 18 O       -7.3330    -7.1050     0.4040 O.3   1 <1>  -0.3630 
 19 C       -7.6350    -8.4260     0.3580 C.ar  1 <1>   0.0820 
 20 C       -8.2400    -9.0430    -0.7380 C.ar  1 <1>  -0.1500 
 21 C       -7.3020    -9.1740     1.4810 C.ar  1 <1>  -0.1500 
 22 C       -8.4990   -10.4030    -0.7090 C.ar  1 <1>  -0.1500 
 23 C       -7.5580   -10.5340     1.5190 C.ar  1 <1>  -0.1500 
 24 C       -8.1510   -11.1230     0.4190 C.ar  1 <1>   0.1900 
 25 F       -8.3920   -12.4070     0.4450 F     1 <1>  -0.1900 
 26 H        0.0420    -1.6490    -2.5570 H     1 <1>   0.1500 
 27 H        0.4080    -0.5210     2.5430 H     1 <1>   0.0800 
 28 H       -1.1370    -1.2440     2.9260 H     1 <1>   0.0800 
 29 H       -1.0740     0.3330     2.1690 H     1 <1>   0.0800 
 30 H       -0.9840    -4.7580    -1.0550 H     1 <1>   0.0800 
 31 H       -1.6070    -3.9220    -2.4690 H     1 <1>   0.0800 
 32 H       -2.8170    -3.6330     0.1230 H     1 <1>   0.4500 
 33 H       -2.6420    -6.0800    -0.3620 H     1 <1>   0.0800 
 34 H       -3.7370    -5.8040    -1.6810 H     1 <1>   0.0800 
 35 H       -4.5550    -3.7180    -2.1660 H     1 <1>   0.0800 
 36 H       -3.3890    -2.4180    -2.1260 H     1 <1>   0.0800 
 37 H       -4.2860    -5.5650     1.2750 H     1 <1>   0.0800 
 38 H       -5.0160    -6.6240     0.1290 H     1 <1>   0.0800 
 39 H       -5.5750    -1.9020    -1.0490 H     1 <1>   0.0800 
 40 H       -4.2000    -1.5990    -0.0500 H     1 <1>   0.0800 
 41 H       -6.3020    -2.7860     0.9470 H     1 <1>   0.0800 
 42 H       -4.7280    -3.3430     1.4160 H     1 <1>   0.0800 
 43 H       -6.9700    -6.7090    -1.5600 H     1 <1>   0.0800 
 44 H       -8.5480    -6.2190    -0.9570 H     1 <1>   0.0800 
 45 H       -8.5220    -8.4900    -1.6140 H     1 <1>   0.1500 
 46 H       -6.8470    -8.6860     2.3240 H     1 <1>   0.1500 
 47 H       -8.9640   -10.9020    -1.5400 H     1 <1>   0.1500 
 48 H       -7.3060   -11.1270     2.3790 H     1 <1>   0.1500 
@<TRIPOS>BOND
  1   1   2  1   
  2   1   3  1   
  3   2   4  2   
  4   2   5  1   
  5   3   6  2   
  6   3  26  1   
  7   4   6  1   
  8   5  27  1   
  9   5  28  1   
 10   5  29  1   
 11   6   7  1   
 12   7   8  1   
 13   7  30  1   
 14   7  31  1   
 15   8   9  1   
 16   8  10  1   
 17   8  32  1   
 18   9  11  1   
 19   9  33  1   
 20   9  34  1   
 21  10  12  1   
 22  10  35  1   
 23  10  36  1   
 24  11  13  1   
 25  11  37  1   
 26  11  38  1   
 27  12  14  1   
 28  12  39  1   
 29  12  40  1   
 30  13  14  1   
 31  13  15  am  
 32  14  41  1   
 33  14  42  1   
 34  15  16  2   
 35  15  17  1   
 36  17  18  1   
 37  17  43  1   
 38  17  44  1   
 39  18  19  1   
 40  19  20  ar  
 41  19  21  ar  
 42  20  22  ar  
 43  20  45  1   
 44  21  23  ar  
 45  21  46  1   
 46  22  24  ar  
 47  22  47  1   
 48  23  24  ar  
 49  23  48  1   
 50  24  25  1   
@<TRIPOS>SUBSTRUCTURE
  1 ****  11 GROUP 4 **** **** 0

# MOE 2024.06 (io_trps.svl 2023.06)
