@<TRIPOS>MOLECULE
NONAME
44 44 1 0 0 
SMALL
USER_CHARGES


@<TRIPOS>ATOM
  1 O       -1.3050     3.4610     3.7820 O.co2 1 <1>  -0.9000 
  2 C       -0.7890     3.0670     2.7360 C.2   1 <1>   0.9060 
  3 O       -0.1400     2.0230     2.6400 O.co2 1 <1>  -0.9000 
  4 C       -0.9150     3.9230     1.5020 C.3   1 <1>  -0.2660 
  5 C        0.4630     4.4420     1.0680 C.3   1 <1>  -0.1600 
  6 C        0.3900     5.1420    -0.2810 C.3   1 <1>   0.3430 
  7 N        1.7550     5.5370    -0.7020 N.4   1 <1>  -0.9590 
  8 C        1.7800     6.6300    -1.7120 C.3   1 <1>   0.3430 
  9 C        2.6730     4.4130    -1.0290 C.3   1 <1>   0.3430 
 10 C        3.2020     7.2160    -1.7930 C.3   1 <1>   0.1100 
 11 C        3.9660     4.5730    -0.2170 C.3   1 <1>  -0.1600 
 12 N        3.9110     7.0170    -0.4990 N.3   1 <1>  -0.8100 
 13 C        4.7900     5.8430    -0.4950 C.3   1 <1>   0.1100 
 14 C        4.4740     8.2730     0.0760 C.3   1 <1>   0.1710 
 15 C        3.4260     9.3200     0.5240 C.2   1 <1>   0.5690 
 16 O        2.2640     9.1610     0.2070 O.2   1 <1>  -0.5700 
 17 N        3.8170    10.4130     1.2660 N.am  1 <1>  -0.6600 
 18 C        2.8220    11.4000     1.7780 C.3   1 <1>   0.0600 
 19 C        5.2220    10.7350     1.6470 C.3   1 <1>   0.0600 
 20 H       -1.5820     4.7370     1.7180 H     1 <1>   0.0800 
 21 H       -1.3500     3.3080     0.7370 H     1 <1>   0.0800 
 22 H        1.1280     3.5970     1.0190 H     1 <1>   0.0800 
 23 H        0.8290     5.1190     1.8210 H     1 <1>   0.0800 
 24 H       -0.2330     6.0160    -0.1840 H     1 <1>   0.0800 
 25 H       -0.0490     4.4840    -1.0130 H     1 <1>   0.0800 
 26 H        2.2190     6.0100     0.0980 H     1 <1>   0.4500 
 27 H        1.1160     7.4180    -1.3940 H     1 <1>   0.0800 
 28 H        1.4560     6.2790    -2.6770 H     1 <1>   0.0800 
 29 H        2.8930     4.4050    -2.0830 H     1 <1>   0.0800 
 30 H        2.2100     3.4740    -0.7730 H     1 <1>   0.0800 
 31 H        3.1250     8.2630    -2.0350 H     1 <1>   0.0800 
 32 H        3.7430     6.7460    -2.5960 H     1 <1>   0.0800 
 33 H        4.5920     3.7210    -0.4100 H     1 <1>   0.0800 
 34 H        3.7220     4.5390     0.8300 H     1 <1>   0.0800 
 35 H        5.3100     5.7650    -1.4360 H     1 <1>   0.0800 
 36 H        5.5320     5.9410     0.2800 H     1 <1>   0.0800 
 37 H        5.1330     8.7280    -0.6410 H     1 <1>   0.0800 
 38 H        5.0510     8.0180     0.9460 H     1 <1>   0.0800 
 39 H        1.8150    11.0870     1.5600 H     1 <1>   0.0800 
 40 H        2.9890    12.3580     1.3160 H     1 <1>   0.0800 
 41 H        2.9220    11.5000     2.8450 H     1 <1>   0.0800 
 42 H        5.9300    10.1710     1.0670 H     1 <1>   0.0800 
 43 H        5.3710    10.5190     2.6910 H     1 <1>   0.0800 
 44 H        5.4120    11.7810     1.4790 H     1 <1>   0.0800 
@<TRIPOS>BOND
  1   1   2  ar  
  2   2   3  ar  
  3   2   4  1   
  4   4   5  1   
  5   4  20  1   
  6   4  21  1   
  7   5   6  1   
  8   5  22  1   
  9   5  23  1   
 10   6   7  1   
 11   6  24  1   
 12   6  25  1   
 13   7   8  1   
 14   7   9  1   
 15   7  26  1   
 16   8  10  1   
 17   8  27  1   
 18   8  28  1   
 19   9  11  1   
 20   9  29  1   
 21   9  30  1   
 22  10  12  1   
 23  10  31  1   
 24  10  32  1   
 25  11  13  1   
 26  11  33  1   
 27  11  34  1   
 28  12  13  1   
 29  12  14  1   
 30  13  35  1   
 31  13  36  1   
 32  14  15  1   
 33  14  37  1   
 34  14  38  1   
 35  15  16  2   
 36  15  17  am  
 37  17  18  1   
 38  17  19  1   
 39  18  39  1   
 40  18  40  1   
 41  18  41  1   
 42  19  42  1   
 43  19  43  1   
 44  19  44  1   
@<TRIPOS>SUBSTRUCTURE
  1 ****   7 GROUP 4 **** **** 0

# MOE 2024.06 (io_trps.svl 2023.06)
