@<TRIPOS>MOLECULE
NONAME
45 45 1 0 0 
SMALL
USER_CHARGES


@<TRIPOS>ATOM
  1 O       -0.1900    -0.0320     0.1860 O.2   1 <1>  -0.5700 
  2 C       -1.0920    -0.6660    -0.3260 C.2   1 <1>   0.7800 
  3 O       -2.3080    -0.1300    -0.4700 O.3   1 <1>  -0.4300 
  4 N       -0.9180    -1.9510    -0.7740 N.am  1 <1>  -0.6600 
  5 C       -2.7330     1.1540    -0.0690 C.3   1 <1>   0.2800 
  6 C        0.3700    -2.6680    -0.6160 C.3   1 <1>   0.1400 
  7 C       -1.9990    -2.7590    -1.3890 C.3   1 <1>   0.1400 
  8 C       -2.6170     1.3000     1.4520 C.3   1 <1>  -0.2400 
  9 C       -1.9510     2.2340    -0.8250 C.3   1 <1>  -0.2400 
 10 C       -4.2080     1.2260    -0.4700 C.3   1 <1>  -0.2400 
 11 C        0.1520    -3.9230     0.2340 C.3   1 <1>  -0.1600 
 12 C       -2.2380    -4.0160    -0.5470 C.3   1 <1>  -0.1600 
 13 C       -0.9450    -4.8460    -0.3530 C.3   1 <1>  -0.0800 
 14 C       -1.1590    -6.1780     0.4480 C.3   1 <1>   0.0000 
 15 C       -2.2880    -7.0480    -0.1660 C.3   1 <1>   0.1200 
 16 C       -1.5400    -5.9140     1.9190 C.3   1 <1>  -0.2400 
 17 C        0.1370    -7.0160     0.4530 C.3   1 <1>  -0.2400 
 18 O       -2.0540    -7.3110    -1.5080 O.3   1 <1>  -0.6800 
 19 H        1.1030    -2.0350    -0.1430 H     1 <1>   0.0800 
 20 H        0.7430    -2.9390    -1.5880 H     1 <1>   0.0800 
 21 H       -1.7030    -3.0350    -2.3870 H     1 <1>   0.0800 
 22 H       -2.9130    -2.1950    -1.4600 H     1 <1>   0.0800 
 23 H       -1.5880     1.3270     1.7610 H     1 <1>   0.0800 
 24 H       -3.1120     0.4840     1.9450 H     1 <1>   0.0800 
 25 H       -3.0740     2.2190     1.7690 H     1 <1>   0.0800 
 26 H       -0.9230     2.2580    -0.5150 H     1 <1>   0.0800 
 27 H       -2.3730     3.2010    -0.6230 H     1 <1>   0.0800 
 28 H       -1.9970     2.0570    -1.8840 H     1 <1>   0.0800 
 29 H       -4.7680     0.4580     0.0320 H     1 <1>   0.0800 
 30 H       -4.3110     1.0990    -1.5320 H     1 <1>   0.0800 
 31 H       -4.6220     2.1800    -0.2000 H     1 <1>   0.0800 
 32 H       -0.1130    -3.6040     1.2260 H     1 <1>   0.0800 
 33 H        1.0900    -4.4410     0.2940 H     1 <1>   0.0800 
 34 H       -2.9940    -4.5950    -1.0430 H     1 <1>   0.0800 
 35 H       -2.6320    -3.7080     0.4050 H     1 <1>   0.0800 
 36 H       -0.6030    -5.1220    -1.3360 H     1 <1>   0.0800 
 37 H       -3.2450    -6.5630    -0.0820 H     1 <1>   0.0800 
 38 H       -2.3520    -7.9960     0.3410 H     1 <1>   0.0800 
 39 H       -2.4440    -5.3380     1.9910 H     1 <1>   0.0800 
 40 H       -0.7590    -5.3890     2.4380 H     1 <1>   0.0800 
 41 H       -1.7010    -6.8440     2.4350 H     1 <1>   0.0800 
 42 H        0.4910    -7.1740    -0.5500 H     1 <1>   0.0800 
 43 H       -0.0410    -7.9800     0.8960 H     1 <1>   0.0800 
 44 H        0.9150    -6.5380     1.0200 H     1 <1>   0.0800 
 45 H       -1.9060    -6.4770    -1.9910 H     1 <1>   0.4000 
@<TRIPOS>BOND
  1   1   2  2   
  2   2   3  1   
  3   2   4  am  
  4   3   5  1   
  5   4   6  1   
  6   4   7  1   
  7   5   8  1   
  8   5   9  1   
  9   5  10  1   
 10   6  11  1   
 11   6  19  1   
 12   6  20  1   
 13   7  12  1   
 14   7  21  1   
 15   7  22  1   
 16   8  23  1   
 17   8  24  1   
 18   8  25  1   
 19   9  26  1   
 20   9  27  1   
 21   9  28  1   
 22  10  29  1   
 23  10  30  1   
 24  10  31  1   
 25  11  13  1   
 26  11  32  1   
 27  11  33  1   
 28  12  13  1   
 29  12  34  1   
 30  12  35  1   
 31  13  14  1   
 32  13  36  1   
 33  14  15  1   
 34  14  16  1   
 35  14  17  1   
 36  15  18  1   
 37  15  37  1   
 38  15  38  1   
 39  16  39  1   
 40  16  40  1   
 41  16  41  1   
 42  17  42  1   
 43  17  43  1   
 44  17  44  1   
 45  18  45  1   
@<TRIPOS>SUBSTRUCTURE
  1 ****   4 GROUP 4 **** **** 0

# MOE 2024.06 (io_trps.svl 2023.06)
