@<TRIPOS>MOLECULE
NONAME
53 56 1 0 0 
SMALL
USER_CHARGES


@<TRIPOS>ATOM
  1 O        0.4590     0.4970     0.6050 O.2   1 <1>  -0.5700 
  2 C        1.6690     0.4770     0.5830 C.2   1 <1>   0.7150 
  3 N        2.2270    -0.6830     1.0160 N.am  1 <1>  -0.7300 
  4 C        2.3940     1.6250     0.1190 C.2   1 <1>  -0.2370 
  5 C        3.5920    -1.0630     1.4730 C.3   1 <1>   0.1400 
  6 N        3.7030     1.6740    -0.2230 N.pl3 1 <1>   0.3140 
  7 C        1.9260     2.8810    -0.1010 C.2   1 <1>  -0.1500 
  8 C        4.6930    -0.0180     1.2400 C.3   1 <1>   0.2000 
  9 N        4.0810     2.8880    -0.6360 N.2   1 <1>  -0.7070 
 10 C        4.6810     0.5800    -0.1640 C.3   1 <1>   0.0960 
 11 C        2.9950     3.6410    -0.5650 C.2   1 <1>   0.2030 
 12 O        5.9200    -0.6350     1.4480 O.3   1 <1>  -0.6800 
 13 C        2.9240     5.0510    -0.9170 C.2   1 <1>   0.7160 
 14 O        1.8890     5.6900    -0.8270 O.2   1 <1>  -0.5700 
 15 N        4.0520     5.6810    -1.3610 N.am  1 <1>  -0.7300 
 16 C        4.1970     7.1110    -1.6890 C.3   1 <1>   0.1400 
 17 C        5.4660     7.6440    -1.0310 C.3   1 <1>  -0.1600 
 18 C        5.6290     9.1380    -1.3020 C.3   1 <1>   0.2090 
 19 N        6.8660     9.6140    -0.6290 N.pl3 1 <1>  -0.8380 
 20 C        6.7700    10.4490     0.5030 C.ar  1 <1>   0.1000 
 21 C        8.0440     9.7050    -1.5380 C.3   1 <1>   0.2090 
 22 C        7.7180    11.4460     0.7530 C.ar  1 <1>  -0.1430 
 23 C        5.7340    10.2930     1.4240 C.ar  1 <1>  -0.1500 
 24 C        9.2590    10.2900    -0.8210 C.3   1 <1>  -0.1600 
 25 C        7.6010    12.2710     1.8600 C.ar  1 <1>  -0.1500 
 26 C        8.8970    11.6310    -0.1860 C.3   1 <1>  -0.0170 
 27 C        5.6190    11.1150     2.5290 C.ar  1 <1>  -0.1500 
 28 C        6.5520    12.1110     2.7470 C.ar  1 <1>  -0.1500 
 29 H        1.5040    -1.3650     1.2610 H     1 <1>   0.3700 
 30 H        3.8610    -1.9700     0.9590 H     1 <1>   0.0800 
 31 H        3.5480    -1.2800     2.5270 H     1 <1>   0.0800 
 32 H        0.9230     3.2450     0.0450 H     1 <1>   0.1500 
 33 H        4.6190     0.7680     1.9750 H     1 <1>   0.0800 
 34 H        5.6470     0.9930    -0.3930 H     1 <1>   0.0800 
 35 H        4.4210    -0.1570    -0.9010 H     1 <1>   0.0800 
 36 H        6.0930    -1.3370     0.7900 H     1 <1>   0.4000 
 37 H        4.8910     5.0960    -1.4020 H     1 <1>   0.3700 
 38 H        3.3380     7.6550    -1.3310 H     1 <1>   0.0800 
 39 H        4.2530     7.2230    -2.7580 H     1 <1>   0.0800 
 40 H        6.3210     7.1220    -1.4190 H     1 <1>   0.0800 
 41 H        5.4090     7.4870     0.0310 H     1 <1>   0.0800 
 42 H        4.7750     9.6820    -0.9360 H     1 <1>   0.0800 
 43 H        5.6970     9.3160    -2.3610 H     1 <1>   0.0800 
 44 H        7.7920    10.3300    -2.3780 H     1 <1>   0.0800 
 45 H        8.2860     8.7220    -1.9030 H     1 <1>   0.0800 
 46 H        5.0110     9.5150     1.2830 H     1 <1>   0.1500 
 47 H       10.0650    10.4190    -1.5200 H     1 <1>   0.0800 
 48 H        9.5780     9.6020    -0.0590 H     1 <1>   0.0800 
 49 H        8.3290    13.0410     2.0390 H     1 <1>   0.1500 
 50 H        9.7450    12.0130     0.3540 H     1 <1>   0.0800 
 51 H        8.6290    12.3410    -0.9490 H     1 <1>   0.0800 
 52 H        4.8070    10.9770     3.2200 H     1 <1>   0.1500 
 53 H        6.4660    12.7550     3.6040 H     1 <1>   0.1500 
@<TRIPOS>BOND
  1   1   2  2   
  2   2   3  am  
  3   2   4  1   
  4   3   5  1   
  5   3  29  1   
  6   4   6  1   
  7   4   7  2   
  8   5   8  1   
  9   5  30  1   
 10   5  31  1   
 11   6   9  1   
 12   6  10  1   
 13   7  11  1   
 14   7  32  1   
 15   8  10  1   
 16   8  12  1   
 17   8  33  1   
 18   9  11  2   
 19  10  34  1   
 20  10  35  1   
 21  11  13  1   
 22  12  36  1   
 23  13  14  2   
 24  13  15  am  
 25  15  16  1   
 26  15  37  1   
 27  16  17  1   
 28  16  38  1   
 29  16  39  1   
 30  17  18  1   
 31  17  40  1   
 32  17  41  1   
 33  18  19  1   
 34  18  42  1   
 35  18  43  1   
 36  19  20  1   
 37  19  21  1   
 38  20  22  ar  
 39  20  23  ar  
 40  21  24  1   
 41  21  44  1   
 42  21  45  1   
 43  22  25  ar  
 44  22  26  1   
 45  23  27  ar  
 46  23  46  1   
 47  24  26  1   
 48  24  47  1   
 49  24  48  1   
 50  25  28  ar  
 51  25  49  1   
 52  26  50  1   
 53  26  51  1   
 54  27  28  ar  
 55  27  52  1   
 56  28  53  1   
@<TRIPOS>SUBSTRUCTURE
  1 ****  15 GROUP 4 **** **** 0

# MOE 2024.06 (io_trps.svl 2023.06)
