@<TRIPOS>MOLECULE
NONAME
57 60 1 0 0 
SMALL
USER_CHARGES


@<TRIPOS>ATOM
  1 S       -1.3910     4.5090    -0.7690 S.o2  1 <1>   1.3330 
  2 O       -1.0110     3.9910     0.5250 O.2   1 <1>  -0.6500 
  3 O       -1.5980     5.9290    -0.9410 O.2   1 <1>  -0.6500 
  4 N       -2.8000     3.7060    -1.2590 N.am  1 <1>  -0.8490 
  5 C       -0.2060     3.9810    -1.9870 C.3   1 <1>  -0.1350 
  6 C       -4.0110     4.5170    -1.0490 C.3   1 <1>   0.1960 
  7 C       -2.8980     2.3030    -0.8150 C.3   1 <1>   0.1960 
  8 C       -5.2650     3.6460    -0.9920 C.3   1 <1>  -0.1600 
  9 C       -3.7530     2.1930     0.4470 C.3   1 <1>  -0.1600 
 10 C       -5.2040     2.6460     0.1820 C.3   1 <1>   0.2800 
 11 O       -5.8930     1.5160    -0.2820 O.3   1 <1>  -0.5600 
 12 C       -5.7890     3.2550     1.4920 C.3   1 <1>   0.1400 
 13 C       -6.6200     0.7420     0.6140 C.3   1 <1>   0.1200 
 14 N       -7.2510     3.5790     1.4730 N.am  1 <1>  -0.6600 
 15 C       -8.0470     1.2770     0.6860 C.3   1 <1>  -0.0990 
 16 C       -8.2510     2.7360     1.0590 C.2   1 <1>   0.5690 
 17 C       -7.5980     4.9440     1.9670 C.3   1 <1>   0.3200 
 18 O       -9.3940     3.1250     0.9990 O.2   1 <1>  -0.5700 
 19 C       -7.2730     5.9710     0.9040 C.2   1 <1>  -0.1400 
 20 S       -5.8350     6.9290     1.0640 S.3   1 <1>  -0.0800 
 21 C       -7.8940     6.3290    -0.2270 C.2   1 <1>   0.0770 
 22 C       -6.1980     7.7370    -0.4600 C.2   1 <1>   0.3250 
 23 N       -7.2930     7.3120    -0.9890 N.2   1 <1>  -0.5650 
 24 C       -5.2670     8.7390    -0.9340 C.ar  1 <1>   0.0530 
 25 C       -5.6720     9.9700    -1.4720 C.ar  1 <1>  -0.1440 
 26 C       -3.8950     8.4880    -0.8680 C.ar  1 <1>  -0.1500 
 27 C       -4.7320    10.8850    -1.9200 C.ar  1 <1>  -0.1500 
 28 C       -7.1470    10.3410    -1.5770 C.3   1 <1>  -0.0970 
 29 C       -2.9620     9.4010    -1.3150 C.ar  1 <1>  -0.1500 
 30 C       -3.3800    10.6060    -1.8440 C.ar  1 <1>  -0.1500 
 31 H        0.7420     4.4440    -1.7990 H     1 <1>   0.0800 
 32 H       -0.5390     4.2630    -2.9670 H     1 <1>   0.0800 
 33 H       -0.0850     2.9170    -1.9540 H     1 <1>   0.0800 
 34 H       -4.0970     5.2380    -1.8450 H     1 <1>   0.0800 
 35 H       -3.9250     5.0600    -0.1220 H     1 <1>   0.0800 
 36 H       -1.9180     1.8920    -0.6370 H     1 <1>   0.0800 
 37 H       -3.3560     1.7210    -1.5980 H     1 <1>   0.0800 
 38 H       -5.3460     3.1230    -1.9280 H     1 <1>   0.0800 
 39 H       -6.1320     4.2710    -0.9090 H     1 <1>   0.0800 
 40 H       -3.2970     2.8050     1.2040 H     1 <1>   0.0800 
 41 H       -3.7400     1.1810     0.8070 H     1 <1>   0.0800 
 42 H       -5.2380     4.1560     1.6960 H     1 <1>   0.0800 
 43 H       -5.5920     2.6000     2.3220 H     1 <1>   0.0800 
 44 H       -6.1350     0.7080     1.5730 H     1 <1>   0.0800 
 45 H       -6.6410    -0.2590     0.2190 H     1 <1>   0.0800 
 46 H       -8.5950     0.6850     1.3940 H     1 <1>   0.0800 
 47 H       -8.5070     1.1220    -0.2730 H     1 <1>   0.0800 
 48 H       -7.0530     5.1560     2.8700 H     1 <1>   0.0800 
 49 H       -8.6460     5.0060     2.2030 H     1 <1>   0.0800 
 50 H       -8.8150     5.9010    -0.5880 H     1 <1>   0.1500 
 51 H       -3.5400     7.5560    -0.4670 H     1 <1>   0.1500 
 52 H       -5.0460    11.8270    -2.3350 H     1 <1>   0.1500 
 53 H       -7.6410    10.1730    -0.6370 H     1 <1>   0.0800 
 54 H       -7.6210     9.7360    -2.3290 H     1 <1>   0.0800 
 55 H       -7.2720    11.3740    -1.8430 H     1 <1>   0.0800 
 56 H       -1.9120     9.1670    -1.2520 H     1 <1>   0.1500 
 57 H       -2.6580    11.3220    -2.1950 H     1 <1>   0.1500 
@<TRIPOS>BOND
  1   1   2  2   
  2   1   3  2   
  3   1   4  am  
  4   1   5  1   
  5   4   6  1   
  6   4   7  1   
  7   5  31  1   
  8   5  32  1   
  9   5  33  1   
 10   6   8  1   
 11   6  34  1   
 12   6  35  1   
 13   7   9  1   
 14   7  36  1   
 15   7  37  1   
 16   8  10  1   
 17   8  38  1   
 18   8  39  1   
 19   9  10  1   
 20   9  40  1   
 21   9  41  1   
 22  10  11  1   
 23  10  12  1   
 24  11  13  1   
 25  12  14  1   
 26  12  42  1   
 27  12  43  1   
 28  13  15  1   
 29  13  44  1   
 30  13  45  1   
 31  14  16  am  
 32  14  17  1   
 33  15  16  1   
 34  15  46  1   
 35  15  47  1   
 36  16  18  2   
 37  17  19  1   
 38  17  48  1   
 39  17  49  1   
 40  19  20  1   
 41  19  21  2   
 42  20  22  1   
 43  21  23  1   
 44  21  50  1   
 45  22  23  2   
 46  22  24  1   
 47  24  25  ar  
 48  24  26  ar  
 49  25  27  ar  
 50  25  28  1   
 51  26  29  ar  
 52  26  51  1   
 53  27  30  ar  
 54  27  52  1   
 55  28  53  1   
 56  28  54  1   
 57  28  55  1   
 58  29  30  ar  
 59  29  56  1   
 60  30  57  1   
@<TRIPOS>SUBSTRUCTURE
  1 ****   6 GROUP 4 **** **** 0

# MOE 2024.06 (io_trps.svl 2023.06)
