@<TRIPOS>MOLECULE
NONAME
56 60 1 0 0 
SMALL
USER_CHARGES


@<TRIPOS>ATOM
  1 O       -0.1820    -0.8240     2.8290 O.3   1 <1>  -0.3630 
  2 C       -0.0430    -1.8330     1.9360 C.ar  1 <1>   0.0830 
  3 C        0.5170     0.3930     2.6770 C.3   1 <1>   0.0400 
  4 C       -0.7780    -2.9780     2.1810 C.ar  1 <1>  -0.1500 
  5 C        0.7760    -1.7750     0.8160 C.ar  1 <1>  -0.1500 
  6 C       -0.7180    -4.0670     1.3260 C.ar  1 <1>  -0.1430 
  7 C        0.8470    -2.8580    -0.0400 C.ar  1 <1>  -0.1500 
  8 C        0.1100    -4.0170     0.1950 C.ar  1 <1>  -0.0230 
  9 C       -1.5750    -5.2790     1.6640 C.3   1 <1>   0.4870 
 10 N        0.2300    -5.0990    -0.7270 N.pl3 1 <1>   0.5930 
 11 N       -2.7390    -5.3250     0.7460 N.4   1 <1>  -0.9590 
 12 N       -0.8390    -5.7130    -1.3100 N.2   1 <1>  -0.7070 
 13 C        1.3780    -5.6590    -1.1730 C.2   1 <1>  -0.3020 
 14 C       -3.5900    -4.0890     0.8060 C.3   1 <1>   0.3430 
 15 C       -3.5420    -6.5640     0.9030 C.3   1 <1>   0.3430 
 16 C       -0.3320    -6.6090    -2.1030 C.2   1 <1>   0.1390 
 17 C        1.0560    -6.6250    -2.0560 C.2   1 <1>  -0.1500 
 18 C       -4.6440    -4.0830    -0.3130 C.3   1 <1>   0.1430 
 19 C       -4.5760    -6.6400    -0.2240 C.3   1 <1>  -0.1600 
 20 C       -5.5470    -2.8880    -0.1190 C.ar  1 <1>   0.1670 
 21 C       -5.4710    -5.3870    -0.2800 C.3   1 <1>  -0.1600 
 22 C       -4.0210    -3.8160    -1.7100 C.3   1 <1>  -0.1600 
 23 N       -6.1130    -2.5590     1.0160 N.ar  1 <1>  -0.6200 
 24 C       -5.6990    -2.1750    -1.2710 C.ar  1 <1>  -0.1430 
 25 C       -4.9260    -2.7860    -2.4130 C.3   1 <1>  -0.0170 
 26 C       -6.8520    -1.4600     0.9440 C.ar  1 <1>   0.7200 
 27 C       -6.4960    -1.0560    -1.2250 C.ar  1 <1>   0.1600 
 28 N       -7.0850    -0.6890    -0.1090 N.ar  1 <1>  -0.6200 
 29 N       -7.4570    -1.0900     2.0730 N.pl3 1 <1>  -0.9000 
 30 H        0.2490     1.0360     3.4960 H     1 <1>   0.0800 
 31 H        0.2290     0.8490     1.7470 H     1 <1>   0.0800 
 32 H        1.5740     0.1950     2.7000 H     1 <1>   0.0800 
 33 H       -1.3990    -2.9900     3.0610 H     1 <1>   0.1500 
 34 H        1.3590    -0.9000     0.5970 H     1 <1>   0.1500 
 35 H        1.4870    -2.7950    -0.9050 H     1 <1>   0.1500 
 36 H       -1.9130    -5.2150     2.6860 H     1 <1>   0.0800 
 37 H       -0.9860    -6.1750     1.5530 H     1 <1>   0.0800 
 38 H       -2.3120    -5.3640    -0.2030 H     1 <1>   0.4500 
 39 H        2.3470    -5.3340    -0.8390 H     1 <1>   0.1500 
 40 H       -2.9810    -3.2060     0.7100 H     1 <1>   0.0800 
 41 H       -4.0960    -4.0410     1.7570 H     1 <1>   0.0800 
 42 H       -4.0450    -6.5560     1.8570 H     1 <1>   0.0800 
 43 H       -2.9000    -7.4290     0.8580 H     1 <1>   0.0800 
 44 H       -0.9170    -7.2660    -2.7270 H     1 <1>   0.1500 
 45 H        1.7040    -7.2780    -2.6170 H     1 <1>   0.1500 
 46 H       -5.1950    -7.5080    -0.0700 H     1 <1>   0.0800 
 47 H       -4.0660    -6.7780    -1.1610 H     1 <1>   0.0800 
 48 H       -6.1200    -5.4340    -1.1380 H     1 <1>   0.0800 
 49 H       -6.1000    -5.3750     0.5940 H     1 <1>   0.0800 
 50 H       -3.9170    -4.7080    -2.3030 H     1 <1>   0.0800 
 51 H       -3.0440    -3.3770    -1.5950 H     1 <1>   0.0800 
 52 H       -5.6070    -3.2730    -3.0900 H     1 <1>   0.0800 
 53 H       -4.3500    -2.0470    -2.9450 H     1 <1>   0.0800 
 54 H       -6.6520    -0.4580    -2.1070 H     1 <1>   0.1500 
 55 H       -8.2130    -0.4210     1.9560 H     1 <1>   0.4000 
 56 H       -7.5950    -1.8180     2.7660 H     1 <1>   0.4000 
@<TRIPOS>BOND
  1   1   2  1   
  2   1   3  1   
  3   2   4  ar  
  4   2   5  ar  
  5   3  30  1   
  6   3  31  1   
  7   3  32  1   
  8   4   6  ar  
  9   4  33  1   
 10   5   7  ar  
 11   5  34  1   
 12   6   8  ar  
 13   6   9  1   
 14   7   8  ar  
 15   7  35  1   
 16   8  10  1   
 17   9  11  1   
 18   9  36  1   
 19   9  37  1   
 20  10  12  1   
 21  10  13  1   
 22  11  14  1   
 23  11  15  1   
 24  11  38  1   
 25  12  16  2   
 26  13  17  2   
 27  13  39  1   
 28  14  18  1   
 29  14  40  1   
 30  14  41  1   
 31  15  19  1   
 32  15  42  1   
 33  15  43  1   
 34  16  17  1   
 35  16  44  1   
 36  17  45  1   
 37  18  20  1   
 38  18  21  1   
 39  18  22  1   
 40  19  21  1   
 41  19  46  1   
 42  19  47  1   
 43  20  23  ar  
 44  20  24  ar  
 45  21  48  1   
 46  21  49  1   
 47  22  25  1   
 48  22  50  1   
 49  22  51  1   
 50  23  26  ar  
 51  24  25  1   
 52  24  27  ar  
 53  25  52  1   
 54  25  53  1   
 55  26  28  ar  
 56  26  29  1   
 57  27  28  ar  
 58  27  54  1   
 59  29  55  1   
 60  29  56  1   
@<TRIPOS>SUBSTRUCTURE
  1 ****  14 GROUP 4 **** **** 0

# MOE 2024.06 (io_trps.svl 2023.06)
