@<TRIPOS>MOLECULE
NONAME
48 51 1 0 0 
SMALL
USER_CHARGES


@<TRIPOS>ATOM
  1 S        0.3320    -0.2150     1.0860 S.3   1 <1>  -0.0800 
  2 C       -1.2960     0.1490     0.5050 C.2   1 <1>   0.3250 
  3 C        0.8620     1.3720     0.6400 C.2   1 <1>  -0.1100 
  4 N       -1.3700     1.3560     0.0340 N.2   1 <1>  -0.5650 
  5 C       -2.3170    -0.8890     0.6120 C.ar  1 <1>   0.6730 
  6 C       -0.1750     2.0370     0.1070 C.2   1 <1>   0.0460 
  7 N       -3.5510    -0.6090     0.1600 N.ar  1 <1>  -0.6200 
  8 N       -1.9730    -2.0690     1.1560 N.ar  1 <1>  -0.6200 
  9 C       -0.1880     3.4610    -0.4270 C.3   1 <1>   0.0210 
 10 C       -4.4610    -1.5460     0.2600 C.ar  1 <1>   0.1600 
 11 C       -2.9030    -2.9890     1.2450 C.ar  1 <1>   0.1600 
 12 C        1.1930     4.1150    -0.3980 C.3   1 <1>   0.2090 
 13 C       -4.1840    -2.7740     0.8040 C.ar  1 <1>  -0.1500 
 14 N        1.1300     5.4990    -0.9330 N.pl3 1 <1>  -0.8690 
 15 C        2.1580     6.3930    -0.7940 C.ar  1 <1>   0.4100 
 16 N        3.1900     6.0290    -0.0430 N.ar  1 <1>  -0.6200 
 17 C        2.0940     7.6260    -1.4380 C.ar  1 <1>  -0.1500 
 18 C        4.1710     6.9080     0.0680 C.ar  1 <1>   0.1600 
 19 C        3.1210     8.5290    -1.3060 C.ar  1 <1>  -0.1500 
 20 C        4.2090     8.1730    -0.5130 C.ar  1 <1>   0.0860 
 21 C        5.3410     9.0430    -0.2950 C.2   1 <1>   0.5440 
 22 O        6.4620     8.5680    -0.3010 O.2   1 <1>  -0.5700 
 23 N        5.1980    10.3960    -0.0660 N.am  1 <1>  -0.6600 
 24 C        3.9940    11.0060     0.5770 C.3   1 <1>   0.1400 
 25 C        6.3580    11.3360    -0.1400 C.3   1 <1>   0.1400 
 26 C        4.3770    11.7060     1.8930 C.3   1 <1>   0.1200 
 27 C        6.6030    12.0030     1.2220 C.3   1 <1>   0.1200 
 28 O        5.4290    12.6050     1.6920 O.3   1 <1>  -0.5600 
 29 H        1.8890     1.6280     0.8270 H     1 <1>   0.1500 
 30 H       -0.8680     4.0420     0.1680 H     1 <1>   0.0800 
 31 H       -0.5480     3.4380    -1.4390 H     1 <1>   0.0800 
 32 H       -5.4520    -1.3270    -0.1010 H     1 <1>   0.1500 
 33 H       -2.6360    -3.9380     1.6800 H     1 <1>   0.1500 
 34 H        1.8860     3.5410    -0.9900 H     1 <1>   0.0800 
 35 H        1.5530     4.1430     0.6180 H     1 <1>   0.0800 
 36 H       -4.9370    -3.5350     0.8810 H     1 <1>   0.1500 
 37 H        0.4970     5.6320    -1.7240 H     1 <1>   0.4000 
 38 H        1.2340     7.8580    -2.0350 H     1 <1>   0.1500 
 39 H        5.0180     6.6130     0.6650 H     1 <1>   0.1500 
 40 H        3.0980     9.4840    -1.8010 H     1 <1>   0.1500 
 41 H        3.2530    10.2560     0.7880 H     1 <1>   0.0800 
 42 H        3.5610    11.7270    -0.0940 H     1 <1>   0.0800 
 43 H        6.1490    12.0970    -0.8720 H     1 <1>   0.0800 
 44 H        7.2500    10.8200    -0.4510 H     1 <1>   0.0800 
 45 H        4.6780    10.9830     2.6320 H     1 <1>   0.0800 
 46 H        3.5390    12.2610     2.2760 H     1 <1>   0.0800 
 47 H        7.3530    12.7680     1.1320 H     1 <1>   0.0800 
 48 H        6.9340    11.2750     1.9430 H     1 <1>   0.0800 
@<TRIPOS>BOND
  1   1   2  1   
  2   1   3  1   
  3   2   4  2   
  4   2   5  1   
  5   3   6  2   
  6   3  29  1   
  7   4   6  1   
  8   5   7  ar  
  9   5   8  ar  
 10   6   9  1   
 11   7  10  ar  
 12   8  11  ar  
 13   9  12  1   
 14   9  30  1   
 15   9  31  1   
 16  10  13  ar  
 17  10  32  1   
 18  11  13  ar  
 19  11  33  1   
 20  12  14  1   
 21  12  34  1   
 22  12  35  1   
 23  13  36  1   
 24  14  15  1   
 25  14  37  1   
 26  15  16  ar  
 27  15  17  ar  
 28  16  18  ar  
 29  17  19  ar  
 30  17  38  1   
 31  18  20  ar  
 32  18  39  1   
 33  19  20  ar  
 34  19  40  1   
 35  20  21  1   
 36  21  22  2   
 37  21  23  am  
 38  23  24  1   
 39  23  25  1   
 40  24  26  1   
 41  24  41  1   
 42  24  42  1   
 43  25  27  1   
 44  25  43  1   
 45  25  44  1   
 46  26  28  1   
 47  26  45  1   
 48  26  46  1   
 49  27  28  1   
 50  27  47  1   
 51  27  48  1   
@<TRIPOS>SUBSTRUCTURE
  1 ****  12 GROUP 4 **** **** 0

# MOE 2024.06 (io_trps.svl 2023.06)
