@<TRIPOS>MOLECULE
NONAME
52 54 1 0 0 
SMALL
USER_CHARGES


@<TRIPOS>ATOM
  1 O       -0.8600     0.7070    -0.5900 O.2   1 <1>  -0.5700 
  2 C       -1.5820     1.5980    -0.1880 C.2   1 <1>   0.5440 
  3 N       -2.9290     1.5110    -0.4180 N.am  1 <1>  -0.7300 
  4 C       -1.0240     2.7450     0.5100 C.ar  1 <1>   0.0860 
  5 C       -3.6160     0.3890    -1.1100 C.3   1 <1>   0.0600 
  6 C        0.2660     3.1940     0.2250 C.ar  1 <1>  -0.1500 
  7 C       -1.7420     3.4380     1.4850 C.ar  1 <1>  -0.1500 
  8 C        0.8220     4.2880     0.8710 C.ar  1 <1>  -0.1430 
  9 C       -1.2030     4.5330     2.1340 C.ar  1 <1>  -0.1500 
 10 C        0.0760     4.9580     1.8270 C.ar  1 <1>  -0.1500 
 11 C        2.2320     4.7450     0.5400 C.3   1 <1>   0.3530 
 12 N        2.1610     6.1130    -0.0120 N.pl3 1 <1>  -0.8690 
 13 C        3.0530     7.1120     0.0180 C.ar  1 <1>   0.4100 
 14 N        2.6170     8.2590    -0.4480 N.ar  1 <1>  -0.6200 
 15 C        4.3630     6.9510     0.5050 C.ar  1 <1>  -0.1500 
 16 C        3.4450     9.2960    -0.4440 C.ar  1 <1>   0.7710 
 17 C        5.1990     8.0170     0.4960 C.ar  1 <1>   0.2180 
 18 N        4.7060     9.1830     0.0130 N.ar  1 <1>  -0.1790 
 19 N        3.0140    10.4970    -0.9160 N.pl3 1 <1>  -0.8380 
 20 C        6.6390     7.9670     0.9910 C.3   1 <1>  -0.0170 
 21 C        1.6700    10.6500    -1.5920 C.3   1 <1>   0.2090 
 22 C        3.7200    11.8250    -0.8360 C.3   1 <1>   0.2090 
 23 C        7.6470     8.2430    -0.1340 C.3   1 <1>  -0.2400 
 24 C        0.8610    11.8020    -0.9720 C.3   1 <1>   0.1200 
 25 C        2.7970    12.9110    -0.2500 C.3   1 <1>   0.1200 
 26 O        1.6080    12.9850    -0.9770 O.3   1 <1>  -0.5600 
 27 H       -3.5140     2.3140    -0.1850 H     1 <1>   0.3700 
 28 H       -2.9270    -0.4180    -1.2930 H     1 <1>   0.0800 
 29 H       -4.0090     0.7300    -2.0510 H     1 <1>   0.0800 
 30 H       -4.4210     0.0230    -0.4980 H     1 <1>   0.0800 
 31 H        0.8320     2.6620    -0.5210 H     1 <1>   0.1500 
 32 H       -2.7330     3.1120     1.7470 H     1 <1>   0.1500 
 33 H       -1.7760     5.0540     2.8820 H     1 <1>   0.1500 
 34 H        0.4900     5.8130     2.3360 H     1 <1>   0.1500 
 35 H        2.6780     4.0880    -0.1880 H     1 <1>   0.0800 
 36 H        2.8310     4.7310     1.4350 H     1 <1>   0.0800 
 37 H        1.2400     6.3260    -0.4090 H     1 <1>   0.4000 
 38 H        4.6720     5.9890     0.8650 H     1 <1>   0.1500 
 39 H        5.2790    10.0120    -0.0600 H     1 <1>   0.4570 
 40 H        6.8420     6.9920     1.4020 H     1 <1>   0.0800 
 41 H        6.7760     8.6820     1.7850 H     1 <1>   0.0800 
 42 H        1.0800     9.7530    -1.5310 H     1 <1>   0.0800 
 43 H        1.8220    10.8610    -2.6370 H     1 <1>   0.0800 
 44 H        4.0170    12.1300    -1.8260 H     1 <1>   0.0800 
 45 H        4.6020    11.7700    -0.2250 H     1 <1>   0.0800 
 46 H        7.5210     7.5340    -0.9350 H     1 <1>   0.0800 
 47 H        8.6500     8.1420     0.2450 H     1 <1>   0.0800 
 48 H        7.5390     9.2370    -0.5290 H     1 <1>   0.0800 
 49 H        0.5820    11.5700     0.0410 H     1 <1>   0.0800 
 50 H       -0.0330    11.9760    -1.5440 H     1 <1>   0.0800 
 51 H        3.2710    13.8750    -0.3060 H     1 <1>   0.0800 
 52 H        2.5590    12.7030     0.7790 H     1 <1>   0.0800 
@<TRIPOS>BOND
  1   1   2  2   
  2   2   3  am  
  3   2   4  1   
  4   3   5  1   
  5   3  27  1   
  6   4   6  ar  
  7   4   7  ar  
  8   5  28  1   
  9   5  29  1   
 10   5  30  1   
 11   6   8  ar  
 12   6  31  1   
 13   7   9  ar  
 14   7  32  1   
 15   8  10  ar  
 16   8  11  1   
 17   9  10  ar  
 18   9  33  1   
 19  10  34  1   
 20  11  12  1   
 21  11  35  1   
 22  11  36  1   
 23  12  13  1   
 24  12  37  1   
 25  13  14  ar  
 26  13  15  ar  
 27  14  16  ar  
 28  15  17  ar  
 29  15  38  1   
 30  16  18  ar  
 31  16  19  1   
 32  17  18  ar  
 33  17  20  1   
 34  18  39  1   
 35  19  21  1   
 36  19  22  1   
 37  20  23  1   
 38  20  40  1   
 39  20  41  1   
 40  21  24  1   
 41  21  42  1   
 42  21  43  1   
 43  22  25  1   
 44  22  44  1   
 45  22  45  1   
 46  23  46  1   
 47  23  47  1   
 48  23  48  1   
 49  24  26  1   
 50  24  49  1   
 51  24  50  1   
 52  25  26  1   
 53  25  51  1   
 54  25  52  1   
@<TRIPOS>SUBSTRUCTURE
  1 ****  12 GROUP 4 **** **** 0

# MOE 2024.06 (io_trps.svl 2023.06)
