@<TRIPOS>MOLECULE
NONAME
23 24 1 0 0 
SMALL
USER_CHARGES


@<TRIPOS>ATOM
  1 O        0.5320     0.3330    -0.0200 O.2   1 <1>  -0.5700 
  2 C        1.6590     0.7370     0.0970 C.2   1 <1>   0.5690 
  3 N        2.5420     0.2910     1.0010 N.am  1 <1>  -0.7300 
  4 C        2.2660     1.8160    -0.7550 C.3   1 <1>  -0.0990 
  5 C        3.8330     0.9930     0.9400 C.3   1 <1>   0.1400 
  6 C        3.7640     1.7230    -0.4130 C.3   1 <1>   0.1010 
  7 C        4.4550     3.0770    -0.3970 C.2   1 <1>   0.1080 
  8 N        4.2700     3.9660     0.5320 N.2   1 <1>  -0.7070 
  9 C        5.3510     3.5170    -1.3650 C.2   1 <1>  -0.1500 
 10 N        5.0440     5.0050     0.1800 N.pl3 1 <1>   0.3140 
 11 C        5.7090     4.7540    -0.9640 C.2   1 <1>  -0.3020 
 12 C        5.1100     6.2260     0.9900 C.3   1 <1>   0.0160 
 13 H        2.2840    -0.3620     1.7430 H     1 <1>   0.3700 
 14 H        1.8570     2.7630    -0.4540 H     1 <1>   0.0800 
 15 H        2.0770     1.6430    -1.7970 H     1 <1>   0.0800 
 16 H        4.6570     0.3020     0.9730 H     1 <1>   0.0800 
 17 H        3.9000     1.6910     1.7580 H     1 <1>   0.0800 
 18 H        4.2420     1.0970    -1.1450 H     1 <1>   0.0800 
 19 H        5.6730     2.9730    -2.2350 H     1 <1>   0.1500 
 20 H        6.3850     5.4540    -1.4190 H     1 <1>   0.1500 
 21 H        4.1400     6.4170     1.4100 H     1 <1>   0.0800 
 22 H        5.4060     7.0520     0.3720 H     1 <1>   0.0800 
 23 H        5.8220     6.0820     1.7790 H     1 <1>   0.0800 
@<TRIPOS>BOND
  1   1   2  2   
  2   2   3  am  
  3   2   4  1   
  4   3   5  1   
  5   3  13  1   
  6   4   6  1   
  7   4  14  1   
  8   4  15  1   
  9   5   6  1   
 10   5  16  1   
 11   5  17  1   
 12   6   7  1   
 13   6  18  1   
 14   7   8  2   
 15   7   9  1   
 16   8  10  1   
 17   9  11  2   
 18   9  19  1   
 19  10  11  1   
 20  10  12  1   
 21  11  20  1   
 22  12  21  1   
 23  12  22  1   
 24  12  23  1   
@<TRIPOS>SUBSTRUCTURE
  1 ****   7 GROUP 4 **** **** 0

# MOE 2024.06 (io_trps.svl 2023.06)
