@<TRIPOS>MOLECULE
NONAME
40 42 1 0 0 
SMALL
USER_CHARGES


@<TRIPOS>ATOM
  1 O       -0.1900    -0.2760     0.7040 O.3   1 <1>  -0.5600 
  2 C       -0.9960    -0.9300    -0.2200 C.3   1 <1>   0.1200 
  3 C       -0.0870     1.0980     0.5100 C.3   1 <1>   0.0400 
  4 C       -0.9990    -2.4590     0.0200 C.3   1 <1>   0.0000 
  5 C       -1.1600    -2.8760     1.5160 C.3   1 <1>   0.0000 
  6 C        0.4290    -3.0880     0.0370 C.3   1 <1>   0.0000 
  7 C       -1.9960    -3.1370    -0.9460 C.3   1 <1>   0.2090 
  8 C        0.3740    -3.1020     1.5880 C.3   1 <1>   0.0000 
  9 N       -2.0030    -4.6300    -0.8510 N.pl3 1 <1>  -0.8690 
 10 C       -2.8580    -5.4970    -0.2840 C.ar  1 <1>   0.4610 
 11 N       -3.9150    -5.0300     0.3890 N.ar  1 <1>  -0.1790 
 12 C       -2.6630    -6.9180    -0.3680 C.ar  1 <1>   0.0000 
 13 C       -4.8380    -5.8450     1.0050 C.ar  1 <1>   0.2110 
 14 C       -3.5980    -7.7720     0.2560 C.ar  1 <1>   0.0000 
 15 C       -1.5830    -7.5140    -1.0440 C.ar  1 <1>  -0.1500 
 16 C       -4.6950    -7.1890     0.9460 C.ar  1 <1>  -0.1500 
 17 C       -3.4260    -9.1600     0.1860 C.ar  1 <1>  -0.1500 
 18 C       -1.4330    -8.8780    -1.1020 C.ar  1 <1>  -0.1500 
 19 C       -2.3610    -9.7070    -0.4830 C.ar  1 <1>  -0.1500 
 20 H       -0.6190    -0.7140    -1.2060 H     1 <1>   0.0800 
 21 H       -1.9930    -0.5350    -0.1240 H     1 <1>   0.0800 
 22 H        0.5500     1.4960     1.2800 H     1 <1>   0.0800 
 23 H       -1.0640     1.5440     0.5830 H     1 <1>   0.0800 
 24 H        0.3500     1.2900    -0.4540 H     1 <1>   0.0800 
 25 H       -1.6960    -3.7940     1.6680 H     1 <1>   0.0000 
 26 H       -1.5060    -2.0880     2.1610 H     1 <1>   0.0000 
 27 H        1.1980    -2.4430    -0.3520 H     1 <1>   0.0000 
 28 H        0.4860    -4.0830    -0.3660 H     1 <1>   0.0000 
 29 H       -1.7310    -2.8680    -1.9560 H     1 <1>   0.0800 
 30 H       -2.9830    -2.7480    -0.7650 H     1 <1>   0.0800 
 31 H        0.6450    -4.0510     2.0150 H     1 <1>   0.0000 
 32 H        0.8980    -2.2740     2.0320 H     1 <1>   0.0000 
 33 H       -1.1670    -5.0260    -1.3010 H     1 <1>   0.4000 
 34 H       -4.0050    -4.0190     0.4550 H     1 <1>   0.4570 
 35 H       -5.6590    -5.3760     1.5250 H     1 <1>   0.1500 
 36 H       -0.8470    -6.9020    -1.5340 H     1 <1>   0.1500 
 37 H       -5.4020    -7.8500     1.4190 H     1 <1>   0.1500 
 38 H       -4.1410    -9.8080     0.6630 H     1 <1>   0.1500 
 39 H       -0.6000    -9.3190    -1.6240 H     1 <1>   0.1500 
 40 H       -2.2340   -10.7760    -0.5340 H     1 <1>   0.1500 
@<TRIPOS>BOND
  1   1   2  1   
  2   1   3  1   
  3   2   4  1   
  4   2  20  1   
  5   2  21  1   
  6   3  22  1   
  7   3  23  1   
  8   3  24  1   
  9   4   5  1   
 10   4   6  1   
 11   4   7  1   
 12   5   8  1   
 13   5  25  1   
 14   5  26  1   
 15   6   8  1   
 16   6  27  1   
 17   6  28  1   
 18   7   9  1   
 19   7  29  1   
 20   7  30  1   
 21   8  31  1   
 22   8  32  1   
 23   9  10  1   
 24   9  33  1   
 25  10  11  ar  
 26  10  12  ar  
 27  11  13  ar  
 28  11  34  1   
 29  12  14  ar  
 30  12  15  ar  
 31  13  16  ar  
 32  13  35  1   
 33  14  16  ar  
 34  14  17  ar  
 35  15  18  ar  
 36  15  36  1   
 37  16  37  1   
 38  17  19  ar  
 39  17  38  1   
 40  18  19  ar  
 41  18  39  1   
 42  19  40  1   
@<TRIPOS>SUBSTRUCTURE
  1 ****   9 GROUP 4 **** **** 0

# MOE 2024.06 (io_trps.svl 2023.06)
