@<TRIPOS>MOLECULE
NONAME
58 61 1 0 0 
SMALL
USER_CHARGES


@<TRIPOS>ATOM
  1 O        3.7450     2.9670     1.3640 O.co2 1 <1>  -0.9000 
  2 C        3.6540     1.8420     0.8580 C.2   1 <1>   0.9060 
  3 O        4.1470     0.8500     1.4110 O.co2 1 <1>  -0.9000 
  4 C        3.0170     1.6510    -0.5230 C.3   1 <1>  -0.1060 
  5 C        4.2210     1.2560    -1.4330 C.3   1 <1>   0.2000 
  6 C        2.3420     2.9530    -1.0570 C.3   1 <1>  -0.1600 
  7 C        1.9210     0.5440    -0.4430 C.3   1 <1>  -0.0170 
  8 O        4.2420    -0.1070    -1.6960 O.3   1 <1>  -0.6800 
  9 C        4.2830     2.0410    -2.7480 C.3   1 <1>   0.1400 
 10 C        3.3390     4.0310    -1.4950 C.3   1 <1>   0.1400 
 11 C        0.6360     0.9650     0.2700 C.ar  1 <1>  -0.1440 
 12 N        4.3920     3.4990    -2.4170 N.am  1 <1>  -0.6600 
 13 C       -0.5240     1.2010    -0.4530 C.ar  1 <1>  -0.1500 
 14 C        0.6150     1.1110     1.6480 C.ar  1 <1>  -0.1500 
 15 C        5.5550     4.1760    -2.7060 C.2   1 <1>   0.5690 
 16 C       -1.6880     1.5830     0.1930 C.ar  1 <1>  -0.1500 
 17 C       -0.5460     1.4940     2.2960 C.ar  1 <1>  -0.1500 
 18 O        6.2830     3.8100    -3.6030 O.2   1 <1>  -0.5700 
 19 C        5.9670     5.4460    -1.9330 C.3   1 <1>   0.1710 
 20 C       -1.6990     1.7310     1.5690 C.ar  1 <1>  -0.1500 
 21 N        6.8940     5.2430    -0.7770 N.3   1 <1>  -0.8100 
 22 C        7.3900     6.5300    -0.2710 C.3   1 <1>   0.2530 
 23 C        6.2520     4.4540     0.3060 C.3   1 <1>   0.1100 
 24 C        8.7290     6.3680     0.4290 C.ar  1 <1>  -0.1440 
 25 C        7.1900     3.9930     1.4290 C.3   1 <1>   0.1200 
 26 C        8.8180     5.6750     1.6290 C.ar  1 <1>   0.0820 
 27 C        9.8770     6.9360    -0.1050 C.ar  1 <1>  -0.1500 
 28 O        7.7350     5.0770     2.1640 O.3   1 <1>  -0.3630 
 29 C       10.0240     5.5820     2.3030 C.ar  1 <1>  -0.1500 
 30 C       11.0880     6.8320     0.5610 C.ar  1 <1>  -0.1500 
 31 C       11.1620     6.1590     1.7690 C.ar  1 <1>  -0.1500 
 32 H        5.1460     1.4660    -0.9200 H     1 <1>   0.0800 
 33 H        1.7120     3.3700    -0.2900 H     1 <1>   0.0800 
 34 H        1.7080     2.7220    -1.8940 H     1 <1>   0.0800 
 35 H        1.6690     0.2310    -1.4400 H     1 <1>   0.0800 
 36 H        2.3120    -0.3210     0.0640 H     1 <1>   0.0800 
 37 H        4.3380    -0.5560    -0.8270 H     1 <1>   0.4000 
 38 H        3.3990     1.8650    -3.3340 H     1 <1>   0.0800 
 39 H        5.1410     1.7160    -3.3100 H     1 <1>   0.0800 
 40 H        3.7940     4.4440    -0.6150 H     1 <1>   0.0800 
 41 H        2.8060     4.8230    -1.9910 H     1 <1>   0.0800 
 42 H       -0.5240     1.0900    -1.5220 H     1 <1>   0.1500 
 43 H        1.5110     0.9320     2.2220 H     1 <1>   0.1500 
 44 H       -2.5830     1.7650    -0.3750 H     1 <1>   0.1500 
 45 H       -0.5430     1.6090     3.3650 H     1 <1>   0.1500 
 46 H        5.0910     5.9710    -1.6030 H     1 <1>   0.0800 
 47 H        6.4610     6.0760    -2.6510 H     1 <1>   0.0800 
 48 H       -2.6000     2.0290     2.0730 H     1 <1>   0.1500 
 49 H        7.5190     7.2150    -1.0910 H     1 <1>   0.0800 
 50 H        6.6750     6.9610     0.4090 H     1 <1>   0.0800 
 51 H        5.4360     5.0020     0.7460 H     1 <1>   0.0800 
 52 H        5.8400     3.5560    -0.1180 H     1 <1>   0.0800 
 53 H        7.9940     3.4010     1.0280 H     1 <1>   0.0800 
 54 H        6.6280     3.3890     2.1200 H     1 <1>   0.0800 
 55 H        9.8330     7.4630    -1.0410 H     1 <1>   0.1500 
 56 H       10.0610     5.0520     3.2370 H     1 <1>   0.1500 
 57 H       11.9720     7.2750     0.1380 H     1 <1>   0.1500 
 58 H       12.1000     6.0830     2.2890 H     1 <1>   0.1500 
@<TRIPOS>BOND
  1   1   2  ar  
  2   2   3  ar  
  3   2   4  1   
  4   4   5  1   
  5   4   6  1   
  6   4   7  1   
  7   5   8  1   
  8   5   9  1   
  9   5  32  1   
 10   6  10  1   
 11   6  33  1   
 12   6  34  1   
 13   7  11  1   
 14   7  35  1   
 15   7  36  1   
 16   8  37  1   
 17   9  12  1   
 18   9  38  1   
 19   9  39  1   
 20  10  12  1   
 21  10  40  1   
 22  10  41  1   
 23  11  13  ar  
 24  11  14  ar  
 25  12  15  am  
 26  13  16  ar  
 27  13  42  1   
 28  14  17  ar  
 29  14  43  1   
 30  15  18  2   
 31  15  19  1   
 32  16  20  ar  
 33  16  44  1   
 34  17  20  ar  
 35  17  45  1   
 36  19  21  1   
 37  19  46  1   
 38  19  47  1   
 39  20  48  1   
 40  21  22  1   
 41  21  23  1   
 42  22  24  1   
 43  22  49  1   
 44  22  50  1   
 45  23  25  1   
 46  23  51  1   
 47  23  52  1   
 48  24  26  ar  
 49  24  27  ar  
 50  25  28  1   
 51  25  53  1   
 52  25  54  1   
 53  26  28  1   
 54  26  29  ar  
 55  27  30  ar  
 56  27  55  1   
 57  29  31  ar  
 58  29  56  1   
 59  30  31  ar  
 60  30  57  1   
 61  31  58  1   
@<TRIPOS>SUBSTRUCTURE
  1 ****  23 GROUP 4 **** **** 0

# MOE 2024.06 (io_trps.svl 2023.06)
