@<TRIPOS>MOLECULE
NONAME
49 50 1 0 0 
SMALL
USER_CHARGES


@<TRIPOS>ATOM
  1 O       -0.7690    -3.0090     2.0240 O.2   1 <1>  -0.5700 
  2 C       -0.8740    -4.0380     1.3960 C.2   1 <1>   0.6900 
  3 N       -2.0140    -4.3720     0.7700 N.am  1 <1>  -0.7300 
  4 N        0.1640    -4.8700     1.3170 N.am  1 <1>  -0.8000 
  5 C       -3.1630    -3.4360     0.6080 C.3   1 <1>   0.2010 
  6 C       -4.0080    -3.7310    -0.6390 C.2   1 <1>   0.5690 
  7 O       -3.7360    -4.7180    -1.2920 O.2   1 <1>  -0.5700 
  8 N       -5.0530    -2.9140    -0.9890 N.am  1 <1>  -0.6600 
  9 C       -5.9510    -3.2870    -2.1220 C.3   1 <1>   0.1400 
 10 C       -5.4900    -1.7110    -0.2270 C.3   1 <1>   0.1400 
 11 C       -7.0240    -4.3070    -1.6980 C.3   1 <1>   0.1400 
 12 C       -6.6500    -2.0330     0.7240 C.3   1 <1>  -0.1600 
 13 N       -7.5820    -4.0760    -0.3220 N.am  1 <1>  -0.6600 
 14 C       -7.8740    -2.6620     0.0460 C.3   1 <1>   0.1400 
 15 C       -7.8310    -5.1000     0.5740 C.2   1 <1>   0.5440 
 16 O       -8.4200    -4.8450     1.6090 O.2   1 <1>  -0.5700 
 17 C       -7.4250    -6.4670     0.3210 C.ar  1 <1>   0.0860 
 18 C       -8.3730    -7.4760     0.1570 C.ar  1 <1>  -0.1500 
 19 C       -6.0810    -6.8270     0.2360 C.ar  1 <1>  -0.1500 
 20 C       -8.0080    -8.7850    -0.1040 C.ar  1 <1>  -0.1430 
 21 C       -5.6980    -8.1270    -0.0260 C.ar  1 <1>  -0.1500 
 22 C       -6.6600    -9.1190    -0.2020 C.ar  1 <1>   0.0820 
 23 C       -9.0820    -9.8490    -0.2790 C.3   1 <1>  -0.0970 
 24 O       -6.3430   -10.4110    -0.4670 O.3   1 <1>  -0.3620 
 25 C       -5.0080   -10.8440    -0.5960 C.3   1 <1>   0.0400 
 26 H       -1.9900    -5.0920     0.0450 H     1 <1>   0.3700 
 27 H        0.9930    -4.6450     1.8630 H     1 <1>   0.3700 
 28 H        0.0610    -5.8290     0.9990 H     1 <1>   0.3700 
 29 H       -2.7850    -2.4320     0.5420 H     1 <1>   0.0800 
 30 H       -3.7920    -3.5080     1.4770 H     1 <1>   0.0800 
 31 H       -5.3670    -3.7080    -2.9230 H     1 <1>   0.0800 
 32 H       -6.4300    -2.4070    -2.5110 H     1 <1>   0.0800 
 33 H       -5.7980    -0.9490    -0.9220 H     1 <1>   0.0800 
 34 H       -4.6700    -1.3060     0.3390 H     1 <1>   0.0800 
 35 H       -6.5840    -5.2850    -1.7650 H     1 <1>   0.0800 
 36 H       -7.8300    -4.2800    -2.4090 H     1 <1>   0.0800 
 37 H       -6.9620    -1.1140     1.1840 H     1 <1>   0.0800 
 38 H       -6.3110    -2.6790     1.5150 H     1 <1>   0.0800 
 39 H       -8.1580    -2.1020    -0.8280 H     1 <1>   0.0800 
 40 H       -8.7070    -2.6350     0.7280 H     1 <1>   0.0800 
 41 H       -9.4120    -7.2100     0.2410 H     1 <1>   0.1500 
 42 H       -5.3320    -6.0680     0.3750 H     1 <1>   0.1500 
 43 H       -4.6500    -8.3470    -0.0890 H     1 <1>   0.1500 
 44 H      -10.0660    -9.4330    -0.1650 H     1 <1>   0.0800 
 45 H       -8.9490   -10.6220     0.4570 H     1 <1>   0.0800 
 46 H       -9.0040   -10.2880    -1.2570 H     1 <1>   0.0800 
 47 H       -5.0180   -11.8980    -0.8090 H     1 <1>   0.0800 
 48 H       -4.4920   -10.6620     0.3300 H     1 <1>   0.0800 
 49 H       -4.5460   -10.3110    -1.4080 H     1 <1>   0.0800 
@<TRIPOS>BOND
  1   1   2  2   
  2   2   3  am  
  3   2   4  am  
  4   3   5  1   
  5   3  26  1   
  6   4  27  1   
  7   4  28  1   
  8   5   6  1   
  9   5  29  1   
 10   5  30  1   
 11   6   7  2   
 12   6   8  am  
 13   8   9  1   
 14   8  10  1   
 15   9  11  1   
 16   9  31  1   
 17   9  32  1   
 18  10  12  1   
 19  10  33  1   
 20  10  34  1   
 21  11  13  1   
 22  11  35  1   
 23  11  36  1   
 24  12  14  1   
 25  12  37  1   
 26  12  38  1   
 27  13  14  1   
 28  13  15  am  
 29  14  39  1   
 30  14  40  1   
 31  15  16  2   
 32  15  17  1   
 33  17  18  ar  
 34  17  19  ar  
 35  18  20  ar  
 36  18  41  1   
 37  19  21  ar  
 38  19  42  1   
 39  20  22  ar  
 40  20  23  1   
 41  21  22  ar  
 42  21  43  1   
 43  22  24  1   
 44  23  44  1   
 45  23  45  1   
 46  23  46  1   
 47  24  25  1   
 48  25  47  1   
 49  25  48  1   
 50  25  49  1   
@<TRIPOS>SUBSTRUCTURE
  1 ****  19 GROUP 4 **** **** 0

# MOE 2024.06 (io_trps.svl 2023.06)
