@<TRIPOS>MOLECULE
NONAME
48 50 1 0 0 
SMALL
USER_CHARGES


@<TRIPOS>ATOM
  1 S       -2.4550    -0.7000    -0.1590 S.3   1 <1>  -0.0800 
  2 C       -1.2160    -1.9120    -0.0920 C.2   1 <1>   0.4420 
  3 C       -1.1970     0.4650    -0.3770 C.2   1 <1>   0.1980 
  4 N       -0.0420    -1.4090    -0.2260 N.2   1 <1>  -0.3380 
  5 N       -1.6270    -3.2120     0.0890 N.am  1 <1>  -0.4940 
  6 N       -0.0390    -0.0530    -0.3880 N.2   1 <1>  -0.3380 
  7 C       -1.5720     1.9230    -0.5280 C.3   1 <1>   0.0200 
  8 C       -0.9040    -4.3700     0.1530 C.2   1 <1>   0.5690 
  9 C       -0.2880     2.7490    -0.6730 C.3   1 <1>   0.3430 
 10 O        0.2950    -4.4210     0.0580 O.2   1 <1>  -0.5700 
 11 C       -1.6770    -5.6730     0.3550 C.3   1 <1>   0.2700 
 12 N       -0.5440     4.2260    -0.7650 N.4   1 <1>  -0.9590 
 13 N       -3.1790    -5.4590     0.4140 N.pl3 1 <1>  -0.5690 
 14 C       -1.2180     4.6140    -2.0470 C.3   1 <1>   0.2630 
 15 C        0.7490     4.9660    -0.6260 C.3   1 <1>   0.2630 
 16 C       -3.9220    -5.4100    -0.7890 C.ar  1 <1>   0.1000 
 17 C       -3.8220    -5.3510     1.6400 C.2   1 <1>  -0.0380 
 18 C       -5.3300    -5.3510    -0.7350 C.ar  1 <1>   0.0860 
 19 C       -3.3120    -5.4010    -2.0530 C.ar  1 <1>  -0.1500 
 20 C       -5.1730    -5.2800     1.6990 C.2   1 <1>  -0.1360 
 21 C       -3.0160    -5.3090     2.9330 C.3   1 <1>  -0.1020 
 22 C       -5.9830    -5.3010     0.5430 C.2   1 <1>   0.4690 
 23 C       -6.0600    -5.3210    -1.9290 C.ar  1 <1>  -0.1500 
 24 C       -4.0530    -5.3640    -3.2130 C.ar  1 <1>  -0.1500 
 25 O       -7.2010    -5.2570     0.6520 O.2   1 <1>  -0.5700 
 26 C       -5.4360    -5.3280    -3.1540 C.ar  1 <1>  -0.1500 
 27 H       -2.6340    -3.3640     0.1740 H     1 <1>   0.3700 
 28 H       -2.1160     2.2310     0.3450 H     1 <1>   0.0800 
 29 H       -2.1920     2.0260    -1.3990 H     1 <1>   0.0800 
 30 H        0.2500     2.4150    -1.5460 H     1 <1>   0.0800 
 31 H        0.3360     2.5480     0.1840 H     1 <1>   0.0800 
 32 H       -1.3210    -6.1380     1.2530 H     1 <1>   0.0800 
 33 H       -1.4340    -6.3520    -0.4400 H     1 <1>   0.0800 
 34 H       -1.1480     4.5050     0.0240 H     1 <1>   0.4500 
 35 H       -0.6140     4.3210    -2.8920 H     1 <1>   0.0800 
 36 H       -1.3650     5.6810    -2.0840 H     1 <1>   0.0800 
 37 H       -2.1800     4.1360    -2.1300 H     1 <1>   0.0800 
 38 H        1.4200     4.7040    -1.4290 H     1 <1>   0.0800 
 39 H        1.2230     4.7210     0.3110 H     1 <1>   0.0800 
 40 H        0.5780     6.0310    -0.6540 H     1 <1>   0.0800 
 41 H       -2.2450    -5.4190    -2.1600 H     1 <1>   0.1500 
 42 H       -5.7020    -5.2050     2.6310 H     1 <1>   0.1500 
 43 H       -2.2730    -4.5320     2.8940 H     1 <1>   0.0800 
 44 H       -2.5360    -6.2550     3.1060 H     1 <1>   0.0800 
 45 H       -3.6560    -5.1090     3.7730 H     1 <1>   0.0800 
 46 H       -7.1360    -5.2880    -1.8780 H     1 <1>   0.1500 
 47 H       -3.5630    -5.3620    -4.1730 H     1 <1>   0.1500 
 48 H       -6.0140    -5.3040    -4.0620 H     1 <1>   0.1500 
@<TRIPOS>BOND
  1   1   2  1   
  2   1   3  1   
  3   2   4  2   
  4   2   5  1   
  5   3   6  2   
  6   3   7  1   
  7   4   6  1   
  8   5   8  am  
  9   5  27  1   
 10   7   9  1   
 11   7  28  1   
 12   7  29  1   
 13   8  10  2   
 14   8  11  1   
 15   9  12  1   
 16   9  30  1   
 17   9  31  1   
 18  11  13  1   
 19  11  32  1   
 20  11  33  1   
 21  12  14  1   
 22  12  15  1   
 23  12  34  1   
 24  13  16  1   
 25  13  17  1   
 26  14  35  1   
 27  14  36  1   
 28  14  37  1   
 29  15  38  1   
 30  15  39  1   
 31  15  40  1   
 32  16  18  ar  
 33  16  19  ar  
 34  17  20  2   
 35  17  21  1   
 36  18  22  1   
 37  18  23  ar  
 38  19  24  ar  
 39  19  41  1   
 40  20  22  1   
 41  20  42  1   
 42  21  43  1   
 43  21  44  1   
 44  21  45  1   
 45  22  25  2   
 46  23  26  ar  
 47  23  46  1   
 48  24  26  ar  
 49  24  47  1   
 50  26  48  1   
@<TRIPOS>SUBSTRUCTURE
  1 ****   5 GROUP 4 **** **** 0

# MOE 2024.06 (io_trps.svl 2023.06)
