@<TRIPOS>MOLECULE
NONAME
45 46 1 0 0 
SMALL
USER_CHARGES


@<TRIPOS>ATOM
  1 S        0.3380     0.2750     0.0180 S.o2  1 <1>   1.3330 
  2 O        0.3870    -0.4940     1.2420 O.2   1 <1>  -0.6500 
  3 O        0.0110    -0.3830    -1.2270 O.2   1 <1>  -0.6500 
  4 N       -0.7440     1.5620     0.2510 N.am  1 <1>  -0.8490 
  5 C        1.9040     1.1120    -0.2030 C.3   1 <1>  -0.0550 
  6 C       -2.0840     1.2680    -0.2650 C.3   1 <1>   0.1160 
  7 C       -0.8300     2.0090     1.6450 C.3   1 <1>   0.1160 
  8 C        3.0650     0.1510    -0.5290 C.3   1 <1>  -0.0800 
  9 C        4.3900     0.8260    -0.8510 C.3   1 <1>   0.2200 
 10 C        3.4340    -0.8150     0.6070 C.3   1 <1>   0.1200 
 11 N        4.6440     1.9610     0.0680 N.am  1 <1>  -0.7300 
 12 C        5.3600    -0.2960    -0.5120 C.3   1 <1>   0.1200 
 13 O        4.8310    -0.8770     0.6390 O.3   1 <1>  -0.5600 
 14 C        4.5220     3.2680    -0.2580 C.2   1 <1>   0.5690 
 15 O        4.1340     3.6240    -1.3410 O.2   1 <1>  -0.5700 
 16 C        4.8760     4.3200     0.7630 C.3   1 <1>  -0.0990 
 17 C        5.9810     5.2260     0.2100 C.3   1 <1>   0.0960 
 18 N        6.3120     6.2840     1.1820 N.pl3 1 <1>   0.3140 
 19 N        6.9750     6.0400     2.2890 N.2   1 <1>  -0.4180 
 20 C        6.0200     7.5760     1.1660 C.2   1 <1>   0.0070 
 21 N        7.0730     7.1610     2.9080 N.2   1 <1>   0.0000 
 22 N        6.4810     8.1310     2.2200 N.2   1 <1>  -0.3380 
 23 C        5.2550     8.3020     0.0750 C.3   1 <1>  -0.0600 
 24 H        1.8070     1.8150    -1.0090 H     1 <1>   0.0800 
 25 H        2.1320     1.6660     0.6860 H     1 <1>   0.0800 
 26 H       -2.7360     2.1110    -0.1150 H     1 <1>   0.0800 
 27 H       -2.4960     0.4060     0.2340 H     1 <1>   0.0800 
 28 H       -2.0360     1.0650    -1.3220 H     1 <1>   0.0800 
 29 H       -1.4550     2.8830     1.7150 H     1 <1>   0.0800 
 30 H        0.1490     2.2600     2.0160 H     1 <1>   0.0800 
 31 H       -1.2450     1.2310     2.2650 H     1 <1>   0.0800 
 32 H        2.7800    -0.4440    -1.3800 H     1 <1>   0.0800 
 33 H        4.4630     1.1390    -1.8800 H     1 <1>   0.0800 
 34 H        3.0440    -1.8040     0.4320 H     1 <1>   0.0800 
 35 H        3.1000    -0.4610     1.5670 H     1 <1>   0.0800 
 36 H        4.9530     1.6660     0.9990 H     1 <1>   0.3700 
 37 H        6.3590     0.0540    -0.3200 H     1 <1>   0.0800 
 38 H        5.3730    -1.0430    -1.2870 H     1 <1>   0.0800 
 39 H        3.9950     4.9000     0.9700 H     1 <1>   0.0800 
 40 H        5.2070     3.8510     1.6720 H     1 <1>   0.0800 
 41 H        5.6650     5.6790    -0.7120 H     1 <1>   0.0800 
 42 H        6.8690     4.6510     0.0200 H     1 <1>   0.0800 
 43 H        5.1430     9.3400     0.3380 H     1 <1>   0.0800 
 44 H        4.2780     7.8720    -0.0450 H     1 <1>   0.0800 
 45 H        5.7890     8.2420    -0.8560 H     1 <1>   0.0800 
@<TRIPOS>BOND
  1   1   2  2   
  2   1   3  2   
  3   1   4  am  
  4   1   5  1   
  5   4   6  1   
  6   4   7  1   
  7   5   8  1   
  8   5  24  1   
  9   5  25  1   
 10   6  26  1   
 11   6  27  1   
 12   6  28  1   
 13   7  29  1   
 14   7  30  1   
 15   7  31  1   
 16   8   9  1   
 17   8  10  1   
 18   8  32  1   
 19   9  11  1   
 20   9  12  1   
 21   9  33  1   
 22  10  13  1   
 23  10  34  1   
 24  10  35  1   
 25  11  14  am  
 26  11  36  1   
 27  12  13  1   
 28  12  37  1   
 29  12  38  1   
 30  14  15  2   
 31  14  16  1   
 32  16  17  1   
 33  16  39  1   
 34  16  40  1   
 35  17  18  1   
 36  17  41  1   
 37  17  42  1   
 38  18  19  1   
 39  18  20  1   
 40  19  21  2   
 41  20  22  2   
 42  20  23  1   
 43  21  22  1   
 44  23  43  1   
 45  23  44  1   
 46  23  45  1   
@<TRIPOS>SUBSTRUCTURE
  1 ****  14 GROUP 4 **** **** 0

# MOE 2024.06 (io_trps.svl 2023.06)
