@<TRIPOS>MOLECULE
NONAME
35 36 1 0 0 
SMALL
USER_CHARGES


@<TRIPOS>ATOM
  1 S        0.9300    -0.1690    -1.3270 S.3   1 <1>  -0.4600 
  2 C        1.0470     1.6340    -1.4330 C.3   1 <1>   0.0700 
  3 C        1.4220    -0.4240     0.3950 C.3   1 <1>   0.0700 
  4 C        2.4450     2.0770    -0.9820 C.3   1 <1>   0.1100 
  5 C        2.7780     0.2520     0.6290 C.3   1 <1>   0.1100 
  6 N        2.7260     1.7180     0.4280 N.3   1 <1>  -0.8100 
  7 C        3.9750     2.3440     0.9590 C.3   1 <1>   0.1710 
  8 C        4.0060     3.8780     1.0180 C.2   1 <1>   0.5690 
  9 O        3.7370     4.4260     2.0590 O.2   1 <1>  -0.5700 
 10 N        4.3860     4.5520    -0.1140 N.am  1 <1>  -0.5470 
 11 C        4.5080     5.9240    -0.4190 C.ar  1 <1>   0.1170 
 12 C        4.7910     6.3110    -1.7280 C.ar  1 <1>   0.1900 
 13 C        4.3640     6.9470     0.5150 C.ar  1 <1>  -0.1500 
 14 F        4.9350     5.3810    -2.6430 F     1 <1>  -0.1900 
 15 C        4.9290     7.6280    -2.1170 C.ar  1 <1>  -0.1500 
 16 C        4.4950     8.2800     0.1520 C.ar  1 <1>  -0.1440 
 17 C        4.7780     8.6200    -1.1630 C.ar  1 <1>  -0.1500 
 18 C        4.3310     9.3700     1.1960 C.3   1 <1>  -0.0970 
 19 H        0.2860     2.0500    -0.7980 H     1 <1>   0.0800 
 20 H        0.8610     1.9050    -2.4570 H     1 <1>   0.0800 
 21 H        1.4780    -1.4850     0.5560 H     1 <1>   0.0800 
 22 H        0.6610     0.0060     1.0220 H     1 <1>   0.0800 
 23 H        2.4790     3.1450    -1.0950 H     1 <1>   0.0800 
 24 H        3.1860     1.6410    -1.6300 H     1 <1>   0.0800 
 25 H        3.5120    -0.1840    -0.0270 H     1 <1>   0.0800 
 26 H        3.0720     0.0460     1.6440 H     1 <1>   0.0800 
 27 H        4.8160     2.0040     0.3820 H     1 <1>   0.0800 
 28 H        4.1210     2.0010     1.9690 H     1 <1>   0.0800 
 29 H        4.5740     3.9550    -0.9180 H     1 <1>   0.3700 
 30 H        4.1500     6.7080     1.5400 H     1 <1>   0.1500 
 31 H        5.1490     7.8720    -3.1400 H     1 <1>   0.1500 
 32 H        4.8830     9.6530    -1.4460 H     1 <1>   0.1500 
 33 H        3.7250     9.0230     2.0140 H     1 <1>   0.0800 
 34 H        3.8560    10.2340     0.7660 H     1 <1>   0.0800 
 35 H        5.2950     9.6560     1.5770 H     1 <1>   0.0800 
@<TRIPOS>BOND
  1   1   2  1   
  2   1   3  1   
  3   2   4  1   
  4   2  19  1   
  5   2  20  1   
  6   3   5  1   
  7   3  21  1   
  8   3  22  1   
  9   4   6  1   
 10   4  23  1   
 11   4  24  1   
 12   5   6  1   
 13   5  25  1   
 14   5  26  1   
 15   6   7  1   
 16   7   8  1   
 17   7  27  1   
 18   7  28  1   
 19   8   9  2   
 20   8  10  am  
 21  10  11  1   
 22  10  29  1   
 23  11  12  ar  
 24  11  13  ar  
 25  12  14  1   
 26  12  15  ar  
 27  13  16  ar  
 28  13  30  1   
 29  15  17  ar  
 30  15  31  1   
 31  16  17  ar  
 32  16  18  1   
 33  17  32  1   
 34  18  33  1   
 35  18  34  1   
 36  18  35  1   
@<TRIPOS>SUBSTRUCTURE
  1 ****  10 GROUP 4 **** **** 0

# MOE 2024.06 (io_trps.svl 2023.06)
