@<TRIPOS>MOLECULE
NONAME
54 57 1 0 0 
SMALL
USER_CHARGES


@<TRIPOS>ATOM
  1 O       -2.1990     0.6240     0.5460 O.co2 1 <1>  -0.9000 
  2 C       -2.1930     0.0280    -0.5340 C.2   1 <1>   0.9060 
  3 O       -1.1850    -0.1450    -1.2210 O.co2 1 <1>  -0.9000 
  4 C       -3.4530    -0.7540    -0.9050 C.3   1 <1>   0.2370 
  5 N       -3.4780    -2.1680    -0.3400 N.4   1 <1>  -0.9590 
  6 C       -3.2720    -2.1490     1.1600 C.3   1 <1>   0.4230 
  7 C       -2.5150    -3.0250    -1.0780 C.3   1 <1>   0.3430 
  8 C       -1.8070    -2.3120     1.6450 C.3   1 <1>   0.1200 
  9 C       -4.1840    -3.2500     1.7680 C.3   1 <1>   0.2090 
 10 C       -2.2830    -4.3860    -0.4070 C.3   1 <1>  -0.0800 
 11 O       -1.4490    -3.6630     1.7550 O.3   1 <1>  -0.5600 
 12 N       -4.6500    -4.2640     0.7320 N.pl3 1 <1>  -0.8380 
 13 C       -1.1030    -4.3020     0.5760 C.3   1 <1>   0.1200 
 14 C       -3.5310    -5.1180     0.1590 C.3   1 <1>   0.2090 
 15 C       -5.9560    -4.6570     0.6190 C.ar  1 <1>   0.4100 
 16 N       -6.1880    -5.9000     0.2470 N.ar  1 <1>  -0.6200 
 17 C       -7.0250    -3.7760     0.8900 C.ar  1 <1>  -0.1500 
 18 C       -7.4410    -6.3270     0.1830 C.ar  1 <1>   0.7710 
 19 C       -8.3010    -4.2280     0.8140 C.ar  1 <1>   0.2180 
 20 N       -8.4780    -5.5220     0.4620 N.ar  1 <1>  -0.1790 
 21 N       -7.6870    -7.6090    -0.1760 N.pl3 1 <1>  -0.8380 
 22 C       -9.5220    -3.3680     1.0920 C.3   1 <1>  -0.0970 
 23 C       -8.9980    -8.3110    -0.2710 C.3   1 <1>   0.2090 
 24 C       -6.5840    -8.5580    -0.5020 C.3   1 <1>   0.2090 
 25 C       -8.6500    -9.7880    -0.3900 C.3   1 <1>  -0.1600 
 26 C       -7.2710    -9.8060    -1.0360 C.3   1 <1>  -0.1600 
 27 H       -3.5140    -0.7810    -1.9770 H     1 <1>   0.0800 
 28 H       -4.2890    -0.1950    -0.5280 H     1 <1>   0.0800 
 29 H       -4.3890    -2.6340    -0.4520 H     1 <1>   0.4500 
 30 H       -3.6050    -1.1940     1.5310 H     1 <1>   0.0800 
 31 H       -2.8900    -3.1840    -2.0750 H     1 <1>   0.0800 
 32 H       -1.5700    -2.5090    -1.1680 H     1 <1>   0.0800 
 33 H       -1.7290    -1.8950     2.6330 H     1 <1>   0.0800 
 34 H       -1.1020    -1.7910     1.0200 H     1 <1>   0.0800 
 35 H       -5.0200    -2.7640     2.2320 H     1 <1>   0.0800 
 36 H       -3.6770    -3.7670     2.5650 H     1 <1>   0.0800 
 37 H       -1.9090    -5.0200    -1.1910 H     1 <1>   0.0800 
 38 H       -0.2650    -3.7820     0.1400 H     1 <1>   0.0800 
 39 H       -0.7780    -5.2930     0.8430 H     1 <1>   0.0800 
 40 H       -3.2140    -5.8160     0.9170 H     1 <1>   0.0800 
 41 H       -3.9290    -5.7060    -0.6500 H     1 <1>   0.0800 
 42 H       -6.8180    -2.7560     1.1450 H     1 <1>   0.1500 
 43 H       -9.3930    -5.9480     0.3810 H     1 <1>   0.4570 
 44 H       -9.2290    -2.3660     1.3500 H     1 <1>   0.0800 
 45 H      -10.0870    -3.7730     1.9140 H     1 <1>   0.0800 
 46 H      -10.1550    -3.3190     0.2230 H     1 <1>   0.0800 
 47 H       -9.6100    -8.1390     0.5980 H     1 <1>   0.0800 
 48 H       -9.5140    -7.9910    -1.1620 H     1 <1>   0.0800 
 49 H       -5.9110    -8.1420    -1.2340 H     1 <1>   0.0800 
 50 H       -6.0360    -8.7900     0.3970 H     1 <1>   0.0800 
 51 H       -8.5970   -10.2200     0.5950 H     1 <1>   0.0800 
 52 H       -9.3790   -10.3290    -0.9680 H     1 <1>   0.0800 
 53 H       -7.3640    -9.7260    -2.1060 H     1 <1>   0.0800 
 54 H       -6.7190   -10.6990    -0.8010 H     1 <1>   0.0800 
@<TRIPOS>BOND
  1   1   2  ar  
  2   2   3  ar  
  3   2   4  1   
  4   4   5  1   
  5   4  27  1   
  6   4  28  1   
  7   5   6  1   
  8   5   7  1   
  9   5  29  1   
 10   6   8  1   
 11   6   9  1   
 12   6  30  1   
 13   7  10  1   
 14   7  31  1   
 15   7  32  1   
 16   8  11  1   
 17   8  33  1   
 18   8  34  1   
 19   9  12  1   
 20   9  35  1   
 21   9  36  1   
 22  10  13  1   
 23  10  14  1   
 24  10  37  1   
 25  11  13  1   
 26  12  14  1   
 27  12  15  1   
 28  13  38  1   
 29  13  39  1   
 30  14  40  1   
 31  14  41  1   
 32  15  16  ar  
 33  15  17  ar  
 34  16  18  ar  
 35  17  19  ar  
 36  17  42  1   
 37  18  20  ar  
 38  18  21  1   
 39  19  20  ar  
 40  19  22  1   
 41  20  43  1   
 42  21  23  1   
 43  21  24  1   
 44  22  44  1   
 45  22  45  1   
 46  22  46  1   
 47  23  25  1   
 48  23  47  1   
 49  23  48  1   
 50  24  26  1   
 51  24  49  1   
 52  24  50  1   
 53  25  26  1   
 54  25  51  1   
 55  25  52  1   
 56  26  53  1   
 57  26  54  1   
@<TRIPOS>SUBSTRUCTURE
  1 ****  12 GROUP 4 **** **** 0

# MOE 2024.06 (io_trps.svl 2023.06)
