@<TRIPOS>MOLECULE
NONAME
43 44 1 0 0 
SMALL
USER_CHARGES


@<TRIPOS>ATOM
  1 O        0.9520     0.3980     0.4260 O.2   1 <1>  -0.5700 
  2 C        1.9740    -0.1510     0.0860 C.2   1 <1>   0.5690 
  3 N        3.1180     0.5530    -0.1850 N.am  1 <1>  -0.6600 
  4 C        1.9620    -1.6680     0.0000 C.3   1 <1>  -0.0990 
  5 C        4.4030    -0.0640    -0.6110 C.3   1 <1>   0.1400 
  6 C        3.1300     2.0430    -0.1250 C.3   1 <1>   0.1400 
  7 C        3.1540    -2.2520    -0.7700 C.3   1 <1>  -0.1600 
  8 C        4.4440    -1.5660    -0.3130 C.3   1 <1>  -0.1600 
  9 C        3.3780     2.5200     1.3080 C.3   1 <1>   0.2090 
 10 N        3.5690     3.9960     1.3370 N.pl3 1 <1>  -0.8690 
 11 C        4.7770     4.6140     1.1500 C.ar  1 <1>   0.4100 
 12 N        5.7810     3.8770     0.6870 N.ar  1 <1>  -0.6200 
 13 C        4.9090     5.9690     1.4400 C.ar  1 <1>  -0.1500 
 14 C        6.9320     4.5040     0.5130 C.ar  1 <1>   0.1600 
 15 C        6.1120     6.6030     1.2470 C.ar  1 <1>  -0.1500 
 16 C        7.1760     5.8540     0.7520 C.ar  1 <1>   0.0860 
 17 C        8.4820     6.4150     0.4970 C.2   1 <1>   0.5440 
 18 O        9.4690     5.7900     0.8410 O.2   1 <1>  -0.5700 
 19 N        8.6550     7.6320    -0.1370 N.am  1 <1>  -0.6600 
 20 C        7.6350     8.2540    -1.0260 C.3   1 <1>   0.0600 
 21 C        9.9790     8.3150    -0.1490 C.3   1 <1>   0.0600 
 22 H        1.0440    -1.9810    -0.4630 H     1 <1>   0.0800 
 23 H        1.9670    -2.0460     1.0060 H     1 <1>   0.0800 
 24 H        5.2210     0.4240    -0.1050 H     1 <1>   0.0800 
 25 H        4.5220     0.0960    -1.6690 H     1 <1>   0.0800 
 26 H        2.1830     2.4260    -0.4670 H     1 <1>   0.0800 
 27 H        3.9030     2.4250    -0.7690 H     1 <1>   0.0800 
 28 H        3.0150    -2.0860    -1.8250 H     1 <1>   0.0800 
 29 H        3.2140    -3.3140    -0.6010 H     1 <1>   0.0800 
 30 H        4.5830    -1.7130     0.7440 H     1 <1>   0.0800 
 31 H        5.2890    -2.0010    -0.8170 H     1 <1>   0.0800 
 32 H        4.2570     2.0380     1.7000 H     1 <1>   0.0800 
 33 H        2.5360     2.2540     1.9240 H     1 <1>   0.0800 
 34 H        2.8120     4.5230     1.7750 H     1 <1>   0.4000 
 35 H        4.0610     6.5060     1.8180 H     1 <1>   0.1500 
 36 H        7.7560     3.9120     0.1520 H     1 <1>   0.1500 
 37 H        6.2410     7.6470     1.4740 H     1 <1>   0.1500 
 38 H        6.8370     7.5640    -1.2370 H     1 <1>   0.0800 
 39 H        8.0900     8.5370    -1.9590 H     1 <1>   0.0800 
 40 H        7.2290     9.1310    -0.5530 H     1 <1>   0.0800 
 41 H       10.6020     7.9450     0.6480 H     1 <1>   0.0800 
 42 H        9.8480     9.3740    -0.0160 H     1 <1>   0.0800 
 43 H       10.4730     8.1300    -1.0870 H     1 <1>   0.0800 
@<TRIPOS>BOND
  1   1   2  2   
  2   2   3  am  
  3   2   4  1   
  4   3   5  1   
  5   3   6  1   
  6   4   7  1   
  7   4  22  1   
  8   4  23  1   
  9   5   8  1   
 10   5  24  1   
 11   5  25  1   
 12   6   9  1   
 13   6  26  1   
 14   6  27  1   
 15   7   8  1   
 16   7  28  1   
 17   7  29  1   
 18   8  30  1   
 19   8  31  1   
 20   9  10  1   
 21   9  32  1   
 22   9  33  1   
 23  10  11  1   
 24  10  34  1   
 25  11  12  ar  
 26  11  13  ar  
 27  12  14  ar  
 28  13  15  ar  
 29  13  35  1   
 30  14  16  ar  
 31  14  36  1   
 32  15  16  ar  
 33  15  37  1   
 34  16  17  1   
 35  17  18  2   
 36  17  19  am  
 37  19  20  1   
 38  19  21  1   
 39  20  38  1   
 40  20  39  1   
 41  20  40  1   
 42  21  41  1   
 43  21  42  1   
 44  21  43  1   
@<TRIPOS>SUBSTRUCTURE
  1 ****  12 GROUP 4 **** **** 0

# MOE 2024.06 (io_trps.svl 2023.06)
