@<TRIPOS>MOLECULE
NONAME
48 50 1 0 0 
SMALL
USER_CHARGES


@<TRIPOS>ATOM
  1 S       -2.0870     0.8840     0.1710 S.3   1 <1>  -0.0800 
  2 C       -2.5780    -0.5590    -0.7050 C.2   1 <1>  -0.1400 
  3 C       -0.3920     0.5400    -0.1200 C.2   1 <1>  -0.1100 
  4 C       -1.4980    -1.2180    -1.1640 C.2   1 <1>  -0.1500 
  5 C       -4.0650    -0.8580    -0.8260 C.3   1 <1>   0.0810 
  6 C       -0.2530    -0.5930    -0.8320 C.2   1 <1>  -0.1500 
  7 C       -4.7060    -1.2480     0.5010 C.2   1 <1>   0.5690 
  8 O       -4.5460    -2.3910     0.8710 O.2   1 <1>  -0.5700 
  9 N       -5.4740    -0.3670     1.2270 N.am  1 <1>  -0.6600 
 10 C       -6.3070    -0.8690     2.3580 C.3   1 <1>   0.1400 
 11 C       -5.6180     1.0930     0.9640 C.3   1 <1>   0.1400 
 12 C       -7.6810    -1.3750     1.8800 C.3   1 <1>   0.1400 
 13 C       -6.9230     1.4290     0.2280 C.3   1 <1>  -0.1600 
 14 N       -8.2710    -0.5700     0.7580 N.am  1 <1>  -0.6600 
 15 C       -8.2000     0.9080     0.9020 C.3   1 <1>   0.1400 
 16 C       -8.7450    -1.1310    -0.4160 C.2   1 <1>   0.7150 
 17 O       -9.5270    -0.4800    -1.0880 O.2   1 <1>  -0.5700 
 18 C       -8.3410    -2.4410    -0.8770 C.2   1 <1>   0.0550 
 19 O       -7.0880    -2.8460    -0.7330 O.3   1 <1>  -0.2800 
 20 C       -9.0340    -3.4180    -1.4990 C.2   1 <1>   0.0460 
 21 C       -7.1180    -4.0550    -1.2480 C.2   1 <1>   0.2980 
 22 N       -8.2390    -4.4570    -1.7270 N.2   1 <1>  -0.5650 
 23 C      -10.4870    -3.4700    -1.9240 C.3   1 <1>  -0.0590 
 24 C       -5.8130    -4.8370    -1.2080 C.3   1 <1>   0.0200 
 25 C       -5.9130    -6.2480    -1.8080 C.3   1 <1>  -0.2400 
 26 H        0.3300     1.2310     0.2790 H     1 <1>   0.1500 
 27 H       -1.5180    -2.1340    -1.7290 H     1 <1>   0.1500 
 28 H       -4.1930    -1.6870    -1.4970 H     1 <1>   0.0800 
 29 H       -4.5730    -0.0230    -1.2660 H     1 <1>   0.0800 
 30 H        0.6810    -1.0260    -1.1420 H     1 <1>   0.1500 
 31 H       -6.4470    -0.0850     3.0800 H     1 <1>   0.0800 
 32 H       -5.7940    -1.6710     2.8620 H     1 <1>   0.0800 
 33 H       -4.7870     1.4520     0.3870 H     1 <1>   0.0800 
 34 H       -5.5930     1.6180     1.9030 H     1 <1>   0.0800 
 35 H       -8.3610    -1.3590     2.7120 H     1 <1>   0.0800 
 36 H       -7.5760    -2.4050     1.5910 H     1 <1>   0.0800 
 37 H       -6.8770     1.0600    -0.7810 H     1 <1>   0.0800 
 38 H       -6.9950     2.4990     0.1640 H     1 <1>   0.0800 
 39 H       -9.0590     1.3560     0.4300 H     1 <1>   0.0800 
 40 H       -8.2220     1.1830     1.9420 H     1 <1>   0.0800 
 41 H      -11.0040    -2.5730    -1.6400 H     1 <1>   0.0800 
 42 H      -10.9680    -4.3120    -1.4610 H     1 <1>   0.0800 
 43 H      -10.5440    -3.5820    -2.9910 H     1 <1>   0.0800 
 44 H       -5.4960    -4.9070    -0.1830 H     1 <1>   0.0800 
 45 H       -5.0680    -4.2760    -1.7420 H     1 <1>   0.0800 
 46 H       -6.6440    -6.8250    -1.2700 H     1 <1>   0.0800 
 47 H       -4.9620    -6.7450    -1.7470 H     1 <1>   0.0800 
 48 H       -6.2130    -6.1900    -2.8390 H     1 <1>   0.0800 
@<TRIPOS>BOND
  1   1   2  1   
  2   1   3  1   
  3   2   4  2   
  4   2   5  1   
  5   3   6  2   
  6   3  26  1   
  7   4   6  1   
  8   4  27  1   
  9   5   7  1   
 10   5  28  1   
 11   5  29  1   
 12   6  30  1   
 13   7   8  2   
 14   7   9  am  
 15   9  10  1   
 16   9  11  1   
 17  10  12  1   
 18  10  31  1   
 19  10  32  1   
 20  11  13  1   
 21  11  33  1   
 22  11  34  1   
 23  12  14  1   
 24  12  35  1   
 25  12  36  1   
 26  13  15  1   
 27  13  37  1   
 28  13  38  1   
 29  14  15  1   
 30  14  16  am  
 31  15  39  1   
 32  15  40  1   
 33  16  17  2   
 34  16  18  1   
 35  18  19  1   
 36  18  20  2   
 37  19  21  1   
 38  20  22  1   
 39  20  23  1   
 40  21  22  2   
 41  21  24  1   
 42  23  41  1   
 43  23  42  1   
 44  23  43  1   
 45  24  25  1   
 46  24  44  1   
 47  24  45  1   
 48  25  46  1   
 49  25  47  1   
 50  25  48  1   
@<TRIPOS>SUBSTRUCTURE
  1 ****   7 GROUP 4 **** **** 0

# MOE 2024.06 (io_trps.svl 2023.06)
