@<TRIPOS>MOLECULE
NONAME
51 52 1 0 0 
SMALL
USER_CHARGES


@<TRIPOS>ATOM
  1 S        0.1460     0.6670    -0.6810 S.o2  1 <1>   1.3330 
  2 O       -0.5420    -0.5550    -1.0100 O.2   1 <1>  -0.6500 
  3 O        0.1560     1.7790    -1.6040 O.2   1 <1>  -0.6500 
  4 N        1.7620     0.2820    -0.3310 N.am  1 <1>  -0.8490 
  5 C       -0.4810     1.2930     0.8870 C.3   1 <1>  -0.0550 
  6 C        1.9060    -1.0100     0.3620 C.3   1 <1>   0.1160 
  7 C        2.5780     0.2390    -1.5520 C.3   1 <1>   0.1160 
  8 C       -0.1060     2.7500     1.2610 C.3   1 <1>  -0.0800 
  9 C       -0.7830     3.8050     0.3660 C.3   1 <1>   0.2000 
 10 C        1.4020     3.0580     1.2020 C.3   1 <1>   0.3430 
 11 O       -1.3850     4.7470     1.1940 O.3   1 <1>  -0.6800 
 12 C        0.3650     4.4840    -0.3900 C.3   1 <1>   0.3430 
 13 N        1.5520     4.3570     0.5010 N.4   1 <1>  -0.9590 
 14 C        1.6410     5.5070     1.4360 C.3   1 <1>   0.4860 
 15 C        1.9830     6.7440     0.6330 C.ar  1 <1>  -0.1440 
 16 C        3.1940     6.8280    -0.0490 C.ar  1 <1>   0.0820 
 17 C        1.0820     7.7970     0.5790 C.ar  1 <1>  -0.1500 
 18 O        4.0330     5.7590     0.0210 O.3   1 <1>  -0.3630 
 19 C        3.4920     7.9780    -0.7760 C.ar  1 <1>  -0.1500 
 20 C        1.3840     8.9340    -0.1480 C.ar  1 <1>  -0.1500 
 21 C        5.3840     5.8700    -0.3910 C.3   1 <1>   0.1200 
 22 C        2.5880     9.0240    -0.8230 C.ar  1 <1>  -0.1500 
 23 C        6.0970     4.5530    -0.0830 C.3   1 <1>   0.1200 
 24 O        7.4350     4.6610    -0.4260 O.3   1 <1>  -0.6800 
 25 H       -1.5530     1.2280     0.8640 H     1 <1>   0.0800 
 26 H       -0.1570     0.6390     1.6720 H     1 <1>   0.0800 
 27 H        2.9380    -1.1830     0.6140 H     1 <1>   0.0800 
 28 H        1.5640    -1.8170    -0.2670 H     1 <1>   0.0800 
 29 H        1.3310    -1.0200     1.2710 H     1 <1>   0.0800 
 30 H        3.6000    -0.0030    -1.3130 H     1 <1>   0.0800 
 31 H        2.5670     1.1970    -2.0450 H     1 <1>   0.0800 
 32 H        2.1930    -0.5010    -2.2360 H     1 <1>   0.0800 
 33 H       -0.4250     2.8940     2.2790 H     1 <1>   0.0800 
 34 H       -1.5260     3.4140    -0.3100 H     1 <1>   0.0800 
 35 H        1.9220     2.3030     0.6410 H     1 <1>   0.0800 
 36 H        1.8300     3.0980     2.1910 H     1 <1>   0.0800 
 37 H       -2.2860     4.4630     1.4590 H     1 <1>   0.4000 
 38 H        0.1310     5.5110    -0.6200 H     1 <1>   0.0800 
 39 H        0.5510     3.9560    -1.3100 H     1 <1>   0.0800 
 40 H        2.4190     4.4040    -0.0580 H     1 <1>   0.4500 
 41 H        0.7080     5.6450     1.9570 H     1 <1>   0.0800 
 42 H        2.4210     5.3350     2.1600 H     1 <1>   0.0800 
 43 H        0.1400     7.7440     1.1000 H     1 <1>   0.1500 
 44 H        4.4160     8.0840    -1.3140 H     1 <1>   0.1500 
 45 H        0.6840     9.7520    -0.1890 H     1 <1>   0.1500 
 46 H        5.4030     6.0670    -1.4480 H     1 <1>   0.0800 
 47 H        5.8400     6.6770     0.1570 H     1 <1>   0.0800 
 48 H        2.8200     9.9120    -1.3860 H     1 <1>   0.1500 
 49 H        5.6710     3.7380    -0.6420 H     1 <1>   0.0800 
 50 H        6.0510     4.3420     0.9720 H     1 <1>   0.0800 
 51 H        7.5620     4.7240    -1.3940 H     1 <1>   0.4000 
@<TRIPOS>BOND
  1   1   2  2   
  2   1   3  2   
  3   1   4  am  
  4   1   5  1   
  5   4   6  1   
  6   4   7  1   
  7   5   8  1   
  8   5  25  1   
  9   5  26  1   
 10   6  27  1   
 11   6  28  1   
 12   6  29  1   
 13   7  30  1   
 14   7  31  1   
 15   7  32  1   
 16   8   9  1   
 17   8  10  1   
 18   8  33  1   
 19   9  11  1   
 20   9  12  1   
 21   9  34  1   
 22  10  13  1   
 23  10  35  1   
 24  10  36  1   
 25  11  37  1   
 26  12  13  1   
 27  12  38  1   
 28  12  39  1   
 29  13  14  1   
 30  13  40  1   
 31  14  15  1   
 32  14  41  1   
 33  14  42  1   
 34  15  16  ar  
 35  15  17  ar  
 36  16  18  1   
 37  16  19  ar  
 38  17  20  ar  
 39  17  43  1   
 40  18  21  1   
 41  19  22  ar  
 42  19  44  1   
 43  20  22  ar  
 44  20  45  1   
 45  21  23  1   
 46  21  46  1   
 47  21  47  1   
 48  22  48  1   
 49  23  24  1   
 50  23  49  1   
 51  23  50  1   
 52  24  51  1   
@<TRIPOS>SUBSTRUCTURE
  1 ****  13 GROUP 4 **** **** 0

# MOE 2024.06 (io_trps.svl 2023.06)
