@<TRIPOS>MOLECULE
NONAME
50 51 1 0 0 
SMALL
USER_CHARGES


@<TRIPOS>ATOM
  1 F        4.0820    -1.7980     2.1130 F     1 <1>  -0.3400 
  2 C        2.8390    -1.5060     1.7500 C.3   1 <1>   1.1640 
  3 F        2.9060    -0.3840     1.0490 F     1 <1>  -0.3400 
  4 F        2.1850    -1.2150     2.8680 F     1 <1>  -0.3400 
  5 C        2.1760    -2.6440     0.9520 C.ar  1 <1>  -0.1440 
  6 C        0.8060    -2.8610     1.0260 C.ar  1 <1>  -0.1500 
  7 C        2.9330    -3.4700     0.1260 C.ar  1 <1>  -0.1500 
  8 C        0.1820    -3.8800     0.3130 C.ar  1 <1>   0.0860 
  9 C        2.3460    -4.4940    -0.6100 C.ar  1 <1>  -0.1440 
 10 C       -1.2510    -4.0800     0.4010 C.2   1 <1>   0.5440 
 11 C        0.9740    -4.6830    -0.5030 C.ar  1 <1>  -0.1500 
 12 C        3.2180    -5.3780    -1.5200 C.3   1 <1>   1.1630 
 13 O       -2.0000    -3.2170    -0.0130 O.2   1 <1>  -0.5700 
 14 N       -1.8100    -5.2290     0.9110 N.am  1 <1>  -0.6600 
 15 F        4.2020    -5.9570    -0.8450 F     1 <1>  -0.3400 
 16 F        3.7890    -4.6830    -2.4940 F     1 <1>  -0.3400 
 17 F        2.5430    -6.3620    -2.1050 F     1 <1>  -0.3400 
 18 C       -1.0180    -6.3270     1.5470 C.3   1 <1>   0.3210 
 19 C       -3.2690    -5.4950     0.7650 C.3   1 <1>   0.1400 
 20 C       -0.7000    -7.4530     0.5590 C.2   1 <1>   0.0460 
 21 C       -3.6380    -5.5560    -0.7280 C.3   1 <1>   0.3430 
 22 N       -1.6360    -7.9740    -0.2710 N.2   1 <1>  -0.5650 
 23 C        0.4910    -8.0790     0.3870 C.2   1 <1>  -0.3320 
 24 N       -4.9290    -6.2780    -0.9880 N.4   1 <1>  -0.9590 
 25 C       -0.9950    -8.8890    -0.9250 C.2   1 <1>   0.0360 
 26 N        0.3010    -9.0020    -0.5740 N.pl3 1 <1>   0.0330 
 27 C        1.8370    -7.9050     1.0740 C.3   1 <1>  -0.0600 
 28 C       -4.7430    -7.7520    -0.7960 C.3   1 <1>   0.2630 
 29 C       -5.3950    -5.9870    -2.3760 C.3   1 <1>   0.2630 
 30 H        0.1880    -2.2270     1.6430 H     1 <1>   0.1500 
 31 H        3.9990    -3.3120     0.0480 H     1 <1>   0.1500 
 32 H        0.4860    -5.4640    -1.0650 H     1 <1>   0.1500 
 33 H       -1.5770    -6.7370     2.3690 H     1 <1>   0.0800 
 34 H       -0.1060    -5.9290     1.9520 H     1 <1>   0.0800 
 35 H       -3.8190    -4.7020     1.2420 H     1 <1>   0.0800 
 36 H       -3.5080    -6.4250     1.2470 H     1 <1>   0.0800 
 37 H       -2.8430    -6.0560    -1.2560 H     1 <1>   0.0800 
 38 H       -3.7000    -4.5450    -1.0980 H     1 <1>   0.0800 
 39 H       -5.6340    -5.9290    -0.3230 H     1 <1>   0.4500 
 40 H       -1.4280    -9.5190    -1.6830 H     1 <1>   0.1500 
 41 H        0.9890    -9.6580    -0.9560 H     1 <1>   0.2700 
 42 H        1.8500    -7.0270     1.6930 H     1 <1>   0.0800 
 43 H        2.6210    -7.8170     0.3440 H     1 <1>   0.0800 
 44 H        2.0450    -8.7600     1.6930 H     1 <1>   0.0800 
 45 H       -3.9800    -8.1200    -1.4640 H     1 <1>   0.0800 
 46 H       -5.6620    -8.2780    -0.9940 H     1 <1>   0.0800 
 47 H       -4.4320    -7.9670     0.2130 H     1 <1>   0.0800 
 48 H       -4.6650    -6.3260    -3.0930 H     1 <1>   0.0800 
 49 H       -5.5390    -4.9270    -2.5070 H     1 <1>   0.0800 
 50 H       -6.3290    -6.4880    -2.5700 H     1 <1>   0.0800 
@<TRIPOS>BOND
  1   1   2  1   
  2   2   3  1   
  3   2   4  1   
  4   2   5  1   
  5   5   6  ar  
  6   5   7  ar  
  7   6   8  ar  
  8   6  30  1   
  9   7   9  ar  
 10   7  31  1   
 11   8  10  1   
 12   8  11  ar  
 13   9  11  ar  
 14   9  12  1   
 15  10  13  2   
 16  10  14  am  
 17  11  32  1   
 18  12  15  1   
 19  12  16  1   
 20  12  17  1   
 21  14  18  1   
 22  14  19  1   
 23  18  20  1   
 24  18  33  1   
 25  18  34  1   
 26  19  21  1   
 27  19  35  1   
 28  19  36  1   
 29  20  22  1   
 30  20  23  2   
 31  21  24  1   
 32  21  37  1   
 33  21  38  1   
 34  22  25  2   
 35  23  26  1   
 36  23  27  1   
 37  24  28  1   
 38  24  29  1   
 39  24  39  1   
 40  25  26  1   
 41  25  40  1   
 42  26  41  1   
 43  27  42  1   
 44  27  43  1   
 45  27  44  1   
 46  28  45  1   
 47  28  46  1   
 48  28  47  1   
 49  29  48  1   
 50  29  49  1   
 51  29  50  1   
@<TRIPOS>SUBSTRUCTURE
  1 ****  11 GROUP 4 **** **** 0

# MOE 2024.06 (io_trps.svl 2023.06)
