@<TRIPOS>MOLECULE
NONAME
48 51 1 0 0 
SMALL
USER_CHARGES


@<TRIPOS>ATOM
  1 O        0.2960     0.8120    -2.6260 O.2   1 <1>  -0.5700 
  2 C        1.2590     1.1890    -1.9540 C.2   1 <1>   0.5440 
  3 N        1.2250     2.5150    -1.5390 N.am  1 <1>  -0.6600 
  4 C        2.3800     0.3100    -1.6780 C.ar  1 <1>   0.3960 
  5 C        0.2190     2.8390    -0.4770 C.3   1 <1>   0.2200 
  6 C        2.5110     3.2720    -1.5010 C.3   1 <1>   0.1400 
  7 N        3.0990    -0.1720    -2.7230 N.ar  1 <1>  -0.6200 
  8 C        2.7350    -0.0120    -0.3290 C.ar  1 <1>  -0.1710 
  9 C        0.5720     4.0680     0.4070 C.3   1 <1>   0.1380 
 10 C       -1.2170     2.8960    -1.0220 C.3   1 <1>  -0.1600 
 11 C        3.0410     3.5210    -0.0770 C.3   1 <1>  -0.1600 
 12 C        4.1160    -0.9520    -2.4500 C.ar  1 <1>   0.1600 
 13 O        2.1160     0.4060     0.6820 O.3   1 <1>  -0.8290 
 14 C        3.8320    -0.8440    -0.0950 C.ar  1 <1>  -0.1500 
 15 C        0.6070     5.4640    -0.2970 C.2   1 <1>  -0.2760 
 16 C       -0.4920     4.0370     1.5420 C.3   1 <1>   0.1200 
 17 C        1.9640     3.7610     1.0000 C.3   1 <1>  -0.1600 
 18 C       -2.1010     3.8790    -0.2430 C.3   1 <1>   0.1200 
 19 C        4.5230    -1.3160    -1.1690 C.ar  1 <1>  -0.1500 
 20 C        0.3400     5.7060    -1.5890 C.2   1 <1>  -0.2880 
 21 C        1.0170     6.6600     0.5660 C.3   1 <1>  -0.0220 
 22 O       -1.8230     3.8210     1.1240 O.3   1 <1>  -0.5600 
 23 C        0.4130     7.0750    -2.2510 C.3   1 <1>   0.2580 
 24 C        0.6260     7.9870    -0.0980 C.3   1 <1>   0.1200 
 25 O        1.0610     7.9960    -1.4230 O.3   1 <1>  -0.5600 
 26 H        0.2300     1.9950     0.1940 H     1 <1>   0.0800 
 27 H        3.2610     2.7470    -2.0680 H     1 <1>   0.0800 
 28 H        2.3620     4.2150    -1.9910 H     1 <1>   0.0800 
 29 H       -1.6420     1.9120    -0.9470 H     1 <1>   0.0800 
 30 H       -1.2180     3.1600    -2.0620 H     1 <1>   0.0800 
 31 H        3.6260     2.6660     0.2160 H     1 <1>   0.0800 
 32 H        3.7080     4.3630    -0.1130 H     1 <1>   0.0800 
 33 H        4.6740    -1.3380    -3.2840 H     1 <1>   0.1500 
 34 H        4.0820    -1.0790     0.9220 H     1 <1>   0.1500 
 35 H       -0.4800     4.9350     2.1260 H     1 <1>   0.0800 
 36 H       -0.2640     3.2230     2.2080 H     1 <1>   0.0800 
 37 H        2.2840     4.5250     1.6830 H     1 <1>   0.0800 
 38 H        1.8930     2.8500     1.5720 H     1 <1>   0.0800 
 39 H       -3.1390     3.6330    -0.3790 H     1 <1>   0.0800 
 40 H       -1.9480     4.8910    -0.5710 H     1 <1>   0.0800 
 41 H        5.3700    -1.9610    -1.0400 H     1 <1>   0.1500 
 42 H        0.0590     4.9450    -2.2920 H     1 <1>   0.1500 
 43 H        2.0820     6.6490     0.7110 H     1 <1>   0.0800 
 44 H        0.5530     6.6340     1.5320 H     1 <1>   0.0800 
 45 H       -0.5740     7.4450    -2.4680 H     1 <1>   0.0800 
 46 H        0.9770     7.0160    -3.1650 H     1 <1>   0.0800 
 47 H        1.0900     8.8140     0.4090 H     1 <1>   0.0800 
 48 H       -0.4420     8.1200    -0.0890 H     1 <1>   0.0800 
@<TRIPOS>BOND
  1   1   2  2   
  2   2   3  am  
  3   2   4  1   
  4   3   5  1   
  5   3   6  1   
  6   4   7  ar  
  7   4   8  ar  
  8   5   9  1   
  9   5  10  1   
 10   5  26  1   
 11   6  11  1   
 12   6  27  1   
 13   6  28  1   
 14   7  12  ar  
 15   8  13  1   
 16   8  14  ar  
 17   9  15  1   
 18   9  16  1   
 19   9  17  1   
 20  10  18  1   
 21  10  29  1   
 22  10  30  1   
 23  11  17  1   
 24  11  31  1   
 25  11  32  1   
 26  12  19  ar  
 27  12  33  1   
 28  14  19  ar  
 29  14  34  1   
 30  15  20  2   
 31  15  21  1   
 32  16  22  1   
 33  16  35  1   
 34  16  36  1   
 35  17  37  1   
 36  17  38  1   
 37  18  22  1   
 38  18  39  1   
 39  18  40  1   
 40  19  41  1   
 41  20  23  1   
 42  20  42  1   
 43  21  24  1   
 44  21  43  1   
 45  21  44  1   
 46  23  25  1   
 47  23  45  1   
 48  23  46  1   
 49  24  25  1   
 50  24  47  1   
 51  24  48  1   
@<TRIPOS>SUBSTRUCTURE
  1 ****   3 GROUP 4 **** **** 0

# MOE 2024.06 (io_trps.svl 2023.06)
