@<TRIPOS>MOLECULE
NONAME
45 46 1 0 0 
SMALL
USER_CHARGES


@<TRIPOS>ATOM
  1 S       -0.3990     0.4040     1.7010 S.o2  1 <1>   1.4470 
  2 O       -0.9620     1.4080     2.5800 O.2   1 <1>  -0.6500 
  3 O       -0.1850    -0.9400     2.1960 O.2   1 <1>  -0.6500 
  4 N       -1.3720     0.3260     0.3140 N.am  1 <1>  -0.8490 
  5 C        1.1610     1.0430     1.0310 C.ar  1 <1>  -0.0090 
  6 C       -1.0010    -0.7560    -0.6390 C.3   1 <1>   0.1960 
  7 C       -2.8130     0.3850     0.5810 C.3   1 <1>   0.1960 
  8 C        1.1860     2.1740     0.2300 C.ar  1 <1>  -0.1500 
  9 C        2.3740     0.4220     1.2970 C.ar  1 <1>  -0.1500 
 10 C       -2.0430    -1.8870    -0.8150 C.3   1 <1>   0.2000 
 11 C       -3.3570    -0.9320     1.1610 C.3   1 <1>  -0.1600 
 12 C        2.3710     2.6620    -0.2910 C.ar  1 <1>  -0.1500 
 13 C        3.5620     0.9070     0.7790 C.ar  1 <1>  -0.1500 
 14 O       -2.9860    -1.5050    -1.7590 O.3   1 <1>  -0.6800 
 15 C       -2.7620    -2.2020     0.5000 C.3   1 <1>  -0.1860 
 16 C        3.5850     2.0390    -0.0290 C.ar  1 <1>  -0.1430 
 17 C       -3.7880    -3.2990     0.2890 C.2   1 <1>   0.9060 
 18 C        4.8830     2.6190    -0.6330 C.3   1 <1>   0.1440 
 19 O       -3.7110    -4.3310     0.9590 O.co2 1 <1>  -0.9000 
 20 O       -4.6580    -3.1310    -0.5790 O.co2 1 <1>  -0.9000 
 21 C        5.0820     4.0590    -0.1360 C.3   1 <1>  -0.2400 
 22 C        4.7810     2.6170    -2.1660 C.3   1 <1>  -0.2400 
 23 C        6.1400     1.8190    -0.2510 C.3   1 <1>  -0.2400 
 24 H       -0.8140    -0.3190    -1.6040 H     1 <1>   0.0800 
 25 H       -0.0800    -1.2120    -0.3200 H     1 <1>   0.0800 
 26 H       -3.0400     1.2000     1.2460 H     1 <1>   0.0800 
 27 H       -3.3200     0.5870    -0.3480 H     1 <1>   0.0800 
 28 H        0.2590     2.6780     0.0090 H     1 <1>   0.1500 
 29 H        2.3880    -0.4570     1.9200 H     1 <1>   0.1500 
 30 H       -1.5660    -2.7740    -1.1940 H     1 <1>   0.0800 
 31 H       -3.1720    -0.9660     2.2200 H     1 <1>   0.0800 
 32 H       -4.4250    -0.9300     1.0290 H     1 <1>   0.0800 
 33 H        2.3330     3.5420    -0.9070 H     1 <1>   0.1500 
 34 H        4.4630     0.3760     1.0260 H     1 <1>   0.1500 
 35 H       -3.7990    -2.0650    -1.5670 H     1 <1>   0.4000 
 36 H       -2.0260    -2.6020     1.1720 H     1 <1>   0.0800 
 37 H        6.0010     4.4690    -0.5160 H     1 <1>   0.0800 
 38 H        5.1190     4.0750     0.9390 H     1 <1>   0.0800 
 39 H        4.2770     4.6950    -0.4550 H     1 <1>   0.0800 
 40 H        5.6890     2.9850    -2.6080 H     1 <1>   0.0800 
 41 H        3.9720     3.2380    -2.5020 H     1 <1>   0.0800 
 42 H        4.6080     1.6170    -2.5210 H     1 <1>   0.0800 
 43 H        7.0170     2.2580    -0.6920 H     1 <1>   0.0800 
 44 H        6.0640     0.8050    -0.6010 H     1 <1>   0.0800 
 45 H        6.2730     1.8120     0.8160 H     1 <1>   0.0800 
@<TRIPOS>BOND
  1   1   2  2   
  2   1   3  2   
  3   1   4  am  
  4   1   5  1   
  5   4   6  1   
  6   4   7  1   
  7   5   8  ar  
  8   5   9  ar  
  9   6  10  1   
 10   6  24  1   
 11   6  25  1   
 12   7  11  1   
 13   7  26  1   
 14   7  27  1   
 15   8  12  ar  
 16   8  28  1   
 17   9  13  ar  
 18   9  29  1   
 19  10  14  1   
 20  10  15  1   
 21  10  30  1   
 22  11  15  1   
 23  11  31  1   
 24  11  32  1   
 25  12  16  ar  
 26  12  33  1   
 27  13  16  ar  
 28  13  34  1   
 29  14  35  1   
 30  15  17  1   
 31  15  36  1   
 32  16  18  1   
 33  17  19  ar  
 34  17  20  ar  
 35  18  21  1   
 36  18  22  1   
 37  18  23  1   
 38  21  37  1   
 39  21  38  1   
 40  21  39  1   
 41  22  40  1   
 42  22  41  1   
 43  22  42  1   
 44  23  43  1   
 45  23  44  1   
 46  23  45  1   
@<TRIPOS>SUBSTRUCTURE
  1 ****   5 GROUP 4 **** **** 0

# MOE 2024.06 (io_trps.svl 2023.06)
