@<TRIPOS>MOLECULE
NONAME
53 55 1 0 0 
SMALL
USER_CHARGES


@<TRIPOS>ATOM
  1 O        0.1090     0.1580     0.3250 O.2   1 <1>  -0.5700 
  2 C       -0.5640     1.1510     0.2000 C.2   1 <1>   0.5690 
  3 N       -1.9160     1.2170     0.0170 N.am  1 <1>  -0.4770 
  4 C        0.0480     2.5230     0.2570 C.3   1 <1>  -0.0990 
  5 C       -2.8500     0.1630    -0.0480 C.ar  1 <1>   0.1170 
  6 C       -2.3540     2.6250    -0.0750 C.3   1 <1>   0.1400 
  7 C       -1.1700     3.4280     0.4830 C.3   1 <1>  -0.0190 
  8 C       -2.6920    -0.9880     0.7150 C.ar  1 <1>  -0.1500 
  9 C       -3.9680     0.2480    -0.8720 C.ar  1 <1>  -0.1500 
 10 C       -1.0210     4.8050    -0.1430 C.2   1 <1>   0.5690 
 11 C       -3.6200    -2.0130     0.6650 C.ar  1 <1>  -0.1500 
 12 C       -4.8980    -0.7740    -0.9220 C.ar  1 <1>  -0.1500 
 13 O       -1.2350     4.9330    -1.3240 O.2   1 <1>  -0.5700 
 14 N       -0.6430     5.8400     0.6600 N.am  1 <1>  -0.4930 
 15 C       -4.7360    -1.9170    -0.1520 C.ar  1 <1>  -0.1430 
 16 C       -0.4450     7.2000     0.3110 C.2   1 <1>   0.0630 
 17 C       -5.7510    -3.0570    -0.1950 C.3   1 <1>   0.0630 
 18 C       -0.5760     7.8280    -0.9290 C.2   1 <1>   0.1390 
 19 C       -0.0730     8.1870     1.1520 C.2   1 <1>  -0.3020 
 20 C       -5.8330    -3.6630    -1.6000 C.3   1 <1>  -0.2400 
 21 C       -7.1290    -2.5810     0.2740 C.3   1 <1>  -0.2400 
 22 N       -0.3070     9.1000    -0.8690 N.2   1 <1>  -0.7070 
 23 N        0.0030     9.3240     0.4230 N.pl3 1 <1>   0.3140 
 24 C        0.3760    10.6610     0.9080 C.3   1 <1>   0.1570 
 25 C        1.8200    10.9520     0.5690 C.2   1 <1>   0.5690 
 26 O        2.5240    11.4260     1.4280 O.2   1 <1>  -0.5700 
 27 N        2.2820    10.6870    -0.6830 N.am  1 <1>  -0.7300 
 28 C        3.6640    10.9130    -1.1710 C.3   1 <1>   0.0600 
 29 H        0.5200     2.7260    -0.6870 H     1 <1>   0.0800 
 30 H        0.7650     2.5950     1.0540 H     1 <1>   0.0800 
 31 H       -3.2490     2.7870     0.5010 H     1 <1>   0.0800 
 32 H       -2.5380     2.8620    -1.1090 H     1 <1>   0.0800 
 33 H       -1.3290     3.5340     1.5410 H     1 <1>   0.0800 
 34 H       -1.8350    -1.0870     1.3560 H     1 <1>   0.1500 
 35 H       -4.1150     1.1150    -1.4880 H     1 <1>   0.1500 
 36 H       -3.4640    -2.8880     1.2700 H     1 <1>   0.1500 
 37 H       -5.7510    -0.6770    -1.5690 H     1 <1>   0.1500 
 38 H       -0.4620     5.6300     1.6400 H     1 <1>   0.3700 
 39 H       -5.4260    -3.8330     0.4770 H     1 <1>   0.0800 
 40 H       -0.8660     7.3240    -1.8360 H     1 <1>   0.1500 
 41 H        0.1420     8.1510     2.2030 H     1 <1>   0.1500 
 42 H       -6.2000    -2.9420    -2.3080 H     1 <1>   0.0800 
 43 H       -6.4910    -4.5130    -1.6020 H     1 <1>   0.0800 
 44 H       -4.8560    -3.9840    -1.9150 H     1 <1>   0.0800 
 45 H       -7.5250    -1.8370    -0.3930 H     1 <1>   0.0800 
 46 H       -7.0510    -2.1540     1.2580 H     1 <1>   0.0800 
 47 H       -7.8150    -3.4080     0.3130 H     1 <1>   0.0800 
 48 H        0.2360    10.7050     1.9700 H     1 <1>   0.0800 
 49 H       -0.2540    11.3890     0.4360 H     1 <1>   0.0800 
 50 H        1.6400    10.2010    -1.3290 H     1 <1>   0.3700 
 51 H        4.2550    11.3940    -0.4100 H     1 <1>   0.0800 
 52 H        3.6430    11.5410    -2.0450 H     1 <1>   0.0800 
 53 H        4.1190     9.9700    -1.4220 H     1 <1>   0.0800 
@<TRIPOS>BOND
  1   1   2  2   
  2   2   3  am  
  3   2   4  1   
  4   3   5  1   
  5   3   6  1   
  6   4   7  1   
  7   4  29  1   
  8   4  30  1   
  9   5   8  ar  
 10   5   9  ar  
 11   6   7  1   
 12   6  31  1   
 13   6  32  1   
 14   7  10  1   
 15   7  33  1   
 16   8  11  ar  
 17   8  34  1   
 18   9  12  ar  
 19   9  35  1   
 20  10  13  2   
 21  10  14  am  
 22  11  15  ar  
 23  11  36  1   
 24  12  15  ar  
 25  12  37  1   
 26  14  16  1   
 27  14  38  1   
 28  15  17  1   
 29  16  18  1   
 30  16  19  2   
 31  17  20  1   
 32  17  21  1   
 33  17  39  1   
 34  18  22  2   
 35  18  40  1   
 36  19  23  1   
 37  19  41  1   
 38  20  42  1   
 39  20  43  1   
 40  20  44  1   
 41  21  45  1   
 42  21  46  1   
 43  21  47  1   
 44  22  23  1   
 45  23  24  1   
 46  24  25  1   
 47  24  48  1   
 48  24  49  1   
 49  25  26  2   
 50  25  27  am  
 51  27  28  1   
 52  27  50  1   
 53  28  51  1   
 54  28  52  1   
 55  28  53  1   
@<TRIPOS>SUBSTRUCTURE
  1 ****   7 GROUP 4 **** **** 0

# MOE 2024.06 (io_trps.svl 2023.06)
