@<TRIPOS>MOLECULE
NONAME
50 52 1 0 0 
SMALL
USER_CHARGES


@<TRIPOS>ATOM
  1 S       -0.4320     0.5240     1.8900 S.o2  1 <1>   1.4470 
  2 O        0.0190    -0.4560     2.8570 O.2   1 <1>  -0.6500 
  3 O       -1.2510     1.6240     2.3550 O.2   1 <1>  -0.6500 
  4 N       -1.3350    -0.3010     0.7170 N.am  1 <1>  -0.8490 
  5 C        0.9790     1.2010     0.9670 C.ar  1 <1>  -0.0090 
  6 C       -0.5890    -1.4350     0.1100 C.3   1 <1>   0.1960 
  7 C       -2.6680    -0.6490     1.1920 C.3   1 <1>   0.1960 
  8 C        0.9060     2.4560     0.3710 C.ar  1 <1>  -0.1500 
  9 C        2.1590     0.4800     0.8120 C.ar  1 <1>  -0.1500 
 10 C       -1.4480    -2.6250    -0.3930 C.3   1 <1>  -0.1060 
 11 C       -3.5300    -1.1750     0.0370 C.3   1 <1>  -0.1600 
 12 C        1.9710     2.9850    -0.3390 C.ar  1 <1>  -0.1500 
 13 C        3.2280     0.9980     0.1040 C.ar  1 <1>  -0.1500 
 14 C       -0.6810    -3.3130    -1.5270 C.2   1 <1>   0.9060 
 15 C       -2.7370    -2.0130    -0.9760 C.3   1 <1>   0.2000 
 16 C       -1.7720    -3.7010     0.6950 C.3   1 <1>  -0.0650 
 17 C        3.1470     2.2550    -0.4720 C.ar  1 <1>   0.0830 
 18 O        0.5360    -3.1330    -1.6540 O.co2 1 <1>  -0.9000 
 19 O       -1.3070    -4.0460    -2.3090 O.co2 1 <1>  -0.9000 
 20 O       -3.5620    -3.0100    -1.4580 O.3   1 <1>  -0.6800 
 21 C       -0.6220    -4.0430     1.6560 C.3   1 <1>  -0.1950 
 22 O        4.2410     2.6960    -1.1390 O.3   1 <1>  -0.3630 
 23 C        0.5170    -4.9050     1.2190 C.3   1 <1>  -0.2000 
 24 C       -0.4870    -5.4260     2.2070 C.3   1 <1>  -0.2000 
 25 C        4.2660     3.9610    -1.7580 C.3   1 <1>   0.1200 
 26 C        5.6360     4.1470    -2.4030 C.3   1 <1>  -0.2400 
 27 H       -0.0610    -1.0190    -0.7330 H     1 <1>   0.0800 
 28 H        0.1740    -1.8030     0.7720 H     1 <1>   0.0800 
 29 H       -2.5850    -1.3790     1.9780 H     1 <1>   0.0800 
 30 H       -3.1510     0.2200     1.6080 H     1 <1>   0.0800 
 31 H       -0.0020     3.0260     0.4670 H     1 <1>   0.1500 
 32 H        2.2420    -0.5010     1.2510 H     1 <1>   0.1500 
 33 H       -3.9610    -0.3380    -0.4810 H     1 <1>   0.0800 
 34 H       -4.3340    -1.7540     0.4540 H     1 <1>   0.0800 
 35 H        1.8650     3.9590    -0.7770 H     1 <1>   0.1500 
 36 H        4.1320     0.4270    -0.0090 H     1 <1>   0.1500 
 37 H       -2.4670    -1.3910    -1.8150 H     1 <1>   0.0800 
 38 H       -2.6160    -3.4110     1.2880 H     1 <1>   0.0800 
 39 H       -2.0720    -4.6030     0.1880 H     1 <1>   0.0800 
 40 H       -2.9550    -3.6240    -1.9700 H     1 <1>   0.4000 
 41 H       -0.4050    -3.2420     2.3430 H     1 <1>   0.1000 
 42 H        0.5120    -5.2790     0.2070 H     1 <1>   0.1000 
 43 H        1.5050    -4.6330     1.5450 H     1 <1>   0.1000 
 44 H       -0.1860    -5.5470     3.2330 H     1 <1>   0.1000 
 45 H       -1.1670    -6.1930     1.8810 H     1 <1>   0.1000 
 46 H        3.4880     3.9920    -2.5020 H     1 <1>   0.0800 
 47 H        4.0940     4.7120    -1.0060 H     1 <1>   0.0800 
 48 H        5.8040     3.3810    -3.1390 H     1 <1>   0.0800 
 49 H        6.4070     4.1000    -1.6540 H     1 <1>   0.0800 
 50 H        5.6860     5.1050    -2.8870 H     1 <1>   0.0800 
@<TRIPOS>BOND
  1   1   2  2   
  2   1   3  2   
  3   1   4  am  
  4   1   5  1   
  5   4   6  1   
  6   4   7  1   
  7   5   8  ar  
  8   5   9  ar  
  9   6  10  1   
 10   6  27  1   
 11   6  28  1   
 12   7  11  1   
 13   7  29  1   
 14   7  30  1   
 15   8  12  ar  
 16   8  31  1   
 17   9  13  ar  
 18   9  32  1   
 19  10  14  1   
 20  10  15  1   
 21  10  16  1   
 22  11  15  1   
 23  11  33  1   
 24  11  34  1   
 25  12  17  ar  
 26  12  35  1   
 27  13  17  ar  
 28  13  36  1   
 29  14  18  ar  
 30  14  19  ar  
 31  15  20  1   
 32  15  37  1   
 33  16  21  1   
 34  16  38  1   
 35  16  39  1   
 36  17  22  1   
 37  20  40  1   
 38  21  23  1   
 39  21  24  1   
 40  21  41  1   
 41  22  25  1   
 42  23  24  1   
 43  23  42  1   
 44  23  43  1   
 45  24  44  1   
 46  24  45  1   
 47  25  26  1   
 48  25  46  1   
 49  25  47  1   
 50  26  48  1   
 51  26  49  1   
 52  26  50  1   
@<TRIPOS>SUBSTRUCTURE
  1 ****   6 GROUP 4 **** **** 0

# MOE 2024.06 (io_trps.svl 2023.06)
