@<TRIPOS>MOLECULE
NONAME
31 33 1 0 0 
SMALL
USER_CHARGES


@<TRIPOS>ATOM
  1 CL      -1.8300    -0.9880    -3.1860 Cl    1 <1>  -0.1770 
  2 C       -2.4370    -1.4490    -1.6100 C.ar  1 <1>   0.1770 
  3 C       -2.4900    -2.7780    -1.2270 C.ar  1 <1>   0.1900 
  4 C       -2.8590    -0.4560    -0.7470 C.ar  1 <1>  -0.1500 
  5 F       -2.0780    -3.6880    -2.0700 F     1 <1>  -0.1900 
  6 C       -2.9640    -3.1650     0.0250 C.ar  1 <1>   0.0860 
  7 C       -3.3320    -0.8090     0.5080 C.ar  1 <1>  -0.1500 
  8 C       -3.0220    -4.5510     0.4290 C.2   1 <1>   0.5440 
  9 C       -3.3790    -2.1420     0.8830 C.ar  1 <1>  -0.1500 
 10 O       -1.9850    -5.1610     0.6090 O.2   1 <1>  -0.5700 
 11 N       -4.2220    -5.1660     0.6790 N.am  1 <1>  -0.6600 
 12 C       -5.5510    -4.5640     0.6270 C.3   1 <1>   0.2350 
 13 C       -4.4190    -6.6090     0.8090 C.3   1 <1>   0.2350 
 14 C       -6.4710    -5.5470    -0.0870 C.3   1 <1>  -0.2420 
 15 C       -5.6980    -6.9590     0.0410 C.3   1 <1>  -0.2420 
 16 C       -7.5640    -4.5650    -0.5100 C.2   1 <1>   0.9470 
 17 C       -7.0250    -6.8110    -0.5660 C.3   1 <1>  -0.2000 
 18 C       -5.4690    -8.4610    -0.1500 C.2   1 <1>   0.9470 
 19 O       -7.4910    -4.0010    -1.6100 O.co2 1 <1>  -0.9000 
 20 O       -8.4320    -4.2560     0.3160 O.co2 1 <1>  -0.9000 
 21 O       -5.0630    -8.9010    -1.2340 O.co2 1 <1>  -0.9000 
 22 O       -5.6420    -9.2080     0.8230 O.co2 1 <1>  -0.9000 
 23 H       -2.8200     0.5740    -1.0530 H     1 <1>   0.1500 
 24 H       -3.6660    -0.0450     1.1900 H     1 <1>   0.1500 
 25 H       -3.7470    -2.4100     1.8590 H     1 <1>   0.1500 
 26 H       -5.9030    -4.4420     1.6370 H     1 <1>   0.0800 
 27 H       -5.5390    -3.6010     0.1440 H     1 <1>   0.0800 
 28 H       -3.5630    -7.1560     0.4480 H     1 <1>   0.0800 
 29 H       -4.5630    -6.8380     1.8510 H     1 <1>   0.0800 
 30 H       -7.1150    -6.9580    -1.6300 H     1 <1>   0.1000 
 31 H       -7.8690    -7.2240    -0.0420 H     1 <1>   0.1000 
@<TRIPOS>BOND
  1   1   2  1   
  2   2   3  ar  
  3   2   4  ar  
  4   3   5  1   
  5   3   6  ar  
  6   4   7  ar  
  7   4  23  1   
  8   6   8  1   
  9   6   9  ar  
 10   7   9  ar  
 11   7  24  1   
 12   8  10  2   
 13   8  11  am  
 14   9  25  1   
 15  11  12  1   
 16  11  13  1   
 17  12  14  1   
 18  12  26  1   
 19  12  27  1   
 20  13  15  1   
 21  13  28  1   
 22  13  29  1   
 23  14  15  1   
 24  14  16  1   
 25  14  17  1   
 26  15  17  1   
 27  15  18  1   
 28  16  19  ar  
 29  16  20  ar  
 30  17  30  1   
 31  17  31  1   
 32  18  21  ar  
 33  18  22  ar  
@<TRIPOS>SUBSTRUCTURE
  1 ****  11 GROUP 4 **** **** 0

# MOE 2024.06 (io_trps.svl 2023.06)
