@<TRIPOS>MOLECULE
NONAME
46 48 1 0 0 
SMALL
USER_CHARGES


@<TRIPOS>ATOM
  1 O        3.7700    -1.6770    -1.9780 O.2   1 <1>  -0.5700 
  2 C        2.9310    -1.5340    -1.1040 C.2   1 <1>   0.5440 
  3 N        2.9190    -0.3100    -0.4860 N.am  1 <1>  -0.6600 
  4 C        2.1140    -2.6550    -0.6670 C.ar  1 <1>   0.0860 
  5 C        3.3390    -0.2690     0.9570 C.3   1 <1>   0.2200 
  6 C        3.0420     0.9350    -1.3100 C.3   1 <1>   0.1400 
  7 C        0.8180    -2.5170    -0.1410 C.ar  1 <1>   0.0830 
  8 C        2.6340    -3.9490    -0.7670 C.ar  1 <1>  -0.1500 
  9 C        2.7660     0.9450     1.7030 C.3   1 <1>   0.1200 
 10 C        4.8840    -0.3400     1.0740 C.3   1 <1>   0.3430 
 11 C        4.0770     1.9550    -0.7960 C.3   1 <1>  -0.0800 
 12 O        0.2760    -1.2750    -0.0600 O.3   1 <1>  -0.3630 
 13 C        0.1070    -3.6410     0.2800 C.ar  1 <1>  -0.1500 
 14 C        1.9240    -5.0580    -0.3520 C.ar  1 <1>  -0.1500 
 15 O        3.6060     2.0530     1.5870 O.3   1 <1>  -0.5600 
 16 N        5.5650    -0.0430    -0.2340 N.4   1 <1>  -0.9590 
 17 C        3.5410     2.7640     0.3970 C.3   1 <1>   0.1200 
 18 C        5.5030     1.4140    -0.5570 C.3   1 <1>   0.3430 
 19 C       -1.0880    -1.0530     0.2300 C.3   1 <1>   0.0400 
 20 C        0.6570    -4.9030     0.1760 C.ar  1 <1>  -0.1500 
 21 C        7.0180    -0.4780    -0.1520 C.3   1 <1>   0.2370 
 22 C        7.8280     0.2150     0.9480 C.2   1 <1>   0.9060 
 23 O        8.3570     1.2980     0.6820 O.co2 1 <1>  -0.9000 
 24 O        7.8100    -0.2810     2.0790 O.co2 1 <1>  -0.9000 
 25 H        2.9340    -1.1380     1.4450 H     1 <1>   0.0800 
 26 H        3.3000     0.6670    -2.3210 H     1 <1>   0.0800 
 27 H        2.0740     1.4020    -1.3540 H     1 <1>   0.0800 
 28 H        3.6180    -4.0860    -1.1820 H     1 <1>   0.1500 
 29 H        2.7150     0.7160     2.7530 H     1 <1>   0.0800 
 30 H        1.7750     1.1910     1.3620 H     1 <1>   0.0800 
 31 H        5.1560    -1.3320     1.3930 H     1 <1>   0.0800 
 32 H        5.2320     0.3400     1.8360 H     1 <1>   0.0800 
 33 H        4.1760     2.6820    -1.5820 H     1 <1>   0.0800 
 34 H       -0.8800    -3.5570     0.6930 H     1 <1>   0.1500 
 35 H        2.3530    -6.0420    -0.4420 H     1 <1>   0.1500 
 36 H        5.0530    -0.5710    -0.9690 H     1 <1>   0.4500 
 37 H        2.5240     3.0800     0.2370 H     1 <1>   0.0800 
 38 H        4.1460     3.6450     0.5340 H     1 <1>   0.0800 
 39 H        5.9720     1.9770     0.2370 H     1 <1>   0.0800 
 40 H        6.0850     1.5840    -1.4480 H     1 <1>   0.0800 
 41 H       -1.2850     0.0000     0.1310 H     1 <1>   0.0800 
 42 H       -1.2900    -1.3680     1.2380 H     1 <1>   0.0800 
 43 H       -1.6900    -1.6020    -0.4740 H     1 <1>   0.0800 
 44 H        0.1010    -5.7660     0.5020 H     1 <1>   0.1500 
 45 H        7.0690    -1.5340     0.0360 H     1 <1>   0.0800 
 46 H        7.5110    -0.2760    -1.0850 H     1 <1>   0.0800 
@<TRIPOS>BOND
  1   1   2  2   
  2   2   3  am  
  3   2   4  1   
  4   3   5  1   
  5   3   6  1   
  6   4   7  ar  
  7   4   8  ar  
  8   5   9  1   
  9   5  10  1   
 10   5  25  1   
 11   6  11  1   
 12   6  26  1   
 13   6  27  1   
 14   7  12  1   
 15   7  13  ar  
 16   8  14  ar  
 17   8  28  1   
 18   9  15  1   
 19   9  29  1   
 20   9  30  1   
 21  10  16  1   
 22  10  31  1   
 23  10  32  1   
 24  11  17  1   
 25  11  18  1   
 26  11  33  1   
 27  12  19  1   
 28  13  20  ar  
 29  13  34  1   
 30  14  20  ar  
 31  14  35  1   
 32  15  17  1   
 33  16  18  1   
 34  16  21  1   
 35  16  36  1   
 36  17  37  1   
 37  17  38  1   
 38  18  39  1   
 39  18  40  1   
 40  19  41  1   
 41  19  42  1   
 42  19  43  1   
 43  20  44  1   
 44  21  22  1   
 45  21  45  1   
 46  21  46  1   
 47  22  23  ar  
 48  22  24  ar  
@<TRIPOS>SUBSTRUCTURE
  1 ****   3 GROUP 4 **** **** 0

# MOE 2024.06 (io_trps.svl 2023.06)
