@<TRIPOS>MOLECULE
NONAME
36 38 1 0 0 
SMALL
USER_CHARGES


@<TRIPOS>ATOM
  1 CL       2.8250    -0.4050    -2.4230 Cl    1 <1>  -0.1770 
  2 C        2.8480    -0.7740    -0.7140 C.ar  1 <1>   0.1770 
  3 C        2.8170     0.2380     0.2430 C.ar  1 <1>  -0.1440 
  4 C        2.8830    -2.1090    -0.3580 C.ar  1 <1>  -0.1500 
  5 C        2.7940    -0.1180     1.5890 C.ar  1 <1>  -0.1500 
  6 C        2.7820     1.7170    -0.1460 C.3   1 <1>   0.2540 
  7 C        2.8740    -2.4210     0.9860 C.ar  1 <1>   0.1900 
  8 C        2.8260    -1.4500     1.9680 C.ar  1 <1>  -0.1500 
  9 N        4.1150     2.3520    -0.1650 N.3   1 <1>  -0.8100 
 10 F        2.9070    -3.6760     1.3410 F     1 <1>  -0.1900 
 11 C        4.7710     2.3880     1.1670 C.3   1 <1>   0.1100 
 12 C        4.9660     1.8440    -1.2640 C.3   1 <1>   0.1100 
 13 C        6.0110     3.3160     1.2950 C.3   1 <1>   0.2200 
 14 C        6.2220     2.6920    -1.5520 C.3   1 <1>  -0.0190 
 15 N        6.0500     4.3780     0.2560 N.am  1 <1>  -0.7300 
 16 C        7.3320     2.5160     1.2900 C.3   1 <1>   0.1200 
 17 C        6.1000     4.1240    -1.0680 C.2   1 <1>   0.5690 
 18 C        7.5190     2.0500    -1.0320 C.3   1 <1>   0.1200 
 19 O        7.3910     1.5610     0.2690 O.3   1 <1>  -0.5600 
 20 O        6.0790     5.0300    -1.8640 O.2   1 <1>  -0.5700 
 21 H        2.9130    -2.8820    -1.1030 H     1 <1>   0.1500 
 22 H        2.7510     0.6430     2.3490 H     1 <1>   0.1500 
 23 H        2.1600     2.2490     0.5540 H     1 <1>   0.0800 
 24 H        2.3220     1.8380    -1.1110 H     1 <1>   0.0800 
 25 H        2.8140    -1.7360     3.0050 H     1 <1>   0.1500 
 26 H        4.0480     2.7330     1.8840 H     1 <1>   0.0800 
 27 H        5.0510     1.3890     1.4560 H     1 <1>   0.0800 
 28 H        5.2480     0.8240    -1.0660 H     1 <1>   0.0800 
 29 H        4.3750     1.8490    -2.1630 H     1 <1>   0.0800 
 30 H        5.9560     3.8040     2.2510 H     1 <1>   0.0800 
 31 H        6.3290     2.7410    -2.6200 H     1 <1>   0.0800 
 32 H        5.8220     5.3330     0.5290 H     1 <1>   0.3700 
 33 H        7.4130     1.9740     2.2150 H     1 <1>   0.0800 
 34 H        8.1800     3.1730     1.2100 H     1 <1>   0.0800 
 35 H        8.3400     2.7470    -1.0690 H     1 <1>   0.0800 
 36 H        7.7660     1.2060    -1.6520 H     1 <1>   0.0800 
@<TRIPOS>BOND
  1   1   2  1   
  2   2   3  ar  
  3   2   4  ar  
  4   3   5  ar  
  5   3   6  1   
  6   4   7  ar  
  7   4  21  1   
  8   5   8  ar  
  9   5  22  1   
 10   6   9  1   
 11   6  23  1   
 12   6  24  1   
 13   7   8  ar  
 14   7  10  1   
 15   8  25  1   
 16   9  11  1   
 17   9  12  1   
 18  11  13  1   
 19  11  26  1   
 20  11  27  1   
 21  12  14  1   
 22  12  28  1   
 23  12  29  1   
 24  13  15  1   
 25  13  16  1   
 26  13  30  1   
 27  14  17  1   
 28  14  18  1   
 29  14  31  1   
 30  15  17  am  
 31  15  32  1   
 32  16  19  1   
 33  16  33  1   
 34  16  34  1   
 35  17  20  2   
 36  18  19  1   
 37  18  35  1   
 38  18  36  1   
@<TRIPOS>SUBSTRUCTURE
  1 ****   9 GROUP 4 **** **** 0

# MOE 2024.06 (io_trps.svl 2023.06)
