@<TRIPOS>MOLECULE
NONAME
26 25 1 0 0 
SMALL
USER_CHARGES


@<TRIPOS>ATOM
  1 S        0.0900     0.1880     0.0190 S.o2  1 <1>   1.3450 
  2 O        0.0260     0.8670     1.3370 O.co2 1 <1>  -0.8170 
  3 O        1.1560    -0.8340    -0.0900 O.co2 1 <1>  -0.8170 
  4 O       -0.0140     1.0990    -1.1450 O.co2 1 <1>  -0.8170 
  5 C       -1.4380    -0.7840    -0.0450 C.3   1 <1>  -0.0550 
  6 C       -2.7180     0.0640     0.0550 C.3   1 <1>  -0.1600 
  7 C       -3.9830    -0.8020    -0.0040 C.3   1 <1>  -0.1600 
  8 C       -5.2380     0.0730     0.0980 C.3   1 <1>  -0.1600 
  9 C       -6.5150    -0.7750     0.0410 C.3   1 <1>  -0.1600 
 10 C       -7.7520     0.1140     0.1440 C.3   1 <1>   0.3430 
 11 N       -8.9660    -0.7310     0.0860 N.4   1 <1>  -0.8530 
 12 H       -1.4200    -1.4910     0.7610 H     1 <1>   0.0800 
 13 H       -1.4490    -1.3330    -0.9650 H     1 <1>   0.0800 
 14 H       -2.7160     0.7760    -0.7530 H     1 <1>   0.0800 
 15 H       -2.6870     0.6170     0.9790 H     1 <1>   0.0800 
 16 H       -3.9620    -1.5100     0.8080 H     1 <1>   0.0800 
 17 H       -3.9910    -1.3500    -0.9310 H     1 <1>   0.0800 
 18 H       -5.2320     0.7840    -0.7120 H     1 <1>   0.0800 
 19 H       -5.2030     0.6240     1.0240 H     1 <1>   0.0800 
 20 H       -6.4990    -1.4780     0.8570 H     1 <1>   0.0800 
 21 H       -6.5280    -1.3180    -0.8890 H     1 <1>   0.0800 
 22 H       -7.7540     0.8230    -0.6700 H     1 <1>   0.0800 
 23 H       -7.7250     0.6630     1.0730 H     1 <1>   0.0800 
 24 H       -9.0020    -1.2560    -0.7950 H     1 <1>   0.4500 
 25 H       -9.8170    -0.1610     0.1530 H     1 <1>   0.4500 
 26 H       -8.9750    -1.4080     0.8580 H     1 <1>   0.4500 
@<TRIPOS>BOND
  1   1   2  ar  
  2   1   3  ar  
  3   1   4  ar  
  4   1   5  1   
  5   5   6  1   
  6   5  12  1   
  7   5  13  1   
  8   6   7  1   
  9   6  14  1   
 10   6  15  1   
 11   7   8  1   
 12   7  16  1   
 13   7  17  1   
 14   8   9  1   
 15   8  18  1   
 16   8  19  1   
 17   9  10  1   
 18   9  20  1   
 19   9  21  1   
 20  10  11  1   
 21  10  22  1   
 22  10  23  1   
 23  11  24  1   
 24  11  25  1   
 25  11  26  1   
@<TRIPOS>SUBSTRUCTURE
  1 ****   6 GROUP 4 **** **** 0

# MOE 2024.06 (io_trps.svl 2023.06)
