@<TRIPOS>MOLECULE
NONAME
61 64 1 0 0 
SMALL
USER_CHARGES


@<TRIPOS>ATOM
  1 O        2.4840    -1.1850    -3.0800 O.2   1 <1>  -0.5700 
  2 C        2.2350    -1.7970    -2.0690 C.2   1 <1>   0.5690 
  3 N        2.0890    -1.1440    -0.8740 N.am  1 <1>  -0.6600 
  4 C        2.0950    -3.3040    -2.2280 C.3   1 <1>  -0.0990 
  5 C        1.8770    -1.8600     0.4210 C.3   1 <1>   0.1400 
  6 C        2.3800     0.3330    -0.8110 C.3   1 <1>   0.2840 
  7 C        2.3440    -4.2020    -1.0100 C.3   1 <1>   0.1200 
  8 C        3.0760    -2.7740     0.7910 C.3   1 <1>   0.2800 
  9 C        1.5500     1.0860     0.2250 C.ar  1 <1>   0.1660 
 10 O        3.3910    -3.7020    -0.2270 O.3   1 <1>  -0.5600 
 11 C        4.3490    -1.9270     1.0010 C.3   1 <1>  -0.1600 
 12 C        2.8100    -3.5790     2.0740 C.3   1 <1>  -0.1600 
 13 N        2.1180     1.3170     1.4050 N.ar  1 <1>  -0.6200 
 14 C        0.2640     1.4860    -0.1090 C.ar  1 <1>  -0.1500 
 15 C        5.4610    -2.6310     1.7840 C.3   1 <1>   0.3430 
 16 C        3.9850    -4.4910     2.4650 C.3   1 <1>   0.3430 
 17 C        1.3750     1.9870     2.2740 C.ar  1 <1>   0.1600 
 18 C       -0.4980     2.1750     0.8100 C.ar  1 <1>  -0.1500 
 19 N        5.2320    -4.1020     1.7440 N.4   1 <1>  -0.9590 
 20 C        0.0850     2.4290     2.0320 C.ar  1 <1>  -0.1500 
 21 C        6.4110    -4.9300     2.1210 C.3   1 <1>   0.4860 
 22 C        7.6060    -4.5390     1.2840 C.ar  1 <1>  -0.1430 
 23 C        8.6990    -3.9240     1.8470 C.ar  1 <1>   0.1600 
 24 C        7.6540    -4.7690    -0.0710 C.ar  1 <1>   0.1600 
 25 N        9.7310    -3.5520     1.1370 N.ar  1 <1>  -0.6200 
 26 N        8.6750    -4.4090    -0.8010 N.ar  1 <1>  -0.6200 
 27 C        9.6840    -3.8100    -0.1700 C.ar  1 <1>   0.7200 
 28 N       10.7660    -3.4210    -0.9320 N.pl3 1 <1>  -0.8380 
 29 C       10.9580    -3.8840    -2.3360 C.3   1 <1>   0.1290 
 30 C       11.8490    -2.5490    -0.3950 C.3   1 <1>   0.1290 
 31 H        2.7890    -3.6030    -2.9920 H     1 <1>   0.0800 
 32 H        1.1140    -3.5070    -2.6140 H     1 <1>   0.0800 
 33 H        0.9640    -2.4240     0.3650 H     1 <1>   0.0800 
 34 H        1.7330    -1.1640     1.2240 H     1 <1>   0.0800 
 35 H        2.1970     0.7830    -1.7710 H     1 <1>   0.0800 
 36 H        3.4230     0.4730    -0.5900 H     1 <1>   0.0800 
 37 H        2.6350    -5.1800    -1.3520 H     1 <1>   0.0800 
 38 H        1.4570    -4.3190    -0.4110 H     1 <1>   0.0800 
 39 H        4.1010    -1.0260     1.5340 H     1 <1>   0.0800 
 40 H        4.7290    -1.6190     0.0430 H     1 <1>   0.0800 
 41 H        1.9170    -4.1690     1.9710 H     1 <1>   0.0800 
 42 H        2.6310    -2.8920     2.8830 H     1 <1>   0.0800 
 43 H       -0.1360     1.2590    -1.0810 H     1 <1>   0.1500 
 44 H        5.4600    -2.2910     2.8070 H     1 <1>   0.0800 
 45 H        6.4130    -2.3780     1.3420 H     1 <1>   0.0800 
 46 H        3.7340    -5.5080     2.2080 H     1 <1>   0.0800 
 47 H        4.1370    -4.4420     3.5310 H     1 <1>   0.0800 
 48 H        1.8160     2.1990     3.2330 H     1 <1>   0.1500 
 49 H       -1.4990     2.5000     0.5830 H     1 <1>   0.1500 
 50 H        5.0080    -4.2730     0.7440 H     1 <1>   0.4500 
 51 H       -0.4530     2.9660     2.7920 H     1 <1>   0.1500 
 52 H        6.1930    -5.9740     1.9630 H     1 <1>   0.0800 
 53 H        6.6390    -4.7870     3.1650 H     1 <1>   0.0800 
 54 H        8.7390    -3.7230     2.9050 H     1 <1>   0.1500 
 55 H        6.8380    -5.2560    -0.5790 H     1 <1>   0.1500 
 56 H       10.4880    -4.8400    -2.4900 H     1 <1>   0.0800 
 57 H       12.0070    -3.9870    -2.5520 H     1 <1>   0.0800 
 58 H       10.5250    -3.1680    -3.0130 H     1 <1>   0.0800 
 59 H       11.4690    -1.9000     0.3750 H     1 <1>   0.0800 
 60 H       12.2550    -1.9370    -1.1810 H     1 <1>   0.0800 
 61 H       12.6310    -3.1610     0.0200 H     1 <1>   0.0800 
@<TRIPOS>BOND
  1   1   2  2   
  2   2   3  am  
  3   2   4  1   
  4   3   5  1   
  5   3   6  1   
  6   4   7  1   
  7   4  31  1   
  8   4  32  1   
  9   5   8  1   
 10   5  33  1   
 11   5  34  1   
 12   6   9  1   
 13   6  35  1   
 14   6  36  1   
 15   7  10  1   
 16   7  37  1   
 17   7  38  1   
 18   8  10  1   
 19   8  11  1   
 20   8  12  1   
 21   9  13  ar  
 22   9  14  ar  
 23  11  15  1   
 24  11  39  1   
 25  11  40  1   
 26  12  16  1   
 27  12  41  1   
 28  12  42  1   
 29  13  17  ar  
 30  14  18  ar  
 31  14  43  1   
 32  15  19  1   
 33  15  44  1   
 34  15  45  1   
 35  16  19  1   
 36  16  46  1   
 37  16  47  1   
 38  17  20  ar  
 39  17  48  1   
 40  18  20  ar  
 41  18  49  1   
 42  19  21  1   
 43  19  50  1   
 44  20  51  1   
 45  21  22  1   
 46  21  52  1   
 47  21  53  1   
 48  22  23  ar  
 49  22  24  ar  
 50  23  25  ar  
 51  23  54  1   
 52  24  26  ar  
 53  24  55  1   
 54  25  27  ar  
 55  26  27  ar  
 56  27  28  1   
 57  28  29  1   
 58  28  30  1   
 59  29  56  1   
 60  29  57  1   
 61  29  58  1   
 62  30  59  1   
 63  30  60  1   
 64  30  61  1   
@<TRIPOS>SUBSTRUCTURE
  1 ****  11 GROUP 4 **** **** 0

# MOE 2024.06 (io_trps.svl 2023.06)
