@<TRIPOS>MOLECULE
NONAME
54 57 1 0 0 
SMALL
USER_CHARGES


@<TRIPOS>ATOM
  1 O       -2.8550     0.5350     1.3400 O.2   1 <1>  -0.5700 
  2 C       -2.7150     1.3290     0.4390 C.2   1 <1>   0.5690 
  3 N       -3.1310     1.0060    -0.8180 N.am  1 <1>  -0.6600 
  4 C       -2.1580     2.7070     0.7210 C.3   1 <1>  -0.0990 
  5 C       -4.4880     1.4830    -1.2210 C.3   1 <1>   0.1400 
  6 C       -2.8660    -0.3890    -1.3040 C.3   1 <1>   0.1400 
  7 C       -0.6350     2.6690     0.8800 C.3   1 <1>  -0.0160 
  8 C       -5.5960     0.5770    -0.6080 C.3   1 <1>   0.4230 
  9 C       -4.0520    -1.3430    -1.0140 C.3   1 <1>   0.3430 
 10 C       -0.1050     4.0740     1.1050 C.ar  1 <1>  -0.1440 
 11 N       -5.0300    -0.7160    -0.0580 N.4   1 <1>  -0.9590 
 12 C       -6.7230     0.3000    -1.6290 C.3   1 <1>   0.1200 
 13 C        0.2310     4.8740     0.0240 C.ar  1 <1>  -0.1500 
 14 C        0.0400     4.5740     2.3890 C.ar  1 <1>  -0.1500 
 15 C       -6.1180    -1.6120     0.4430 C.3   1 <1>   0.5180 
 16 O       -7.6910    -0.5440    -1.0750 O.3   1 <1>  -0.5600 
 17 C        0.7030     6.1620     0.2130 C.ar  1 <1>   0.0830 
 18 C        0.5130     5.8600     2.5890 C.ar  1 <1>  -0.1500 
 19 C       -5.5040    -2.9290     0.9580 C.3   1 <1>  -0.1950 
 20 C       -7.2180    -1.7900    -0.6330 C.3   1 <1>   0.1200 
 21 O        1.0020     6.8720    -0.9040 O.3   1 <1>  -0.3630 
 22 C        0.8450     6.6560     1.5070 C.ar  1 <1>  -0.1500 
 23 C       -5.2420    -4.1440     0.1150 C.3   1 <1>  -0.2000 
 24 C       -6.3110    -4.1750     1.1700 C.3   1 <1>  -0.2000 
 25 C        1.5000     8.1890    -0.8230 C.3   1 <1>   0.0400 
 26 H       -2.4140     3.3730    -0.0820 H     1 <1>   0.0800 
 27 H       -2.6020     3.0850     1.6240 H     1 <1>   0.0800 
 28 H       -4.6370     2.4980    -0.8940 H     1 <1>   0.0800 
 29 H       -4.5520     1.4830    -2.2960 H     1 <1>   0.0800 
 30 H       -2.6600    -0.3730    -2.3610 H     1 <1>   0.0800 
 31 H       -1.9860    -0.7730    -0.8150 H     1 <1>   0.0800 
 32 H       -0.1850     2.2520    -0.0040 H     1 <1>   0.0800 
 33 H       -0.3690     2.0400     1.7120 H     1 <1>   0.0800 
 34 H       -6.0410     1.1250     0.2060 H     1 <1>   0.0800 
 35 H       -3.6590    -2.2570    -0.6020 H     1 <1>   0.0800 
 36 H       -4.5490    -1.5870    -1.9380 H     1 <1>   0.0800 
 37 H       -4.4380    -0.4350     0.7510 H     1 <1>   0.4500 
 38 H       -6.3400    -0.1590    -2.5240 H     1 <1>   0.0800 
 39 H       -7.2140     1.2190    -1.8990 H     1 <1>   0.0800 
 40 H        0.1300     4.5090    -0.9820 H     1 <1>   0.1500 
 41 H       -0.2140     3.9660     3.2400 H     1 <1>   0.1500 
 42 H       -6.5890    -1.1330     1.2860 H     1 <1>   0.0800 
 43 H        0.6230     6.2400     3.5900 H     1 <1>   0.1500 
 44 H       -4.8000    -2.7250     1.7470 H     1 <1>   0.1000 
 45 H       -8.0560    -2.3200    -0.2180 H     1 <1>   0.0800 
 46 H       -6.8530    -2.3400    -1.4820 H     1 <1>   0.0800 
 47 H        1.2080     7.6480     1.6890 H     1 <1>   0.1500 
 48 H       -5.5660    -4.2060    -0.9100 H     1 <1>   0.1000 
 49 H       -4.3510    -4.7240     0.2910 H     1 <1>   0.1000 
 50 H       -6.1340    -4.7630     2.0560 H     1 <1>   0.1000 
 51 H       -7.3350    -4.2450     0.8450 H     1 <1>   0.1000 
 52 H        1.6660     8.5450    -1.8240 H     1 <1>   0.0800 
 53 H        2.4280     8.1780    -0.2800 H     1 <1>   0.0800 
 54 H        0.7710     8.8070    -0.3310 H     1 <1>   0.0800 
@<TRIPOS>BOND
  1   1   2  2   
  2   2   3  am  
  3   2   4  1   
  4   3   5  1   
  5   3   6  1   
  6   4   7  1   
  7   4  26  1   
  8   4  27  1   
  9   5   8  1   
 10   5  28  1   
 11   5  29  1   
 12   6   9  1   
 13   6  30  1   
 14   6  31  1   
 15   7  10  1   
 16   7  32  1   
 17   7  33  1   
 18   8  11  1   
 19   8  12  1   
 20   8  34  1   
 21   9  11  1   
 22   9  35  1   
 23   9  36  1   
 24  10  13  ar  
 25  10  14  ar  
 26  11  15  1   
 27  11  37  1   
 28  12  16  1   
 29  12  38  1   
 30  12  39  1   
 31  13  17  ar  
 32  13  40  1   
 33  14  18  ar  
 34  14  41  1   
 35  15  19  1   
 36  15  20  1   
 37  15  42  1   
 38  16  20  1   
 39  17  21  1   
 40  17  22  ar  
 41  18  22  ar  
 42  18  43  1   
 43  19  23  1   
 44  19  24  1   
 45  19  44  1   
 46  20  45  1   
 47  20  46  1   
 48  21  25  1   
 49  22  47  1   
 50  23  24  1   
 51  23  48  1   
 52  23  49  1   
 53  24  50  1   
 54  24  51  1   
 55  25  52  1   
 56  25  53  1   
 57  25  54  1   
@<TRIPOS>SUBSTRUCTURE
  1 ****   2 GROUP 4 **** **** 0

# MOE 2024.06 (io_trps.svl 2023.06)
