@<TRIPOS>MOLECULE
NONAME
48 50 1 0 0 
SMALL
USER_CHARGES


@<TRIPOS>ATOM
  1 O        0.6600     0.3060    -1.2030 O.3   1 <1>  -0.6800 
  2 C        0.2720    -0.5420    -0.1650 C.3   1 <1>   0.1200 
  3 C        1.4610    -1.5530     0.2050 C.3   1 <1>   0.0000 
  4 C        2.6290    -2.5490     0.6720 C.3   1 <1>   0.4230 
  5 C        2.0730    -0.4360     1.2150 C.3   1 <1>  -0.1600 
  6 C        0.8450    -2.5990    -0.8680 C.3   1 <1>  -0.1600 
  7 N        2.3530    -4.0370     0.7150 N.4   1 <1>  -0.9590 
  8 C        4.0100    -2.1990     0.0440 C.3   1 <1>   0.1100 
  9 C        3.6070    -0.2250     1.3570 C.3   1 <1>   0.1100 
 10 C        1.6940    -3.6760    -1.5830 C.3   1 <1>  -0.1600 
 11 C        2.3790    -4.6400    -0.6310 C.3   1 <1>   0.3430 
 12 C        3.2530    -4.7680     1.6590 C.3   1 <1>   0.2630 
 13 N        4.3240    -0.7730     0.1990 N.3   1 <1>  -0.8100 
 14 C        4.1290    -0.0080    -1.0550 C.3   1 <1>   0.2530 
 15 C        4.4620     1.4580    -0.8680 C.ar  1 <1>  -0.1430 
 16 C        3.5330     2.4410    -1.1140 C.ar  1 <1>   0.1600 
 17 C        5.7010     1.8660    -0.4350 C.ar  1 <1>   0.1600 
 18 N        3.8010     3.7170    -0.9460 N.ar  1 <1>  -0.6200 
 19 N        6.0000     3.1350    -0.2610 N.ar  1 <1>  -0.6200 
 20 C        5.0260     3.9890    -0.5270 C.ar  1 <1>   0.4770 
 21 C        5.3560     5.4490    -0.3340 C.3   1 <1>  -0.0970 
 22 H       -0.0610     0.9290    -1.4330 H     1 <1>   0.4000 
 23 H       -0.0650     0.0720     0.6570 H     1 <1>   0.0800 
 24 H       -0.6580    -1.0040    -0.4620 H     1 <1>   0.0800 
 25 H        2.7710    -2.3440     1.7190 H     1 <1>   0.0800 
 26 H        1.6740    -0.6080     2.2010 H     1 <1>   0.0800 
 27 H        1.8010     0.5870     0.9990 H     1 <1>   0.0800 
 28 H        0.0170    -3.1080    -0.3990 H     1 <1>   0.0800 
 29 H        0.4350    -2.1140    -1.7450 H     1 <1>   0.0800 
 30 H        1.3860    -4.1220     1.0580 H     1 <1>   0.4500 
 31 H        4.0570    -2.4640    -0.9960 H     1 <1>   0.0800 
 32 H        4.7760    -2.7510     0.5580 H     1 <1>   0.0800 
 33 H        3.9630    -0.7210     2.2450 H     1 <1>   0.0800 
 34 H        3.8360     0.8200     1.4910 H     1 <1>   0.0800 
 35 H        2.4280    -3.2020    -2.2100 H     1 <1>   0.0800 
 36 H        1.0650    -4.2480    -2.2440 H     1 <1>   0.0800 
 37 H        3.3940    -4.8100    -0.9540 H     1 <1>   0.0800 
 38 H        1.8580    -5.5840    -0.6200 H     1 <1>   0.0800 
 39 H        4.2760    -4.7170     1.3220 H     1 <1>   0.0800 
 40 H        2.9650    -5.8050     1.7240 H     1 <1>   0.0800 
 41 H        3.1940    -4.3350     2.6450 H     1 <1>   0.0800 
 42 H        4.7790    -0.4070    -1.8150 H     1 <1>   0.0800 
 43 H        3.1180    -0.1110    -1.4040 H     1 <1>   0.0800 
 44 H        2.5460     2.1790    -1.4540 H     1 <1>   0.1500 
 45 H        6.4610     1.1330    -0.2210 H     1 <1>   0.1500 
 46 H        4.4580     6.0190    -0.1890 H     1 <1>   0.0800 
 47 H        5.8690     5.8120    -1.2040 H     1 <1>   0.0800 
 48 H        5.9890     5.5700     0.5260 H     1 <1>   0.0800 
@<TRIPOS>BOND
  1   1   2  1   
  2   1  22  1   
  3   2   3  1   
  4   2  23  1   
  5   2  24  1   
  6   3   4  1   
  7   3   5  1   
  8   3   6  1   
  9   4   7  1   
 10   4   8  1   
 11   4  25  1   
 12   5   9  1   
 13   5  26  1   
 14   5  27  1   
 15   6  10  1   
 16   6  28  1   
 17   6  29  1   
 18   7  11  1   
 19   7  12  1   
 20   7  30  1   
 21   8  13  1   
 22   8  31  1   
 23   8  32  1   
 24   9  13  1   
 25   9  33  1   
 26   9  34  1   
 27  10  11  1   
 28  10  35  1   
 29  10  36  1   
 30  11  37  1   
 31  11  38  1   
 32  12  39  1   
 33  12  40  1   
 34  12  41  1   
 35  13  14  1   
 36  14  15  1   
 37  14  42  1   
 38  14  43  1   
 39  15  16  ar  
 40  15  17  ar  
 41  16  18  ar  
 42  16  44  1   
 43  17  19  ar  
 44  17  45  1   
 45  18  20  ar  
 46  19  20  ar  
 47  20  21  1   
 48  21  46  1   
 49  21  47  1   
 50  21  48  1   
@<TRIPOS>SUBSTRUCTURE
  1 ****  13 GROUP 4 **** **** 0

# MOE 2024.06 (io_trps.svl 2023.06)
