@<TRIPOS>MOLECULE
NONAME
39 41 1 0 0 
SMALL
USER_CHARGES


@<TRIPOS>ATOM
  1 CL       1.1070     0.3170     2.6830 Cl    1 <1>  -0.1770 
  2 C        2.0000    -0.7440     1.6280 C.ar  1 <1>   0.1770 
  3 C        1.7210    -2.0820     1.6090 C.ar  1 <1>  -0.1500 
  4 C        2.9930    -0.2000     0.8200 C.ar  1 <1>  -0.1500 
  5 C        2.4110    -2.9530     0.7450 C.ar  1 <1>   0.0000 
  6 C        3.7340    -1.0220     0.0030 C.ar  1 <1>  -0.1440 
  7 C        3.4720    -2.4100    -0.0150 C.ar  1 <1>   0.3610 
  8 C        2.1180    -4.3520     0.6430 C.ar  1 <1>   0.1000 
  9 C        4.8320    -0.3990    -0.8570 C.3   1 <1>  -0.0960 
 10 N        4.2720    -3.2670    -0.7400 N.ar  1 <1>  -0.1790 
 11 N        0.9810    -4.9080     1.1340 N.pl3 1 <1>  -0.8380 
 12 C        3.0330    -5.1420    -0.0570 C.ar  1 <1>  -0.1500 
 13 C        4.0810    -4.5970    -0.7420 C.ar  1 <1>   0.2110 
 14 C        0.8770    -6.3480     1.5830 C.3   1 <1>   0.2090 
 15 C       -0.3710    -4.3030     0.9070 C.3   1 <1>   0.2090 
 16 C        0.0720    -7.2320     0.6070 C.3   1 <1>   0.2000 
 17 C       -1.1560    -5.1300    -0.1170 C.3   1 <1>  -0.1600 
 18 O        0.7670    -7.3850    -0.5850 O.3   1 <1>  -0.6800 
 19 C       -1.2970    -6.6040     0.3150 C.3   1 <1>  -0.1860 
 20 C       -2.0730    -7.4310    -0.6900 C.2   1 <1>   0.9060 
 21 O       -3.2160    -7.7850    -0.3990 O.co2 1 <1>  -0.9000 
 22 O       -1.5250    -7.7330    -1.7600 O.co2 1 <1>  -0.9000 
 23 H        0.9670    -2.4700     2.2690 H     1 <1>   0.1500 
 24 H        3.1580     0.8630     0.8690 H     1 <1>   0.1500 
 25 H        4.8430     0.6720    -0.7410 H     1 <1>   0.0800 
 26 H        4.6650    -0.6070    -1.9000 H     1 <1>   0.0800 
 27 H        5.8010    -0.7650    -0.5650 H     1 <1>   0.0800 
 28 H        5.0420    -2.8510    -1.2670 H     1 <1>   0.4570 
 29 H        2.8880    -6.2050    -0.1050 H     1 <1>   0.1500 
 30 H        4.7540    -5.2280    -1.3010 H     1 <1>   0.1500 
 31 H        1.8520    -6.7750     1.7340 H     1 <1>   0.0800 
 32 H        0.3790    -6.3630     2.5360 H     1 <1>   0.0800 
 33 H       -0.9090    -4.2670     1.8390 H     1 <1>   0.0800 
 34 H       -0.2820    -3.3020     0.5260 H     1 <1>   0.0800 
 35 H       -0.0640    -8.2160     1.0220 H     1 <1>   0.0800 
 36 H       -2.1360    -4.7060    -0.2440 H     1 <1>   0.0800 
 37 H       -0.6560    -5.0810    -1.0690 H     1 <1>   0.0800 
 38 H        0.0640    -7.5960    -1.2750 H     1 <1>   0.4000 
 39 H       -1.8660    -6.6260     1.2260 H     1 <1>   0.0800 
@<TRIPOS>BOND
  1   1   2  1   
  2   2   3  ar  
  3   2   4  ar  
  4   3   5  ar  
  5   3  23  1   
  6   4   6  ar  
  7   4  24  1   
  8   5   7  ar  
  9   5   8  ar  
 10   6   7  ar  
 11   6   9  1   
 12   7  10  ar  
 13   8  11  1   
 14   8  12  ar  
 15   9  25  1   
 16   9  26  1   
 17   9  27  1   
 18  10  13  ar  
 19  10  28  1   
 20  11  14  1   
 21  11  15  1   
 22  12  13  ar  
 23  12  29  1   
 24  13  30  1   
 25  14  16  1   
 26  14  31  1   
 27  14  32  1   
 28  15  17  1   
 29  15  33  1   
 30  15  34  1   
 31  16  18  1   
 32  16  19  1   
 33  16  35  1   
 34  17  19  1   
 35  17  36  1   
 36  17  37  1   
 37  18  38  1   
 38  19  20  1   
 39  19  39  1   
 40  20  21  ar  
 41  20  22  ar  
@<TRIPOS>SUBSTRUCTURE
  1 ****   8 GROUP 4 **** **** 0

# MOE 2024.06 (io_trps.svl 2023.06)
