@<TRIPOS>MOLECULE
NONAME
47 49 1 0 0 
SMALL
USER_CHARGES


@<TRIPOS>ATOM
  1 CL      -0.6620    -0.3540    -0.9160 Cl    1 <1>  -0.1770 
  2 C        0.7090    -0.9770    -0.0320 C.ar  1 <1>   0.1770 
  3 C        1.1220    -2.3000    -0.1540 C.ar  1 <1>  -0.0090 
  4 C        1.3540    -0.0820     0.8040 C.ar  1 <1>  -0.1500 
  5 S        0.2990    -3.5040    -1.2310 S.o2  1 <1>   1.4470 
  6 C        2.2120    -2.6940     0.6170 C.ar  1 <1>  -0.1500 
  7 C        2.4380    -0.4980     1.5530 C.ar  1 <1>  -0.1500 
  8 O        1.2220    -4.5850    -1.5020 O.2   1 <1>  -0.6500 
  9 O       -0.3930    -2.9250    -2.3580 O.2   1 <1>  -0.6500 
 10 N       -0.9170    -4.2190    -0.2820 N.am  1 <1>  -0.8490 
 11 C        2.8660    -1.8090     1.4590 C.ar  1 <1>  -0.1500 
 12 C       -1.4440    -5.4040    -0.9760 C.3   1 <1>   0.1960 
 13 C       -1.9920    -3.2770     0.0610 C.3   1 <1>   0.1960 
 14 C       -2.5100    -6.1490    -0.1370 C.3   1 <1>   0.4230 
 15 C       -3.0260    -3.9690     0.9570 C.3   1 <1>  -0.1600 
 16 N       -2.9750    -7.4690    -0.7450 N.4   1 <1>  -0.9590 
 17 C       -3.6720    -5.2120     0.2900 C.3   1 <1>   0.0000 
 18 C       -4.2720    -7.9760    -0.1860 C.3   1 <1>   0.3430 
 19 C       -3.0180    -7.5070    -2.2460 C.3   1 <1>   0.2630 
 20 C       -4.5620    -5.9470     1.3340 C.3   1 <1>  -0.1600 
 21 C       -4.5160    -4.7870    -0.9470 C.3   1 <1>   0.1200 
 22 C       -4.4810    -7.4850     1.2470 C.3   1 <1>  -0.1600 
 23 O       -5.4230    -3.7920    -0.6260 O.3   1 <1>  -0.6800 
 24 H        1.0060     0.9340     0.8660 H     1 <1>   0.1500 
 25 H        2.5640    -3.7110     0.5570 H     1 <1>   0.1500 
 26 H        2.9460     0.1930     2.2060 H     1 <1>   0.1500 
 27 H        3.7100    -2.1420     2.0400 H     1 <1>   0.1500 
 28 H       -1.8490    -5.1000    -1.9250 H     1 <1>   0.0800 
 29 H       -0.6330    -6.0890    -1.1570 H     1 <1>   0.0800 
 30 H       -1.5810    -2.4450     0.6080 H     1 <1>   0.0800 
 31 H       -2.4600    -2.8880    -0.8300 H     1 <1>   0.0800 
 32 H       -2.0060    -6.4030     0.7810 H     1 <1>   0.0800 
 33 H       -2.5270    -4.2510     1.8680 H     1 <1>   0.0800 
 34 H       -3.7810    -3.2510     1.2290 H     1 <1>   0.0800 
 35 H       -2.2600    -8.1540    -0.4560 H     1 <1>   0.4500 
 36 H       -5.0930    -7.6240    -0.7900 H     1 <1>   0.0800 
 37 H       -4.2840    -9.0550    -0.2080 H     1 <1>   0.0800 
 38 H       -3.7200    -6.7830    -2.6240 H     1 <1>   0.0800 
 39 H       -3.3180    -8.4860    -2.5870 H     1 <1>   0.0800 
 40 H       -2.0450    -7.2930    -2.6600 H     1 <1>   0.0800 
 41 H       -4.2780    -5.6680     2.3360 H     1 <1>   0.0800 
 42 H       -5.5880    -5.6440     1.2230 H     1 <1>   0.0800 
 43 H       -5.0760    -5.6110    -1.3500 H     1 <1>   0.0800 
 44 H       -3.8940    -4.3870    -1.7290 H     1 <1>   0.0800 
 45 H       -5.3910    -7.9080     1.6370 H     1 <1>   0.0800 
 46 H       -3.6770    -7.8490     1.8630 H     1 <1>   0.0800 
 47 H       -6.0980    -4.0930     0.0130 H     1 <1>   0.4000 
@<TRIPOS>BOND
  1   1   2  1   
  2   2   3  ar  
  3   2   4  ar  
  4   3   5  1   
  5   3   6  ar  
  6   4   7  ar  
  7   4  24  1   
  8   5   8  2   
  9   5   9  2   
 10   5  10  am  
 11   6  11  ar  
 12   6  25  1   
 13   7  11  ar  
 14   7  26  1   
 15  10  12  1   
 16  10  13  1   
 17  11  27  1   
 18  12  14  1   
 19  12  28  1   
 20  12  29  1   
 21  13  15  1   
 22  13  30  1   
 23  13  31  1   
 24  14  16  1   
 25  14  17  1   
 26  14  32  1   
 27  15  17  1   
 28  15  33  1   
 29  15  34  1   
 30  16  18  1   
 31  16  19  1   
 32  16  35  1   
 33  17  20  1   
 34  17  21  1   
 35  18  22  1   
 36  18  36  1   
 37  18  37  1   
 38  19  38  1   
 39  19  39  1   
 40  19  40  1   
 41  20  22  1   
 42  20  41  1   
 43  20  42  1   
 44  21  23  1   
 45  21  43  1   
 46  21  44  1   
 47  22  45  1   
 48  22  46  1   
 49  23  47  1   
@<TRIPOS>SUBSTRUCTURE
  1 ****  10 GROUP 4 **** **** 0

# MOE 2024.06 (io_trps.svl 2023.06)
