@<TRIPOS>MOLECULE
NONAME
48 49 1 0 0 
SMALL
USER_CHARGES


@<TRIPOS>ATOM
  1 S       -0.7220     0.8690    -1.8170 S.o2  1 <1>   1.4470 
  2 O       -1.3590     2.1640    -1.6830 O.2   1 <1>  -0.6500 
  3 O       -0.3900     0.3790    -3.1380 O.2   1 <1>  -0.6500 
  4 N       -1.7440    -0.2670    -1.0790 N.am  1 <1>  -0.8490 
  5 C        0.7700     0.8520    -0.7760 C.ar  1 <1>  -0.0090 
  6 C       -1.2690    -1.6710    -1.2030 C.3   1 <1>   0.1960 
  7 C       -2.2750     0.1570     0.2140 C.3   1 <1>   0.1960 
  8 C        1.8330     0.0010    -1.0540 C.ar  1 <1>  -0.1500 
  9 C        0.8720     1.6680     0.3450 C.ar  1 <1>  -0.1500 
 10 C       -1.6530    -2.6210    -0.0420 C.3   1 <1>  -0.1060 
 11 C       -3.3230    -0.8190     0.7590 C.3   1 <1>  -0.1600 
 12 C        2.9490    -0.0560    -0.2380 C.ar  1 <1>  -0.1440 
 13 C        1.9840     1.6320     1.1700 C.ar  1 <1>  -0.1440 
 14 C       -1.6180    -4.0560    -0.5850 C.2   1 <1>   0.9060 
 15 C       -3.1120    -2.2710     0.3190 C.3   1 <1>   0.2000 
 16 C       -0.6840    -2.5130     1.1850 C.3   1 <1>  -0.1600 
 17 C        3.0200     0.7640     0.8750 C.ar  1 <1>  -0.1500 
 18 C        4.0760    -1.0180    -0.5660 C.3   1 <1>  -0.0960 
 19 C        2.0620     2.5330     2.3890 C.3   1 <1>  -0.0970 
 20 O       -0.9110    -4.3220    -1.5640 O.co2 1 <1>  -0.9000 
 21 O       -2.2870    -4.9340    -0.0170 O.co2 1 <1>  -0.9000 
 22 O       -3.5710    -3.0970     1.3250 O.3   1 <1>  -0.6800 
 23 C        0.7560    -2.9920     0.9230 C.3   1 <1>  -0.1600 
 24 C        1.6510    -2.7330     2.1370 C.3   1 <1>  -0.2400 
 25 H       -1.6980    -2.0550    -2.1140 H     1 <1>   0.0800 
 26 H       -0.2070    -1.7060    -1.3490 H     1 <1>   0.0800 
 27 H       -1.4710     0.2640     0.9170 H     1 <1>   0.0800 
 28 H       -2.7380     1.1240     0.1120 H     1 <1>   0.0800 
 29 H        1.7790    -0.6330    -1.9240 H     1 <1>   0.1500 
 30 H        0.0630     2.3420     0.5720 H     1 <1>   0.1500 
 31 H       -4.2940    -0.5060     0.4230 H     1 <1>   0.0800 
 32 H       -3.3110    -0.7530     1.8320 H     1 <1>   0.0800 
 33 H       -3.7240    -2.4640    -0.5480 H     1 <1>   0.0800 
 34 H       -0.6420    -1.5100     1.5540 H     1 <1>   0.0800 
 35 H       -1.0810    -3.1190     1.9810 H     1 <1>   0.0800 
 36 H        3.8840     0.7250     1.5130 H     1 <1>   0.1500 
 37 H        4.6740    -1.2150     0.3060 H     1 <1>   0.0800 
 38 H        4.7030    -0.5990    -1.3310 H     1 <1>   0.0800 
 39 H        3.6740    -1.9520    -0.9180 H     1 <1>   0.0800 
 40 H        3.0860     2.7710     2.6170 H     1 <1>   0.0800 
 41 H        1.6240     2.0360     3.2360 H     1 <1>   0.0800 
 42 H        1.5330     3.4530     2.2130 H     1 <1>   0.0800 
 43 H       -3.2670    -4.0160     1.0590 H     1 <1>   0.4000 
 44 H        0.7510    -4.0490     0.7080 H     1 <1>   0.0800 
 45 H        1.1760    -2.4920     0.0730 H     1 <1>   0.0800 
 46 H        1.2630    -3.2410     3.0020 H     1 <1>   0.0800 
 47 H        1.7040    -1.6780     2.3430 H     1 <1>   0.0800 
 48 H        2.6450    -3.0940     1.9420 H     1 <1>   0.0800 
@<TRIPOS>BOND
  1   1   2  2   
  2   1   3  2   
  3   1   4  am  
  4   1   5  1   
  5   4   6  1   
  6   4   7  1   
  7   5   8  ar  
  8   5   9  ar  
  9   6  10  1   
 10   6  25  1   
 11   6  26  1   
 12   7  11  1   
 13   7  27  1   
 14   7  28  1   
 15   8  12  ar  
 16   8  29  1   
 17   9  13  ar  
 18   9  30  1   
 19  10  14  1   
 20  10  15  1   
 21  10  16  1   
 22  11  15  1   
 23  11  31  1   
 24  11  32  1   
 25  12  17  ar  
 26  12  18  1   
 27  13  17  ar  
 28  13  19  1   
 29  14  20  ar  
 30  14  21  ar  
 31  15  22  1   
 32  15  33  1   
 33  16  23  1   
 34  16  34  1   
 35  16  35  1   
 36  17  36  1   
 37  18  37  1   
 38  18  38  1   
 39  18  39  1   
 40  19  40  1   
 41  19  41  1   
 42  19  42  1   
 43  22  43  1   
 44  23  24  1   
 45  23  44  1   
 46  23  45  1   
 47  24  46  1   
 48  24  47  1   
 49  24  48  1   
@<TRIPOS>SUBSTRUCTURE
  1 ****   6 GROUP 4 **** **** 0

# MOE 2024.06 (io_trps.svl 2023.06)
