@<TRIPOS>MOLECULE
NONAME
51 53 1 0 0 
SMALL
USER_CHARGES


@<TRIPOS>ATOM
  1 O       -0.0420     1.5080    -0.9730 O.2   1 <1>  -0.5700 
  2 C       -0.4230     2.6540    -0.9800 C.2   1 <1>   0.5690 
  3 N       -1.2140     3.2050    -0.0040 N.am  1 <1>  -0.6600 
  4 C        0.0160     3.5480    -2.1350 C.3   1 <1>   0.1810 
  5 C       -1.5870     4.6570    -0.0730 C.3   1 <1>   0.3640 
  6 C       -1.7160     2.4860     1.2000 C.3   1 <1>   0.2200 
  7 O        0.3410     4.8300    -1.6720 O.3   1 <1>  -0.5600 
  8 C       -3.0710     4.8150    -0.4090 C.ar  1 <1>  -0.1440 
  9 C       -0.7370     5.5170    -1.0510 C.3   1 <1>   0.2610 
 10 C       -0.5470     2.1370     2.1200 C.3   1 <1>  -0.2400 
 11 C       -2.5320     1.2500     0.8190 C.3   1 <1>  -0.2400 
 12 C       -3.7200     3.9680    -1.2990 C.ar  1 <1>  -0.1500 
 13 C       -3.7900     5.8470     0.1790 C.ar  1 <1>  -0.1500 
 14 C       -0.2520     6.7630    -0.2980 C.2   1 <1>   0.5690 
 15 C       -5.0610     4.1440    -1.5880 C.ar  1 <1>  -0.1500 
 16 C       -5.1310     6.0240    -0.1100 C.ar  1 <1>  -0.1500 
 17 O       -0.8750     7.7840    -0.4760 O.2   1 <1>  -0.5700 
 18 N        0.8040     6.7330     0.5860 N.am  1 <1>  -0.6600 
 19 C       -5.7690     5.1720    -0.9930 C.ar  1 <1>  -0.1500 
 20 C        1.4040     8.0140     1.1090 C.3   1 <1>   0.2010 
 21 C        1.6160     5.5330     0.9420 C.3   1 <1>   0.1400 
 22 C        2.9390     8.0630     1.0670 C.2   1 <1>   0.5690 
 23 C        3.0220     5.6570     0.3410 C.3   1 <1>   0.1400 
 24 O        3.4720     9.1050     1.3720 O.2   1 <1>  -0.5700 
 25 N        3.6710     6.9500     0.7120 N.am  1 <1>  -0.6600 
 26 C        5.1530     6.9830     0.5820 C.3   1 <1>   0.0600 
 27 H       -0.7680     3.6270    -2.8670 H     1 <1>   0.0800 
 28 H        0.8920     3.1330    -2.5990 H     1 <1>   0.0800 
 29 H       -1.4450     5.0600     0.9160 H     1 <1>   0.0800 
 30 H       -2.3760     3.1430     1.7420 H     1 <1>   0.0800 
 31 H       -1.3740     5.8590    -1.8480 H     1 <1>   0.0800 
 32 H        0.1200     1.4430     1.6420 H     1 <1>   0.0800 
 33 H       -0.9170     1.6790     3.0200 H     1 <1>   0.0800 
 34 H       -0.0060     3.0250     2.3890 H     1 <1>   0.0800 
 35 H       -1.9170     0.5020     0.3530 H     1 <1>   0.0800 
 36 H       -3.3300     1.5210     0.1530 H     1 <1>   0.0800 
 37 H       -2.9650     0.8180     1.7020 H     1 <1>   0.0800 
 38 H       -3.1900     3.1600    -1.7740 H     1 <1>   0.1500 
 39 H       -3.3110     6.5290     0.8620 H     1 <1>   0.1500 
 40 H       -5.5550     3.4800    -2.2770 H     1 <1>   0.1500 
 41 H       -5.6800     6.8280     0.3510 H     1 <1>   0.1500 
 42 H       -6.8120     5.3100    -1.2170 H     1 <1>   0.1500 
 43 H        1.0390     8.8520     0.5420 H     1 <1>   0.0800 
 44 H        1.0950     8.1510     2.1280 H     1 <1>   0.0800 
 45 H        1.6960     5.4660     2.0140 H     1 <1>   0.0800 
 46 H        1.1570     4.6250     0.6000 H     1 <1>   0.0800 
 47 H        2.9570     5.5880    -0.7310 H     1 <1>   0.0800 
 48 H        3.6250     4.8390     0.6940 H     1 <1>   0.0800 
 49 H        5.5940     6.2720     1.2580 H     1 <1>   0.0800 
 50 H        5.5360     7.9620     0.8150 H     1 <1>   0.0800 
 51 H        5.4350     6.7380    -0.4270 H     1 <1>   0.0800 
@<TRIPOS>BOND
  1   1   2  2   
  2   2   3  am  
  3   2   4  1   
  4   3   5  1   
  5   3   6  1   
  6   4   7  1   
  7   4  27  1   
  8   4  28  1   
  9   5   8  1   
 10   5   9  1   
 11   5  29  1   
 12   6  10  1   
 13   6  11  1   
 14   6  30  1   
 15   7   9  1   
 16   8  12  ar  
 17   8  13  ar  
 18   9  14  1   
 19   9  31  1   
 20  10  32  1   
 21  10  33  1   
 22  10  34  1   
 23  11  35  1   
 24  11  36  1   
 25  11  37  1   
 26  12  15  ar  
 27  12  38  1   
 28  13  16  ar  
 29  13  39  1   
 30  14  17  2   
 31  14  18  am  
 32  15  19  ar  
 33  15  40  1   
 34  16  19  ar  
 35  16  41  1   
 36  18  20  1   
 37  18  21  1   
 38  19  42  1   
 39  20  22  1   
 40  20  43  1   
 41  20  44  1   
 42  21  23  1   
 43  21  45  1   
 44  21  46  1   
 45  22  24  2   
 46  22  25  am  
 47  23  25  1   
 48  23  47  1   
 49  23  48  1   
 50  25  26  1   
 51  26  49  1   
 52  26  50  1   
 53  26  51  1   
@<TRIPOS>SUBSTRUCTURE
  1 ****   9 GROUP 4 **** **** 0

# MOE 2024.06 (io_trps.svl 2023.06)
