@<TRIPOS>MOLECULE
NONAME
49 51 1 0 0 
SMALL
USER_CHARGES


@<TRIPOS>ATOM
  1 F        2.1300     0.3780    -1.7100 F     1 <1>  -0.1900 
  2 C        2.3560    -0.6030    -0.8750 C.ar  1 <1>   0.1900 
  3 C        2.6700    -0.3130     0.4450 C.ar  1 <1>  -0.1440 
  4 C        2.2640    -1.8960    -1.3550 C.ar  1 <1>  -0.1500 
  5 C        2.9000    -1.3800     1.3000 C.ar  1 <1>  -0.1500 
  6 C        2.7670     1.1210     0.9430 C.3   1 <1>  -0.0960 
  7 C        2.4860    -2.9560    -0.4870 C.ar  1 <1>  -0.1430 
  8 C        2.8080    -2.6830     0.8350 C.ar  1 <1>  -0.1500 
  9 C        2.3670    -4.4030    -0.9730 C.3   1 <1>   0.2280 
 10 N        1.1520    -5.0250    -0.3160 N.3   1 <1>  -0.8100 
 11 C        3.7040    -5.2000    -0.8810 C.2   1 <1>   0.9060 
 12 C        1.2150    -6.4970    -0.3840 C.3   1 <1>   0.1100 
 13 C       -0.1010    -4.4930    -0.8660 C.3   1 <1>   0.1100 
 14 O        4.1450    -5.6940    -1.9290 O.co2 1 <1>  -0.9000 
 15 O        4.2280    -5.4520     0.2160 O.co2 1 <1>  -0.9000 
 16 C        0.0030    -7.1390     0.3060 C.3   1 <1>   0.3430 
 17 C       -1.3160    -5.1250    -0.1660 C.3   1 <1>   0.3430 
 18 N       -1.3050    -6.6330    -0.2560 N.4   1 <1>  -0.9590 
 19 C       -2.4980    -7.2740     0.3740 C.3   1 <1>   0.4230 
 20 C       -2.4240    -8.8010     0.2150 C.3   1 <1>  -0.1600 
 21 C       -3.7870    -6.7310    -0.2620 C.3   1 <1>  -0.1600 
 22 C       -3.7390    -9.4600     0.6320 C.3   1 <1>   0.1200 
 23 C       -5.0040    -7.5390     0.1890 C.3   1 <1>   0.1200 
 24 O       -4.7680    -8.8760    -0.0940 O.3   1 <1>  -0.5600 
 25 H        2.0260    -2.0640    -2.3880 H     1 <1>   0.1500 
 26 H        3.1570    -1.2100     2.3300 H     1 <1>   0.1500 
 27 H        3.5290     1.6450     0.3940 H     1 <1>   0.0800 
 28 H        3.0160     1.1490     1.9880 H     1 <1>   0.0800 
 29 H        1.8280     1.6230     0.7980 H     1 <1>   0.0800 
 30 H        2.9970    -3.5080     1.5040 H     1 <1>   0.1500 
 31 H        2.1740    -4.3690    -2.0300 H     1 <1>   0.0800 
 32 H        2.0960    -6.8450     0.1300 H     1 <1>   0.0800 
 33 H        1.2830    -6.8220    -1.4090 H     1 <1>   0.0800 
 34 H       -0.1470    -4.6790    -1.9260 H     1 <1>   0.0800 
 35 H       -0.1300    -3.4280    -0.7120 H     1 <1>   0.0800 
 36 H        0.0600    -6.9140     1.3580 H     1 <1>   0.0800 
 37 H        0.0760    -8.2060     0.1860 H     1 <1>   0.0800 
 38 H       -2.2100    -4.7320    -0.6190 H     1 <1>   0.0800 
 39 H       -1.3030    -4.8230     0.8680 H     1 <1>   0.0800 
 40 H       -1.3040    -6.8740    -1.2530 H     1 <1>   0.4500 
 41 H       -2.5150    -7.0430     1.4270 H     1 <1>   0.0800 
 42 H       -1.6460    -9.2110     0.8310 H     1 <1>   0.0800 
 43 H       -2.2320    -9.0630    -0.8100 H     1 <1>   0.0800 
 44 H       -3.7300    -6.7890    -1.3340 H     1 <1>   0.0800 
 45 H       -3.9520    -5.7090     0.0240 H     1 <1>   0.0800 
 46 H       -3.9410    -9.3390     1.6840 H     1 <1>   0.0800 
 47 H       -3.7300   -10.5120     0.3980 H     1 <1>   0.0800 
 48 H       -5.8840    -7.2400    -0.3560 H     1 <1>   0.0800 
 49 H       -5.1960    -7.4330     1.2440 H     1 <1>   0.0800 
@<TRIPOS>BOND
  1   1   2  1   
  2   2   3  ar  
  3   2   4  ar  
  4   3   5  ar  
  5   3   6  1   
  6   4   7  ar  
  7   4  25  1   
  8   5   8  ar  
  9   5  26  1   
 10   6  27  1   
 11   6  28  1   
 12   6  29  1   
 13   7   8  ar  
 14   7   9  1   
 15   8  30  1   
 16   9  10  1   
 17   9  11  1   
 18   9  31  1   
 19  10  12  1   
 20  10  13  1   
 21  11  14  ar  
 22  11  15  ar  
 23  12  16  1   
 24  12  32  1   
 25  12  33  1   
 26  13  17  1   
 27  13  34  1   
 28  13  35  1   
 29  16  18  1   
 30  16  36  1   
 31  16  37  1   
 32  17  18  1   
 33  17  38  1   
 34  17  39  1   
 35  18  19  1   
 36  18  40  1   
 37  19  20  1   
 38  19  21  1   
 39  19  41  1   
 40  20  22  1   
 41  20  42  1   
 42  20  43  1   
 43  21  23  1   
 44  21  44  1   
 45  21  45  1   
 46  22  24  1   
 47  22  46  1   
 48  22  47  1   
 49  23  24  1   
 50  23  48  1   
 51  23  49  1   
@<TRIPOS>SUBSTRUCTURE
  1 ****  10 GROUP 4 **** **** 0

# MOE 2024.06 (io_trps.svl 2023.06)
