@<TRIPOS>MOLECULE
NONAME
55 57 1 0 0 
SMALL
USER_CHARGES


@<TRIPOS>ATOM
  1 O       -0.4820     0.0010     1.3700 O.2   1 <1>  -0.5700 
  2 C       -1.0420     0.8480     0.6940 C.2   1 <1>   0.5440 
  3 N       -2.2090     0.4780     0.0390 N.am  1 <1>  -0.6600 
  4 C       -0.4280     2.1750     0.5970 C.ar  1 <1>   0.3960 
  5 C       -2.7870    -0.8980     0.1830 C.3   1 <1>   0.1400 
  6 C       -2.9670     1.3560    -0.9010 C.3   1 <1>   0.1400 
  7 N       -1.1540     3.2860     0.6830 N.ar  1 <1>  -0.6200 
  8 C        0.9420     2.2640     0.4250 C.ar  1 <1>  -0.1500 
  9 C       -3.9910    -0.9280     1.1380 C.3   1 <1>   0.1400 
 10 C       -4.0980     2.1340    -0.2090 C.3   1 <1>  -0.1600 
 11 C       -0.4910     4.4130     0.5660 C.ar  1 <1>   0.7200 
 12 C        1.5270     3.5030     0.3290 C.ar  1 <1>   0.1660 
 13 N       -5.0530     0.0490     0.7450 N.am  1 <1>  -0.6600 
 14 C       -4.7030     1.4670     1.0300 C.3   1 <1>   0.1400 
 15 N        0.8030     4.5950     0.3980 N.ar  1 <1>  -0.6200 
 16 N       -1.2190     5.5260     0.6490 N.pl3 1 <1>  -0.9000 
 17 C        3.0410     3.6310     0.1390 C.3   1 <1>   0.0630 
 18 C       -6.3080    -0.3070     0.2990 C.2   1 <1>   0.7150 
 19 C        3.6850     4.3800     1.3140 C.3   1 <1>  -0.2400 
 20 C        3.3750     4.3290    -1.1860 C.3   1 <1>  -0.2400 
 21 O       -7.1850     0.5370     0.2720 O.2   1 <1>  -0.5700 
 22 C       -6.6090    -1.6450    -0.1220 C.2   1 <1>  -0.2370 
 23 N       -7.7330    -2.3110     0.2470 N.pl3 1 <1>   0.3140 
 24 C       -5.9330    -2.5110    -0.9280 C.2   1 <1>  -0.1500 
 25 N       -7.7790    -3.5510    -0.2620 N.2   1 <1>  -0.7070 
 26 C       -8.8210    -1.8150     1.1040 C.3   1 <1>   0.0160 
 27 C       -6.7000    -3.6590    -0.9690 C.2   1 <1>   0.1080 
 28 C       -6.3670    -4.9180    -1.7350 C.3   1 <1>  -0.0590 
 29 H       -2.0410    -1.5790     0.5530 H     1 <1>   0.0800 
 30 H       -3.0870    -1.2610    -0.7820 H     1 <1>   0.0800 
 31 H       -3.3980     0.7410    -1.6730 H     1 <1>   0.0800 
 32 H       -2.2990     2.0460    -1.3880 H     1 <1>   0.0800 
 33 H        1.5280     1.3660     0.3720 H     1 <1>   0.1500 
 34 H       -3.6460    -0.6960     2.1310 H     1 <1>   0.0800 
 35 H       -4.3910    -1.9250     1.1720 H     1 <1>   0.0800 
 36 H       -4.8810     2.3110    -0.9240 H     1 <1>   0.0800 
 37 H       -3.7300     3.1000     0.0810 H     1 <1>   0.0800 
 38 H       -5.5780     2.0120     1.3410 H     1 <1>   0.0800 
 39 H       -3.9940     1.5090     1.8400 H     1 <1>   0.0800 
 40 H       -0.6830     6.3710     0.8300 H     1 <1>   0.4000 
 41 H       -2.1060     5.4390     1.1360 H     1 <1>   0.4000 
 42 H        3.4680     2.6440     0.1070 H     1 <1>   0.0800 
 43 H        3.3090     5.3870     1.3680 H     1 <1>   0.0800 
 44 H        4.7530     4.4160     1.1970 H     1 <1>   0.0800 
 45 H        3.4570     3.8810     2.2390 H     1 <1>   0.0800 
 46 H        2.9910     5.3340    -1.1870 H     1 <1>   0.0800 
 47 H        2.9310     3.7940    -2.0070 H     1 <1>   0.0800 
 48 H        4.4400     4.3660    -1.3340 H     1 <1>   0.0800 
 49 H       -5.0040    -2.3540    -1.4420 H     1 <1>   0.1500 
 50 H       -8.4090    -1.4280     2.0160 H     1 <1>   0.0800 
 51 H       -9.4960    -2.6220     1.3230 H     1 <1>   0.0800 
 52 H       -9.3480    -1.0360     0.5840 H     1 <1>   0.0800 
 53 H       -5.4400    -4.8050    -2.2650 H     1 <1>   0.0800 
 54 H       -7.1530    -5.1250    -2.4380 H     1 <1>   0.0800 
 55 H       -6.2870    -5.7420    -1.0510 H     1 <1>   0.0800 
@<TRIPOS>BOND
  1   1   2  2   
  2   2   3  am  
  3   2   4  1   
  4   3   5  1   
  5   3   6  1   
  6   4   7  ar  
  7   4   8  ar  
  8   5   9  1   
  9   5  29  1   
 10   5  30  1   
 11   6  10  1   
 12   6  31  1   
 13   6  32  1   
 14   7  11  ar  
 15   8  12  ar  
 16   8  33  1   
 17   9  13  1   
 18   9  34  1   
 19   9  35  1   
 20  10  14  1   
 21  10  36  1   
 22  10  37  1   
 23  11  15  ar  
 24  11  16  1   
 25  12  15  ar  
 26  12  17  1   
 27  13  14  1   
 28  13  18  am  
 29  14  38  1   
 30  14  39  1   
 31  16  40  1   
 32  16  41  1   
 33  17  19  1   
 34  17  20  1   
 35  17  42  1   
 36  18  21  2   
 37  18  22  1   
 38  19  43  1   
 39  19  44  1   
 40  19  45  1   
 41  20  46  1   
 42  20  47  1   
 43  20  48  1   
 44  22  23  1   
 45  22  24  2   
 46  23  25  1   
 47  23  26  1   
 48  24  27  1   
 49  24  49  1   
 50  25  27  2   
 51  26  50  1   
 52  26  51  1   
 53  26  52  1   
 54  27  28  1   
 55  28  53  1   
 56  28  54  1   
 57  28  55  1   
@<TRIPOS>SUBSTRUCTURE
  1 ****   3 GROUP 4 **** **** 0

# MOE 2024.06 (io_trps.svl 2023.06)
