@<TRIPOS>MOLECULE
NONAME
41 43 1 0 0 
SMALL
USER_CHARGES


@<TRIPOS>ATOM
  1 O       -0.9930     0.3290     1.8770 O.2   1 <1>  -0.5700 
  2 C       -1.5120     0.7740     0.8650 C.2   1 <1>   0.7160 
  3 N       -2.5900     0.0840     0.3570 N.am  1 <1>  -0.6600 
  4 C       -1.0200     2.0050     0.2390 C.2   1 <1>   0.1410 
  5 C       -2.6200    -1.4130     0.4400 C.3   1 <1>   0.3640 
  6 C       -3.8740     0.7910     0.1040 C.3   1 <1>   0.1400 
  7 N       -1.3560     2.3740    -1.0400 N.2   1 <1>  -0.5650 
  8 C       -0.1740     2.9610     0.7460 C.2   1 <1>  -0.3320 
  9 C       -1.3160    -1.9580    -0.1590 C.ar  1 <1>  -0.1440 
 10 C       -3.8230    -2.0760    -0.3050 C.3   1 <1>   0.2000 
 11 C       -4.7510     0.0080    -0.8690 C.3   1 <1>   0.1200 
 12 C       -0.7260     3.4760    -1.2540 C.2   1 <1>   0.0360 
 13 N        0.0110     3.8840    -0.2060 N.pl3 1 <1>   0.0330 
 14 C        0.5040     3.0750     2.1040 C.3   1 <1>  -0.0600 
 15 C       -0.5260    -2.8390     0.5660 C.ar  1 <1>  -0.1500 
 16 C       -0.9040    -1.5790    -1.4310 C.ar  1 <1>  -0.1500 
 17 O       -4.9700    -1.2660    -0.3530 O.3   1 <1>  -0.5600 
 18 C       -4.2740    -3.4050     0.3240 C.3   1 <1>   0.1200 
 19 C        0.6420    -3.3470     0.0250 C.ar  1 <1>  -0.1500 
 20 C        0.2640    -2.0850    -1.9730 C.ar  1 <1>  -0.1500 
 21 O       -3.2180    -4.2900     0.5170 O.3   1 <1>  -0.6800 
 22 C        1.0370    -2.9720    -1.2470 C.ar  1 <1>  -0.1500 
 23 H       -2.6730    -1.6840     1.4800 H     1 <1>   0.0800 
 24 H       -4.4010     0.9070     1.0350 H     1 <1>   0.0800 
 25 H       -3.6920     1.7720    -0.2970 H     1 <1>   0.0800 
 26 H       -3.5420    -2.2660    -1.3260 H     1 <1>   0.0800 
 27 H       -4.2850    -0.0700    -1.8360 H     1 <1>   0.0800 
 28 H       -5.7070     0.4890    -0.9770 H     1 <1>   0.0800 
 29 H       -0.7680     4.0330    -2.1740 H     1 <1>   0.1500 
 30 H        0.5930     4.7250    -0.1570 H     1 <1>   0.2700 
 31 H        0.1380     2.3330     2.7890 H     1 <1>   0.0800 
 32 H        0.3180     4.0430     2.5330 H     1 <1>   0.0800 
 33 H        1.5660     2.9390     1.9970 H     1 <1>   0.0800 
 34 H       -0.8200    -3.1330     1.5590 H     1 <1>   0.1500 
 35 H       -1.4890    -0.8760    -2.0000 H     1 <1>   0.1500 
 36 H       -4.9940    -3.8850    -0.3150 H     1 <1>   0.0800 
 37 H       -4.7210    -3.2240     1.2870 H     1 <1>   0.0800 
 38 H        1.2440    -4.0310     0.5970 H     1 <1>   0.1500 
 39 H        0.5730    -1.7810    -2.9580 H     1 <1>   0.1500 
 40 H       -2.6440    -4.3400    -0.2750 H     1 <1>   0.4000 
 41 H        1.9460    -3.3650    -1.6670 H     1 <1>   0.1500 
@<TRIPOS>BOND
  1   1   2  2   
  2   2   3  am  
  3   2   4  1   
  4   3   5  1   
  5   3   6  1   
  6   4   7  1   
  7   4   8  2   
  8   5   9  1   
  9   5  10  1   
 10   5  23  1   
 11   6  11  1   
 12   6  24  1   
 13   6  25  1   
 14   7  12  2   
 15   8  13  1   
 16   8  14  1   
 17   9  15  ar  
 18   9  16  ar  
 19  10  17  1   
 20  10  18  1   
 21  10  26  1   
 22  11  17  1   
 23  11  27  1   
 24  11  28  1   
 25  12  13  1   
 26  12  29  1   
 27  13  30  1   
 28  14  31  1   
 29  14  32  1   
 30  14  33  1   
 31  15  19  ar  
 32  15  34  1   
 33  16  20  ar  
 34  16  35  1   
 35  18  21  1   
 36  18  36  1   
 37  18  37  1   
 38  19  22  ar  
 39  19  38  1   
 40  20  22  ar  
 41  20  39  1   
 42  21  40  1   
 43  22  41  1   
@<TRIPOS>SUBSTRUCTURE
  1 ****   3 GROUP 4 **** **** 0

# MOE 2024.06 (io_trps.svl 2023.06)
