@<TRIPOS>MOLECULE
NONAME
50 52 1 0 0 
SMALL
USER_CHARGES


@<TRIPOS>ATOM
  1 O        1.0730     2.0970     1.3720 O.3   1 <1>  -0.3630 
  2 C        0.9750     2.8770     0.2750 C.ar  1 <1>   0.0830 
  3 C        1.8310     0.9050     1.3110 C.3   1 <1>   0.0400 
  4 C        0.6130     2.3990    -1.0010 C.ar  1 <1>   0.0830 
  5 C        1.2500     4.2150     0.4370 C.ar  1 <1>  -0.1500 
  6 O        0.2710     1.1090    -1.2180 O.3   1 <1>  -0.3630 
  7 C        0.5920     3.2540    -2.0780 C.ar  1 <1>  -0.1500 
  8 C        1.2090     5.0810    -0.6520 C.ar  1 <1>   0.3610 
  9 C       -1.0000     0.7190    -0.7430 C.3   1 <1>   0.0400 
 10 C        0.8920     4.6170    -1.9290 C.ar  1 <1>   0.0000 
 11 N        1.4800     6.4170    -0.5340 N.ar  1 <1>  -0.1790 
 12 C        0.9000     5.5870    -2.9820 C.ar  1 <1>   0.4100 
 13 C        1.4640     7.2560    -1.5740 C.ar  1 <1>   0.7710 
 14 N        1.1760     6.8500    -2.8000 N.ar  1 <1>  -0.6200 
 15 N        0.6210     5.2500    -4.2440 N.pl3 1 <1>  -0.9000 
 16 N        1.7320     8.5600    -1.4670 N.pl3 1 <1>  -0.8690 
 17 C        2.0850     9.4500    -0.3320 C.3   1 <1>   0.4690 
 18 C        2.8500     8.6860     0.7510 C.2   1 <1>   0.0060 
 19 C        0.7920    10.0710     0.1880 C.3   1 <1>  -0.2400 
 20 N        2.2610     7.9740     1.6550 N.2   1 <1>  -0.3380 
 21 N        4.1890     8.6060     0.8630 N.pl3 1 <1>   0.0480 
 22 N        3.2030     7.3610     2.3540 N.2   1 <1>  -0.3380 
 23 C        4.3340     7.7590     1.8860 C.2   1 <1>   0.0360 
 24 C        5.3250     9.2180     0.1170 C.3   1 <1>   0.1760 
 25 C        5.3900    10.7320     0.3550 C.3   1 <1>  -0.2400 
 26 C        5.2770     8.8760    -1.3770 C.3   1 <1>  -0.2400 
 27 H        2.0980     0.6270     2.3140 H     1 <1>   0.0800 
 28 H        2.7190     1.0780     0.7290 H     1 <1>   0.0800 
 29 H        1.2380     0.1270     0.8680 H     1 <1>   0.0800 
 30 H        1.5070     4.5790     1.4180 H     1 <1>   0.1500 
 31 H        0.3320     2.8590    -3.0430 H     1 <1>   0.1500 
 32 H       -1.1410    -0.3220    -0.9720 H     1 <1>   0.0800 
 33 H       -1.7530     1.3090    -1.2360 H     1 <1>   0.0800 
 34 H       -1.0450     0.8700     0.3210 H     1 <1>   0.0800 
 35 H        1.7250     6.8000     0.3840 H     1 <1>   0.4570 
 36 H        0.6320     5.9610    -4.9820 H     1 <1>   0.4000 
 37 H        0.3920     4.3090    -4.5690 H     1 <1>   0.4000 
 38 H        1.6140     9.0690    -2.3480 H     1 <1>   0.4000 
 39 H        2.7040    10.2460    -0.7020 H     1 <1>   0.0800 
 40 H        0.1090     9.3140     0.5290 H     1 <1>   0.0800 
 41 H        0.3200    10.6540    -0.5810 H     1 <1>   0.0800 
 42 H        1.0130    10.7210     1.0160 H     1 <1>   0.0800 
 43 H        5.2930     7.4510     2.2650 H     1 <1>   0.1500 
 44 H        6.2310     8.7910     0.5150 H     1 <1>   0.0800 
 45 H        4.5470    11.2420    -0.0690 H     1 <1>   0.0800 
 46 H        6.2800    11.1310    -0.1000 H     1 <1>   0.0800 
 47 H        5.4370    10.9410     1.4090 H     1 <1>   0.0800 
 48 H        4.4600     9.3630    -1.8750 H     1 <1>   0.0800 
 49 H        5.1990     7.8120    -1.5170 H     1 <1>   0.0800 
 50 H        6.1870     9.2050    -1.8490 H     1 <1>   0.0800 
@<TRIPOS>BOND
  1   1   2  1   
  2   1   3  1   
  3   2   4  ar  
  4   2   5  ar  
  5   3  27  1   
  6   3  28  1   
  7   3  29  1   
  8   4   6  1   
  9   4   7  ar  
 10   5   8  ar  
 11   5  30  1   
 12   6   9  1   
 13   7  10  ar  
 14   7  31  1   
 15   8  10  ar  
 16   8  11  ar  
 17   9  32  1   
 18   9  33  1   
 19   9  34  1   
 20  10  12  ar  
 21  11  13  ar  
 22  11  35  1   
 23  12  14  ar  
 24  12  15  1   
 25  13  14  ar  
 26  13  16  1   
 27  15  36  1   
 28  15  37  1   
 29  16  17  1   
 30  16  38  1   
 31  17  18  1   
 32  17  19  1   
 33  17  39  1   
 34  18  20  2   
 35  18  21  1   
 36  19  40  1   
 37  19  41  1   
 38  19  42  1   
 39  20  22  1   
 40  21  23  1   
 41  21  24  1   
 42  22  23  2   
 43  23  43  1   
 44  24  25  1   
 45  24  26  1   
 46  24  44  1   
 47  25  45  1   
 48  25  46  1   
 49  25  47  1   
 50  26  48  1   
 51  26  49  1   
 52  26  50  1   
@<TRIPOS>SUBSTRUCTURE
  1 ****  11 GROUP 4 **** **** 0

# MOE 2024.06 (io_trps.svl 2023.06)
