@<TRIPOS>MOLECULE
NONAME
47 47 1 0 0 
SMALL
USER_CHARGES


@<TRIPOS>ATOM
  1 O        0.5360     0.8670     0.3840 O.3   1 <1>  -0.5600 
  2 C        0.3480     2.0100     1.1450 C.3   1 <1>   0.1200 
  3 C        0.1490     1.1120    -0.9290 C.3   1 <1>   0.1200 
  4 C        0.7780     3.1420     0.2190 C.3   1 <1>  -0.0800 
  5 C        0.2790     2.6240    -1.1290 C.3   1 <1>  -0.1600 
  6 C        2.3100     3.3060     0.2640 C.3   1 <1>  -0.1600 
  7 C        2.7940     4.4320    -0.6510 C.3   1 <1>   0.3430 
  8 N        4.2580     4.6510    -0.4830 N.4   1 <1>  -0.9590 
  9 C        4.6520     5.9460    -1.1200 C.3   1 <1>   0.3430 
 10 C        5.0680     3.5100    -1.0170 C.3   1 <1>   0.2630 
 11 C        5.5620     6.8370    -0.2340 C.3   1 <1>   0.0000 
 12 C        5.9850     8.0280    -1.1290 C.3   1 <1>   0.1200 
 13 C        4.7780     7.4140     0.9840 C.3   1 <1>  -0.1600 
 14 C        6.8440     6.0670     0.1960 C.3   1 <1>  -0.1600 
 15 O        4.8730     8.5620    -1.7700 O.3   1 <1>  -0.6800 
 16 C        4.3870     6.4540     2.1210 C.3   1 <1>  -0.2400 
 17 C        7.8640     6.8830     1.0090 C.3   1 <1>  -0.2400 
 18 H        0.9340     1.9400     2.0450 H     1 <1>   0.0800 
 19 H       -0.6990     2.0780     1.3910 H     1 <1>   0.0800 
 20 H       -0.8700     0.7830    -1.0480 H     1 <1>   0.0800 
 21 H        0.7950     0.5530    -1.5830 H     1 <1>   0.0800 
 22 H        0.2920     4.0610     0.5010 H     1 <1>   0.0800 
 23 H       -0.6960     3.0260    -1.3480 H     1 <1>   0.0800 
 24 H        0.9290     2.8450    -1.9550 H     1 <1>   0.0800 
 25 H        2.7630     2.3730    -0.0220 H     1 <1>   0.0800 
 26 H        2.5970     3.5260     1.2770 H     1 <1>   0.0800 
 27 H        2.2660     5.3370    -0.3940 H     1 <1>   0.0800 
 28 H        2.5730     4.1960    -1.6790 H     1 <1>   0.0800 
 29 H        4.4480     4.7650     0.5240 H     1 <1>   0.4500 
 30 H        3.7670     6.5160    -1.3500 H     1 <1>   0.0800 
 31 H        5.1530     5.7520    -2.0540 H     1 <1>   0.0800 
 32 H        4.8600     3.3620    -2.0640 H     1 <1>   0.0800 
 33 H        4.8330     2.6010    -0.4870 H     1 <1>   0.0800 
 34 H        6.1210     3.7090    -0.8990 H     1 <1>   0.0800 
 35 H        6.6810     7.7130    -1.8900 H     1 <1>   0.0800 
 36 H        6.4400     8.8100    -0.5450 H     1 <1>   0.0800 
 37 H        3.8800     7.8920     0.6280 H     1 <1>   0.0800 
 38 H        5.3690     8.1990     1.4260 H     1 <1>   0.0800 
 39 H        7.3460     5.7030    -0.6850 H     1 <1>   0.0800 
 40 H        6.5840     5.2050     0.7830 H     1 <1>   0.0800 
 41 H        5.1020     9.4020    -2.2220 H     1 <1>   0.4000 
 42 H        3.6110     5.7750     1.8260 H     1 <1>   0.0800 
 43 H        3.9990     7.0320     2.9420 H     1 <1>   0.0800 
 44 H        5.2340     5.9060     2.4920 H     1 <1>   0.0800 
 45 H        8.2300     7.7270     0.4530 H     1 <1>   0.0800 
 46 H        8.7090     6.2640     1.2550 H     1 <1>   0.0800 
 47 H        7.4370     7.2340     1.9320 H     1 <1>   0.0800 
@<TRIPOS>BOND
  1   1   2  1   
  2   1   3  1   
  3   2   4  1   
  4   2  18  1   
  5   2  19  1   
  6   3   5  1   
  7   3  20  1   
  8   3  21  1   
  9   4   5  1   
 10   4   6  1   
 11   4  22  1   
 12   5  23  1   
 13   5  24  1   
 14   6   7  1   
 15   6  25  1   
 16   6  26  1   
 17   7   8  1   
 18   7  27  1   
 19   7  28  1   
 20   8   9  1   
 21   8  10  1   
 22   8  29  1   
 23   9  11  1   
 24   9  30  1   
 25   9  31  1   
 26  10  32  1   
 27  10  33  1   
 28  10  34  1   
 29  11  12  1   
 30  11  13  1   
 31  11  14  1   
 32  12  15  1   
 33  12  35  1   
 34  12  36  1   
 35  13  16  1   
 36  13  37  1   
 37  13  38  1   
 38  14  17  1   
 39  14  39  1   
 40  14  40  1   
 41  15  41  1   
 42  16  42  1   
 43  16  43  1   
 44  16  44  1   
 45  17  45  1   
 46  17  46  1   
 47  17  47  1   
@<TRIPOS>SUBSTRUCTURE
  1 ****   8 GROUP 4 **** **** 0

# MOE 2024.06 (io_trps.svl 2023.06)
