@<TRIPOS>MOLECULE
NONAME
48 50 1 0 0 
SMALL
USER_CHARGES


@<TRIPOS>ATOM
  1 O       -0.6190    -1.2390     0.1810 O.2   1 <1>  -0.5700 
  2 C        0.2530    -2.0620     0.2700 C.2   1 <1>   0.5690 
  3 N        0.0270    -3.2810     0.8000 N.am  1 <1>  -0.7300 
  4 C        1.6570    -1.7570    -0.2030 C.3   1 <1>  -0.0990 
  5 C        1.0720    -4.3100     0.9590 C.3   1 <1>   0.1400 
  6 C        2.2430    -2.9630    -0.9650 C.3   1 <1>  -0.0800 
  7 C        1.9730    -4.3360    -0.2950 C.3   1 <1>  -0.0800 
  8 C        3.7610    -2.8650    -1.1680 C.3   1 <1>  -0.1600 
  9 C        3.3550    -4.9540    -0.0380 C.3   1 <1>  -0.1600 
 10 C        4.2480    -4.3060    -1.0950 C.3   1 <1>   0.4230 
 11 N        5.7220    -4.4440    -0.8710 N.4   1 <1>  -0.9590 
 12 C        6.2650    -4.0500     0.4710 C.3   1 <1>   0.4860 
 13 C        6.1580    -5.8340    -1.2130 C.3   1 <1>   0.2630 
 14 C        6.7040    -2.6010     0.4520 C.ar  1 <1>  -0.1440 
 15 C        7.7310    -2.1870    -0.3840 C.ar  1 <1>   0.1600 
 16 C        6.1000    -1.6680     1.2750 C.ar  1 <1>  -0.1500 
 17 N        8.1660    -0.9470    -0.4930 N.ar  1 <1>  -0.6200 
 18 C        6.5490    -0.3700     1.1800 C.ar  1 <1>  -0.1500 
 19 C        7.5660    -0.0560     0.2920 C.ar  1 <1>   0.3930 
 20 O        7.9520     1.2340     0.2380 O.3   1 <1>  -0.3620 
 21 C        8.9990     1.6450    -0.6150 C.3   1 <1>   0.1200 
 22 C        9.1920     3.1490    -0.4380 C.3   1 <1>  -0.2400 
 23 H       -0.9160    -3.4710     1.1520 H     1 <1>   0.3700 
 24 H        1.6390    -0.8890    -0.8360 H     1 <1>   0.0800 
 25 H        2.2460    -1.5280     0.6660 H     1 <1>   0.0800 
 26 H        1.6470    -4.0680     1.8370 H     1 <1>   0.0800 
 27 H        0.6140    -5.2740     1.1070 H     1 <1>   0.0800 
 28 H        1.7680    -2.9860    -1.9340 H     1 <1>   0.0800 
 29 H        1.4700    -4.9490    -1.0260 H     1 <1>   0.0800 
 30 H        4.1800    -2.2760    -0.3790 H     1 <1>   0.0800 
 31 H        3.9960    -2.4120    -2.1160 H     1 <1>   0.0800 
 32 H        3.3220    -6.0240    -0.1400 H     1 <1>   0.0800 
 33 H        3.6700    -4.6910     0.9530 H     1 <1>   0.0800 
 34 H        4.0020    -4.7600    -2.0420 H     1 <1>   0.0800 
 35 H        6.1580    -3.8000    -1.5460 H     1 <1>   0.4500 
 36 H        5.5360    -4.2040     1.2460 H     1 <1>   0.0800 
 37 H        7.1260    -4.6540     0.7070 H     1 <1>   0.0800 
 38 H        5.7240    -6.5440    -0.5280 H     1 <1>   0.0800 
 39 H        7.2320    -5.9160    -1.1620 H     1 <1>   0.0800 
 40 H        5.8460    -6.0890    -2.2140 H     1 <1>   0.0800 
 41 H        8.2340    -2.9080    -1.0060 H     1 <1>   0.1500 
 42 H        5.3120    -1.9210     1.9640 H     1 <1>   0.1500 
 43 H        6.1280     0.4140     1.7840 H     1 <1>   0.1500 
 44 H        9.8910     1.1080    -0.3430 H     1 <1>   0.0800 
 45 H        8.7250     1.4090    -1.6290 H     1 <1>   0.0800 
 46 H        9.4530     3.3710     0.5810 H     1 <1>   0.0800 
 47 H        8.2900     3.6710    -0.7020 H     1 <1>   0.0800 
 48 H        9.9860     3.4900    -1.0780 H     1 <1>   0.0800 
@<TRIPOS>BOND
  1   1   2  2   
  2   2   3  am  
  3   2   4  1   
  4   3   5  1   
  5   3  23  1   
  6   4   6  1   
  7   4  24  1   
  8   4  25  1   
  9   5   7  1   
 10   5  26  1   
 11   5  27  1   
 12   6   7  1   
 13   6   8  1   
 14   6  28  1   
 15   7   9  1   
 16   7  29  1   
 17   8  10  1   
 18   8  30  1   
 19   8  31  1   
 20   9  10  1   
 21   9  32  1   
 22   9  33  1   
 23  10  11  1   
 24  10  34  1   
 25  11  12  1   
 26  11  13  1   
 27  11  35  1   
 28  12  14  1   
 29  12  36  1   
 30  12  37  1   
 31  13  38  1   
 32  13  39  1   
 33  13  40  1   
 34  14  15  ar  
 35  14  16  ar  
 36  15  17  ar  
 37  15  41  1   
 38  16  18  ar  
 39  16  42  1   
 40  17  19  ar  
 41  18  19  ar  
 42  18  43  1   
 43  19  20  1   
 44  20  21  1   
 45  21  22  1   
 46  21  44  1   
 47  21  45  1   
 48  22  46  1   
 49  22  47  1   
 50  22  48  1   
@<TRIPOS>SUBSTRUCTURE
  1 ****   8 GROUP 4 **** **** 0

# MOE 2024.06 (io_trps.svl 2023.06)
