@<TRIPOS>MOLECULE
NONAME
49 51 1 0 0 
SMALL
USER_CHARGES


@<TRIPOS>ATOM
  1 O       -1.4540     0.5770    -2.4880 O.2   1 <1>  -0.5700 
  2 C       -1.9820     1.0120    -1.4800 C.2   1 <1>   0.5440 
  3 N       -2.9340     0.2350    -0.8420 N.am  1 <1>  -0.6600 
  4 C       -1.6360     2.3470    -1.0410 C.ar  1 <1>   0.0860 
  5 C       -3.2700    -1.1420    -1.3180 C.3   1 <1>   0.1400 
  6 C       -3.7990     0.7350     0.2540 C.3   1 <1>   0.1400 
  7 C       -1.0050     2.6060     0.1800 C.ar  1 <1>   0.0820 
  8 C       -1.9370     3.4370    -1.8610 C.ar  1 <1>  -0.1500 
  9 C       -3.2660    -2.2090    -0.1930 C.3   1 <1>   0.0000 
 10 C       -3.6780    -0.2020     1.4520 C.3   1 <1>  -0.1600 
 11 O       -0.6980     1.5760     1.0080 O.3   1 <1>  -0.3630 
 12 C       -0.6910     3.9170     0.5500 C.ar  1 <1>   0.0820 
 13 C       -1.6400     4.7350    -1.4870 C.ar  1 <1>  -0.1500 
 14 C       -4.0110    -1.6430     1.0520 C.3   1 <1>   0.2000 
 15 C       -4.1170    -3.4100    -0.6840 C.3   1 <1>   0.1200 
 16 C       -1.8220    -2.7460     0.0830 C.3   1 <1>  -0.1600 
 17 C       -0.2920     1.8660     2.3310 C.3   1 <1>   0.1200 
 18 O       -0.0540     4.1860     1.7170 O.3   1 <1>  -0.3630 
 19 C       -1.0170     4.9760    -0.2750 C.ar  1 <1>  -0.1500 
 20 O       -3.7980    -2.4500     2.1530 O.3   1 <1>  -0.6800 
 21 O       -3.6020    -3.9850    -1.8430 O.3   1 <1>  -0.6800 
 22 C       -0.7890    -1.7970     0.7090 C.3   1 <1>  -0.1600 
 23 C        0.6070     3.1070     2.3480 C.3   1 <1>   0.1200 
 24 C        0.5900    -2.4580     0.7790 C.3   1 <1>  -0.2400 
 25 H       -4.2480    -1.0950    -1.7620 H     1 <1>   0.0800 
 26 H       -2.5850    -1.4470    -2.0910 H     1 <1>   0.0800 
 27 H       -3.5230     1.7320     0.5480 H     1 <1>   0.0800 
 28 H       -4.8190     0.7610    -0.0900 H     1 <1>   0.0800 
 29 H       -2.4100     3.2500    -2.8100 H     1 <1>   0.1500 
 30 H       -4.3690     0.1200     2.2100 H     1 <1>   0.0800 
 31 H       -2.6900    -0.1170     1.8530 H     1 <1>   0.0800 
 32 H       -1.8880     5.5570    -2.1370 H     1 <1>   0.1500 
 33 H       -5.0700    -1.6710     0.8570 H     1 <1>   0.0800 
 34 H       -5.1280    -3.1060    -0.8940 H     1 <1>   0.0800 
 35 H       -4.1470    -4.1780     0.0700 H     1 <1>   0.0800 
 36 H       -1.8910    -3.6210     0.7070 H     1 <1>   0.0800 
 37 H       -1.4100    -3.0830    -0.8530 H     1 <1>   0.0800 
 38 H       -1.1740     2.0350     2.9230 H     1 <1>   0.0800 
 39 H        0.2320     1.0090     2.7120 H     1 <1>   0.0800 
 40 H       -0.7750     5.9790     0.0280 H     1 <1>   0.1500 
 41 H       -2.8360    -2.5520     2.2890 H     1 <1>   0.4000 
 42 H       -3.5190    -3.3300    -2.5620 H     1 <1>   0.4000 
 43 H       -0.7050    -0.9040     0.1170 H     1 <1>   0.0800 
 44 H       -1.0780    -1.5260     1.7060 H     1 <1>   0.0800 
 45 H        1.5220     2.9160     1.8150 H     1 <1>   0.0800 
 46 H        0.8380     3.4010     3.3560 H     1 <1>   0.0800 
 47 H        0.9330    -2.7120    -0.2090 H     1 <1>   0.0800 
 48 H        0.5520    -3.3530     1.3740 H     1 <1>   0.0800 
 49 H        1.3000    -1.7810     1.2190 H     1 <1>   0.0800 
@<TRIPOS>BOND
  1   1   2  2   
  2   2   3  am  
  3   2   4  1   
  4   3   5  1   
  5   3   6  1   
  6   4   7  ar  
  7   4   8  ar  
  8   5   9  1   
  9   5  25  1   
 10   5  26  1   
 11   6  10  1   
 12   6  27  1   
 13   6  28  1   
 14   7  11  1   
 15   7  12  ar  
 16   8  13  ar  
 17   8  29  1   
 18   9  14  1   
 19   9  15  1   
 20   9  16  1   
 21  10  14  1   
 22  10  30  1   
 23  10  31  1   
 24  11  17  1   
 25  12  18  1   
 26  12  19  ar  
 27  13  19  ar  
 28  13  32  1   
 29  14  20  1   
 30  14  33  1   
 31  15  21  1   
 32  15  34  1   
 33  15  35  1   
 34  16  22  1   
 35  16  36  1   
 36  16  37  1   
 37  17  23  1   
 38  17  38  1   
 39  17  39  1   
 40  18  23  1   
 41  19  40  1   
 42  20  41  1   
 43  21  42  1   
 44  22  24  1   
 45  22  43  1   
 46  22  44  1   
 47  23  45  1   
 48  23  46  1   
 49  24  47  1   
 50  24  48  1   
 51  24  49  1   
@<TRIPOS>SUBSTRUCTURE
  1 ****   3 GROUP 4 **** **** 0

# MOE 2024.06 (io_trps.svl 2023.06)
