@<TRIPOS>MOLECULE
NONAME
49 50 1 0 0 
SMALL
USER_CHARGES


@<TRIPOS>ATOM
  1 S        0.4490     0.8280    -1.1000 S.o2  1 <1>   1.3330 
  2 O        0.7300    -0.2550    -2.0150 O.2   1 <1>  -0.6500 
  3 O       -0.5010     1.8530    -1.4670 O.2   1 <1>  -0.6500 
  4 N       -0.0820     0.1470     0.3650 N.am  1 <1>  -0.8490 
  5 C        2.0080     1.6080    -0.6690 C.3   1 <1>  -0.0550 
  6 C       -0.9320    -1.0290     0.1510 C.3   1 <1>   0.1160 
  7 C       -0.7770     1.1060     1.2320 C.3   1 <1>   0.1160 
  8 C        3.1330     0.6160    -0.3000 C.3   1 <1>  -0.0800 
  9 C        4.5120     1.2410    -0.1440 C.3   1 <1>   0.2200 
 10 C        2.9410    -0.1260     1.0300 C.3   1 <1>   0.1200 
 11 N        4.4330     2.5130     0.6160 N.am  1 <1>  -0.7300 
 12 C        5.1830     0.2010     0.7400 C.3   1 <1>   0.1200 
 13 O        4.1950    -0.1630     1.6520 O.3   1 <1>  -0.5600 
 14 C        4.6100     3.7630     0.0960 C.2   1 <1>   0.7160 
 15 O        4.7010     3.8650    -1.1130 O.2   1 <1>  -0.5700 
 16 C        4.6710     4.9320     0.9720 C.2   1 <1>   0.1410 
 17 N        5.0060     6.1970     0.4550 N.2   1 <1>  -0.5650 
 18 C        4.4260     4.9440     2.3030 C.2   1 <1>  -0.1100 
 19 C        5.0080     7.1090     1.3410 C.2   1 <1>   0.1980 
 20 S        4.6040     6.5480     2.9420 S.3   1 <1>  -0.0800 
 21 C        5.3250     8.5890     1.1540 C.3   1 <1>   0.5230 
 22 N        5.5100     8.8880    -0.3080 N.4   1 <1>  -0.9590 
 23 C        6.3250    10.1130    -0.5550 C.3   1 <1>   0.2630 
 24 C        4.2010     8.9250    -1.0310 C.3   1 <1>   0.2630 
 25 H        2.3380     2.1790    -1.5160 H     1 <1>   0.0800 
 26 H        1.8490     2.2960     0.1370 H     1 <1>   0.0800 
 27 H       -1.2440    -1.4420     1.0950 H     1 <1>   0.0800 
 28 H       -0.3850    -1.7880    -0.3820 H     1 <1>   0.0800 
 29 H       -1.8020    -0.7620    -0.4250 H     1 <1>   0.0800 
 30 H       -1.0090     0.6480     2.1780 H     1 <1>   0.0800 
 31 H       -1.6920     1.4380     0.7690 H     1 <1>   0.0800 
 32 H       -0.1530     1.9640     1.4140 H     1 <1>   0.0800 
 33 H        3.1970    -0.1250    -1.0780 H     1 <1>   0.0800 
 34 H        5.0220     1.3770    -1.0830 H     1 <1>   0.0800 
 35 H        2.5960    -1.1350     0.8770 H     1 <1>   0.0800 
 36 H        2.2660     0.3900     1.6910 H     1 <1>   0.0800 
 37 H        4.3570     2.3700     1.6250 H     1 <1>   0.3700 
 38 H        6.0420     0.5830     1.2630 H     1 <1>   0.0800 
 39 H        5.4540    -0.6730     0.1720 H     1 <1>   0.0800 
 40 H        4.1530     4.1640     2.9920 H     1 <1>   0.1500 
 41 H        6.2320     8.8100     1.6920 H     1 <1>   0.0800 
 42 H        4.5290     9.1880     1.5610 H     1 <1>   0.0800 
 43 H        6.0090     8.0530    -0.6700 H     1 <1>   0.4500 
 44 H        5.8200    10.9850    -0.1710 H     1 <1>   0.0800 
 45 H        6.4850    10.2450    -1.6130 H     1 <1>   0.0800 
 46 H        7.2870    10.0280    -0.0740 H     1 <1>   0.0800 
 47 H        3.5880     9.7340    -0.6680 H     1 <1>   0.0800 
 48 H        3.6700     7.9960    -0.8900 H     1 <1>   0.0800 
 49 H        4.3630     9.0610    -2.0890 H     1 <1>   0.0800 
@<TRIPOS>BOND
  1   1   2  2   
  2   1   3  2   
  3   1   4  am  
  4   1   5  1   
  5   4   6  1   
  6   4   7  1   
  7   5   8  1   
  8   5  25  1   
  9   5  26  1   
 10   6  27  1   
 11   6  28  1   
 12   6  29  1   
 13   7  30  1   
 14   7  31  1   
 15   7  32  1   
 16   8   9  1   
 17   8  10  1   
 18   8  33  1   
 19   9  11  1   
 20   9  12  1   
 21   9  34  1   
 22  10  13  1   
 23  10  35  1   
 24  10  36  1   
 25  11  14  am  
 26  11  37  1   
 27  12  13  1   
 28  12  38  1   
 29  12  39  1   
 30  14  15  2   
 31  14  16  1   
 32  16  17  1   
 33  16  18  2   
 34  17  19  2   
 35  18  20  1   
 36  18  40  1   
 37  19  20  1   
 38  19  21  1   
 39  21  22  1   
 40  21  41  1   
 41  21  42  1   
 42  22  23  1   
 43  22  24  1   
 44  22  43  1   
 45  23  44  1   
 46  23  45  1   
 47  23  46  1   
 48  24  47  1   
 49  24  48  1   
 50  24  49  1   
@<TRIPOS>SUBSTRUCTURE
  1 ****  14 GROUP 4 **** **** 0

# MOE 2024.06 (io_trps.svl 2023.06)
