@<TRIPOS>MOLECULE
NONAME
53 56 1 0 0 
SMALL
USER_CHARGES


@<TRIPOS>ATOM
  1 O       -0.5530     0.2680    -1.1140 O.2   1 <1>  -0.5700 
  2 C       -0.3840     1.3130    -0.5280 C.2   1 <1>   0.5690 
  3 N       -1.4130     2.0590    -0.0150 N.am  1 <1>  -0.5090 
  4 C        1.0530     1.8220    -0.4020 C.3   1 <1>   0.1810 
  5 C       -1.1780     3.4180     0.5710 C.3   1 <1>   0.3640 
  6 C       -2.8180     1.5790     0.0060 C.3   1 <1>   0.0490 
  7 O        1.2060     2.8410     0.5560 O.3   1 <1>  -0.5600 
  8 C       -2.1030     4.4500    -0.0830 C.ar  1 <1>  -0.1440 
  9 C        0.2840     3.9040     0.4180 C.3   1 <1>   0.2610 
 10 C       -3.5180     1.4660     1.3250 C.3   1 <1>  -0.2000 
 11 C       -3.1330     0.2320     0.5750 C.3   1 <1>  -0.2000 
 12 C       -2.7820     5.3650     0.7090 C.ar  1 <1>  -0.1500 
 13 C       -2.2630     4.5050    -1.4620 C.ar  1 <1>  -0.1500 
 14 C        0.6090     5.0470     1.3980 C.2   1 <1>   0.5690 
 15 C       -3.6020     6.3220     0.1400 C.ar  1 <1>  -0.1500 
 16 C       -3.0840     5.4610    -2.0340 C.ar  1 <1>  -0.1500 
 17 O       -0.0530     5.1500     2.4090 O.2   1 <1>  -0.5700 
 18 N        1.6130     5.9520     1.1250 N.am  1 <1>  -0.6600 
 19 C       -3.7560     6.3760    -1.2420 C.ar  1 <1>   0.0820 
 20 C        2.6100     5.8150     0.0300 C.3   1 <1>   0.1400 
 21 C        1.8040     7.1680     1.9630 C.3   1 <1>   0.1400 
 22 O       -4.5340     7.2830    -1.8820 O.3   1 <1>  -0.3620 
 23 C        2.4960     7.0280    -0.8960 C.3   1 <1>  -0.1600 
 24 C        1.6860     8.4060     1.0710 C.3   1 <1>  -0.1600 
 25 C       -5.2340     8.2800    -1.1710 C.3   1 <1>   0.0400 
 26 C        2.6650     8.3440    -0.1150 C.3   1 <1>   0.1200 
 27 C        2.4840     9.5230    -1.0160 C.1   1 <1>   0.3570 
 28 N        2.3530    10.4180    -1.7040 N.1   1 <1>  -0.5570 
 29 H        1.3840     2.1960    -1.3530 H     1 <1>   0.0800 
 30 H        1.6900     1.0060    -0.1120 H     1 <1>   0.0800 
 31 H       -1.4120     3.3500     1.6180 H     1 <1>   0.0800 
 32 H       -3.3830     1.9140    -0.8480 H     1 <1>   0.1000 
 33 H        0.3940     4.2930    -0.5770 H     1 <1>   0.0800 
 34 H       -2.9900     1.6840     2.2360 H     1 <1>   0.1000 
 35 H       -4.5610     1.7240     1.3770 H     1 <1>   0.1000 
 36 H       -3.9050    -0.3520     0.1070 H     1 <1>   0.1000 
 37 H       -2.3200    -0.3740     0.9380 H     1 <1>   0.1000 
 38 H       -2.6690     5.3420     1.7810 H     1 <1>   0.1500 
 39 H       -1.7570     3.8020    -2.1010 H     1 <1>   0.1500 
 40 H       -4.1100     7.0140     0.7850 H     1 <1>   0.1500 
 41 H       -3.2100     5.5030    -3.1010 H     1 <1>   0.1500 
 42 H        3.5960     5.7730     0.4620 H     1 <1>   0.0800 
 43 H        2.4650     4.9080    -0.5290 H     1 <1>   0.0800 
 44 H        1.0640     7.2180     2.7450 H     1 <1>   0.0800 
 45 H        2.7740     7.1290     2.4270 H     1 <1>   0.0800 
 46 H        3.2490     6.9620    -1.6620 H     1 <1>   0.0800 
 47 H        1.5330     7.0090    -1.3790 H     1 <1>   0.0800 
 48 H        0.6740     8.4740     0.7100 H     1 <1>   0.0800 
 49 H        1.8820     9.2850     1.6600 H     1 <1>   0.0800 
 50 H       -5.7660     8.8850    -1.8820 H     1 <1>   0.0800 
 51 H       -4.5270     8.8850    -0.6320 H     1 <1>   0.0800 
 52 H       -5.9290     7.8070    -0.5000 H     1 <1>   0.0800 
 53 H        3.6690     8.3860     0.2700 H     1 <1>   0.0800 
@<TRIPOS>BOND
  1   1   2  2   
  2   2   3  am  
  3   2   4  1   
  4   3   5  1   
  5   3   6  1   
  6   4   7  1   
  7   4  29  1   
  8   4  30  1   
  9   5   8  1   
 10   5   9  1   
 11   5  31  1   
 12   6  10  1   
 13   6  11  1   
 14   6  32  1   
 15   7   9  1   
 16   8  12  ar  
 17   8  13  ar  
 18   9  14  1   
 19   9  33  1   
 20  10  11  1   
 21  10  34  1   
 22  10  35  1   
 23  11  36  1   
 24  11  37  1   
 25  12  15  ar  
 26  12  38  1   
 27  13  16  ar  
 28  13  39  1   
 29  14  17  2   
 30  14  18  am  
 31  15  19  ar  
 32  15  40  1   
 33  16  19  ar  
 34  16  41  1   
 35  18  20  1   
 36  18  21  1   
 37  19  22  1   
 38  20  23  1   
 39  20  42  1   
 40  20  43  1   
 41  21  24  1   
 42  21  44  1   
 43  21  45  1   
 44  22  25  1   
 45  23  26  1   
 46  23  46  1   
 47  23  47  1   
 48  24  26  1   
 49  24  48  1   
 50  24  49  1   
 51  25  50  1   
 52  25  51  1   
 53  25  52  1   
 54  26  27  1   
 55  26  53  1   
 56  27  28  3   
@<TRIPOS>SUBSTRUCTURE
  1 ****   8 GROUP 4 **** **** 0

# MOE 2024.06 (io_trps.svl 2023.06)
