@<TRIPOS>MOLECULE
NONAME
64 68 1 0 0 
SMALL
USER_CHARGES


@<TRIPOS>ATOM
  1 O       -1.3710    -1.3170     1.8390 O.2   1 <1>  -0.5700 
  2 C       -1.6450    -1.2940     0.6540 C.2   1 <1>   0.7160 
  3 N       -0.8720    -2.0320    -0.1990 N.am  1 <1>  -0.7300 
  4 C       -2.7580    -0.5190     0.1660 C.2   1 <1>  -0.0860 
  5 C        0.3210    -2.7980     0.2200 C.3   1 <1>   0.1400 
  6 C       -3.2170    -0.4220    -1.1520 C.2   1 <1>   0.1390 
  7 C       -3.6190     0.2880     0.8470 C.2   1 <1>  -0.3020 
  8 C       -0.1010    -4.1770     0.7480 C.3   1 <1>  -0.0800 
  9 N       -4.2440     0.3560    -1.2790 N.2   1 <1>  -0.7070 
 10 N       -4.4920     0.7970    -0.0330 N.pl3 1 <1>   0.3000 
 11 C       -0.4980    -5.1190    -0.3990 C.3   1 <1>   0.2000 
 12 C        1.0150    -5.0090     1.4240 C.3   1 <1>  -0.0800 
 13 O        0.7240    -5.6910    -0.6840 O.3   1 <1>  -0.5600 
 14 C       -1.2810    -6.3320     0.1230 C.3   1 <1>  -0.1600 
 15 C        1.0300    -6.2490     0.5440 C.3   1 <1>   0.2800 
 16 C        2.4690    -4.5020     1.3800 C.3   1 <1>   0.3430 
 17 C       -0.1740    -7.1580     0.7860 C.3   1 <1>  -0.1600 
 18 C        2.4580    -6.7770     0.6010 C.3   1 <1>   0.3430 
 19 N        3.3080    -5.5550     0.7230 N.4   1 <1>  -0.9590 
 20 C        3.8030    -5.1370    -0.6100 C.3   1 <1>   0.4810 
 21 C        5.1980    -4.5650    -0.4030 C.2   1 <1>  -0.2760 
 22 C        6.2280    -5.2990     0.0650 C.2   1 <1>  -0.2760 
 23 C        5.3460    -3.0920    -0.8440 C.3   1 <1>   0.1380 
 24 C        7.6390    -4.7410     0.2490 C.3   1 <1>  -0.0220 
 25 C        6.1950    -6.7760     0.4580 C.3   1 <1>  -0.1020 
 26 C        6.6850    -2.5010    -0.3510 C.3   1 <1>  -0.1600 
 27 C        5.2900    -3.0440    -2.3790 C.3   1 <1>  -0.2400 
 28 C        4.2400    -2.1780    -0.2940 C.3   1 <1>  -0.2400 
 29 C        7.8640    -3.4540    -0.5440 C.3   1 <1>  -0.1600 
 30 H       -1.0740    -1.9970    -1.1990 H     1 <1>   0.3700 
 31 H        0.9910    -2.8990    -0.6170 H     1 <1>   0.0800 
 32 H        0.8220    -2.2470     0.9990 H     1 <1>   0.0800 
 33 H       -2.7760    -0.9340    -1.9900 H     1 <1>   0.1500 
 34 H       -3.6340     0.5080     1.9000 H     1 <1>   0.1500 
 35 H       -0.9230    -4.0470     1.4320 H     1 <1>   0.0800 
 36 H       -5.2650     1.4430     0.1750 H     1 <1>   0.2700 
 37 H       -0.9300    -4.6440    -1.2640 H     1 <1>   0.0800 
 38 H        0.7550    -5.2550     2.4390 H     1 <1>   0.0800 
 39 H       -2.0580    -6.0440     0.8100 H     1 <1>   0.0800 
 40 H       -1.7210    -6.8670    -0.7010 H     1 <1>   0.0800 
 41 H        2.8200    -4.3230     2.3840 H     1 <1>   0.0800 
 42 H        2.5340    -3.5820     0.8320 H     1 <1>   0.0800 
 43 H       -0.0470    -8.1010     0.2820 H     1 <1>   0.0800 
 44 H       -0.3560    -7.3280     1.8330 H     1 <1>   0.0800 
 45 H        2.6930    -7.3620    -0.2730 H     1 <1>   0.0800 
 46 H        2.5700    -7.3870     1.4820 H     1 <1>   0.0800 
 47 H        4.1720    -5.7260     1.2580 H     1 <1>   0.4500 
 48 H        3.8810    -5.9930    -1.2610 H     1 <1>   0.0800 
 49 H        3.1330    -4.4300    -1.0680 H     1 <1>   0.0800 
 50 H        7.8070    -4.5530     1.2960 H     1 <1>   0.0800 
 51 H        8.3740    -5.4570    -0.0760 H     1 <1>   0.0800 
 52 H        6.9690    -7.3090    -0.0690 H     1 <1>   0.0800 
 53 H        5.2700    -7.2570     0.2110 H     1 <1>   0.0800 
 54 H        6.3770    -6.8840     1.5130 H     1 <1>   0.0800 
 55 H        6.8900    -1.5740    -0.8580 H     1 <1>   0.0800 
 56 H        6.6120    -2.2800     0.7000 H     1 <1>   0.0800 
 57 H        5.4810    -2.0460    -2.7340 H     1 <1>   0.0800 
 58 H        4.3270    -3.3480    -2.7460 H     1 <1>   0.0800 
 59 H        6.0290    -3.6980    -2.8050 H     1 <1>   0.0800 
 60 H        4.4510    -1.1540    -0.5500 H     1 <1>   0.0800 
 61 H        4.1960    -2.2450     0.7780 H     1 <1>   0.0800 
 62 H        3.2820    -2.4150    -0.7140 H     1 <1>   0.0800 
 63 H        7.9810    -3.6910    -1.5860 H     1 <1>   0.0800 
 64 H        8.7740    -2.9840    -0.2120 H     1 <1>   0.0800 
@<TRIPOS>BOND
  1   1   2  2   
  2   2   3  am  
  3   2   4  1   
  4   3   5  1   
  5   3  30  1   
  6   4   6  1   
  7   4   7  2   
  8   5   8  1   
  9   5  31  1   
 10   5  32  1   
 11   6   9  2   
 12   6  33  1   
 13   7  10  1   
 14   7  34  1   
 15   8  11  1   
 16   8  12  1   
 17   8  35  1   
 18   9  10  1   
 19  10  36  1   
 20  11  13  1   
 21  11  14  1   
 22  11  37  1   
 23  12  15  1   
 24  12  16  1   
 25  12  38  1   
 26  13  15  1   
 27  14  17  1   
 28  14  39  1   
 29  14  40  1   
 30  15  17  1   
 31  15  18  1   
 32  16  19  1   
 33  16  41  1   
 34  16  42  1   
 35  17  43  1   
 36  17  44  1   
 37  18  19  1   
 38  18  45  1   
 39  18  46  1   
 40  19  20  1   
 41  19  47  1   
 42  20  21  1   
 43  20  48  1   
 44  20  49  1   
 45  21  22  2   
 46  21  23  1   
 47  22  24  1   
 48  22  25  1   
 49  23  26  1   
 50  23  27  1   
 51  23  28  1   
 52  24  29  1   
 53  24  50  1   
 54  24  51  1   
 55  25  52  1   
 56  25  53  1   
 57  25  54  1   
 58  26  29  1   
 59  26  55  1   
 60  26  56  1   
 61  27  57  1   
 62  27  58  1   
 63  27  59  1   
 64  28  60  1   
 65  28  61  1   
 66  28  62  1   
 67  29  63  1   
 68  29  64  1   
@<TRIPOS>SUBSTRUCTURE
  1 ****   5 GROUP 4 **** **** 0

# MOE 2024.06 (io_trps.svl 2023.06)
