@<TRIPOS>MOLECULE
NONAME
44 46 1 0 0 
SMALL
USER_CHARGES


@<TRIPOS>ATOM
  1 S       -1.2240    -0.1020    -2.4680 S.3   1 <1>  -0.0800 
  2 C       -1.8270     0.5070    -0.9320 C.2   1 <1>  -0.1400 
  3 C        0.1770     0.9490    -2.3880 C.2   1 <1>  -0.1100 
  4 C       -0.9890     1.4400    -0.4330 C.2   1 <1>  -0.1810 
  5 C       -3.1410    -0.0830    -0.4350 C.3   1 <1>   0.3890 
  6 C        0.1500     1.6880    -1.2650 C.2   1 <1>  -0.1500 
  7 C       -1.1460     2.2040     0.8690 C.3   1 <1>  -0.0590 
  8 N       -2.9840    -1.4990     0.0130 N.pl3 1 <1>  -0.8380 
  9 C       -4.1080    -2.2930     0.1340 C.ar  1 <1>   0.4100 
 10 C       -1.7390    -1.8210     0.7650 C.3   1 <1>   0.1290 
 11 N       -5.2680    -1.6870     0.3190 N.ar  1 <1>  -0.6200 
 12 C       -4.0330    -3.6650     0.0690 C.ar  1 <1>  -0.1500 
 13 C       -6.3100    -2.4860     0.4400 C.ar  1 <1>   0.4700 
 14 C       -5.1860    -4.3970     0.2160 C.ar  1 <1>   0.4100 
 15 N       -6.3510    -3.8020     0.4040 N.ar  1 <1>  -0.6200 
 16 N       -5.1680    -5.7780     0.1800 N.pl3 1 <1>  -0.8380 
 17 C       -6.3720    -6.5090    -0.3010 C.3   1 <1>   0.2090 
 18 C       -4.3770    -6.5020     1.2070 C.3   1 <1>   0.2090 
 19 C       -5.9490    -7.8590    -0.8790 C.3   1 <1>  -0.1600 
 20 C       -3.9250    -7.8470     0.6400 C.3   1 <1>  -0.1600 
 21 C       -5.1320    -8.6440     0.1470 C.3   1 <1>   0.2000 
 22 O       -4.6780    -9.8000    -0.4480 O.3   1 <1>  -0.6800 
 23 H        0.8790     0.9000    -3.2010 H     1 <1>   0.1500 
 24 H       -3.8670    -0.0380    -1.2280 H     1 <1>   0.0800 
 25 H       -3.5160     0.4980     0.3880 H     1 <1>   0.0800 
 26 H        0.8960     2.4110    -0.9830 H     1 <1>   0.1500 
 27 H       -2.0250     1.8880     1.4000 H     1 <1>   0.0800 
 28 H       -1.2270     3.2570     0.6660 H     1 <1>   0.0800 
 29 H       -0.2890     2.0360     1.4960 H     1 <1>   0.0800 
 30 H       -0.9280    -1.9700     0.0720 H     1 <1>   0.0800 
 31 H       -1.8680    -2.7120     1.3520 H     1 <1>   0.0800 
 32 H       -1.4890    -1.0100     1.4260 H     1 <1>   0.0800 
 33 H       -3.1010    -4.1540    -0.1100 H     1 <1>   0.1500 
 34 H       -7.2560    -1.9950     0.5890 H     1 <1>   0.1500 
 35 H       -6.8710    -5.9300    -1.0600 H     1 <1>   0.0800 
 36 H       -7.0550    -6.6480     0.5210 H     1 <1>   0.0800 
 37 H       -4.9900    -6.6550     2.0790 H     1 <1>   0.0800 
 38 H       -3.5190    -5.9200     1.4970 H     1 <1>   0.0800 
 39 H       -5.3660    -7.6790    -1.7640 H     1 <1>   0.0800 
 40 H       -6.8260    -8.4170    -1.1480 H     1 <1>   0.0800 
 41 H       -3.4150    -8.4010     1.4080 H     1 <1>   0.0800 
 42 H       -3.2410    -7.6630    -0.1690 H     1 <1>   0.0800 
 43 H       -5.7550    -8.9270     0.9800 H     1 <1>   0.0800 
 44 H       -4.1260    -9.5760    -1.2200 H     1 <1>   0.4000 
@<TRIPOS>BOND
  1   1   2  1   
  2   1   3  1   
  3   2   4  2   
  4   2   5  1   
  5   3   6  2   
  6   3  23  1   
  7   4   6  1   
  8   4   7  1   
  9   5   8  1   
 10   5  24  1   
 11   5  25  1   
 12   6  26  1   
 13   7  27  1   
 14   7  28  1   
 15   7  29  1   
 16   8   9  1   
 17   8  10  1   
 18   9  11  ar  
 19   9  12  ar  
 20  10  30  1   
 21  10  31  1   
 22  10  32  1   
 23  11  13  ar  
 24  12  14  ar  
 25  12  33  1   
 26  13  15  ar  
 27  13  34  1   
 28  14  15  ar  
 29  14  16  1   
 30  16  17  1   
 31  16  18  1   
 32  17  19  1   
 33  17  35  1   
 34  17  36  1   
 35  18  20  1   
 36  18  37  1   
 37  18  38  1   
 38  19  21  1   
 39  19  39  1   
 40  19  40  1   
 41  20  21  1   
 42  20  41  1   
 43  20  42  1   
 44  21  22  1   
 45  21  43  1   
 46  22  44  1   
@<TRIPOS>SUBSTRUCTURE
  1 ****  12 GROUP 4 **** **** 0

# MOE 2024.06 (io_trps.svl 2023.06)
