@<TRIPOS>MOLECULE
NONAME
50 51 1 0 0 
SMALL
USER_CHARGES


@<TRIPOS>ATOM
  1 S        1.9110    -0.1880     0.3620 S.o2  1 <1>   1.3330 
  2 O        1.8970     0.2370     1.7430 O.2   1 <1>  -0.6500 
  3 O        2.9340    -1.1040    -0.0890 O.2   1 <1>  -0.6500 
  4 N        0.4040    -0.8860     0.0070 N.am  1 <1>  -0.8490 
  5 C        1.9070     1.2870    -0.6600 C.3   1 <1>  -0.0550 
  6 C        0.4140    -1.7010    -1.2120 C.3   1 <1>   0.1160 
  7 C       -0.1210    -1.6720     1.1280 C.3   1 <1>   0.1160 
  8 C        3.1630     2.1640    -0.4860 C.3   1 <1>  -0.0800 
  9 C        2.9930     3.5030    -1.1830 C.3   1 <1>   0.2200 
 10 C        4.3650     1.5890    -1.2360 C.3   1 <1>   0.1200 
 11 N        3.9070     4.4840    -0.5620 N.am  1 <1>  -0.7300 
 12 C        3.4500     3.1960    -2.6100 C.3   1 <1>   0.1200 
 13 O        4.2450     2.0460    -2.5480 O.3   1 <1>  -0.5600 
 14 C        3.5420     5.6330     0.0600 C.2   1 <1>   0.5690 
 15 O        2.3910     5.9920     0.1080 O.2   1 <1>  -0.5700 
 16 C        4.6130     6.4890     0.7180 C.3   1 <1>   0.0440 
 17 C        5.9780     5.8060     0.7220 C.ar  1 <1>  -0.1440 
 18 C        6.2950     4.8930     1.7150 C.ar  1 <1>  -0.1500 
 19 C        6.8960     6.0660    -0.2840 C.ar  1 <1>  -0.1500 
 20 C        7.5130     4.2360     1.7040 C.ar  1 <1>  -0.1440 
 21 C        8.1190     5.4170    -0.3020 C.ar  1 <1>  -0.1440 
 22 C        8.4210     4.5030     0.6930 C.ar  1 <1>  -0.1500 
 23 C        7.8540     3.2330     2.7900 C.3   1 <1>  -0.0970 
 24 C        9.1210     5.7000    -1.4070 C.3   1 <1>  -0.0970 
 25 H        1.8030     1.0090    -1.6900 H     1 <1>   0.0800 
 26 H        1.0460     1.8680    -0.3890 H     1 <1>   0.0800 
 27 H       -0.5820    -2.0400    -1.4380 H     1 <1>   0.0800 
 28 H        1.0560    -2.5590    -1.0870 H     1 <1>   0.0800 
 29 H        0.7730    -1.1220    -2.0450 H     1 <1>   0.0800 
 30 H       -1.0810    -2.0870     0.8760 H     1 <1>   0.0800 
 31 H       -0.2440    -1.0440     1.9940 H     1 <1>   0.0800 
 32 H        0.5580    -2.4720     1.3740 H     1 <1>   0.0800 
 33 H        3.3680     2.2890     0.5630 H     1 <1>   0.0800 
 34 H        1.9820     3.8720    -1.1560 H     1 <1>   0.0800 
 35 H        4.4090     0.5150    -1.2400 H     1 <1>   0.0800 
 36 H        5.2860     1.9810    -0.8370 H     1 <1>   0.0800 
 37 H        4.9030     4.2370    -0.5690 H     1 <1>   0.3700 
 38 H        4.0180     4.0020    -3.0400 H     1 <1>   0.0800 
 39 H        2.6060     2.9700    -3.2380 H     1 <1>   0.0800 
 40 H        4.6680     7.4250     0.1940 H     1 <1>   0.0800 
 41 H        4.3090     6.6970     1.7270 H     1 <1>   0.0800 
 42 H        5.5860     4.6870     2.4990 H     1 <1>   0.1500 
 43 H        6.6580     6.7720    -1.0600 H     1 <1>   0.1500 
 44 H        9.3700     3.9960     0.6810 H     1 <1>   0.1500 
 45 H        8.4470     2.4310     2.3870 H     1 <1>   0.0800 
 46 H        6.9590     2.8120     3.2130 H     1 <1>   0.0800 
 47 H        8.4110     3.7180     3.5710 H     1 <1>   0.0800 
 48 H       10.1250     5.6150    -1.0330 H     1 <1>   0.0800 
 49 H        8.9870     6.6950    -1.7930 H     1 <1>   0.0800 
 50 H        8.9870     4.9950    -2.2080 H     1 <1>   0.0800 
@<TRIPOS>BOND
  1   1   2  2   
  2   1   3  2   
  3   1   4  am  
  4   1   5  1   
  5   4   6  1   
  6   4   7  1   
  7   5   8  1   
  8   5  25  1   
  9   5  26  1   
 10   6  27  1   
 11   6  28  1   
 12   6  29  1   
 13   7  30  1   
 14   7  31  1   
 15   7  32  1   
 16   8   9  1   
 17   8  10  1   
 18   8  33  1   
 19   9  11  1   
 20   9  12  1   
 21   9  34  1   
 22  10  13  1   
 23  10  35  1   
 24  10  36  1   
 25  11  14  am  
 26  11  37  1   
 27  12  13  1   
 28  12  38  1   
 29  12  39  1   
 30  14  15  2   
 31  14  16  1   
 32  16  17  1   
 33  16  40  1   
 34  16  41  1   
 35  17  18  ar  
 36  17  19  ar  
 37  18  20  ar  
 38  18  42  1   
 39  19  21  ar  
 40  19  43  1   
 41  20  22  ar  
 42  20  23  1   
 43  21  22  ar  
 44  21  24  1   
 45  22  44  1   
 46  23  45  1   
 47  23  46  1   
 48  23  47  1   
 49  24  48  1   
 50  24  49  1   
 51  24  50  1   
@<TRIPOS>SUBSTRUCTURE
  1 ****   8 GROUP 4 **** **** 0

# MOE 2024.06 (io_trps.svl 2023.06)
