@<TRIPOS>MOLECULE
NONAME
42 45 1 0 0 
SMALL
USER_CHARGES


@<TRIPOS>ATOM
  1 S        0.2700    -0.3650    -0.1390 S.3   1 <1>  -0.0800 
  2 C       -1.3430    -0.4510     0.5900 C.2   1 <1>   0.4620 
  3 C        0.0060     1.3180    -0.5260 C.ar  1 <1>   0.0400 
  4 N       -1.9890     0.6590     0.5430 N.2   1 <1>  -0.5650 
  5 N       -1.7790    -1.6370     1.1400 N.pl3 1 <1>  -0.8220 
  6 C       -1.2550     1.6580    -0.0760 C.ar  1 <1>   0.2270 
  7 C        0.8580     2.1990    -1.1620 C.ar  1 <1>  -0.1500 
  8 C       -3.0590    -1.6590     1.9060 C.3   1 <1>   0.2090 
  9 C       -1.0550    -2.9290     0.9850 C.3   1 <1>   0.2090 
 10 C       -1.6860     2.9630    -0.2760 C.ar  1 <1>  -0.1500 
 11 C        0.4110     3.4960    -1.3530 C.ar  1 <1>  -0.1500 
 12 C       -4.2450    -1.9970     0.9910 C.3   1 <1>   0.1100 
 13 C       -1.9890    -4.1380     0.8540 C.3   1 <1>  -0.1600 
 14 C       -0.8550     3.8740    -0.9110 C.ar  1 <1>  -0.1500 
 15 N       -4.3440    -3.4290     0.6280 N.3   1 <1>  -0.8100 
 16 C       -3.1640    -3.9200    -0.1040 C.3   1 <1>   0.1100 
 17 C       -5.6060    -3.6670    -0.1300 C.3   1 <1>   0.2900 
 18 C       -6.0700    -5.1230    -0.2050 C.2   1 <1>   0.2980 
 19 O       -5.4800    -5.9560    -1.0310 O.3   1 <1>  -0.2800 
 20 N       -7.0490    -5.6340     0.4490 N.2   1 <1>  -0.5650 
 21 C       -6.1090    -7.0870    -0.8890 C.2   1 <1>  -0.0100 
 22 C       -7.0950    -6.9430     0.0190 C.2   1 <1>  -0.0060 
 23 C       -8.0120    -8.0110     0.4260 C.2   1 <1>   1.0330 
 24 O       -7.8780    -9.1450    -0.0780 O.co2 1 <1>  -0.9000 
 25 O       -8.9320    -7.8420     1.2490 O.co2 1 <1>  -0.9000 
 26 H        1.8310     1.8810    -1.4930 H     1 <1>   0.1500 
 27 H       -3.2260    -0.6870     2.3370 H     1 <1>   0.0800 
 28 H       -3.0060    -2.3630     2.7180 H     1 <1>   0.0800 
 29 H       -0.4030    -3.0690     1.8300 H     1 <1>   0.0800 
 30 H       -0.4460    -2.8930     0.1000 H     1 <1>   0.0800 
 31 H       -2.6630     3.2460     0.0690 H     1 <1>   0.1500 
 32 H        1.0430     4.2170    -1.8440 H     1 <1>   0.1500 
 33 H       -4.1870    -1.3890     0.1050 H     1 <1>   0.0800 
 34 H       -5.1400    -1.7220     1.5210 H     1 <1>   0.0800 
 35 H       -2.3550    -4.4420     1.8180 H     1 <1>   0.0800 
 36 H       -1.3990    -4.9530     0.4780 H     1 <1>   0.0800 
 37 H       -1.1910     4.8850    -1.0650 H     1 <1>   0.1500 
 38 H       -3.3900    -4.8730    -0.5460 H     1 <1>   0.0800 
 39 H       -2.8980    -3.2410    -0.8970 H     1 <1>   0.0800 
 40 H       -5.5060    -3.2840    -1.1300 H     1 <1>   0.0800 
 41 H       -6.4030    -3.1260     0.3480 H     1 <1>   0.0800 
 42 H       -5.8210    -7.9560    -1.4520 H     1 <1>   0.1500 
@<TRIPOS>BOND
  1   1   2  1   
  2   1   3  1   
  3   2   4  2   
  4   2   5  1   
  5   3   6  ar  
  6   3   7  ar  
  7   4   6  1   
  8   5   8  1   
  9   5   9  1   
 10   6  10  ar  
 11   7  11  ar  
 12   7  26  1   
 13   8  12  1   
 14   8  27  1   
 15   8  28  1   
 16   9  13  1   
 17   9  29  1   
 18   9  30  1   
 19  10  14  ar  
 20  10  31  1   
 21  11  14  ar  
 22  11  32  1   
 23  12  15  1   
 24  12  33  1   
 25  12  34  1   
 26  13  16  1   
 27  13  35  1   
 28  13  36  1   
 29  14  37  1   
 30  15  16  1   
 31  15  17  1   
 32  16  38  1   
 33  16  39  1   
 34  17  18  1   
 35  17  40  1   
 36  17  41  1   
 37  18  19  1   
 38  18  20  2   
 39  19  21  1   
 40  20  22  1   
 41  21  22  2   
 42  21  42  1   
 43  22  23  1   
 44  23  24  ar  
 45  23  25  ar  
@<TRIPOS>SUBSTRUCTURE
  1 ****  12 GROUP 4 **** **** 0

# MOE 2024.06 (io_trps.svl 2023.06)
