@<TRIPOS>MOLECULE
NONAME
50 52 1 0 0 
SMALL
USER_CHARGES


@<TRIPOS>ATOM
  1 O        0.1720    -2.3720    -1.6770 O.2   1 <1>  -0.5700 
  2 C        0.0430    -2.5970    -0.4880 C.2   1 <1>   0.5440 
  3 N       -1.1190    -2.4070     0.2120 N.am  1 <1>  -0.6600 
  4 C        1.0400    -3.1860     0.3550 C.ar  1 <1>   0.0860 
  5 C       -2.4410    -1.9620    -0.3420 C.3   1 <1>   0.3000 
  6 C       -0.9630    -2.9660     1.5890 C.3   1 <1>   0.2840 
  7 C        0.4830    -3.4290     1.5940 C.ar  1 <1>  -0.1440 
  8 C        2.3640    -3.5320     0.1160 C.ar  1 <1>  -0.1500 
  9 C       -3.5230    -1.9480     0.7640 C.3   1 <1>  -0.1600 
 10 C       -2.2760    -0.5120    -0.8300 C.3   1 <1>  -0.1600 
 11 C       -2.8520    -2.8820    -1.5170 C.3   1 <1>  -0.0990 
 12 C        1.2150    -4.0150     2.6100 C.ar  1 <1>  -0.1500 
 13 C        3.1080    -4.1190     1.1260 C.ar  1 <1>  -0.1500 
 14 C       -4.8010    -1.2270     0.3210 C.3   1 <1>   0.1200 
 15 C       -3.6190     0.1340    -1.1910 C.3   1 <1>   0.1200 
 16 C       -2.7400    -4.3530    -1.1960 C.2   1 <1>   0.5690 
 17 C        2.5360    -4.3600     2.3680 C.ar  1 <1>  -0.1500 
 18 O       -4.4770     0.0620    -0.0960 O.3   1 <1>  -0.5600 
 19 O       -3.6430    -4.9000    -0.6100 O.2   1 <1>  -0.5700 
 20 N       -1.6210    -5.0070    -1.5910 N.am  1 <1>  -0.7300 
 21 C       -1.3160    -6.4210    -1.3520 C.3   1 <1>   0.2200 
 22 C       -0.2300    -6.4970    -0.2700 C.3   1 <1>  -0.1600 
 23 C       -0.8770    -7.0250    -2.6840 C.3   1 <1>  -0.2400 
 24 C        0.1100    -7.9320     0.1560 C.3   1 <1>  -0.2400 
 25 H       -1.6300    -3.7980     1.7390 H     1 <1>   0.0800 
 26 H       -1.1220    -2.2040     2.3320 H     1 <1>   0.0800 
 27 H        2.7930    -3.3400    -0.8530 H     1 <1>   0.1500 
 28 H       -3.1610    -1.4190     1.6260 H     1 <1>   0.0800 
 29 H       -3.7790    -2.9470     1.0630 H     1 <1>   0.0800 
 30 H       -1.6320    -0.4750    -1.6900 H     1 <1>   0.0800 
 31 H       -1.8210     0.0790    -0.0560 H     1 <1>   0.0800 
 32 H       -2.2420    -2.6720    -2.3750 H     1 <1>   0.0800 
 33 H       -3.8620    -2.6890    -1.8190 H     1 <1>   0.0800 
 34 H        0.7720    -4.2030     3.5730 H     1 <1>   0.1500 
 35 H        4.1350    -4.3900     0.9480 H     1 <1>   0.1500 
 36 H       -5.4840    -1.1380     1.1480 H     1 <1>   0.0800 
 37 H       -5.3030    -1.7380    -0.4820 H     1 <1>   0.0800 
 38 H       -4.0860    -0.3530    -2.0300 H     1 <1>   0.0800 
 39 H       -3.4800     1.1750    -1.4280 H     1 <1>   0.0800 
 40 H        3.1220    -4.8180     3.1470 H     1 <1>   0.1500 
 41 H       -0.8600    -4.4540    -1.9990 H     1 <1>   0.3700 
 42 H       -2.2060    -6.9230    -1.0050 H     1 <1>   0.0800 
 43 H       -0.5830    -5.9690     0.5980 H     1 <1>   0.0800 
 44 H        0.6650    -6.0120    -0.6180 H     1 <1>   0.0800 
 45 H        0.0370    -6.5710    -3.0240 H     1 <1>   0.0800 
 46 H       -1.6450    -6.8770    -3.4220 H     1 <1>   0.0800 
 47 H       -0.7190    -8.0820    -2.5790 H     1 <1>   0.0800 
 48 H       -0.7770    -8.4490     0.4780 H     1 <1>   0.0800 
 49 H        0.8080    -7.9110     0.9750 H     1 <1>   0.0800 
 50 H        0.5590    -8.4790    -0.6530 H     1 <1>   0.0800 
@<TRIPOS>BOND
  1   1   2  2   
  2   2   3  am  
  3   2   4  1   
  4   3   5  1   
  5   3   6  1   
  6   4   7  ar  
  7   4   8  ar  
  8   5   9  1   
  9   5  10  1   
 10   5  11  1   
 11   6   7  1   
 12   6  25  1   
 13   6  26  1   
 14   7  12  ar  
 15   8  13  ar  
 16   8  27  1   
 17   9  14  1   
 18   9  28  1   
 19   9  29  1   
 20  10  15  1   
 21  10  30  1   
 22  10  31  1   
 23  11  16  1   
 24  11  32  1   
 25  11  33  1   
 26  12  17  ar  
 27  12  34  1   
 28  13  17  ar  
 29  13  35  1   
 30  14  18  1   
 31  14  36  1   
 32  14  37  1   
 33  15  18  1   
 34  15  38  1   
 35  15  39  1   
 36  16  19  2   
 37  16  20  am  
 38  17  40  1   
 39  20  21  1   
 40  20  41  1   
 41  21  22  1   
 42  21  23  1   
 43  21  42  1   
 44  22  24  1   
 45  22  43  1   
 46  22  44  1   
 47  23  45  1   
 48  23  46  1   
 49  23  47  1   
 50  24  48  1   
 51  24  49  1   
 52  24  50  1   
@<TRIPOS>SUBSTRUCTURE
  1 ****   3 GROUP 4 **** **** 0

# MOE 2024.06 (io_trps.svl 2023.06)
