@<TRIPOS>MOLECULE
NONAME
36 38 1 0 0 
SMALL
USER_CHARGES


@<TRIPOS>ATOM
  1 CL       0.5600    -0.5260     2.3130 Cl    1 <1>  -0.1770 
  2 C        1.5860    -1.1310     1.0230 C.ar  1 <1>   0.1770 
  3 C        1.2440    -2.2860     0.2990 C.ar  1 <1>   0.4100 
  4 C        2.7400    -0.4390     0.7450 C.ar  1 <1>  -0.1500 
  5 N        2.0130    -2.7590    -0.6820 N.ar  1 <1>  -0.6200 
  6 N        0.0730    -2.9920     0.5630 N.pl3 1 <1>  -0.8380 
  7 C        3.5280    -0.9410    -0.2720 C.ar  1 <1>  -0.1500 
  8 C        3.1230    -2.0840    -0.9380 C.ar  1 <1>   0.1600 
  9 C       -1.2220    -2.3350     0.2400 C.3   1 <1>   0.2090 
 10 C       -0.0220    -4.4450     0.2540 C.3   1 <1>   0.2090 
 11 C       -2.1260    -3.4400    -0.3100 C.3   1 <1>   0.2000 
 12 C       -1.5160    -4.7480     0.1840 C.3   1 <1>  -0.0800 
 13 O       -3.4300    -3.3230     0.1500 O.3   1 <1>  -0.6800 
 14 C       -1.8620    -5.9480    -0.7110 C.3   1 <1>  -0.0170 
 15 C       -1.1710    -7.2110    -0.2230 C.ar  1 <1>  -0.1430 
 16 C        0.0070    -7.6640    -0.7800 C.ar  1 <1>  -0.1500 
 17 C       -1.6860    -7.9660     0.8110 C.ar  1 <1>  -0.1500 
 18 C        0.5990    -8.8150    -0.2880 C.ar  1 <1>   0.1600 
 19 C       -1.0150    -9.1030     1.2290 C.ar  1 <1>   0.1600 
 20 N        0.1170    -9.5450     0.7050 N.ar  1 <1>  -0.6200 
 21 H        3.0080     0.4440     1.2950 H     1 <1>   0.1500 
 22 H        4.4470    -0.4510    -0.5430 H     1 <1>   0.1500 
 23 H        3.7470    -2.4660    -1.7280 H     1 <1>   0.1500 
 24 H       -1.6360    -1.9170     1.1410 H     1 <1>   0.0800 
 25 H       -1.0820    -1.5600    -0.4930 H     1 <1>   0.0800 
 26 H        0.4380    -4.6550    -0.6970 H     1 <1>   0.0800 
 27 H        0.4630    -5.0280     1.0180 H     1 <1>   0.0800 
 28 H       -2.1380    -3.3940    -1.3860 H     1 <1>   0.0800 
 29 H       -1.8450    -4.9420     1.1900 H     1 <1>   0.0800 
 30 H       -3.4450    -3.3540     1.1260 H     1 <1>   0.4000 
 31 H       -1.5670    -5.7450    -1.7260 H     1 <1>   0.0800 
 32 H       -2.9280    -6.0980    -0.7090 H     1 <1>   0.0800 
 33 H        0.4730    -7.1350    -1.5910 H     1 <1>   0.1500 
 34 H       -2.6020    -7.6800     1.2970 H     1 <1>   0.1500 
 35 H        1.5190    -9.1530    -0.7340 H     1 <1>   0.1500 
 36 H       -1.4310    -9.6800     2.0370 H     1 <1>   0.1500 
@<TRIPOS>BOND
  1   1   2  1   
  2   2   3  ar  
  3   2   4  ar  
  4   3   5  ar  
  5   3   6  1   
  6   4   7  ar  
  7   4  21  1   
  8   5   8  ar  
  9   6   9  1   
 10   6  10  1   
 11   7   8  ar  
 12   7  22  1   
 13   8  23  1   
 14   9  11  1   
 15   9  24  1   
 16   9  25  1   
 17  10  12  1   
 18  10  26  1   
 19  10  27  1   
 20  11  12  1   
 21  11  13  1   
 22  11  28  1   
 23  12  14  1   
 24  12  29  1   
 25  13  30  1   
 26  14  15  1   
 27  14  31  1   
 28  14  32  1   
 29  15  16  ar  
 30  15  17  ar  
 31  16  18  ar  
 32  16  33  1   
 33  17  19  ar  
 34  17  34  1   
 35  18  20  ar  
 36  18  35  1   
 37  19  20  ar  
 38  19  36  1   
@<TRIPOS>SUBSTRUCTURE
  1 ****  10 GROUP 4 **** **** 0

# MOE 2024.06 (io_trps.svl 2023.06)
