@<TRIPOS>MOLECULE
NONAME
54 56 1 0 0 
SMALL
USER_CHARGES


@<TRIPOS>ATOM
  1 O        0.4780    -1.4780    -1.0280 O.2   1 <1>  -0.5700 
  2 C        1.0190    -1.4500     0.0600 C.2   1 <1>   0.5440 
  3 N        1.5330    -0.2650     0.5080 N.am  1 <1>  -0.7300 
  4 C        1.1060    -2.6490     0.8760 C.ar  1 <1>   0.0860 
  5 C        1.5290     1.0080    -0.2430 C.3   1 <1>   0.1400 
  6 C        0.1150    -3.6270     0.8170 C.ar  1 <1>  -0.1500 
  7 C        2.1760    -2.8730     1.7450 C.ar  1 <1>  -0.1500 
  8 C        2.9090     1.6570    -0.1230 C.3   1 <1>  -0.1600 
  9 C        0.1730    -4.7740     1.5880 C.ar  1 <1>   0.0830 
 10 C        2.2450    -4.0130     2.5260 C.ar  1 <1>  -0.1500 
 11 C        3.0250     2.9540    -0.9480 C.3   1 <1>  -0.0800 
 12 O       -0.8430    -5.6580     1.4440 O.3   1 <1>  -0.3630 
 13 C        1.2450    -4.9660     2.4540 C.ar  1 <1>  -0.1500 
 14 C        4.4430     3.5110    -0.8780 C.3   1 <1>   0.1200 
 15 C        2.2300     4.1110    -0.3540 C.3   1 <1>  -0.1600 
 16 C       -0.7760    -6.9570     2.0150 C.3   1 <1>   0.1810 
 17 O        4.4790     4.2610     0.2900 O.3   1 <1>  -0.5600 
 18 C        3.2370     4.8420     0.5340 C.3   1 <1>   0.1200 
 19 C       -1.9670    -7.8180     1.6000 C.2   1 <1>   0.5690 
 20 O       -2.6840    -8.2160     2.4900 O.2   1 <1>  -0.5700 
 21 N       -2.1950    -8.1590     0.2840 N.am  1 <1>  -0.6600 
 22 C       -3.3630    -8.9990    -0.1040 C.3   1 <1>   0.1400 
 23 C       -1.3790    -7.6880    -0.8720 C.3   1 <1>   0.1400 
 24 C       -2.8850   -10.2140    -0.9070 C.3   1 <1>  -0.1600 
 25 C       -0.8830    -8.8910    -1.6810 C.3   1 <1>  -0.1600 
 26 C       -2.0430    -9.7950    -2.1200 C.3   1 <1>  -0.1600 
 27 H        1.8790    -0.2040     1.4660 H     1 <1>   0.3700 
 28 H        0.7650     1.6480     0.1610 H     1 <1>   0.0800 
 29 H        1.3020     0.8210    -1.2800 H     1 <1>   0.0800 
 30 H       -0.7190    -3.4880     0.1520 H     1 <1>   0.1500 
 31 H        2.9700    -2.1500     1.8050 H     1 <1>   0.1500 
 32 H        3.6410     0.9560    -0.4830 H     1 <1>   0.0800 
 33 H        3.1230     1.8670     0.9110 H     1 <1>   0.0800 
 34 H        3.0790    -4.1610     3.1910 H     1 <1>   0.1500 
 35 H        2.7490     2.7620    -1.9710 H     1 <1>   0.0800 
 36 H        1.3190    -5.8400     3.0740 H     1 <1>   0.1500 
 37 H        4.6380     4.1750    -1.7030 H     1 <1>   0.0800 
 38 H        5.1990     2.7470    -0.8340 H     1 <1>   0.0800 
 39 H        1.3660     3.8050     0.2070 H     1 <1>   0.0800 
 40 H        1.9090     4.7770    -1.1350 H     1 <1>   0.0800 
 41 H       -0.7730    -6.8520     3.0840 H     1 <1>   0.0800 
 42 H        0.1330    -7.4280     1.6910 H     1 <1>   0.0800 
 43 H        3.0120     4.7170     1.5790 H     1 <1>   0.0800 
 44 H        3.2950     5.8890     0.2910 H     1 <1>   0.0800 
 45 H       -4.0350    -8.4060    -0.7010 H     1 <1>   0.0800 
 46 H       -3.9010    -9.3340     0.7660 H     1 <1>   0.0800 
 47 H       -0.5330    -7.1090    -0.5490 H     1 <1>   0.0800 
 48 H       -1.9910    -7.0570    -1.4940 H     1 <1>   0.0800 
 49 H       -3.7380   -10.7790    -1.2350 H     1 <1>   0.0800 
 50 H       -2.3030   -10.8470    -0.2590 H     1 <1>   0.0800 
 51 H       -0.1920    -9.4540    -1.0790 H     1 <1>   0.0800 
 52 H       -0.3520    -8.5400    -2.5480 H     1 <1>   0.0800 
 53 H       -2.6650    -9.2640    -2.8190 H     1 <1>   0.0800 
 54 H       -1.6570   -10.6700    -2.6150 H     1 <1>   0.0800 
@<TRIPOS>BOND
  1   1   2  2   
  2   2   3  am  
  3   2   4  1   
  4   3   5  1   
  5   3  27  1   
  6   4   6  ar  
  7   4   7  ar  
  8   5   8  1   
  9   5  28  1   
 10   5  29  1   
 11   6   9  ar  
 12   6  30  1   
 13   7  10  ar  
 14   7  31  1   
 15   8  11  1   
 16   8  32  1   
 17   8  33  1   
 18   9  12  1   
 19   9  13  ar  
 20  10  13  ar  
 21  10  34  1   
 22  11  14  1   
 23  11  15  1   
 24  11  35  1   
 25  12  16  1   
 26  13  36  1   
 27  14  17  1   
 28  14  37  1   
 29  14  38  1   
 30  15  18  1   
 31  15  39  1   
 32  15  40  1   
 33  16  19  1   
 34  16  41  1   
 35  16  42  1   
 36  17  18  1   
 37  18  43  1   
 38  18  44  1   
 39  19  20  2   
 40  19  21  am  
 41  21  22  1   
 42  21  23  1   
 43  22  24  1   
 44  22  45  1   
 45  22  46  1   
 46  23  25  1   
 47  23  47  1   
 48  23  48  1   
 49  24  26  1   
 50  24  49  1   
 51  24  50  1   
 52  25  26  1   
 53  25  51  1   
 54  25  52  1   
 55  26  53  1   
 56  26  54  1   
@<TRIPOS>SUBSTRUCTURE
  1 ****   6 GROUP 4 **** **** 0

# MOE 2024.06 (io_trps.svl 2023.06)
