@<TRIPOS>MOLECULE
NONAME
45 47 1 0 0 
SMALL
USER_CHARGES


@<TRIPOS>ATOM
  1 O       -0.5370     0.2130     1.4170 O.2   1 <1>  -0.5700 
  2 C       -1.5060     0.8960     1.1380 C.2   1 <1>   0.7160 
  3 N       -2.7190     0.2780     0.9360 N.am  1 <1>  -0.6600 
  4 C       -1.3750     2.3260     0.9940 C.2   1 <1>  -0.0860 
  5 C       -3.8040     0.8490     0.0940 C.3   1 <1>   0.1400 
  6 C       -2.9210    -1.1820     1.0790 C.3   1 <1>   0.1400 
  7 C       -0.4420     3.1000     0.3680 C.2   1 <1>  -0.3320 
  8 C       -2.2630     3.2660     1.5210 C.2   1 <1>   0.1390 
  9 C       -4.7150    -0.3300    -0.2810 C.3   1 <1>   0.2000 
 10 C       -3.8210    -1.5610    -0.0970 C.3   1 <1>  -0.0800 
 11 N       -0.8060     4.3850     0.5320 N.pl3 1 <1>   0.3140 
 12 C        0.8010     2.6480    -0.3850 C.3   1 <1>  -0.0600 
 13 N       -1.9410     4.4870     1.2400 N.2   1 <1>  -0.7070 
 14 O       -5.7810    -0.4110     0.6220 O.3   1 <1>  -0.5600 
 15 C       -4.5800    -2.8840     0.1100 C.3   1 <1>   0.0200 
 16 C       -0.1090     5.5830     0.0450 C.3   1 <1>   0.0160 
 17 C       -6.8830     0.3840     0.3130 C.3   1 <1>   0.0400 
 18 C       -3.6670    -4.1000     0.1160 C.2   1 <1>  -0.0400 
 19 O       -4.1830    -5.2710     0.3790 O.3   1 <1>  -0.0190 
 20 C       -2.3540    -4.2740    -0.1060 C.2   1 <1>  -0.1500 
 21 N       -3.2880    -6.2160     0.3480 N.2   1 <1>  -0.4100 
 22 C       -2.1760    -5.6440     0.0590 C.2   1 <1>   0.1080 
 23 C       -0.8560    -6.3700    -0.0800 C.3   1 <1>  -0.0590 
 24 H       -4.3480     1.6060     0.6300 H     1 <1>   0.0800 
 25 H       -3.3710     1.2750    -0.7940 H     1 <1>   0.0800 
 26 H       -1.9880    -1.7190     1.0590 H     1 <1>   0.0800 
 27 H       -3.4220    -1.3720     2.0130 H     1 <1>   0.0800 
 28 H       -3.1290     3.0050     2.1070 H     1 <1>   0.1500 
 29 H       -5.1010    -0.2580    -1.2830 H     1 <1>   0.0800 
 30 H       -3.2020    -1.6490    -0.9720 H     1 <1>   0.0800 
 31 H        0.8670     1.5750    -0.3970 H     1 <1>   0.0800 
 32 H        1.6840     3.0330     0.0940 H     1 <1>   0.0800 
 33 H        0.7710     2.9980    -1.4020 H     1 <1>   0.0800 
 34 H       -5.3020    -3.0080    -0.6770 H     1 <1>   0.0800 
 35 H       -5.1170    -2.8550     1.0420 H     1 <1>   0.0800 
 36 H        0.8790     5.6090     0.4630 H     1 <1>   0.0800 
 37 H       -0.6540     6.4560     0.3530 H     1 <1>   0.0800 
 38 H       -0.0570     5.5490    -1.0260 H     1 <1>   0.0800 
 39 H       -7.6210     0.2430     1.0840 H     1 <1>   0.0800 
 40 H       -7.2890     0.0760    -0.6350 H     1 <1>   0.0800 
 41 H       -6.5880     1.4180     0.2830 H     1 <1>   0.0800 
 42 H       -1.5870    -3.5650    -0.3550 H     1 <1>   0.1500 
 43 H       -0.1330    -5.9430     0.5900 H     1 <1>   0.0800 
 44 H       -0.4990    -6.2850    -1.0900 H     1 <1>   0.0800 
 45 H       -0.9830    -7.4100     0.1600 H     1 <1>   0.0800 
@<TRIPOS>BOND
  1   1   2  2   
  2   2   3  am  
  3   2   4  1   
  4   3   5  1   
  5   3   6  1   
  6   4   7  2   
  7   4   8  1   
  8   5   9  1   
  9   5  24  1   
 10   5  25  1   
 11   6  10  1   
 12   6  26  1   
 13   6  27  1   
 14   7  11  1   
 15   7  12  1   
 16   8  13  2   
 17   8  28  1   
 18   9  10  1   
 19   9  14  1   
 20   9  29  1   
 21  10  15  1   
 22  10  30  1   
 23  11  13  1   
 24  11  16  1   
 25  12  31  1   
 26  12  32  1   
 27  12  33  1   
 28  14  17  1   
 29  15  18  1   
 30  15  34  1   
 31  15  35  1   
 32  16  36  1   
 33  16  37  1   
 34  16  38  1   
 35  17  39  1   
 36  17  40  1   
 37  17  41  1   
 38  18  19  1   
 39  18  20  2   
 40  19  21  1   
 41  20  22  1   
 42  20  42  1   
 43  21  22  2   
 44  22  23  1   
 45  23  43  1   
 46  23  44  1   
 47  23  45  1   
@<TRIPOS>SUBSTRUCTURE
  1 ****   3 GROUP 4 **** **** 0

# MOE 2024.06 (io_trps.svl 2023.06)
