@<TRIPOS>MOLECULE
NONAME
51 53 1 0 0 
SMALL
USER_CHARGES


@<TRIPOS>ATOM
  1 O        1.5470     0.4050    -1.2970 O.3   1 <1>  -0.6800 
  2 C        1.5540     0.3540     0.0830 C.3   1 <1>   0.2800 
  3 C        3.0260     0.3330     0.5690 C.3   1 <1>  -0.0800 
  4 C        0.8480    -0.9450     0.5080 C.3   1 <1>  -0.1600 
  5 C        0.7560     1.5750     0.5920 C.3   1 <1>  -0.1600 
  6 C        3.7030    -1.0550     0.5950 C.3   1 <1>  -0.0800 
  7 C        3.9600     1.1880    -0.2760 C.3   1 <1>   0.3430 
  8 C        1.5190    -2.2390     0.0010 C.3   1 <1>  -0.1600 
  9 C        1.2870     2.9630     0.1900 C.3   1 <1>  -0.2400 
 10 C        3.0130    -2.0790    -0.3230 C.3   1 <1>  -0.1600 
 11 C        5.1510    -0.8270     0.1480 C.3   1 <1>   0.3430 
 12 N        5.3130     0.6400    -0.0120 N.4   1 <1>  -0.9590 
 13 C        6.2970     1.0350    -1.0470 C.3   1 <1>   0.5240 
 14 C        6.4660     2.5320    -0.9520 C.2   1 <1>  -0.1810 
 15 C        5.8620     3.4680    -1.7830 C.2   1 <1>   0.1390 
 16 C        7.1900     3.2660    -0.0770 C.2   1 <1>  -0.3020 
 17 N        6.1660     4.6790    -1.4490 N.2   1 <1>  -0.7070 
 18 N        7.0010     4.5660    -0.3940 N.pl3 1 <1>   0.3140 
 19 C        7.6140     5.7410     0.2940 C.3   1 <1>   0.1760 
 20 C        6.5290     6.6310     0.9170 C.3   1 <1>  -0.2400 
 21 C        8.4880     6.5450    -0.6790 C.3   1 <1>  -0.2400 
 22 H        0.6250     0.3450    -1.6160 H     1 <1>   0.4000 
 23 H        3.0480     0.7160     1.5740 H     1 <1>   0.0800 
 24 H        0.8430    -0.9770     1.5840 H     1 <1>   0.0800 
 25 H       -0.1830    -0.9310     0.1990 H     1 <1>   0.0800 
 26 H       -0.2590     1.4910     0.2410 H     1 <1>   0.0800 
 27 H        0.7070     1.5340     1.6670 H     1 <1>   0.0800 
 28 H        3.6950    -1.4420     1.6000 H     1 <1>   0.0800 
 29 H        3.8980     2.2330    -0.0200 H     1 <1>   0.0800 
 30 H        3.7170     1.0660    -1.3190 H     1 <1>   0.0800 
 31 H        1.3910    -3.0070     0.7450 H     1 <1>   0.0800 
 32 H        1.0140    -2.5740    -0.8900 H     1 <1>   0.0800 
 33 H        1.4310     3.0290    -0.8740 H     1 <1>   0.0800 
 34 H        2.2100     3.1870     0.6900 H     1 <1>   0.0800 
 35 H        0.5730     3.7160     0.4750 H     1 <1>   0.0800 
 36 H        3.1030    -1.7540    -1.3460 H     1 <1>   0.0800 
 37 H        3.4950    -3.0390    -0.2480 H     1 <1>   0.0800 
 38 H        5.3110    -1.3200    -0.7970 H     1 <1>   0.0800 
 39 H        5.8480    -1.2200     0.8720 H     1 <1>   0.0800 
 40 H        5.6330     1.0480     0.8740 H     1 <1>   0.4500 
 41 H        7.2440     0.5560    -0.8640 H     1 <1>   0.0800 
 42 H        5.9480     0.7580    -2.0290 H     1 <1>   0.0800 
 43 H        5.2090     3.2420    -2.6120 H     1 <1>   0.1500 
 44 H        7.8220     2.9600     0.7370 H     1 <1>   0.1500 
 45 H        8.2410     5.3650     1.0830 H     1 <1>   0.0800 
 46 H        5.8890     7.0300     0.1490 H     1 <1>   0.0800 
 47 H        6.9810     7.4520     1.4440 H     1 <1>   0.0800 
 48 H        5.9350     6.0660     1.6110 H     1 <1>   0.0800 
 49 H        7.8870     6.9440    -1.4780 H     1 <1>   0.0800 
 50 H        9.2540     5.9170    -1.0970 H     1 <1>   0.0800 
 51 H        8.9600     7.3630    -0.1650 H     1 <1>   0.0800 
@<TRIPOS>BOND
  1   1   2  1   
  2   1  22  1   
  3   2   3  1   
  4   2   4  1   
  5   2   5  1   
  6   3   6  1   
  7   3   7  1   
  8   3  23  1   
  9   4   8  1   
 10   4  24  1   
 11   4  25  1   
 12   5   9  1   
 13   5  26  1   
 14   5  27  1   
 15   6  10  1   
 16   6  11  1   
 17   6  28  1   
 18   7  12  1   
 19   7  29  1   
 20   7  30  1   
 21   8  10  1   
 22   8  31  1   
 23   8  32  1   
 24   9  33  1   
 25   9  34  1   
 26   9  35  1   
 27  10  36  1   
 28  10  37  1   
 29  11  12  1   
 30  11  38  1   
 31  11  39  1   
 32  12  13  1   
 33  12  40  1   
 34  13  14  1   
 35  13  41  1   
 36  13  42  1   
 37  14  15  1   
 38  14  16  2   
 39  15  17  2   
 40  15  43  1   
 41  16  18  1   
 42  16  44  1   
 43  17  18  1   
 44  18  19  1   
 45  19  20  1   
 46  19  21  1   
 47  19  45  1   
 48  20  46  1   
 49  20  47  1   
 50  20  48  1   
 51  21  49  1   
 52  21  50  1   
 53  21  51  1   
@<TRIPOS>SUBSTRUCTURE
  1 ****   7 GROUP 4 **** **** 0

# MOE 2024.06 (io_trps.svl 2023.06)
