@<TRIPOS>MOLECULE
NONAME
53 56 1 0 0 
SMALL
USER_CHARGES


@<TRIPOS>ATOM
  1 CL      -0.6830     0.3800     0.0940 Cl    1 <1>  -0.1770 
  2 C       -0.4110     2.0410    -0.3590 C.ar  1 <1>   0.1770 
  3 C       -1.0560     3.0480     0.3260 C.ar  1 <1>  -0.1500 
  4 C        0.4480     2.3270    -1.4030 C.ar  1 <1>  -0.1500 
  5 C       -0.8500     4.3710    -0.0310 C.ar  1 <1>   0.0820 
  6 C        0.6670     3.6460    -1.7500 C.ar  1 <1>  -0.1500 
  7 O       -1.5560     5.2760     0.6890 O.3   1 <1>  -0.3630 
  8 C        0.0430     4.6970    -1.0720 C.ar  1 <1>   0.0860 
  9 C       -2.1030     6.4250     0.0820 C.3   1 <1>   0.1200 
 10 C        0.3780     6.0490    -1.4560 C.2   1 <1>   0.5440 
 11 C       -3.3640     6.8340     0.8430 C.3   1 <1>  -0.1600 
 12 O       -0.2210     6.5700    -2.3790 O.2   1 <1>  -0.5700 
 13 N        1.3580     6.7670    -0.8030 N.am  1 <1>  -0.6600 
 14 C       -4.1120     7.9740     0.1330 C.3   1 <1>   0.0960 
 15 C        1.8100     8.1110    -1.2820 C.3   1 <1>   0.1400 
 16 C        2.0170     6.3110     0.4530 C.3   1 <1>   0.1400 
 17 N       -3.3060     9.2100     0.0670 N.pl3 1 <1>   0.3140 
 18 C        1.6040     9.1720    -0.1890 C.3   1 <1>   0.2200 
 19 C        1.7810     7.3490     1.5560 C.3   1 <1>  -0.1600 
 20 N       -3.4320    10.1980     0.9560 N.2   1 <1>  -0.4180 
 21 C       -2.3640     9.5320    -0.8230 C.2   1 <1>  -0.3020 
 22 N        2.1940    10.4610    -0.6160 N.am  1 <1>  -0.7300 
 23 C        2.2560     8.7490     1.1330 C.3   1 <1>  -0.1600 
 24 N       -2.6010    11.1320     0.6490 N.2   1 <1>  -0.2270 
 25 C       -1.9290    10.7390    -0.4380 C.2   1 <1>   0.0460 
 26 C        1.6410    11.6950    -0.6080 C.2   1 <1>   0.5690 
 27 C       -0.8380    11.5850    -1.0660 C.3   1 <1>   0.0210 
 28 O        2.2550    12.6260    -1.0600 O.2   1 <1>  -0.5700 
 29 C        0.2570    11.9300    -0.0430 C.3   1 <1>  -0.0990 
 30 H       -1.7240     2.8060     1.1320 H     1 <1>   0.1500 
 31 H        0.9340     1.5240    -1.9300 H     1 <1>   0.1500 
 32 H        1.3370     3.8800    -2.5600 H     1 <1>   0.1500 
 33 H       -2.3470     6.1890    -0.9400 H     1 <1>   0.0800 
 34 H       -1.3620     7.2050     0.1180 H     1 <1>   0.0800 
 35 H       -3.1050     7.1410     1.8420 H     1 <1>   0.0800 
 36 H       -4.0210     5.9840     0.9080 H     1 <1>   0.0800 
 37 H       -5.0180     8.1980     0.6680 H     1 <1>   0.0800 
 38 H       -4.3750     7.6840    -0.8680 H     1 <1>   0.0800 
 39 H        1.2670     8.4050    -2.1630 H     1 <1>   0.0800 
 40 H        2.8540     8.0490    -1.5330 H     1 <1>   0.0800 
 41 H        3.0730     6.2010     0.2740 H     1 <1>   0.0800 
 42 H        1.6330     5.3590     0.7730 H     1 <1>   0.0800 
 43 H        0.5440     9.2840    -0.0380 H     1 <1>   0.0800 
 44 H        2.3050     7.0450     2.4450 H     1 <1>   0.0800 
 45 H        0.7310     7.3740     1.7910 H     1 <1>   0.0800 
 46 H       -2.0650     8.9040    -1.6430 H     1 <1>   0.1500 
 47 H        3.1510    10.4210    -0.9720 H     1 <1>   0.3700 
 48 H        2.0040     9.4590     1.9010 H     1 <1>   0.0800 
 49 H        3.3260     8.7360     1.0170 H     1 <1>   0.0800 
 50 H       -1.2700    12.4910    -1.4520 H     1 <1>   0.0800 
 51 H       -0.4200    11.0430    -1.8960 H     1 <1>   0.0800 
 52 H        0.1650    12.9630     0.2400 H     1 <1>   0.0800 
 53 H        0.1460    11.3490     0.8530 H     1 <1>   0.0800 
@<TRIPOS>BOND
  1   1   2  1   
  2   2   3  ar  
  3   2   4  ar  
  4   3   5  ar  
  5   3  30  1   
  6   4   6  ar  
  7   4  31  1   
  8   5   7  1   
  9   5   8  ar  
 10   6   8  ar  
 11   6  32  1   
 12   7   9  1   
 13   8  10  1   
 14   9  11  1   
 15   9  33  1   
 16   9  34  1   
 17  10  12  2   
 18  10  13  am  
 19  11  14  1   
 20  11  35  1   
 21  11  36  1   
 22  13  15  1   
 23  13  16  1   
 24  14  17  1   
 25  14  37  1   
 26  14  38  1   
 27  15  18  1   
 28  15  39  1   
 29  15  40  1   
 30  16  19  1   
 31  16  41  1   
 32  16  42  1   
 33  17  20  1   
 34  17  21  1   
 35  18  22  1   
 36  18  23  1   
 37  18  43  1   
 38  19  23  1   
 39  19  44  1   
 40  19  45  1   
 41  20  24  2   
 42  21  25  2   
 43  21  46  1   
 44  22  26  am  
 45  22  47  1   
 46  23  48  1   
 47  23  49  1   
 48  24  25  1   
 49  25  27  1   
 50  26  28  2   
 51  26  29  1   
 52  27  29  1   
 53  27  50  1   
 54  27  51  1   
 55  29  52  1   
 56  29  53  1   
@<TRIPOS>SUBSTRUCTURE
  1 ****  13 GROUP 4 **** **** 0

# MOE 2024.06 (io_trps.svl 2023.06)
