@<TRIPOS>MOLECULE
NONAME
46 47 1 0 0 
SMALL
USER_CHARGES


@<TRIPOS>ATOM
  1 O        5.1220    -1.5030    -0.3090 O.2   1 <1>  -0.5700 
  2 C        3.9110    -1.3850    -0.2900 C.2   1 <1>   0.5440 
  3 N        3.3520    -0.6010    -1.2720 N.am  1 <1>  -0.6600 
  4 C        3.1190    -1.9880     0.7680 C.ar  1 <1>   0.0860 
  5 C        3.9050    -0.6110    -2.6680 C.3   1 <1>   0.1400 
  6 C        2.5450     0.5950    -0.9180 C.3   1 <1>   0.1400 
  7 C        1.7710    -2.2780     0.6310 C.ar  1 <1>  -0.1500 
  8 C        3.6630    -2.3250     2.0010 C.ar  1 <1>  -0.1500 
  9 C        5.2660     0.1120    -2.7920 C.3   1 <1>   0.3430 
 10 C        3.4610     1.7480    -0.4820 C.3   1 <1>  -0.1600 
 11 C        1.0590    -2.8370     1.6760 C.ar  1 <1>   0.3920 
 12 C        2.8730    -2.8850     2.9850 C.ar  1 <1>   0.1600 
 13 N        5.5320     1.0090    -1.6280 N.4   1 <1>  -0.9590 
 14 C        4.5570     2.1270    -1.4850 C.3   1 <1>   0.3430 
 15 O       -0.2510    -3.0750     1.4600 O.3   1 <1>  -0.3630 
 16 N        1.5840    -3.1420     2.8570 N.ar  1 <1>  -0.6200 
 17 C        6.9500     1.4240    -1.5270 C.3   1 <1>   0.5430 
 18 C       -1.0580    -3.6630     2.4620 C.3   1 <1>   0.0400 
 19 C        7.1610     1.9810    -0.1650 C.1   1 <1>  -0.2000 
 20 C        7.2830     2.4190     0.9320 C.1   1 <1>  -0.2000 
 21 C        7.4250     2.9580     2.3150 C.3   1 <1>   0.0400 
 22 C        6.0700     2.9720     3.0240 C.3   1 <1>  -0.2400 
 23 H        3.1970    -0.1560    -3.3380 H     1 <1>   0.0800 
 24 H        4.0280    -1.6320    -2.9880 H     1 <1>   0.0800 
 25 H        1.8700     0.3570    -0.1130 H     1 <1>   0.0800 
 26 H        1.9470     0.8920    -1.7630 H     1 <1>   0.0800 
 27 H        1.2570    -2.0790    -0.2900 H     1 <1>   0.1500 
 28 H        4.7070    -2.1510     2.1900 H     1 <1>   0.1500 
 29 H        5.3050     0.6620    -3.7170 H     1 <1>   0.0800 
 30 H        6.0310    -0.6470    -2.8280 H     1 <1>   0.0800 
 31 H        3.9110     1.5150     0.4680 H     1 <1>   0.0800 
 32 H        2.8440     2.6140    -0.3230 H     1 <1>   0.0800 
 33 H        3.3240    -3.1350     3.9320 H     1 <1>   0.1500 
 34 H        5.3830     0.3790    -0.8130 H     1 <1>   0.4500 
 35 H        5.0620     3.0060    -1.1170 H     1 <1>   0.0800 
 36 H        4.1210     2.3680    -2.4400 H     1 <1>   0.0800 
 37 H        7.1820     2.1660    -2.2730 H     1 <1>   0.0800 
 38 H        7.5970     0.5730    -1.6640 H     1 <1>   0.0800 
 39 H       -2.0560    -3.7650     2.0770 H     1 <1>   0.0800 
 40 H       -1.0580    -3.0250     3.3280 H     1 <1>   0.0800 
 41 H       -0.6560    -4.6300     2.7090 H     1 <1>   0.0800 
 42 H        7.8230     3.9570     2.2700 H     1 <1>   0.0800 
 43 H        8.1170     2.3450     2.8660 H     1 <1>   0.0800 
 44 H        5.3740     3.5950     2.4910 H     1 <1>   0.0800 
 45 H        6.1820     3.3590     4.0210 H     1 <1>   0.0800 
 46 H        5.6700     1.9750     3.0860 H     1 <1>   0.0800 
@<TRIPOS>BOND
  1   1   2  2   
  2   2   3  am  
  3   2   4  1   
  4   3   5  1   
  5   3   6  1   
  6   4   7  ar  
  7   4   8  ar  
  8   5   9  1   
  9   5  23  1   
 10   5  24  1   
 11   6  10  1   
 12   6  25  1   
 13   6  26  1   
 14   7  11  ar  
 15   7  27  1   
 16   8  12  ar  
 17   8  28  1   
 18   9  13  1   
 19   9  29  1   
 20   9  30  1   
 21  10  14  1   
 22  10  31  1   
 23  10  32  1   
 24  11  15  1   
 25  11  16  ar  
 26  12  16  ar  
 27  12  33  1   
 28  13  14  1   
 29  13  17  1   
 30  13  34  1   
 31  14  35  1   
 32  14  36  1   
 33  15  18  1   
 34  17  19  1   
 35  17  37  1   
 36  17  38  1   
 37  18  39  1   
 38  18  40  1   
 39  18  41  1   
 40  19  20  3   
 41  20  21  1   
 42  21  22  1   
 43  21  42  1   
 44  21  43  1   
 45  22  44  1   
 46  22  45  1   
 47  22  46  1   
@<TRIPOS>SUBSTRUCTURE
  1 ****   2 GROUP 4 **** **** 0

# MOE 2024.06 (io_trps.svl 2023.06)
