@<TRIPOS>MOLECULE
NONAME
22 21 1 0 0 
SMALL
USER_CHARGES


@<TRIPOS>ATOM
  1 F        0.2730    -0.2520    -0.4620 F     1 <1>  -0.3400 
  2 C        0.0770     1.0730    -0.3640 C.3   1 <1>   0.5740 
  3 F        0.0890     1.4620    -1.6500 F     1 <1>  -0.3400 
  4 C        1.2460     1.7130     0.4730 C.2   1 <1>   0.9060 
  5 C       -1.3670     1.3290     0.1930 C.3   1 <1>  -0.0800 
  6 O        2.1870     2.3240    -0.0710 O.co2 1 <1>  -0.9000 
  7 O        1.2190     1.6330     1.7180 O.co2 1 <1>  -0.9000 
  8 C       -2.4040     0.3060    -0.3550 C.3   1 <1>  -0.1600 
  9 C       -1.8830     2.7790    -0.0410 C.3   1 <1>  -0.1600 
 10 C       -3.8130     0.4290     0.2460 C.3   1 <1>  -0.2400 
 11 C       -0.9620     3.8920     0.4710 C.3   1 <1>  -0.2400 
 12 H       -1.3040     1.1850     1.2570 H     1 <1>   0.0800 
 13 H       -2.0600    -0.6910    -0.1380 H     1 <1>   0.0800 
 14 H       -2.4640     0.3970    -1.4260 H     1 <1>   0.0800 
 15 H       -2.8220     2.9030     0.4650 H     1 <1>   0.0800 
 16 H       -2.0570     2.9320    -1.0930 H     1 <1>   0.0800 
 17 H       -3.7610     0.4440     1.3210 H     1 <1>   0.0800 
 18 H       -4.4090    -0.4140    -0.0550 H     1 <1>   0.0800 
 19 H       -4.3050     1.3200    -0.0970 H     1 <1>   0.0800 
 20 H       -0.6710     3.7060     1.4920 H     1 <1>   0.0800 
 21 H       -1.4680     4.8390     0.4280 H     1 <1>   0.0800 
 22 H       -0.0730     3.9670    -0.1320 H     1 <1>   0.0800 
@<TRIPOS>BOND
  1   1   2  1   
  2   2   3  1   
  3   2   4  1   
  4   2   5  1   
  5   4   6  ar  
  6   4   7  ar  
  7   5   8  1   
  8   5   9  1   
  9   5  12  1   
 10   8  10  1   
 11   8  13  1   
 12   8  14  1   
 13   9  11  1   
 14   9  15  1   
 15   9  16  1   
 16  10  17  1   
 17  10  18  1   
 18  10  19  1   
 19  11  20  1   
 20  11  21  1   
 21  11  22  1   
@<TRIPOS>SUBSTRUCTURE
  1 ****   2 GROUP 4 **** **** 0

# MOE 2024.06 (io_trps.svl 2023.06)
