@<TRIPOS>MOLECULE
NONAME
51 55 1 0 0 
SMALL
USER_CHARGES


@<TRIPOS>ATOM
  1 S       -0.3220     0.0390    -0.9380 S.3   1 <1>  -0.0800 
  2 C        1.1400    -0.8750    -0.5380 C.2   1 <1>  -0.0450 
  3 C        0.4120     1.5610    -0.4850 C.2   1 <1>  -0.1100 
  4 C        2.0870    -0.0010    -0.1090 C.2   1 <1>  -0.1810 
  5 C        1.1410    -2.3020    -0.7380 C.2   1 <1>   0.7150 
  6 C        1.6750     1.3610    -0.0700 C.2   1 <1>  -0.1810 
  7 C        3.5180    -0.3100     0.2980 C.3   1 <1>   0.0210 
  8 O        2.0440    -2.8290    -1.3590 O.2   1 <1>  -0.5700 
  9 N        0.1470    -3.1210    -0.2300 N.am  1 <1>  -0.6600 
 10 C        2.6740     2.4000     0.4020 C.3   1 <1>   0.0210 
 11 C        4.4700     0.6860    -0.3840 C.3   1 <1>  -0.1600 
 12 C       -0.7110    -2.7550     0.9390 C.3   1 <1>   0.1400 
 13 C        0.0410    -4.5520    -0.6480 C.3   1 <1>   0.1400 
 14 C        4.0440     2.1710    -0.2630 C.3   1 <1>  -0.1600 
 15 C       -2.1860    -3.1630     0.7210 C.3   1 <1>   0.4230 
 16 C       -1.4280    -4.9490    -0.8750 C.3   1 <1>   0.3430 
 17 N       -2.3140    -4.6180     0.3050 N.4   1 <1>  -0.9590 
 18 C       -2.8800    -2.2330    -0.3020 C.3   1 <1>   0.1200 
 19 C       -3.7610    -4.9310     0.0580 C.3   1 <1>   0.5180 
 20 O       -4.2160    -2.6140    -0.4800 O.3   1 <1>  -0.5600 
 21 C       -3.9080    -6.3840    -0.4100 C.3   1 <1>  -0.1950 
 22 C       -4.4080    -3.9300    -0.9250 C.3   1 <1>   0.1200 
 23 C       -5.0570    -7.2140     0.0710 C.3   1 <1>  -0.2000 
 24 C       -3.6600    -7.5380     0.5140 C.3   1 <1>  -0.2000 
 25 H       -0.1800     2.4540    -0.5810 H     1 <1>   0.1500 
 26 H        3.6080    -0.2200     1.3660 H     1 <1>   0.0800 
 27 H        3.7850    -1.3160     0.0230 H     1 <1>   0.0800 
 28 H        2.3170     3.3920     0.1870 H     1 <1>   0.0800 
 29 H        2.7790     2.3080     1.4690 H     1 <1>   0.0800 
 30 H        5.4630     0.5590     0.0120 H     1 <1>   0.0800 
 31 H        4.5100     0.4330    -1.4300 H     1 <1>   0.0800 
 32 H       -0.3340    -3.2620     1.8110 H     1 <1>   0.0800 
 33 H       -0.6540    -1.7020     1.1470 H     1 <1>   0.0800 
 34 H        0.5850    -4.7170    -1.5630 H     1 <1>   0.0800 
 35 H        0.4800    -5.1780     0.1090 H     1 <1>   0.0800 
 36 H        4.0080     2.5890    -1.2540 H     1 <1>   0.0800 
 37 H        4.7910     2.7180     0.2850 H     1 <1>   0.0800 
 38 H       -2.6980    -3.0230     1.6590 H     1 <1>   0.0800 
 39 H       -1.4710    -6.0060    -1.0820 H     1 <1>   0.0800 
 40 H       -1.7830    -4.4300    -1.7510 H     1 <1>   0.0800 
 41 H       -2.0170    -5.2080     1.0890 H     1 <1>   0.4500 
 42 H       -2.3820    -2.2520    -1.2560 H     1 <1>   0.0800 
 43 H       -2.8810    -1.2200     0.0600 H     1 <1>   0.0800 
 44 H       -4.2900    -4.8390     0.9930 H     1 <1>   0.0800 
 45 H       -3.6680    -6.5110    -1.4530 H     1 <1>   0.1000 
 46 H       -5.4690    -4.1030    -0.9800 H     1 <1>   0.0800 
 47 H       -3.9970    -4.0240    -1.9140 H     1 <1>   0.0800 
 48 H       -5.7430    -6.8250     0.8060 H     1 <1>   0.1000 
 49 H       -5.5420    -7.8910    -0.6140 H     1 <1>   0.1000 
 50 H       -3.2080    -8.4380     0.1280 H     1 <1>   0.1000 
 51 H       -3.4250    -7.3810     1.5530 H     1 <1>   0.1000 
@<TRIPOS>BOND
  1   1   2  1   
  2   1   3  1   
  3   2   4  2   
  4   2   5  1   
  5   3   6  2   
  6   3  25  1   
  7   4   6  1   
  8   4   7  1   
  9   5   8  2   
 10   5   9  am  
 11   6  10  1   
 12   7  11  1   
 13   7  26  1   
 14   7  27  1   
 15   9  12  1   
 16   9  13  1   
 17  10  14  1   
 18  10  28  1   
 19  10  29  1   
 20  11  14  1   
 21  11  30  1   
 22  11  31  1   
 23  12  15  1   
 24  12  32  1   
 25  12  33  1   
 26  13  16  1   
 27  13  34  1   
 28  13  35  1   
 29  14  36  1   
 30  14  37  1   
 31  15  17  1   
 32  15  18  1   
 33  15  38  1   
 34  16  17  1   
 35  16  39  1   
 36  16  40  1   
 37  17  19  1   
 38  17  41  1   
 39  18  20  1   
 40  18  42  1   
 41  18  43  1   
 42  19  21  1   
 43  19  22  1   
 44  19  44  1   
 45  20  22  1   
 46  21  23  1   
 47  21  24  1   
 48  21  45  1   
 49  22  46  1   
 50  22  47  1   
 51  23  24  1   
 52  23  48  1   
 53  23  49  1   
 54  24  50  1   
 55  24  51  1   
@<TRIPOS>SUBSTRUCTURE
  1 ****   9 GROUP 4 **** **** 0

# MOE 2024.06 (io_trps.svl 2023.06)
