@<TRIPOS>MOLECULE
NONAME
58 61 1 0 0 
SMALL
USER_CHARGES


@<TRIPOS>ATOM
  1 O        0.8020    -0.6290     0.5440 O.3   1 <1>  -0.5600 
  2 C       -0.4710    -0.9240     0.0460 C.3   1 <1>   0.1200 
  3 C        1.8080    -1.4900     0.1000 C.3   1 <1>   0.1200 
  4 C       -0.9070    -2.3380     0.4720 C.3   1 <1>   0.2090 
  5 C        1.5080    -2.9380     0.5340 C.3   1 <1>   0.2090 
  6 N        0.1300    -3.3620     0.1000 N.pl3 1 <1>  -0.8380 
  7 C       -0.2070    -4.6130    -0.3380 C.ar  1 <1>   0.4610 
  8 N        0.6170    -5.2410    -1.1880 N.ar  1 <1>  -0.1790 
  9 C       -1.3500    -5.2910     0.0100 C.ar  1 <1>  -0.1500 
 10 C        0.3400    -6.4690    -1.6620 C.ar  1 <1>   0.7710 
 11 C       -1.6020    -6.5550    -0.5160 C.ar  1 <1>   0.4100 
 12 N       -0.7340    -7.1390    -1.3440 N.ar  1 <1>  -0.6200 
 13 N        1.1930    -7.0570    -2.5080 N.pl3 1 <1>  -0.9000 
 14 N       -2.7350    -7.2690    -0.2130 N.pl3 1 <1>  -0.8380 
 15 C       -2.8400    -8.7300    -0.5680 C.3   1 <1>   0.2090 
 16 C       -3.9640    -6.6440     0.3910 C.3   1 <1>   0.2090 
 17 C       -3.9160    -9.4150     0.2960 C.3   1 <1>   0.4230 
 18 C       -5.2380    -7.2940    -0.1660 C.3   1 <1>  -0.1600 
 19 N       -3.8680   -10.9330     0.3710 N.4   1 <1>  -0.9590 
 20 C       -5.3320    -8.8400     0.0240 C.3   1 <1>   0.0000 
 21 C       -5.0980   -11.5270     1.0010 C.3   1 <1>   0.3430 
 22 C       -3.5420   -11.6250    -0.9190 C.3   1 <1>   0.2630 
 23 C       -6.1890    -9.1970     1.2710 C.3   1 <1>  -0.1600 
 24 C       -5.9630    -9.4370    -1.2660 C.3   1 <1>   0.1200 
 25 C       -5.7840   -10.5300     1.9470 C.3   1 <1>  -0.1600 
 26 O       -7.1710    -8.8260    -1.5670 O.3   1 <1>  -0.6800 
 27 H       -1.1530    -0.1910     0.4400 H     1 <1>   0.0800 
 28 H       -0.4530    -0.8350    -1.0260 H     1 <1>   0.0800 
 29 H        1.8800    -1.4130    -0.9710 H     1 <1>   0.0800 
 30 H        2.7350    -1.1560     0.5330 H     1 <1>   0.0800 
 31 H       -1.8480    -2.5660     0.0010 H     1 <1>   0.0800 
 32 H       -1.0560    -2.3470     1.5390 H     1 <1>   0.0800 
 33 H        1.5690    -2.9850     1.6090 H     1 <1>   0.0800 
 34 H        2.2630    -3.5930     0.1390 H     1 <1>   0.0800 
 35 H        1.4260    -4.7490    -1.5300 H     1 <1>   0.4570 
 36 H       -2.0320    -4.8470     0.7040 H     1 <1>   0.1500 
 37 H        2.0810    -6.7010    -2.8650 H     1 <1>   0.4000 
 38 H        0.9430    -7.9810    -2.8730 H     1 <1>   0.4000 
 39 H       -3.0800    -8.8180    -1.6130 H     1 <1>   0.0800 
 40 H       -1.8900    -9.2020    -0.3840 H     1 <1>   0.0800 
 41 H       -3.9330    -6.7500     1.4630 H     1 <1>   0.0800 
 42 H       -4.0000    -5.5930     0.1580 H     1 <1>   0.0800 
 43 H       -3.6790    -9.0820     1.2920 H     1 <1>   0.0800 
 44 H       -6.1000    -6.8150     0.2630 H     1 <1>   0.0800 
 45 H       -5.2590    -7.0500    -1.2160 H     1 <1>   0.0800 
 46 H       -3.0940   -11.1390     1.0200 H     1 <1>   0.4500 
 47 H       -5.8010   -11.8080     0.2350 H     1 <1>   0.0800 
 48 H       -4.8360   -12.4210     1.5450 H     1 <1>   0.0800 
 49 H       -4.3080   -11.4420    -1.6550 H     1 <1>   0.0800 
 50 H       -3.4690   -12.6900    -0.7630 H     1 <1>   0.0800 
 51 H       -2.6000   -11.2760    -1.3090 H     1 <1>   0.0800 
 52 H       -6.0920    -8.4200     2.0120 H     1 <1>   0.0800 
 53 H       -7.2320    -9.2310     1.0080 H     1 <1>   0.0800 
 54 H       -6.1560   -10.4890    -1.1870 H     1 <1>   0.0800 
 55 H       -5.3160    -9.2710    -2.1110 H     1 <1>   0.0800 
 56 H       -6.6620   -10.9920     2.3650 H     1 <1>   0.0800 
 57 H       -5.1200   -10.3310     2.7710 H     1 <1>   0.0800 
 58 H       -7.8670    -9.0240    -0.9100 H     1 <1>   0.4000 
@<TRIPOS>BOND
  1   1   2  1   
  2   1   3  1   
  3   2   4  1   
  4   2  27  1   
  5   2  28  1   
  6   3   5  1   
  7   3  29  1   
  8   3  30  1   
  9   4   6  1   
 10   4  31  1   
 11   4  32  1   
 12   5   6  1   
 13   5  33  1   
 14   5  34  1   
 15   6   7  1   
 16   7   8  ar  
 17   7   9  ar  
 18   8  10  ar  
 19   8  35  1   
 20   9  11  ar  
 21   9  36  1   
 22  10  12  ar  
 23  10  13  1   
 24  11  12  ar  
 25  11  14  1   
 26  13  37  1   
 27  13  38  1   
 28  14  15  1   
 29  14  16  1   
 30  15  17  1   
 31  15  39  1   
 32  15  40  1   
 33  16  18  1   
 34  16  41  1   
 35  16  42  1   
 36  17  19  1   
 37  17  20  1   
 38  17  43  1   
 39  18  20  1   
 40  18  44  1   
 41  18  45  1   
 42  19  21  1   
 43  19  22  1   
 44  19  46  1   
 45  20  23  1   
 46  20  24  1   
 47  21  25  1   
 48  21  47  1   
 49  21  48  1   
 50  22  49  1   
 51  22  50  1   
 52  22  51  1   
 53  23  25  1   
 54  23  52  1   
 55  23  53  1   
 56  24  26  1   
 57  24  54  1   
 58  24  55  1   
 59  25  56  1   
 60  25  57  1   
 61  26  58  1   
@<TRIPOS>SUBSTRUCTURE
  1 ****  14 GROUP 4 **** **** 0

# MOE 2024.06 (io_trps.svl 2023.06)
