@<TRIPOS>MOLECULE
NONAME
48 51 1 0 0 
SMALL
USER_CHARGES


@<TRIPOS>ATOM
  1 O       -1.7370     0.5790    -1.9380 O.2   1 <1>  -0.5700 
  2 C       -1.6110     0.8970    -0.7720 C.2   1 <1>   0.7160 
  3 N       -1.5400    -0.0770     0.1770 N.am  1 <1>  -0.7300 
  4 C       -1.5110     2.2580    -0.3680 C.2   1 <1>  -0.0860 
  5 C       -1.7210    -1.5210    -0.0550 C.3   1 <1>   0.2350 
  6 C       -2.5230     3.2270    -0.3180 C.2   1 <1>   0.3720 
  7 C       -0.4160     2.9090     0.1040 C.2   1 <1>   0.0870 
  8 C       -2.8830    -2.0020     0.8140 C.3   1 <1>  -0.1950 
  9 N       -2.0570     4.3360     0.1470 N.2   1 <1>  -0.4100 
 10 N       -3.8670     3.0720    -0.7100 N.pl3 1 <1>  -0.8210 
 11 O       -0.7930     4.1250     0.3980 O.3   1 <1>  -0.0190 
 12 C        0.9460     2.4870     0.3080 C.ar  1 <1>   0.0530 
 13 C       -3.7110    -3.1770     0.4010 C.3   1 <1>  -0.2000 
 14 C       -4.3020    -1.7950     0.3870 C.3   1 <1>  -0.2000 
 15 C       -4.8470     4.1450    -0.3880 C.3   1 <1>   0.2090 
 16 C       -4.5310     1.7480    -0.6260 C.3   1 <1>   0.2090 
 17 C        1.6990     2.9900     1.3680 C.ar  1 <1>  -0.1500 
 18 C        1.5630     1.5640    -0.5390 C.ar  1 <1>  -0.1500 
 19 C       -6.0960     3.4230     0.1000 C.3   1 <1>  -0.1600 
 20 C       -6.0210     2.0470    -0.5480 C.3   1 <1>  -0.1600 
 21 C        3.0010     2.5790     1.5830 C.ar  1 <1>  -0.1500 
 22 C        2.8640     1.1480    -0.3300 C.ar  1 <1>  -0.1500 
 23 C        3.5960     1.6550     0.7400 C.ar  1 <1>   0.0830 
 24 O        4.8720     1.3020     1.0180 O.3   1 <1>  -0.3630 
 25 C        5.5850     0.3990     0.2020 C.3   1 <1>   0.0400 
 26 H       -1.4410     0.2020     1.1530 H     1 <1>   0.3700 
 27 H       -0.8180    -2.0460     0.2080 H     1 <1>   0.0800 
 28 H       -1.9340    -1.7090    -1.0940 H     1 <1>   0.0800 
 29 H       -2.6590    -1.9290     1.8650 H     1 <1>   0.1000 
 30 H       -4.0430    -3.8700     1.1560 H     1 <1>   0.1000 
 31 H       -3.5180    -3.6580    -0.5420 H     1 <1>   0.1000 
 32 H       -4.5020    -1.3390    -0.5680 H     1 <1>   0.1000 
 33 H       -5.0350    -1.5370     1.1310 H     1 <1>   0.1000 
 34 H       -5.0600     4.6960    -1.2880 H     1 <1>   0.0800 
 35 H       -4.4830     4.8240     0.3640 H     1 <1>   0.0800 
 36 H       -4.2090     1.2380     0.2660 H     1 <1>   0.0800 
 37 H       -4.3020     1.1520    -1.4940 H     1 <1>   0.0800 
 38 H        1.2570     3.7100     2.0340 H     1 <1>   0.1500 
 39 H        1.0190     1.1700    -1.3800 H     1 <1>   0.1500 
 40 H       -6.9930     3.9550    -0.1630 H     1 <1>   0.0800 
 41 H       -6.0440     3.3270     1.1710 H     1 <1>   0.0800 
 42 H       -6.5510     1.2960     0.0100 H     1 <1>   0.0800 
 43 H       -6.4170     2.0910    -1.5470 H     1 <1>   0.0800 
 44 H        3.5700     2.9740     2.4060 H     1 <1>   0.1500 
 45 H        3.2940     0.4360    -1.0080 H     1 <1>   0.1500 
 46 H        6.5720     0.2870     0.6120 H     1 <1>   0.0800 
 47 H        5.6460     0.8020    -0.7930 H     1 <1>   0.0800 
 48 H        5.0780    -0.5500     0.2050 H     1 <1>   0.0800 
@<TRIPOS>BOND
  1   1   2  2   
  2   2   3  am  
  3   2   4  1   
  4   3   5  1   
  5   3  26  1   
  6   4   6  1   
  7   4   7  2   
  8   5   8  1   
  9   5  27  1   
 10   5  28  1   
 11   6   9  2   
 12   6  10  1   
 13   7  11  1   
 14   7  12  1   
 15   8  13  1   
 16   8  14  1   
 17   8  29  1   
 18   9  11  1   
 19  10  15  1   
 20  10  16  1   
 21  12  17  ar  
 22  12  18  ar  
 23  13  14  1   
 24  13  30  1   
 25  13  31  1   
 26  14  32  1   
 27  14  33  1   
 28  15  19  1   
 29  15  34  1   
 30  15  35  1   
 31  16  20  1   
 32  16  36  1   
 33  16  37  1   
 34  17  21  ar  
 35  17  38  1   
 36  18  22  ar  
 37  18  39  1   
 38  19  20  1   
 39  19  40  1   
 40  19  41  1   
 41  20  42  1   
 42  20  43  1   
 43  21  23  ar  
 44  21  44  1   
 45  22  23  ar  
 46  22  45  1   
 47  23  24  1   
 48  24  25  1   
 49  25  46  1   
 50  25  47  1   
 51  25  48  1   
@<TRIPOS>SUBSTRUCTURE
  1 ****   4 GROUP 4 **** **** 0

# MOE 2024.06 (io_trps.svl 2023.06)
