@<TRIPOS>MOLECULE
NONAME
48 51 1 0 0 
SMALL
USER_CHARGES


@<TRIPOS>ATOM
  1 S       -0.1690    -0.2680     1.2610 S.3   1 <1>  -0.0800 
  2 C       -1.4920    -0.4810     0.1090 C.2   1 <1>  -0.0450 
  3 C       -0.6950     1.3470     1.6850 C.2   1 <1>  -0.1400 
  4 C       -1.5890    -1.7290    -0.6100 C.2   1 <1>   0.7150 
  5 C       -2.2380     0.6540     0.0990 C.2   1 <1>  -0.1500 
  6 C       -1.7940     1.6790     0.9850 C.2   1 <1>  -0.1500 
  7 C        0.1220     2.0960     2.7170 C.3   1 <1>  -0.0600 
  8 O       -0.5790    -2.3380    -0.9180 O.2   1 <1>  -0.5700 
  9 N       -2.8120    -2.2600    -0.9720 N.am  1 <1>  -0.6600 
 10 C       -2.9290    -3.3050    -2.0270 C.3   1 <1>   0.1400 
 11 C       -4.0620    -2.0470    -0.1940 C.3   1 <1>   0.1400 
 12 C       -3.3340    -4.6330    -1.3850 C.3   1 <1>  -0.1600 
 13 C       -4.4730    -3.3650     0.4650 C.3   1 <1>  -0.1600 
 14 C       -4.6230    -4.5020    -0.5610 C.3   1 <1>   0.4240 
 15 O       -5.6180    -4.1260    -1.4840 O.3   1 <1>  -0.5600 
 16 C       -4.9570    -5.8410     0.1320 C.ar  1 <1>  -0.1430 
 17 C       -6.9460    -4.3710    -1.1370 C.3   1 <1>   0.1200 
 18 C       -6.1620    -6.4950    -0.1070 C.ar  1 <1>  -0.1430 
 19 C       -4.0560    -6.4190     1.0200 C.ar  1 <1>  -0.1500 
 20 C       -7.1650    -5.8790    -1.0620 C.3   1 <1>  -0.0170 
 21 C       -6.4520    -7.6980     0.5170 C.ar  1 <1>  -0.1500 
 22 C       -4.3450    -7.6180     1.6460 C.ar  1 <1>  -0.1500 
 23 C       -5.5410    -8.2670     1.4000 C.ar  1 <1>   0.0830 
 24 O       -5.7460    -9.4390     2.0520 O.3   1 <1>  -0.3630 
 25 C       -6.9230   -10.1910     1.8560 C.3   1 <1>   0.0400 
 26 H       -3.1020     0.8060    -0.5240 H     1 <1>   0.1500 
 27 H       -2.3160     2.6170     1.0540 H     1 <1>   0.1500 
 28 H        0.1290     1.5510     3.6440 H     1 <1>   0.0800 
 29 H       -0.2980     3.0700     2.8880 H     1 <1>   0.0800 
 30 H        1.1340     2.2070     2.3710 H     1 <1>   0.0800 
 31 H       -1.9970    -3.4220    -2.5530 H     1 <1>   0.0800 
 32 H       -3.6750    -3.0000    -2.7420 H     1 <1>   0.0800 
 33 H       -4.8380    -1.7060    -0.8580 H     1 <1>   0.0800 
 34 H       -3.9190    -1.3050     0.5720 H     1 <1>   0.0800 
 35 H       -2.5230    -4.9600    -0.7630 H     1 <1>   0.0800 
 36 H       -3.4770    -5.3780    -2.1460 H     1 <1>   0.0800 
 37 H       -5.3900    -3.2360     1.0080 H     1 <1>   0.0800 
 38 H       -3.7190    -3.6290     1.1830 H     1 <1>   0.0800 
 39 H       -7.5710    -3.9380    -1.8980 H     1 <1>   0.0800 
 40 H       -7.1600    -3.9010    -0.1940 H     1 <1>   0.0800 
 41 H       -3.1160    -5.9410     1.2350 H     1 <1>   0.1500 
 42 H       -7.0450    -6.3070    -2.0410 H     1 <1>   0.0800 
 43 H       -8.1680    -6.0740    -0.7270 H     1 <1>   0.0800 
 44 H       -7.3870    -8.1800     0.3080 H     1 <1>   0.1500 
 45 H       -3.6420    -8.0580     2.3300 H     1 <1>   0.1500 
 46 H       -6.8590   -11.0750     2.4640 H     1 <1>   0.0800 
 47 H       -6.9930   -10.4650     0.8180 H     1 <1>   0.0800 
 48 H       -7.7690    -9.5990     2.1580 H     1 <1>   0.0800 
@<TRIPOS>BOND
  1   1   2  1   
  2   1   3  1   
  3   2   4  1   
  4   2   5  2   
  5   3   6  2   
  6   3   7  1   
  7   4   8  2   
  8   4   9  am  
  9   5   6  1   
 10   5  26  1   
 11   6  27  1   
 12   7  28  1   
 13   7  29  1   
 14   7  30  1   
 15   9  10  1   
 16   9  11  1   
 17  10  12  1   
 18  10  31  1   
 19  10  32  1   
 20  11  13  1   
 21  11  33  1   
 22  11  34  1   
 23  12  14  1   
 24  12  35  1   
 25  12  36  1   
 26  13  14  1   
 27  13  37  1   
 28  13  38  1   
 29  14  15  1   
 30  14  16  1   
 31  15  17  1   
 32  16  18  ar  
 33  16  19  ar  
 34  17  20  1   
 35  17  39  1   
 36  17  40  1   
 37  18  20  1   
 38  18  21  ar  
 39  19  22  ar  
 40  19  41  1   
 41  20  42  1   
 42  20  43  1   
 43  21  23  ar  
 44  21  44  1   
 45  22  23  ar  
 46  22  45  1   
 47  23  24  1   
 48  24  25  1   
 49  25  46  1   
 50  25  47  1   
 51  25  48  1   
@<TRIPOS>SUBSTRUCTURE
  1 ****  13 GROUP 4 **** **** 0

# MOE 2024.06 (io_trps.svl 2023.06)
