@<TRIPOS>MOLECULE
NONAME
57 61 1 0 0 
SMALL
USER_CHARGES


@<TRIPOS>ATOM
  1 O       -0.0610     0.8740     0.4750 O.2   1 <1>  -0.5700 
  2 C       -1.2230     0.9720     0.8060 C.2   1 <1>   0.5690 
  3 N       -1.7930     0.1010     1.7020 N.am  1 <1>  -0.6600 
  4 C       -2.0560     2.0620     0.0880 C.3   1 <1>   0.4840 
  5 C       -1.2850    -1.2910     1.7470 C.3   1 <1>   0.1400 
  6 C       -3.1500     0.2600     2.3190 C.3   1 <1>   0.1400 
  7 N       -1.6920     2.1950    -1.3780 N.4   1 <1>  -0.9590 
  8 C       -1.8690     3.4160     0.7910 C.3   1 <1>  -0.1600 
  9 C       -2.1660    -2.1550     0.8300 C.3   1 <1>  -0.1600 
 10 C       -4.0170    -0.9900     2.0920 C.3   1 <1>  -0.1600 
 11 C       -2.4310     3.2740    -2.0880 C.3   1 <1>   0.3430 
 12 C       -1.8410     0.8800    -2.0790 C.3   1 <1>   0.2630 
 13 C       -2.6160     4.5560     0.0880 C.3   1 <1>  -0.1600 
 14 C       -3.6470    -1.7170     0.7920 C.3   1 <1>   0.4600 
 15 C       -2.2120     4.6150    -1.3890 C.3   1 <1>  -0.1600 
 16 O       -3.7900    -0.7960    -0.2860 O.3   1 <1>  -0.5600 
 17 C       -4.5540    -2.9200     0.5510 C.2   1 <1>  -0.3320 
 18 C       -5.0880    -0.6080    -0.8110 C.3   1 <1>   0.1200 
 19 N       -4.6190    -4.0610     1.3060 N.pl3 1 <1>   0.0330 
 20 C       -5.4370    -3.0140    -0.4630 C.2   1 <1>  -0.1810 
 21 C       -5.6200    -1.8980    -1.4550 C.3   1 <1>   0.0210 
 22 C       -5.5570    -4.8920     0.7430 C.ar  1 <1>  -0.1520 
 23 C       -6.0890    -4.2610    -0.3770 C.ar  1 <1>   0.0000 
 24 C       -5.9920    -6.1630     1.1240 C.ar  1 <1>  -0.1500 
 25 C       -7.0720    -4.9070    -1.1340 C.ar  1 <1>  -0.1500 
 26 C       -6.9600    -6.7880     0.3710 C.ar  1 <1>  -0.1500 
 27 C       -7.5000    -6.1600    -0.7580 C.ar  1 <1>  -0.1500 
 28 H       -3.0910     1.7770     0.1490 H     1 <1>   0.0800 
 29 H       -1.3370    -1.6480     2.7620 H     1 <1>   0.0800 
 30 H       -0.2550    -1.3440     1.4340 H     1 <1>   0.0800 
 31 H       -3.6570     1.1130     1.9070 H     1 <1>   0.0800 
 32 H       -3.0380     0.4310     3.3770 H     1 <1>   0.0800 
 33 H       -0.6850     2.4190    -1.3650 H     1 <1>   0.4500 
 34 H       -0.8170     3.6470     0.8350 H     1 <1>   0.0800 
 35 H       -2.2170     3.3370     1.8060 H     1 <1>   0.0800 
 36 H       -2.0890    -3.1660     1.1830 H     1 <1>   0.0800 
 37 H       -1.7720    -2.1510    -0.1700 H     1 <1>   0.0800 
 38 H       -5.0590    -0.7300     2.0990 H     1 <1>   0.0800 
 39 H       -3.8690    -1.6650     2.9150 H     1 <1>   0.0800 
 40 H       -3.4840     3.0450    -2.0990 H     1 <1>   0.0800 
 41 H       -2.0900     3.3420    -3.1090 H     1 <1>   0.0800 
 42 H       -2.8680     0.5560    -2.0590 H     1 <1>   0.0800 
 43 H       -1.2370     0.1270    -1.5970 H     1 <1>   0.0800 
 44 H       -1.5220     0.9640    -3.1050 H     1 <1>   0.0800 
 45 H       -2.3850     5.4930     0.5670 H     1 <1>   0.0800 
 46 H       -3.6790     4.4000     0.1680 H     1 <1>   0.0800 
 47 H       -2.7970     5.3700    -1.8880 H     1 <1>   0.0800 
 48 H       -1.1780     4.9010    -1.4780 H     1 <1>   0.0800 
 49 H       -5.0440     0.1770    -1.5430 H     1 <1>   0.0800 
 50 H       -5.7410    -0.3000    -0.0130 H     1 <1>   0.0800 
 51 H       -4.0720    -4.2880     2.1410 H     1 <1>   0.2700 
 52 H       -5.0820    -2.1190    -2.3580 H     1 <1>   0.0800 
 53 H       -6.6630    -1.7830    -1.6920 H     1 <1>   0.0800 
 54 H       -5.5740    -6.6400     1.9920 H     1 <1>   0.1500 
 55 H       -7.4770    -4.4160    -1.9980 H     1 <1>   0.1500 
 56 H       -7.3130    -7.7670     0.6430 H     1 <1>   0.1500 
 57 H       -8.2550    -6.6700    -1.3300 H     1 <1>   0.1500 
@<TRIPOS>BOND
  1   1   2  2   
  2   2   3  am  
  3   2   4  1   
  4   3   5  1   
  5   3   6  1   
  6   4   7  1   
  7   4   8  1   
  8   4  28  1   
  9   5   9  1   
 10   5  29  1   
 11   5  30  1   
 12   6  10  1   
 13   6  31  1   
 14   6  32  1   
 15   7  11  1   
 16   7  12  1   
 17   7  33  1   
 18   8  13  1   
 19   8  34  1   
 20   8  35  1   
 21   9  14  1   
 22   9  36  1   
 23   9  37  1   
 24  10  14  1   
 25  10  38  1   
 26  10  39  1   
 27  11  15  1   
 28  11  40  1   
 29  11  41  1   
 30  12  42  1   
 31  12  43  1   
 32  12  44  1   
 33  13  15  1   
 34  13  45  1   
 35  13  46  1   
 36  14  16  1   
 37  14  17  1   
 38  15  47  1   
 39  15  48  1   
 40  16  18  1   
 41  17  19  1   
 42  17  20  2   
 43  18  21  1   
 44  18  49  1   
 45  18  50  1   
 46  19  22  1   
 47  19  51  1   
 48  20  21  1   
 49  20  23  1   
 50  21  52  1   
 51  21  53  1   
 52  22  23  ar  
 53  22  24  ar  
 54  23  25  ar  
 55  24  26  ar  
 56  24  54  1   
 57  25  27  ar  
 58  25  55  1   
 59  26  27  ar  
 60  26  56  1   
 61  27  57  1   
@<TRIPOS>SUBSTRUCTURE
  1 ****  16 GROUP 4 **** **** 0

# MOE 2024.06 (io_trps.svl 2023.06)
