@<TRIPOS>MOLECULE
NONAME
30 31 1 0 0 
SMALL
USER_CHARGES


@<TRIPOS>ATOM
  1 O       -0.2510    -0.5480     0.4640 O.2   1 <1>  -0.5700 
  2 C       -0.8230    -1.6270     0.4220 C.2   1 <1>   0.6900 
  3 N       -0.3420    -2.8250     0.7950 N.am  1 <1>  -0.3680 
  4 N       -2.0670    -1.8360    -0.0110 N.am  1 <1>  -0.4900 
  5 N       -1.2860    -3.8110     0.5980 N.2   1 <1>  -0.5120 
  6 C       -2.3000    -3.1880     0.1160 C.2   1 <1>   0.4490 
  7 C       -3.6430    -3.8080    -0.2880 C.3   1 <1>   0.2700 
  8 N       -3.6230    -5.3000    -0.2960 N.pl3 1 <1>  -0.8690 
  9 C       -4.7720    -6.0500    -0.2910 C.ar  1 <1>   0.4100 
 10 N       -5.9070    -5.4290    -0.5470 N.ar  1 <1>  -0.6200 
 11 C       -4.7370    -7.3980    -0.0310 C.ar  1 <1>  -0.1500 
 12 C       -6.9790    -6.1970    -0.5300 C.ar  1 <1>   0.4700 
 13 C       -5.9190    -8.1020    -0.0470 C.ar  1 <1>   0.4100 
 14 N       -7.0640    -7.4900    -0.2930 N.ar  1 <1>  -0.6200 
 15 N       -5.9530    -9.4670     0.1890 N.pl3 1 <1>  -0.8380 
 16 C       -7.2080   -10.1140     0.6610 C.3   1 <1>   0.1290 
 17 C       -5.0060   -10.3730    -0.5150 C.3   1 <1>   0.1290 
 18 H        0.6010    -2.9650     1.1690 H     1 <1>   0.3700 
 19 H       -2.6670    -1.0990    -0.3630 H     1 <1>   0.3700 
 20 H       -3.9070    -3.4670    -1.2720 H     1 <1>   0.0800 
 21 H       -4.3970    -3.4690     0.4000 H     1 <1>   0.0800 
 22 H       -2.7890    -5.6890     0.1580 H     1 <1>   0.4000 
 23 H       -3.8130    -7.8900     0.1830 H     1 <1>   0.1500 
 24 H       -7.9120    -5.7010    -0.7360 H     1 <1>   0.1500 
 25 H       -7.7390    -9.4490     1.3220 H     1 <1>   0.0800 
 26 H       -6.9790   -11.0190     1.1960 H     1 <1>   0.0800 
 27 H       -7.8380   -10.3430    -0.1810 H     1 <1>   0.0800 
 28 H       -4.3420    -9.8110    -1.1490 H     1 <1>   0.0800 
 29 H       -5.5520   -11.0680    -1.1280 H     1 <1>   0.0800 
 30 H       -4.4250   -10.9180     0.2070 H     1 <1>   0.0800 
@<TRIPOS>BOND
  1   1   2  2   
  2   2   3  am  
  3   2   4  am  
  4   3   5  1   
  5   3  18  1   
  6   4   6  1   
  7   4  19  1   
  8   5   6  2   
  9   6   7  1   
 10   7   8  1   
 11   7  20  1   
 12   7  21  1   
 13   8   9  1   
 14   8  22  1   
 15   9  10  ar  
 16   9  11  ar  
 17  10  12  ar  
 18  11  13  ar  
 19  11  23  1   
 20  12  14  ar  
 21  12  24  1   
 22  13  14  ar  
 23  13  15  1   
 24  15  16  1   
 25  15  17  1   
 26  16  25  1   
 27  16  26  1   
 28  16  27  1   
 29  17  28  1   
 30  17  29  1   
 31  17  30  1   
@<TRIPOS>SUBSTRUCTURE
  1 ****   8 GROUP 4 **** **** 0

# MOE 2024.06 (io_trps.svl 2023.06)
