@<TRIPOS>MOLECULE
NONAME
50 54 1 0 0 
SMALL
USER_CHARGES


@<TRIPOS>ATOM
  1 F       -1.2120    -1.0740     2.3760 F     1 <1>  -0.1900 
  2 C       -1.9270    -1.4610     1.3530 C.ar  1 <1>   0.1900 
  3 C       -2.3340    -2.7720     1.2800 C.ar  1 <1>  -0.1500 
  4 C       -2.2470    -0.5270     0.3810 C.ar  1 <1>  -0.1500 
  5 C       -3.1030    -3.2020     0.1920 C.ar  1 <1>   0.0860 
  6 C       -3.0010    -0.9360    -0.6970 C.ar  1 <1>  -0.1500 
  7 C       -3.5730    -4.5610     0.0570 C.2   1 <1>   0.4690 
  8 C       -3.4290    -2.2610    -0.8000 C.ar  1 <1>   0.1000 
  9 O       -3.3200    -5.3670     0.9450 O.2   1 <1>  -0.5700 
 10 C       -4.3370    -4.9290    -1.1010 C.2   1 <1>   0.0290 
 11 N       -4.1830    -2.6720    -1.8880 N.pl3 1 <1>  -0.6000 
 12 C       -4.8020    -6.2790    -1.3120 C.2   1 <1>   0.6160 
 13 C       -4.6020    -3.9590    -2.0330 C.2   1 <1>  -0.0500 
 14 O       -4.9850    -6.6760    -2.4490 O.2   1 <1>  -0.5700 
 15 N       -5.1520    -7.1650    -0.3140 N.am  1 <1>  -0.6600 
 16 C       -5.9260    -6.7680     0.8970 C.3   1 <1>   0.1400 
 17 C       -5.0760    -8.6370    -0.5330 C.3   1 <1>   0.1400 
 18 C       -7.3450    -7.3800     0.8720 C.3   1 <1>   0.4230 
 19 C       -6.4910    -9.2320    -0.6020 C.3   1 <1>   0.3430 
 20 N       -7.3220    -8.8780     0.6140 N.4   1 <1>  -0.9590 
 21 C       -8.2290    -6.6580    -0.1740 C.3   1 <1>   0.1200 
 22 C       -8.7310    -9.3830     0.5260 C.3   1 <1>   0.5180 
 23 O       -9.5170    -7.2070    -0.1890 O.3   1 <1>  -0.5600 
 24 C       -8.7280   -10.8850     0.2140 C.3   1 <1>  -0.1950 
 25 C       -9.5730    -8.5750    -0.4870 C.3   1 <1>   0.1200 
 26 C       -9.7220   -11.7900     0.8720 C.3   1 <1>  -0.2000 
 27 C       -8.2650   -11.8970     1.2180 C.3   1 <1>  -0.2000 
 28 H       -2.0600    -3.4620     2.0590 H     1 <1>   0.1500 
 29 H       -1.9060     0.4880     0.4820 H     1 <1>   0.1500 
 30 H       -3.2610    -0.2300    -1.4670 H     1 <1>   0.1500 
 31 H       -4.3920    -1.9760    -2.6170 H     1 <1>   0.4000 
 32 H       -5.1580    -4.1980    -2.9280 H     1 <1>   0.1500 
 33 H       -5.3980    -7.1010     1.7740 H     1 <1>   0.0800 
 34 H       -6.0000    -5.6960     0.9580 H     1 <1>   0.0800 
 35 H       -4.5510    -8.8520    -1.4490 H     1 <1>   0.0800 
 36 H       -4.5210    -9.0890     0.2700 H     1 <1>   0.0800 
 37 H       -7.7930    -7.1970     1.8350 H     1 <1>   0.0800 
 38 H       -6.4120   -10.3020    -0.6950 H     1 <1>   0.0800 
 39 H       -6.9660    -8.8570    -1.4930 H     1 <1>   0.0800 
 40 H       -6.8920    -9.3380     1.4230 H     1 <1>   0.4500 
 41 H       -7.8090    -6.7300    -1.1640 H     1 <1>   0.0800 
 42 H       -8.3260    -5.6160     0.0770 H     1 <1>   0.0800 
 43 H       -9.1940    -9.2570     1.4910 H     1 <1>   0.0800 
 44 H       -8.5530   -11.0920    -0.8290 H     1 <1>   0.1000 
 45 H      -10.6040    -8.8790    -0.4310 H     1 <1>   0.0800 
 46 H       -9.2280    -8.7250    -1.4950 H     1 <1>   0.0800 
 47 H      -10.3950   -11.4090     1.6230 H     1 <1>   0.1000 
 48 H      -10.1670   -12.5880     0.3000 H     1 <1>   0.1000 
 49 H       -7.7310   -12.7700     0.8810 H     1 <1>   0.1000 
 50 H       -7.9730   -11.6020     2.2120 H     1 <1>   0.1000 
@<TRIPOS>BOND
  1   1   2  1   
  2   2   3  ar  
  3   2   4  ar  
  4   3   5  ar  
  5   3  28  1   
  6   4   6  ar  
  7   4  29  1   
  8   5   7  1   
  9   5   8  ar  
 10   6   8  ar  
 11   6  30  1   
 12   7   9  2   
 13   7  10  1   
 14   8  11  1   
 15  10  12  1   
 16  10  13  2   
 17  11  13  1   
 18  11  31  1   
 19  12  14  2   
 20  12  15  am  
 21  13  32  1   
 22  15  16  1   
 23  15  17  1   
 24  16  18  1   
 25  16  33  1   
 26  16  34  1   
 27  17  19  1   
 28  17  35  1   
 29  17  36  1   
 30  18  20  1   
 31  18  21  1   
 32  18  37  1   
 33  19  20  1   
 34  19  38  1   
 35  19  39  1   
 36  20  22  1   
 37  20  40  1   
 38  21  23  1   
 39  21  41  1   
 40  21  42  1   
 41  22  24  1   
 42  22  25  1   
 43  22  43  1   
 44  23  25  1   
 45  24  26  1   
 46  24  27  1   
 47  24  44  1   
 48  25  45  1   
 49  25  46  1   
 50  26  27  1   
 51  26  47  1   
 52  26  48  1   
 53  27  49  1   
 54  27  50  1   
@<TRIPOS>SUBSTRUCTURE
  1 ****  15 GROUP 4 **** **** 0

# MOE 2024.06 (io_trps.svl 2023.06)
