@<TRIPOS>MOLECULE
NONAME
52 56 1 0 0 
SMALL
USER_CHARGES


@<TRIPOS>ATOM
  1 O       -1.6600     0.3450    -2.0740 O.2   1 <1>  -0.5700 
  2 C       -2.1640     0.8330    -1.0820 C.2   1 <1>   0.6160 
  3 N       -2.6450    -0.0020    -0.0960 N.am  1 <1>  -0.6600 
  4 C       -2.2900     2.2640    -0.9860 C.2   1 <1>   0.0290 
  5 C       -3.5670     0.4430     0.9720 C.3   1 <1>   0.1400 
  6 C       -2.8240    -1.4580    -0.3030 C.3   1 <1>   0.1400 
  7 C       -1.7110     3.0590    -0.0270 C.2   1 <1>  -0.1690 
  8 C       -3.1140     2.8770    -1.9790 C.2   1 <1>   0.3760 
  9 C       -4.7920    -0.4540     0.8040 C.3   1 <1>  -0.0800 
 10 C       -4.2360    -1.7730     0.2170 C.3   1 <1>  -0.0800 
 11 N       -1.9960     4.4120    -0.0640 N.pl3 1 <1>   0.6010 
 12 C       -0.7740     2.5660     1.0750 C.3   1 <1>  -0.1020 
 13 N       -3.3860     4.1400    -2.0300 N.2   1 <1>  -0.5760 
 14 C       -5.9030     0.2180    -0.0460 C.3   1 <1>   0.4240 
 15 C       -5.1400    -2.4210    -0.8530 C.3   1 <1>  -0.1600 
 16 N       -1.5810     5.3910     0.7750 N.2   1 <1>  -0.7070 
 17 C       -2.8200     4.9160    -1.0460 C.2   1 <1>  -0.0260 
 18 O       -5.3530     0.5490    -1.2740 O.3   1 <1>  -0.6800 
 19 C       -6.4220     1.5030     0.6350 C.ar  1 <1>  -0.1440 
 20 C       -7.0480    -0.7750    -0.3450 C.3   1 <1>  -0.1600 
 21 C       -6.6210    -2.2540    -0.4920 C.3   1 <1>  -0.1600 
 22 C       -2.1390     6.4750     0.3130 C.2   1 <1>   0.1390 
 23 C       -2.9170     6.2470    -0.8100 C.2   1 <1>  -0.1500 
 24 C       -7.0190     1.4260     1.8910 C.ar  1 <1>  -0.1500 
 25 C       -6.2990     2.7630     0.0530 C.ar  1 <1>  -0.1500 
 26 C       -7.4680     2.5610     2.5430 C.ar  1 <1>  -0.1500 
 27 C       -6.7430     3.9000     0.7030 C.ar  1 <1>  -0.1500 
 28 C       -7.3280     3.8020     1.9510 C.ar  1 <1>  -0.1500 
 29 H       -3.1040     0.2630     1.9270 H     1 <1>   0.0800 
 30 H       -3.8190     1.4870     0.8990 H     1 <1>   0.0800 
 31 H       -2.7140    -1.7180    -1.3430 H     1 <1>   0.0800 
 32 H       -2.0820    -1.9900     0.2670 H     1 <1>   0.0800 
 33 H       -3.5380     2.2320    -2.7290 H     1 <1>   0.0600 
 34 H       -5.2030    -0.6560     1.7750 H     1 <1>   0.0800 
 35 H       -4.1310    -2.4760     1.0260 H     1 <1>   0.0800 
 36 H        0.1560     3.1040     1.0290 H     1 <1>   0.0800 
 37 H       -0.5590     1.5170     0.9800 H     1 <1>   0.0800 
 38 H       -1.2190     2.7410     2.0390 H     1 <1>   0.0800 
 39 H       -4.9650    -1.9870    -1.8220 H     1 <1>   0.0800 
 40 H       -4.9040    -3.4690    -0.9310 H     1 <1>   0.0800 
 41 H       -4.8340    -0.2170    -1.5790 H     1 <1>   0.4000 
 42 H       -7.7740    -0.7310     0.4460 H     1 <1>   0.0800 
 43 H       -7.5580    -0.4500    -1.2350 H     1 <1>   0.0800 
 44 H       -6.8020    -2.7620     0.4400 H     1 <1>   0.0800 
 45 H       -7.2340    -2.7290    -1.2390 H     1 <1>   0.0800 
 46 H       -2.0010     7.4420     0.7690 H     1 <1>   0.1500 
 47 H       -3.4770     6.9700    -1.3730 H     1 <1>   0.1500 
 48 H       -7.1430     0.4760     2.3790 H     1 <1>   0.1500 
 49 H       -5.8530     2.8840    -0.9200 H     1 <1>   0.1500 
 50 H       -7.9270     2.4800     3.5130 H     1 <1>   0.1500 
 51 H       -6.6300     4.8610     0.2320 H     1 <1>   0.1500 
 52 H       -7.6740     4.6860     2.4560 H     1 <1>   0.1500 
@<TRIPOS>BOND
  1   1   2  2   
  2   2   3  am  
  3   2   4  1   
  4   3   5  1   
  5   3   6  1   
  6   4   7  2   
  7   4   8  1   
  8   5   9  1   
  9   5  29  1   
 10   5  30  1   
 11   6  10  1   
 12   6  31  1   
 13   6  32  1   
 14   7  11  1   
 15   7  12  1   
 16   8  13  2   
 17   8  33  1   
 18   9  10  1   
 19   9  14  1   
 20   9  34  1   
 21  10  15  1   
 22  10  35  1   
 23  11  16  1   
 24  11  17  1   
 25  12  36  1   
 26  12  37  1   
 27  12  38  1   
 28  13  17  1   
 29  14  18  1   
 30  14  19  1   
 31  14  20  1   
 32  15  21  1   
 33  15  39  1   
 34  15  40  1   
 35  16  22  2   
 36  17  23  2   
 37  18  41  1   
 38  19  24  ar  
 39  19  25  ar  
 40  20  21  1   
 41  20  42  1   
 42  20  43  1   
 43  21  44  1   
 44  21  45  1   
 45  22  23  1   
 46  22  46  1   
 47  23  47  1   
 48  24  26  ar  
 49  24  48  1   
 50  25  27  ar  
 51  25  49  1   
 52  26  28  ar  
 53  26  50  1   
 54  27  28  ar  
 55  27  51  1   
 56  28  52  1   
@<TRIPOS>SUBSTRUCTURE
  1 ****   5 GROUP 4 **** **** 0

# MOE 2024.06 (io_trps.svl 2023.06)
