@<TRIPOS>MOLECULE
NONAME
46 49 1 0 0 
SMALL
USER_CHARGES


@<TRIPOS>ATOM
  1 O        2.0120     0.0990     2.5470 O.2   1 <1>  -0.5700 
  2 C        1.4840    -0.4840     1.6140 C.2   1 <1>   0.7160 
  3 N        1.1900     0.1730     0.4580 N.am  1 <1>  -0.4930 
  4 C        1.1620    -1.8730     1.7170 C.2   1 <1>  -0.0860 
  5 C        1.6990     1.4250     0.0360 C.2   1 <1>   0.0630 
  6 C        0.5920    -2.7090     0.7930 C.2   1 <1>  -0.0260 
  7 C        1.3750    -2.6940     2.8220 C.2   1 <1>   0.1390 
  8 C        2.9930     1.6990    -0.4340 C.2   1 <1>   0.3720 
  9 C        1.0470     2.6040    -0.0160 C.2   1 <1>  -0.3320 
 10 N        0.1630    -2.4590    -0.4920 N.2   1 <1>  -0.5760 
 11 N        0.5060    -3.9420     1.3890 N.pl3 1 <1>   0.6010 
 12 N        0.9920    -3.9240     2.6450 N.2   1 <1>  -0.7070 
 13 N        3.1390     2.9480    -0.7550 N.2   1 <1>  -0.7070 
 14 N        4.0260     0.7420    -0.5240 N.pl3 1 <1>  -0.8210 
 15 N        1.9370     3.5080    -0.4950 N.pl3 1 <1>   0.3140 
 16 C       -0.3880     2.9210     0.3760 C.3   1 <1>  -0.0600 
 17 C       -0.3350    -3.4700    -1.1330 C.2   1 <1>   0.3760 
 18 C       -0.0290    -5.0000     0.6920 C.2   1 <1>  -0.1810 
 19 C        5.0690     0.9980    -1.5540 C.3   1 <1>   0.2090 
 20 C        4.6980     0.5460     0.7880 C.3   1 <1>   0.2090 
 21 C        1.7100     4.9390    -0.7220 C.3   1 <1>   0.0160 
 22 C       -0.4570    -4.7800    -0.5810 C.2   1 <1>  -0.1240 
 23 C        6.3730     0.5190    -0.9350 C.3   1 <1>  -0.1600 
 24 C        6.1840     0.7840     0.5500 C.3   1 <1>  -0.1600 
 25 C       -1.0600    -5.8890    -1.4280 C.3   1 <1>  -0.1020 
 26 H        0.8800    -0.4530    -0.2910 H     1 <1>   0.3700 
 27 H        1.8190    -2.3410     3.7400 H     1 <1>   0.1500 
 28 H       -0.8790     2.0340     0.7350 H     1 <1>   0.0800 
 29 H       -0.9330     3.2940    -0.4720 H     1 <1>   0.0800 
 30 H       -0.4030     3.6560     1.1610 H     1 <1>   0.0800 
 31 H       -0.6810    -3.3210    -2.1410 H     1 <1>   0.0600 
 32 H       -0.0700    -5.9380     1.2110 H     1 <1>   0.1500 
 33 H        5.1450     2.0480    -1.7780 H     1 <1>   0.0800 
 34 H        4.8410     0.4600    -2.4570 H     1 <1>   0.0800 
 35 H        4.5290    -0.4660     1.1110 H     1 <1>   0.0800 
 36 H        4.3130     1.2210     1.5360 H     1 <1>   0.0800 
 37 H        0.9110     5.0610    -1.4280 H     1 <1>   0.0800 
 38 H        2.6080     5.3790    -1.1140 H     1 <1>   0.0800 
 39 H        1.4560     5.4070     0.2100 H     1 <1>   0.0800 
 40 H        7.2230     1.0360    -1.3430 H     1 <1>   0.0800 
 41 H        6.4760    -0.5370    -1.1130 H     1 <1>   0.0800 
 42 H        6.7940     0.1490     1.1670 H     1 <1>   0.0800 
 43 H        6.4060     1.8140     0.7690 H     1 <1>   0.0800 
 44 H       -2.0650    -5.6310    -1.7150 H     1 <1>   0.0800 
 45 H       -1.0890    -6.8140    -0.8810 H     1 <1>   0.0800 
 46 H       -0.4730    -6.0370    -2.3170 H     1 <1>   0.0800 
@<TRIPOS>BOND
  1   1   2  2   
  2   2   3  am  
  3   2   4  1   
  4   3   5  1   
  5   3  26  1   
  6   4   6  2   
  7   4   7  1   
  8   5   8  1   
  9   5   9  2   
 10   6  10  1   
 11   6  11  1   
 12   7  12  2   
 13   7  27  1   
 14   8  13  2   
 15   8  14  1   
 16   9  15  1   
 17   9  16  1   
 18  10  17  2   
 19  11  12  1   
 20  11  18  1   
 21  13  15  1   
 22  14  19  1   
 23  14  20  1   
 24  15  21  1   
 25  16  28  1   
 26  16  29  1   
 27  16  30  1   
 28  17  22  1   
 29  17  31  1   
 30  18  22  2   
 31  18  32  1   
 32  19  23  1   
 33  19  33  1   
 34  19  34  1   
 35  20  24  1   
 36  20  35  1   
 37  20  36  1   
 38  21  37  1   
 39  21  38  1   
 40  21  39  1   
 41  22  25  1   
 42  23  24  1   
 43  23  40  1   
 44  23  41  1   
 45  24  42  1   
 46  24  43  1   
 47  25  44  1   
 48  25  45  1   
 49  25  46  1   
@<TRIPOS>SUBSTRUCTURE
  1 ****   3 GROUP 4 **** **** 0

# MOE 2024.06 (io_trps.svl 2023.06)
