@<TRIPOS>MOLECULE
NONAME
51 53 1 0 0 
SMALL
USER_CHARGES


@<TRIPOS>ATOM
  1 O       -3.0910     1.1560    -2.6800 O.2   1 <1>  -0.5700 
  2 C       -2.3960     1.1310    -1.6810 C.2   1 <1>   0.5440 
  3 N       -1.8680    -0.0700    -1.3140 N.am  1 <1>  -0.7300 
  4 C       -2.1470     2.3400    -0.9140 C.ar  1 <1>   0.0860 
  5 C       -2.1550    -1.3810    -1.9350 C.3   1 <1>   0.2200 
  6 C       -1.8540     2.3530     0.4630 C.ar  1 <1>   0.0820 
  7 C       -2.1980     3.5720    -1.5680 C.ar  1 <1>  -0.1500 
  8 C       -3.2290    -2.1340    -1.1600 C.3   1 <1>  -0.0800 
  9 C       -0.9590    -2.2990    -1.7170 C.3   1 <1>   0.1200 
 10 O       -1.8200     1.1660     1.1310 O.3   1 <1>  -0.3630 
 11 C       -1.6140     3.5560     1.1260 C.ar  1 <1>  -0.1500 
 12 C       -1.9710     4.7630    -0.9110 C.ar  1 <1>   0.0820 
 13 C       -2.4350    -2.7900    -0.0270 C.3   1 <1>   0.1200 
 14 C       -4.4320    -1.2990    -0.6840 C.3   1 <1>  -0.0160 
 15 O       -1.0910    -2.7850    -0.4130 O.3   1 <1>  -0.5600 
 16 C       -1.4190     1.0460     2.4790 C.3   1 <1>   0.0400 
 17 C       -1.6630     4.7690     0.4510 C.ar  1 <1>   0.0820 
 18 O       -2.0370     5.9050    -1.6410 O.3   1 <1>  -0.3630 
 19 C       -5.4570    -2.1730     0.0210 C.ar  1 <1>  -0.1440 
 20 O       -1.4160     5.9610     1.0590 O.3   1 <1>  -0.3630 
 21 C       -3.1410     6.7450    -1.3890 C.3   1 <1>   0.0400 
 22 C       -6.3560    -2.9490    -0.6820 C.ar  1 <1>  -0.1500 
 23 C       -5.5410    -2.2380     1.3970 C.ar  1 <1>  -0.1500 
 24 C       -0.9160     6.0500     2.3740 C.3   1 <1>   0.0400 
 25 C       -7.2660    -3.7350     0.0050 C.ar  1 <1>   0.1600 
 26 C       -6.4890    -3.0580     1.9870 C.ar  1 <1>   0.1600 
 27 N       -7.3520    -3.8110     1.3240 N.ar  1 <1>  -0.6200 
 28 H       -1.4170    -0.1260    -0.3940 H     1 <1>   0.3700 
 29 H       -2.3960    -1.2610    -2.9780 H     1 <1>   0.0800 
 30 H       -2.4210     3.6010    -2.6200 H     1 <1>   0.1500 
 31 H       -3.5970    -2.9220    -1.7930 H     1 <1>   0.0800 
 32 H       -0.0180    -1.7890    -1.8230 H     1 <1>   0.0800 
 33 H       -0.9990    -3.1410    -2.3870 H     1 <1>   0.0800 
 34 H       -1.3920     3.5540     2.1720 H     1 <1>   0.1500 
 35 H       -2.7490    -3.8050     0.1470 H     1 <1>   0.0800 
 36 H       -2.5110    -2.2240     0.8850 H     1 <1>   0.0800 
 37 H       -4.8920    -0.8200    -1.5320 H     1 <1>   0.0800 
 38 H       -4.1100    -0.5220    -0.0130 H     1 <1>   0.0800 
 39 H       -1.4220     0.0020     2.7370 H     1 <1>   0.0800 
 40 H       -2.1170     1.5770     3.1020 H     1 <1>   0.0800 
 41 H       -0.4240     1.4430     2.5860 H     1 <1>   0.0800 
 42 H       -3.1210     7.5470    -2.1040 H     1 <1>   0.0800 
 43 H       -3.0640     7.1420    -0.3930 H     1 <1>   0.0800 
 44 H       -4.0460     6.1740    -1.4990 H     1 <1>   0.0800 
 45 H       -6.3570    -2.9480    -1.7570 H     1 <1>   0.1500 
 46 H       -4.8800    -1.6600     2.0150 H     1 <1>   0.1500 
 47 H       -0.7310     7.0870     2.5900 H     1 <1>   0.0800 
 48 H        0.0030     5.4950     2.4370 H     1 <1>   0.0800 
 49 H       -1.6520     5.6630     3.0560 H     1 <1>   0.0800 
 50 H       -7.9590    -4.3330    -0.5600 H     1 <1>   0.1500 
 51 H       -6.5400    -3.0970     3.0610 H     1 <1>   0.1500 
@<TRIPOS>BOND
  1   1   2  2   
  2   2   3  am  
  3   2   4  1   
  4   3   5  1   
  5   3  28  1   
  6   4   6  ar  
  7   4   7  ar  
  8   5   8  1   
  9   5   9  1   
 10   5  29  1   
 11   6  10  1   
 12   6  11  ar  
 13   7  12  ar  
 14   7  30  1   
 15   8  13  1   
 16   8  14  1   
 17   8  31  1   
 18   9  15  1   
 19   9  32  1   
 20   9  33  1   
 21  10  16  1   
 22  11  17  ar  
 23  11  34  1   
 24  12  17  ar  
 25  12  18  1   
 26  13  15  1   
 27  13  35  1   
 28  13  36  1   
 29  14  19  1   
 30  14  37  1   
 31  14  38  1   
 32  16  39  1   
 33  16  40  1   
 34  16  41  1   
 35  17  20  1   
 36  18  21  1   
 37  19  22  ar  
 38  19  23  ar  
 39  20  24  1   
 40  21  42  1   
 41  21  43  1   
 42  21  44  1   
 43  22  25  ar  
 44  22  45  1   
 45  23  26  ar  
 46  23  46  1   
 47  24  47  1   
 48  24  48  1   
 49  24  49  1   
 50  25  27  ar  
 51  25  50  1   
 52  26  27  ar  
 53  26  51  1   
@<TRIPOS>SUBSTRUCTURE
  1 ****   2 GROUP 4 **** **** 0

# MOE 2024.06 (io_trps.svl 2023.06)
