@<TRIPOS>MOLECULE
NONAME
47 48 1 0 0 
SMALL
USER_CHARGES


@<TRIPOS>ATOM
  1 O       -1.4280     0.1410    -1.1170 O.2   1 <1>  -0.5700 
  2 C       -2.1680     0.8830    -0.5020 C.2   1 <1>   0.5690 
  3 N       -2.7150     0.4700     0.6960 N.am  1 <1>  -0.6600 
  4 C       -2.4770     2.2390    -1.1790 C.3   1 <1>   0.2610 
  5 C       -2.3000    -0.8180     1.3050 C.3   1 <1>   0.3200 
  6 C       -3.7670     1.2000     1.4590 C.3   1 <1>   0.1400 
  7 O       -2.6880     3.3080    -0.2640 O.3   1 <1>  -0.3630 
  8 C       -3.7150     2.1660    -2.0810 C.3   1 <1>  -0.2400 
  9 C       -3.1260    -1.9300     0.6990 C.2   1 <1>  -0.3320 
 10 C       -3.1370     2.0200     2.5920 C.3   1 <1>   0.1200 
 11 C       -1.7160     4.2460    -0.1390 C.ar  1 <1>   0.0820 
 12 N       -3.0610    -2.2260    -0.6090 N.pl3 1 <1>   0.0330 
 13 C       -4.0130    -2.7930     1.2400 C.2   1 <1>   0.0770 
 14 O       -4.0970     2.8560     3.1400 O.3   1 <1>  -0.6800 
 15 C       -0.4190     3.9400     0.2860 C.ar  1 <1>   0.0820 
 16 C       -2.0550     5.5530    -0.4460 C.ar  1 <1>  -0.1500 
 17 C       -3.9170    -3.2540    -0.7860 C.2   1 <1>   0.0070 
 18 N       -4.5080    -3.6250     0.3030 N.2   1 <1>  -0.5650 
 19 O       -0.1210     2.6550     0.6200 O.3   1 <1>  -0.3630 
 20 C        0.5250     4.9590     0.3740 C.ar  1 <1>  -0.1500 
 21 C       -1.1100     6.5590    -0.3560 C.ar  1 <1>  -0.1500 
 22 C       -4.1520    -3.8980    -2.1350 C.3   1 <1>  -0.0600 
 23 C        1.1990     2.1700     0.5150 C.3   1 <1>   0.0400 
 24 C        0.1790     6.2610     0.0510 C.ar  1 <1>  -0.1500 
 25 H       -1.6290     2.4960    -1.7900 H     1 <1>   0.0800 
 26 H       -2.4400    -0.7900     2.3710 H     1 <1>   0.0800 
 27 H       -1.2540    -0.9940     1.1120 H     1 <1>   0.0800 
 28 H       -4.4630     0.4910     1.8740 H     1 <1>   0.0800 
 29 H       -4.3160     1.8480     0.8020 H     1 <1>   0.0800 
 30 H       -4.5860     1.9070    -1.5080 H     1 <1>   0.0800 
 31 H       -3.5660     1.4130    -2.8340 H     1 <1>   0.0800 
 32 H       -3.8710     3.1110    -2.5690 H     1 <1>   0.0800 
 33 H       -2.3290     2.6310     2.2290 H     1 <1>   0.0800 
 34 H       -2.7780     1.3730     3.3730 H     1 <1>   0.0800 
 35 H       -2.4810    -1.7330    -1.3010 H     1 <1>   0.2700 
 36 H       -4.3300    -2.8650     2.2670 H     1 <1>   0.1500 
 37 H       -4.2650     3.6080     2.5380 H     1 <1>   0.4000 
 38 H       -3.0580     5.7780    -0.7600 H     1 <1>   0.1500 
 39 H        1.5270     4.7590     0.7010 H     1 <1>   0.1500 
 40 H       -1.3770     7.5730    -0.6000 H     1 <1>   0.1500 
 41 H       -4.5330    -3.1710    -2.8280 H     1 <1>   0.0800 
 42 H       -4.8690    -4.6930    -2.0370 H     1 <1>   0.0800 
 43 H       -3.2330    -4.3050    -2.5120 H     1 <1>   0.0800 
 44 H        1.1660     1.0990     0.6040 H     1 <1>   0.0800 
 45 H        1.7900     2.5860     1.3100 H     1 <1>   0.0800 
 46 H        1.5970     2.4430    -0.4470 H     1 <1>   0.0800 
 47 H        0.9140     7.0450     0.1210 H     1 <1>   0.1500 
@<TRIPOS>BOND
  1   1   2  2   
  2   2   3  am  
  3   2   4  1   
  4   3   5  1   
  5   3   6  1   
  6   4   7  1   
  7   4   8  1   
  8   4  25  1   
  9   5   9  1   
 10   5  26  1   
 11   5  27  1   
 12   6  10  1   
 13   6  28  1   
 14   6  29  1   
 15   7  11  1   
 16   8  30  1   
 17   8  31  1   
 18   8  32  1   
 19   9  12  1   
 20   9  13  2   
 21  10  14  1   
 22  10  33  1   
 23  10  34  1   
 24  11  15  ar  
 25  11  16  ar  
 26  12  17  1   
 27  12  35  1   
 28  13  18  1   
 29  13  36  1   
 30  14  37  1   
 31  15  19  1   
 32  15  20  ar  
 33  16  21  ar  
 34  16  38  1   
 35  17  18  2   
 36  17  22  1   
 37  19  23  1   
 38  20  24  ar  
 39  20  39  1   
 40  21  24  ar  
 41  21  40  1   
 42  22  41  1   
 43  22  42  1   
 44  22  43  1   
 45  23  44  1   
 46  23  45  1   
 47  23  46  1   
 48  24  47  1   
@<TRIPOS>SUBSTRUCTURE
  1 ****   2 GROUP 4 **** **** 0

# MOE 2024.06 (io_trps.svl 2023.06)
