@<TRIPOS>MOLECULE
NONAME
55 58 1 0 0 
SMALL
USER_CHARGES


@<TRIPOS>ATOM
  1 O        0.7330    -2.7290     1.4050 O.3   1 <1>  -0.3630 
  2 C       -0.0120    -1.6240     1.4310 C.ar  1 <1>   0.3920 
  3 C        2.0080    -2.4480     0.8290 C.3   1 <1>   0.2000 
  4 N       -1.2630    -1.6330     1.8230 N.ar  1 <1>  -0.6200 
  5 C        0.6510    -0.5270     0.9700 C.ar  1 <1>  -0.1440 
  6 C        2.0560    -0.9190     0.6210 C.3   1 <1>  -0.0160 
  7 C        2.1620    -3.2740    -0.4700 C.3   1 <1>   0.3430 
  8 C       -1.8340    -0.4390     1.7340 C.ar  1 <1>   0.4760 
  9 C       -0.0440     0.6520     0.9110 C.ar  1 <1>   0.1660 
 10 N        0.8750    -3.4450    -1.2280 N.4   1 <1>  -0.9590 
 11 N       -1.3050     0.6900     1.2870 N.ar  1 <1>  -0.6200 
 12 C       -3.2690    -0.3410     2.1890 C.3   1 <1>  -0.0970 
 13 C        0.5680     1.9510     0.4280 C.3   1 <1>  -0.0970 
 14 C        0.7780    -4.7700    -1.9260 C.3   1 <1>   0.3430 
 15 C        0.4990    -2.3240    -2.1330 C.3   1 <1>   0.3430 
 16 C       -0.6460    -5.3600    -1.7940 C.3   1 <1>   0.2090 
 17 C       -1.0090    -2.0530    -2.0560 C.3   1 <1>  -0.1600 
 18 N       -1.6370    -4.3320    -1.3150 N.pl3 1 <1>  -0.8380 
 19 C       -1.9110    -3.2620    -2.3270 C.3   1 <1>   0.2090 
 20 C       -2.2110    -4.3640    -0.0750 C.ar  1 <1>   0.1000 
 21 C       -3.5090    -3.8840     0.1660 C.ar  1 <1>  -0.1500 
 22 C       -1.5220    -4.8580     1.0430 C.ar  1 <1>  -0.1500 
 23 C       -4.0500    -3.8700     1.4270 C.ar  1 <1>   0.2170 
 24 C       -2.0780    -4.8200     2.2950 C.ar  1 <1>   0.2110 
 25 N       -3.3260    -4.3280     2.4760 N.ar  1 <1>  -0.1790 
 26 C       -5.4580    -3.3620     1.6930 C.3   1 <1>  -0.0970 
 27 H        2.7640    -2.7400     1.5380 H     1 <1>   0.0800 
 28 H        2.3240    -0.6390    -0.3810 H     1 <1>   0.0800 
 29 H        2.7500    -0.4690     1.3110 H     1 <1>   0.0800 
 30 H        2.5250    -4.2470    -0.1810 H     1 <1>   0.0800 
 31 H        2.9150    -2.8320    -1.1020 H     1 <1>   0.0800 
 32 H        0.0890    -3.4810    -0.5420 H     1 <1>   0.4500 
 33 H       -3.4360    -0.9890     3.0280 H     1 <1>   0.0800 
 34 H       -3.9180    -0.6130     1.3800 H     1 <1>   0.0800 
 35 H       -3.4920     0.6680     2.4880 H     1 <1>   0.0800 
 36 H        1.6020     1.8290     0.1670 H     1 <1>   0.0800 
 37 H        0.4940     2.6900     1.2060 H     1 <1>   0.0800 
 38 H        0.0290     2.3070    -0.4310 H     1 <1>   0.0800 
 39 H        1.4760    -5.4720    -1.5000 H     1 <1>   0.0800 
 40 H        1.0250    -4.6580    -2.9680 H     1 <1>   0.0800 
 41 H        0.7790    -2.5580    -3.1470 H     1 <1>   0.0800 
 42 H        1.0180    -1.4260    -1.8450 H     1 <1>   0.0800 
 43 H       -0.6240    -6.1930    -1.1140 H     1 <1>   0.0800 
 44 H       -0.9610    -5.7530    -2.7460 H     1 <1>   0.0800 
 45 H       -1.2440    -1.2930    -2.7790 H     1 <1>   0.0800 
 46 H       -1.2560    -1.6410    -1.0950 H     1 <1>   0.0800 
 47 H       -1.7380    -3.6380    -3.3220 H     1 <1>   0.0800 
 48 H       -2.9390    -2.9510    -2.2860 H     1 <1>   0.0800 
 49 H       -4.0950    -3.5310    -0.6600 H     1 <1>   0.1500 
 50 H       -0.5300    -5.2500     0.9290 H     1 <1>   0.1500 
 51 H       -1.5340    -5.1760     3.1550 H     1 <1>   0.1500 
 52 H       -3.7260    -4.2990     3.4180 H     1 <1>   0.4570 
 53 H       -5.9000    -2.9790     0.7900 H     1 <1>   0.0800 
 54 H       -5.4460    -2.5710     2.4210 H     1 <1>   0.0800 
 55 H       -6.0800    -4.1620     2.0550 H     1 <1>   0.0800 
@<TRIPOS>BOND
  1   1   2  1   
  2   1   3  1   
  3   2   4  ar  
  4   2   5  ar  
  5   3   6  1   
  6   3   7  1   
  7   3  27  1   
  8   4   8  ar  
  9   5   6  1   
 10   5   9  ar  
 11   6  28  1   
 12   6  29  1   
 13   7  10  1   
 14   7  30  1   
 15   7  31  1   
 16   8  11  ar  
 17   8  12  1   
 18   9  11  ar  
 19   9  13  1   
 20  10  14  1   
 21  10  15  1   
 22  10  32  1   
 23  12  33  1   
 24  12  34  1   
 25  12  35  1   
 26  13  36  1   
 27  13  37  1   
 28  13  38  1   
 29  14  16  1   
 30  14  39  1   
 31  14  40  1   
 32  15  17  1   
 33  15  41  1   
 34  15  42  1   
 35  16  18  1   
 36  16  43  1   
 37  16  44  1   
 38  17  19  1   
 39  17  45  1   
 40  17  46  1   
 41  18  19  1   
 42  18  20  1   
 43  19  47  1   
 44  19  48  1   
 45  20  21  ar  
 46  20  22  ar  
 47  21  23  ar  
 48  21  49  1   
 49  22  24  ar  
 50  22  50  1   
 51  23  25  ar  
 52  23  26  1   
 53  24  25  ar  
 54  24  51  1   
 55  25  52  1   
 56  26  53  1   
 57  26  54  1   
 58  26  55  1   
@<TRIPOS>SUBSTRUCTURE
  1 ****   2 GROUP 4 **** **** 0

# MOE 2024.06 (io_trps.svl 2023.06)
