@<TRIPOS>MOLECULE
Untitled Document
40 42 1 0 0 
SMALL
USER_CHARGES


@<TRIPOS>ATOM
  1 O        0.3870    -0.5120    -0.3180 O.2   1 <1>  -0.5700 
  2 C        0.1090    -1.6800    -0.1390 C.2   1 <1>   0.7060 
  3 O        1.1470    -2.5250    -0.0660 O.3   1 <1>  -0.2330 
  4 C       -1.2120    -2.2340    -0.0500 C.2   1 <1>   0.0470 
  5 C        1.0330    -3.8760    -0.0080 C.ar  1 <1>   0.0820 
  6 C       -2.3330    -1.3500    -0.0250 C.2   1 <1>   0.7040 
  7 C       -1.3660    -3.5870     0.0050 C.2   1 <1>  -0.1780 
  8 C        2.1790    -4.6710     0.0180 C.ar  1 <1>   0.0820 
  9 C       -0.2400    -4.4530     0.0190 C.ar  1 <1>   0.0280 
 10 N       -2.4970    -0.3710     0.8160 N.2   1 <1>  -0.6190 
 11 N       -3.3720    -1.5180    -0.7990 N.2   1 <1>  -0.6190 
 12 O        3.3870    -4.0430    -0.0070 O.3   1 <1>  -0.3630 
 13 C        2.0460    -6.0550     0.0680 C.ar  1 <1>  -0.1500 
 14 C       -0.3440    -5.8430     0.0670 C.ar  1 <1>  -0.1500 
 15 N       -3.6660     0.0740     0.5300 N.2   1 <1>  -0.2500 
 16 N       -4.2040    -0.6040    -0.4370 N.2   1 <1>  -0.2500 
 17 C        4.5980    -4.7620     0.0160 C.3   1 <1>   0.1200 
 18 C        0.7860    -6.6340     0.0910 C.ar  1 <1>  -0.1500 
 19 C        5.7480    -3.7550    -0.0220 C.3   1 <1>  -0.1600 
 20 C        7.1080    -4.4650     0.0010 C.3   1 <1>  -0.1600 
 21 C        8.2590    -3.4520    -0.0370 C.3   1 <1>  -0.1600 
 22 C        9.6190    -4.1590    -0.0140 C.3   1 <1>  -0.1600 
 23 C       10.7660    -3.1460    -0.0520 C.3   1 <1>  -0.2400 
 24 H       -2.3520    -4.0210     0.0460 H     1 <1>   0.1500 
 25 H        2.9030    -6.7010     0.0890 H     1 <1>   0.1500 
 26 H       -1.3210    -6.2950     0.0860 H     1 <1>   0.1500 
 27 H        4.6280    -5.4050    -0.8460 H     1 <1>   0.0800 
 28 H        4.6320    -5.3430     0.9210 H     1 <1>   0.0800 
 29 H        0.6920    -7.7060     0.1280 H     1 <1>   0.1500 
 30 H        5.6690    -3.1020     0.8300 H     1 <1>   0.0800 
 31 H        5.6650    -3.1640    -0.9180 H     1 <1>   0.0800 
 32 H        7.1840    -5.1220    -0.8490 H     1 <1>   0.0800 
 33 H        7.1870    -5.0600     0.8950 H     1 <1>   0.0800 
 34 H        8.1840    -2.7930     0.8120 H     1 <1>   0.0800 
 35 H        8.1810    -2.8550    -0.9300 H     1 <1>   0.0800 
 36 H        9.6990    -4.8170    -0.8630 H     1 <1>   0.0800 
 37 H        9.7020    -4.7550     0.8790 H     1 <1>   0.0800 
 38 H       10.7160    -2.5540    -0.9490 H     1 <1>   0.0800 
 39 H       11.7110    -3.6600    -0.0360 H     1 <1>   0.0800 
 40 H       10.7180    -2.4920     0.8000 H     1 <1>   0.0800 
@<TRIPOS>BOND
  1   1   2  2   
  2   2   3  1   
  3   2   4  1   
  4   3   5  1   
  5   4   6  1   
  6   4   7  2   
  7   5   8  ar  
  8   5   9  ar  
  9   6  10  2   
 10   6  11  1   
 11   7   9  1   
 12   7  24  1   
 13   8  12  1   
 14   8  13  ar  
 15   9  14  ar  
 16  10  15  1   
 17  11  16  2   
 18  12  17  1   
 19  13  18  ar  
 20  13  25  1   
 21  14  18  ar  
 22  14  26  1   
 23  15  16  1   
 24  17  19  1   
 25  17  27  1   
 26  17  28  1   
 27  18  29  1   
 28  19  20  1   
 29  19  30  1   
 30  19  31  1   
 31  20  21  1   
 32  20  32  1   
 33  20  33  1   
 34  21  22  1   
 35  21  34  1   
 36  21  35  1   
 37  22  23  1   
 38  22  36  1   
 39  22  37  1   
 40  23  38  1   
 41  23  39  1   
 42  23  40  1   
@<TRIPOS>SUBSTRUCTURE
  1 ****   3 GROUP 4 **** **** 0

# MOE 2024.06 (io_trps.svl 2023.06)
