@<TRIPOS>MOLECULE
NONAME
48 51 1 0 0 
SMALL
USER_CHARGES


@<TRIPOS>ATOM
  1 S        0.4850     0.7260    -1.8750 S.3   1 <1>  -0.0800 
  2 C       -0.8080     1.2320    -0.7990 C.2   1 <1>  -0.1400 
  3 C       -0.5580    -0.4850    -2.6100 C.2   1 <1>  -0.1100 
  4 C       -1.9200     0.5220    -1.0270 C.2   1 <1>  -0.1810 
  5 C       -0.6350     2.3380     0.2370 C.3   1 <1>   0.4600 
  6 C       -1.7850    -0.4650    -2.0540 C.2   1 <1>  -0.1500 
  7 C       -3.1660     0.8070    -0.2200 C.3   1 <1>   0.0210 
  8 O       -1.8030     2.3940     1.0350 O.3   1 <1>  -0.5600 
  9 C        0.5230     2.0210     1.1890 C.3   1 <1>  -0.1600 
 10 C       -0.4210     3.7050    -0.4290 C.3   1 <1>  -0.1600 
 11 C       -3.0490     2.2110     0.4040 C.3   1 <1>   0.1200 
 12 C        0.7370     3.1400     2.2080 C.3   1 <1>   0.1400 
 13 C       -0.2020     4.8080     0.6070 C.3   1 <1>   0.1400 
 14 N        0.9370     4.4300     1.4880 N.am  1 <1>  -0.6600 
 15 C        2.1410     5.1060     1.5230 C.2   1 <1>   0.5440 
 16 O        3.1110     4.5610     2.0170 O.2   1 <1>  -0.5700 
 17 C        2.2830     6.4390     0.9740 C.ar  1 <1>   0.0860 
 18 C        3.2090     6.7030    -0.0340 C.ar  1 <1>  -0.1500 
 19 C        1.5030     7.5010     1.4290 C.ar  1 <1>  -0.1500 
 20 C        3.3450     7.9650    -0.5870 C.ar  1 <1>  -0.1430 
 21 C        1.6260     8.7670     0.8890 C.ar  1 <1>  -0.1500 
 22 C        2.5470     9.0090    -0.1280 C.ar  1 <1>   0.0830 
 23 C        4.3690     8.2010    -1.6890 C.3   1 <1>  -0.0970 
 24 O        2.7080    10.2270    -0.6990 O.3   1 <1>  -0.3620 
 25 C        1.9850    11.3600    -0.2720 C.3   1 <1>   0.0400 
 26 H       -0.1350    -1.0910    -3.3900 H     1 <1>   0.1500 
 27 H       -2.6050    -1.1060    -2.3250 H     1 <1>   0.1500 
 28 H       -3.2740     0.0690     0.5550 H     1 <1>   0.0800 
 29 H       -4.0340     0.7680    -0.8520 H     1 <1>   0.0800 
 30 H        1.4320     1.8970     0.6290 H     1 <1>   0.0800 
 31 H        0.3230     1.0950     1.6950 H     1 <1>   0.0800 
 32 H       -1.2560     3.9460    -1.0580 H     1 <1>   0.0800 
 33 H        0.4480     3.6550    -1.0610 H     1 <1>   0.0800 
 34 H       -3.8150     2.3510     1.1460 H     1 <1>   0.0800 
 35 H       -3.1620     2.9670    -0.3530 H     1 <1>   0.0800 
 36 H        1.5870     2.9110     2.8270 H     1 <1>   0.0800 
 37 H       -0.1250     3.2250     2.8480 H     1 <1>   0.0800 
 38 H       -1.0870     4.9310     1.2080 H     1 <1>   0.0800 
 39 H       -0.0090     5.7360     0.0980 H     1 <1>   0.0800 
 40 H        3.8260     5.8910    -0.3760 H     1 <1>   0.1500 
 41 H        0.7950     7.3200     2.2180 H     1 <1>   0.1500 
 42 H        1.0020     9.5510     1.2710 H     1 <1>   0.1500 
 43 H        4.9020     7.2980    -1.9250 H     1 <1>   0.0800 
 44 H        5.0770     8.9450    -1.3720 H     1 <1>   0.0800 
 45 H        3.8740     8.5520    -2.5760 H     1 <1>   0.0800 
 46 H        2.3040    12.2010    -0.8620 H     1 <1>   0.0800 
 47 H        2.2000    11.5400     0.7660 H     1 <1>   0.0800 
 48 H        0.9350    11.1830    -0.4250 H     1 <1>   0.0800 
@<TRIPOS>BOND
  1   1   2  1   
  2   1   3  1   
  3   2   4  2   
  4   2   5  1   
  5   3   6  2   
  6   3  26  1   
  7   4   6  1   
  8   4   7  1   
  9   5   8  1   
 10   5   9  1   
 11   5  10  1   
 12   6  27  1   
 13   7  11  1   
 14   7  28  1   
 15   7  29  1   
 16   8  11  1   
 17   9  12  1   
 18   9  30  1   
 19   9  31  1   
 20  10  13  1   
 21  10  32  1   
 22  10  33  1   
 23  11  34  1   
 24  11  35  1   
 25  12  14  1   
 26  12  36  1   
 27  12  37  1   
 28  13  14  1   
 29  13  38  1   
 30  13  39  1   
 31  14  15  am  
 32  15  16  2   
 33  15  17  1   
 34  17  18  ar  
 35  17  19  ar  
 36  18  20  ar  
 37  18  40  1   
 38  19  21  ar  
 39  19  41  1   
 40  20  22  ar  
 41  20  23  1   
 42  21  22  ar  
 43  21  42  1   
 44  22  24  1   
 45  23  43  1   
 46  23  44  1   
 47  23  45  1   
 48  24  25  1   
 49  25  46  1   
 50  25  47  1   
 51  25  48  1   
@<TRIPOS>SUBSTRUCTURE
  1 ****  13 GROUP 4 **** **** 0

# MOE 2024.06 (io_trps.svl 2023.06)
