@<TRIPOS>MOLECULE
NONAME
49 51 1 0 0 
SMALL
USER_CHARGES


@<TRIPOS>ATOM
  1 CL      -0.2820    -1.0800    -0.9980 Cl    1 <1>  -0.1770 
  2 C       -1.7320    -1.2880    -0.0420 C.ar  1 <1>   0.1770 
  3 C       -2.5840    -0.2170     0.1950 C.ar  1 <1>   0.0820 
  4 C       -2.0110    -2.5440     0.4630 C.ar  1 <1>  -0.1500 
  5 O       -2.3360     1.0100    -0.3070 O.3   1 <1>  -0.3630 
  6 C       -3.7330    -0.4170     0.9430 C.ar  1 <1>  -0.1500 
  7 C       -3.1660    -2.7450     1.2090 C.ar  1 <1>  -0.1430 
  8 C       -1.4090     1.8120     0.4140 C.3   1 <1>   0.1810 
  9 C       -4.0190    -1.6730     1.4500 C.ar  1 <1>  -0.1500 
 10 C       -3.5040    -4.1210     1.7530 C.3   1 <1>   0.4870 
 11 C       -1.0640     3.0840    -0.3510 C.2   1 <1>   0.5690 
 12 N       -3.9630    -4.9860     0.6290 N.4   1 <1>  -0.9590 
 13 O       -0.5810     4.0170     0.2380 O.2   1 <1>  -0.5700 
 14 N       -1.2890     3.1670    -1.6780 N.am  1 <1>  -0.8000 
 15 C       -5.2640    -4.4870     0.0730 C.3   1 <1>   0.3430 
 16 C       -4.2140    -6.3800     1.1180 C.3   1 <1>   0.3430 
 17 C       -6.3510    -5.3150     0.7620 C.3   1 <1>   0.2000 
 18 C       -5.7020    -6.6900     0.8890 C.3   1 <1>  -0.0800 
 19 O       -6.5460    -4.8070     2.0430 O.3   1 <1>  -0.6800 
 20 C       -5.9190    -7.5460    -0.3760 C.3   1 <1>  -0.0170 
 21 C       -5.0790    -8.8120    -0.3260 C.ar  1 <1>  -0.1430 
 22 C       -5.3130    -9.8050     0.6050 C.ar  1 <1>  -0.1500 
 23 C       -4.0380    -9.0350    -1.2070 C.ar  1 <1>  -0.1500 
 24 C       -4.5030   -10.9290     0.6250 C.ar  1 <1>   0.1600 
 25 C       -3.2900   -10.1960    -1.1020 C.ar  1 <1>   0.1600 
 26 N       -3.4920   -11.1390    -0.2000 N.ar  1 <1>  -0.6200 
 27 H       -1.3190    -3.3430     0.2640 H     1 <1>   0.1500 
 28 H       -4.3960     0.4130     1.1230 H     1 <1>   0.1500 
 29 H       -1.8490     2.0700     1.3600 H     1 <1>   0.0800 
 30 H       -0.5100     1.2470     0.5780 H     1 <1>   0.0800 
 31 H       -4.9160    -1.8050     2.0350 H     1 <1>   0.1500 
 32 H       -4.2780    -4.0400     2.4990 H     1 <1>   0.0800 
 33 H       -2.6280    -4.5460     2.2150 H     1 <1>   0.0800 
 34 H       -3.2420    -4.9660    -0.1020 H     1 <1>   0.4500 
 35 H       -1.0620     4.0210    -2.1870 H     1 <1>   0.3700 
 36 H       -1.7270     2.4080    -2.2020 H     1 <1>   0.3700 
 37 H       -5.4120    -3.4330     0.2420 H     1 <1>   0.0800 
 38 H       -5.2970    -4.6770    -0.9860 H     1 <1>   0.0800 
 39 H       -3.5860    -7.0900     0.6040 H     1 <1>   0.0800 
 40 H       -4.0030    -6.4420     2.1740 H     1 <1>   0.0800 
 41 H       -7.2890    -5.3060     0.2320 H     1 <1>   0.0800 
 42 H       -6.0990    -7.2290     1.7310 H     1 <1>   0.0800 
 43 H       -7.3660    -5.1670     2.4470 H     1 <1>   0.4000 
 44 H       -5.6680    -6.9890    -1.2620 H     1 <1>   0.0800 
 45 H       -6.9580    -7.8210    -0.4530 H     1 <1>   0.0800 
 46 H       -6.1150    -9.7270     1.3150 H     1 <1>   0.1500 
 47 H       -3.7970    -8.3280    -1.9800 H     1 <1>   0.1500 
 48 H       -4.6970   -11.6960     1.3570 H     1 <1>   0.1500 
 49 H       -2.4820   -10.3580    -1.7970 H     1 <1>   0.1500 
@<TRIPOS>BOND
  1   1   2  1   
  2   2   3  ar  
  3   2   4  ar  
  4   3   5  1   
  5   3   6  ar  
  6   4   7  ar  
  7   4  27  1   
  8   5   8  1   
  9   6   9  ar  
 10   6  28  1   
 11   7   9  ar  
 12   7  10  1   
 13   8  11  1   
 14   8  29  1   
 15   8  30  1   
 16   9  31  1   
 17  10  12  1   
 18  10  32  1   
 19  10  33  1   
 20  11  13  2   
 21  11  14  am  
 22  12  15  1   
 23  12  16  1   
 24  12  34  1   
 25  14  35  1   
 26  14  36  1   
 27  15  17  1   
 28  15  37  1   
 29  15  38  1   
 30  16  18  1   
 31  16  39  1   
 32  16  40  1   
 33  17  18  1   
 34  17  19  1   
 35  17  41  1   
 36  18  20  1   
 37  18  42  1   
 38  19  43  1   
 39  20  21  1   
 40  20  44  1   
 41  20  45  1   
 42  21  22  ar  
 43  21  23  ar  
 44  22  24  ar  
 45  22  46  1   
 46  23  25  ar  
 47  23  47  1   
 48  24  26  ar  
 49  24  48  1   
 50  25  26  ar  
 51  25  49  1   
@<TRIPOS>SUBSTRUCTURE
  1 ****  12 GROUP 4 **** **** 0

# MOE 2024.06 (io_trps.svl 2023.06)
