@<TRIPOS>MOLECULE
NONAME
54 56 1 0 0 
SMALL
USER_CHARGES


@<TRIPOS>ATOM
  1 O        0.3540     0.2630    -1.1000 O.3   1 <1>  -0.5600 
  2 C        1.5460    -0.4660    -1.2740 C.3   1 <1>   0.2000 
  3 C        0.4950     1.6520    -1.1140 C.3   1 <1>   0.1200 
  4 C        2.6090    -0.0700    -0.2120 C.3   1 <1>   0.5660 
  5 C        1.2230    -1.9660    -1.1760 C.3   1 <1>   0.1200 
  6 C        1.4100     2.0980     0.0380 C.3   1 <1>   0.3430 
  7 N        2.7420     1.4090    -0.0140 N.4   1 <1>  -0.9590 
  8 C        3.9860    -0.6060    -0.5800 C.ar  1 <1>  -0.1430 
  9 O        1.0120    -2.3270     0.1530 O.3   1 <1>  -0.6800 
 10 C        3.5770     1.7230     1.1690 C.3   1 <1>   0.5240 
 11 C        4.6140    -1.4920     0.2830 C.ar  1 <1>  -0.1500 
 12 C        4.6320    -0.2280    -1.7530 C.ar  1 <1>  -0.1500 
 13 C        3.9970     3.1650     1.0260 C.2   1 <1>  -0.1810 
 14 C        5.8740    -1.9870    -0.0030 C.ar  1 <1>   0.0820 
 15 C        5.8970    -0.7120    -2.0390 C.ar  1 <1>  -0.1500 
 16 C        5.0080     3.7020     0.3050 C.2   1 <1>  -0.3320 
 17 C        3.3730     4.2490     1.6300 C.2   1 <1>   0.1390 
 18 O        6.4040    -2.8660     0.8810 O.3   1 <1>  -0.3620 
 19 C        6.5350    -1.5740    -1.1640 C.ar  1 <1>   0.0820 
 20 N        4.9420     5.0420     0.4880 N.pl3 1 <1>   0.3140 
 21 C        6.0680     3.0180    -0.5500 C.3   1 <1>  -0.0600 
 22 N        3.9230     5.3700     1.2980 N.2   1 <1>  -0.7070 
 23 C        6.6150    -4.1820     0.4170 C.3   1 <1>   0.0400 
 24 O        7.7860    -1.9760    -1.4950 O.3   1 <1>  -0.3630 
 25 C        5.8320     6.0730    -0.0650 C.3   1 <1>   0.0160 
 26 C        8.8330    -1.6160    -0.6200 C.3   1 <1>   0.0400 
 27 H        1.9050    -0.2560    -2.2660 H     1 <1>   0.0800 
 28 H        0.8860     1.9570    -2.0700 H     1 <1>   0.0800 
 29 H       -0.4860     2.0790    -0.9930 H     1 <1>   0.0800 
 30 H        2.3060    -0.5150     0.7210 H     1 <1>   0.0800 
 31 H        2.0420    -2.5550    -1.5510 H     1 <1>   0.0800 
 32 H        0.3360    -2.1920    -1.7440 H     1 <1>   0.0800 
 33 H        0.9160     1.8700     0.9680 H     1 <1>   0.0800 
 34 H        1.5480     3.1670    -0.0120 H     1 <1>   0.0800 
 35 H        3.2680     1.7790    -0.8110 H     1 <1>   0.4500 
 36 H        0.5800    -3.2060     0.2070 H     1 <1>   0.4000 
 37 H        3.0280     1.5720     2.0840 H     1 <1>   0.0800 
 38 H        4.4600     1.1040     1.1850 H     1 <1>   0.0800 
 39 H        4.1350    -1.8240     1.1890 H     1 <1>   0.1500 
 40 H        4.1730     0.4420    -2.4590 H     1 <1>   0.1500 
 41 H        6.4040    -0.4240    -2.9440 H     1 <1>   0.1500 
 42 H        2.5290     4.1960     2.2980 H     1 <1>   0.1500 
 43 H        5.9930     1.9490    -0.4780 H     1 <1>   0.0800 
 44 H        7.0500     3.3020    -0.2140 H     1 <1>   0.0800 
 45 H        5.9620     3.3060    -1.5810 H     1 <1>   0.0800 
 46 H        6.9520    -4.7810     1.2440 H     1 <1>   0.0800 
 47 H        7.3610    -4.1750    -0.3570 H     1 <1>   0.0800 
 48 H        5.6870    -4.5700     0.0360 H     1 <1>   0.0800 
 49 H        5.8390     6.0020    -1.1360 H     1 <1>   0.0800 
 50 H        6.8230     5.9290     0.3210 H     1 <1>   0.0800 
 51 H        5.4730     7.0430     0.2280 H     1 <1>   0.0800 
 52 H        9.7640    -1.8990    -1.0770 H     1 <1>   0.0800 
 53 H        8.7160    -2.1330     0.3150 H     1 <1>   0.0800 
 54 H        8.8080    -0.5520    -0.4650 H     1 <1>   0.0800 
@<TRIPOS>BOND
  1   1   2  1   
  2   1   3  1   
  3   2   4  1   
  4   2   5  1   
  5   2  27  1   
  6   3   6  1   
  7   3  28  1   
  8   3  29  1   
  9   4   7  1   
 10   4   8  1   
 11   4  30  1   
 12   5   9  1   
 13   5  31  1   
 14   5  32  1   
 15   6   7  1   
 16   6  33  1   
 17   6  34  1   
 18   7  10  1   
 19   7  35  1   
 20   8  11  ar  
 21   8  12  ar  
 22   9  36  1   
 23  10  13  1   
 24  10  37  1   
 25  10  38  1   
 26  11  14  ar  
 27  11  39  1   
 28  12  15  ar  
 29  12  40  1   
 30  13  16  2   
 31  13  17  1   
 32  14  18  1   
 33  14  19  ar  
 34  15  19  ar  
 35  15  41  1   
 36  16  20  1   
 37  16  21  1   
 38  17  22  2   
 39  17  42  1   
 40  18  23  1   
 41  19  24  1   
 42  20  22  1   
 43  20  25  1   
 44  21  43  1   
 45  21  44  1   
 46  21  45  1   
 47  23  46  1   
 48  23  47  1   
 49  23  48  1   
 50  24  26  1   
 51  25  49  1   
 52  25  50  1   
 53  25  51  1   
 54  26  52  1   
 55  26  53  1   
 56  26  54  1   
@<TRIPOS>SUBSTRUCTURE
  1 ****   8 GROUP 4 **** **** 0

# MOE 2024.06 (io_trps.svl 2023.06)
