@<TRIPOS>MOLECULE
NONAME
40 43 1 0 0 
SMALL
USER_CHARGES


@<TRIPOS>ATOM
  1 N        0.4080     0.1200     1.3590 N.ar  1 <1>  -0.6200 
  2 C       -0.3710     1.0100     1.9530 C.ar  1 <1>   0.7200 
  3 C        1.3310     0.6460     0.5870 C.ar  1 <1>   0.1660 
  4 N       -0.3420     2.3330     1.8580 N.ar  1 <1>  -0.6200 
  5 N       -1.3310     0.5090     2.7320 N.pl3 1 <1>  -0.9000 
  6 C        1.4740     1.9930     0.4190 C.ar  1 <1>  -0.1430 
  7 C        2.3700    -0.1280    -0.2100 C.3   1 <1>   0.1430 
  8 C        0.6000     2.8190     1.0830 C.ar  1 <1>   0.1600 
  9 C        2.6190     2.3260    -0.5040 C.3   1 <1>  -0.0170 
 10 C        3.4520    -0.6190     0.7810 C.3   1 <1>   0.2090 
 11 C        1.7570    -1.3000    -1.0250 C.3   1 <1>  -0.1600 
 12 C        2.9300     0.9680    -1.1550 C.3   1 <1>  -0.1600 
 13 N        4.2690    -1.7060     0.1620 N.pl3 1 <1>  -0.8380 
 14 C        1.9930    -2.6580    -0.3420 C.3   1 <1>  -0.1600 
 15 C        5.6310    -1.7930     0.4100 C.ar  1 <1>   0.4100 
 16 C        3.4940    -2.9470    -0.1500 C.3   1 <1>   0.2090 
 17 N        6.1080    -2.9800     0.7740 N.ar  1 <1>  -0.6200 
 18 C        6.4450    -0.6690     0.2660 C.ar  1 <1>  -0.1500 
 19 C        7.4070    -3.0420     1.0130 C.ar  1 <1>   0.1600 
 20 C        7.7950    -0.7460     0.5170 C.ar  1 <1>  -0.1500 
 21 C        8.2820    -1.9770     0.9050 C.ar  1 <1>  -0.1500 
 22 H       -2.1050     1.1390     2.9210 H     1 <1>   0.4000 
 23 H       -1.5590    -0.4650     2.5600 H     1 <1>   0.4000 
 24 H        0.6740     3.8880     0.9770 H     1 <1>   0.1500 
 25 H        3.4590     2.6770     0.0700 H     1 <1>   0.0800 
 26 H        2.3410     3.0630    -1.2380 H     1 <1>   0.0800 
 27 H        2.9730    -1.0190     1.6590 H     1 <1>   0.0800 
 28 H        4.0700     0.2000     1.1010 H     1 <1>   0.0800 
 29 H        2.2240    -1.3470    -1.9940 H     1 <1>   0.0800 
 30 H        0.7050    -1.1370    -1.1760 H     1 <1>   0.0800 
 31 H        2.4060     0.9310    -2.0950 H     1 <1>   0.0800 
 32 H        3.9800     0.8380    -1.3500 H     1 <1>   0.0800 
 33 H        1.5550    -3.4470    -0.9260 H     1 <1>   0.0800 
 34 H        1.5070    -2.6640     0.6180 H     1 <1>   0.0800 
 35 H        3.6220    -3.6670     0.6410 H     1 <1>   0.0800 
 36 H        3.8960    -3.3710    -1.0540 H     1 <1>   0.0800 
 37 H        6.0090     0.2550    -0.0530 H     1 <1>   0.1500 
 38 H        7.7950    -3.9990     1.3130 H     1 <1>   0.1500 
 39 H        8.4420     0.1080     0.4140 H     1 <1>   0.1500 
 40 H        9.3270    -2.1100     1.1180 H     1 <1>   0.1500 
@<TRIPOS>BOND
  1   1   2  ar  
  2   1   3  ar  
  3   2   4  ar  
  4   2   5  1   
  5   3   6  ar  
  6   3   7  1   
  7   4   8  ar  
  8   5  22  1   
  9   5  23  1   
 10   6   8  ar  
 11   6   9  1   
 12   7  10  1   
 13   7  11  1   
 14   7  12  1   
 15   8  24  1   
 16   9  12  1   
 17   9  25  1   
 18   9  26  1   
 19  10  13  1   
 20  10  27  1   
 21  10  28  1   
 22  11  14  1   
 23  11  29  1   
 24  11  30  1   
 25  12  31  1   
 26  12  32  1   
 27  13  15  1   
 28  13  16  1   
 29  14  16  1   
 30  14  33  1   
 31  14  34  1   
 32  15  17  ar  
 33  15  18  ar  
 34  16  35  1   
 35  16  36  1   
 36  17  19  ar  
 37  18  20  ar  
 38  18  37  1   
 39  19  21  ar  
 40  19  38  1   
 41  20  21  ar  
 42  20  39  1   
 43  21  40  1   
@<TRIPOS>SUBSTRUCTURE
  1 ****  10 GROUP 4 **** **** 0

# MOE 2024.06 (io_trps.svl 2023.06)
