@<TRIPOS>MOLECULE
NONAME
48 51 1 0 0 
SMALL
USER_CHARGES


@<TRIPOS>ATOM
  1 S       -0.2110     0.7830    -2.1310 S.3   1 <1>  -0.0800 
  2 C       -0.1100     1.9110    -0.7950 C.2   1 <1>  -0.1400 
  3 C        1.3680     1.2950    -2.7070 C.2   1 <1>  -0.1100 
  4 C        1.0410     2.5950    -0.8040 C.2   1 <1>  -0.1810 
  5 C       -1.2090     2.0680     0.2190 C.3   1 <1>   0.0200 
  6 C        1.8900     2.2460    -1.9080 C.2   1 <1>  -0.1500 
  7 C        1.3540     3.6270     0.2820 C.3   1 <1>   0.4610 
  8 C       -0.9800     3.4110     0.9310 C.3   1 <1>   0.1200 
  9 O        0.3700     3.5700     1.3010 O.3   1 <1>  -0.5600 
 10 C        1.3880     5.0490    -0.2980 C.3   1 <1>  -0.1600 
 11 C        2.6850     3.2940     0.9670 C.3   1 <1>  -0.1600 
 12 C        1.7820     6.0750     0.7650 C.3   1 <1>   0.1400 
 13 C        3.0730     4.3520     2.0010 C.3   1 <1>   0.1400 
 14 N        3.1000     5.6870     1.3390 N.am  1 <1>  -0.6600 
 15 C        4.2570     6.4240     1.2700 C.2   1 <1>   0.5690 
 16 O        5.2740     6.0580     1.8100 O.2   1 <1>  -0.5700 
 17 C        4.2840     7.7430     0.5080 C.3   1 <1>  -0.0990 
 18 C        5.7020     8.2930     0.2620 C.3   1 <1>  -0.0990 
 19 C        5.6690     9.6040    -0.5020 C.2   1 <1>   0.3280 
 20 N        5.9130     9.6450    -1.7470 N.2   1 <1>  -0.5120 
 21 C        5.2900    10.8380     0.3240 C.3   1 <1>  -0.0990 
 22 N        5.8670    10.8670    -2.4060 N.am  1 <1>  -0.3680 
 23 C        5.8000    12.1490    -0.3080 C.3   1 <1>  -0.0990 
 24 C        5.7570    12.0970    -1.8230 C.2   1 <1>   0.5690 
 25 O        5.6530    13.1090    -2.4670 O.2   1 <1>  -0.5700 
 26 H        1.7440     0.8220    -3.5970 H     1 <1>   0.1500 
 27 H       -1.1750     1.2600     0.9270 H     1 <1>   0.0800 
 28 H       -2.1700     2.0690    -0.2630 H     1 <1>   0.0800 
 29 H        2.8460     2.7190    -2.0510 H     1 <1>   0.1500 
 30 H       -1.5740     3.4630     1.8260 H     1 <1>   0.0800 
 31 H       -1.2560     4.2270     0.2870 H     1 <1>   0.0800 
 32 H        0.4340     5.2980    -0.7210 H     1 <1>   0.0800 
 33 H        2.1080     5.0870    -1.0950 H     1 <1>   0.0800 
 34 H        3.4690     3.2360     0.2340 H     1 <1>   0.0800 
 35 H        2.6100     2.3310     1.4380 H     1 <1>   0.0800 
 36 H        1.0470     6.0830     1.5530 H     1 <1>   0.0800 
 37 H        1.8100     7.0580     0.3330 H     1 <1>   0.0800 
 38 H        4.0340     4.1110     2.4220 H     1 <1>   0.0800 
 39 H        2.3540     4.3680     2.8020 H     1 <1>   0.0800 
 40 H        3.7100     8.4580     1.0660 H     1 <1>   0.0800 
 41 H        3.8180     7.5970    -0.4490 H     1 <1>   0.0800 
 42 H        6.2580     7.5700    -0.3100 H     1 <1>   0.0800 
 43 H        6.2190     8.4300     1.1950 H     1 <1>   0.0800 
 44 H        5.6820    10.7540     1.3210 H     1 <1>   0.0800 
 45 H        4.2170    10.8740     0.3880 H     1 <1>   0.0800 
 46 H        5.9380    10.8740    -3.4290 H     1 <1>   0.3700 
 47 H        6.8240    12.3060    -0.0240 H     1 <1>   0.0800 
 48 H        5.2210    12.9840     0.0420 H     1 <1>   0.0800 
@<TRIPOS>BOND
  1   1   2  1   
  2   1   3  1   
  3   2   4  2   
  4   2   5  1   
  5   3   6  2   
  6   3  26  1   
  7   4   6  1   
  8   4   7  1   
  9   5   8  1   
 10   5  27  1   
 11   5  28  1   
 12   6  29  1   
 13   7   9  1   
 14   7  10  1   
 15   7  11  1   
 16   8   9  1   
 17   8  30  1   
 18   8  31  1   
 19  10  12  1   
 20  10  32  1   
 21  10  33  1   
 22  11  13  1   
 23  11  34  1   
 24  11  35  1   
 25  12  14  1   
 26  12  36  1   
 27  12  37  1   
 28  13  14  1   
 29  13  38  1   
 30  13  39  1   
 31  14  15  am  
 32  15  16  2   
 33  15  17  1   
 34  17  18  1   
 35  17  40  1   
 36  17  41  1   
 37  18  19  1   
 38  18  42  1   
 39  18  43  1   
 40  19  20  2   
 41  19  21  1   
 42  20  22  1   
 43  21  23  1   
 44  21  44  1   
 45  21  45  1   
 46  22  24  am  
 47  22  46  1   
 48  23  24  1   
 49  23  47  1   
 50  23  48  1   
 51  24  25  2   
@<TRIPOS>SUBSTRUCTURE
  1 ****  12 GROUP 4 **** **** 0

# MOE 2024.06 (io_trps.svl 2023.06)
