@<TRIPOS>MOLECULE
NONAME
54 56 1 0 0 
SMALL
USER_CHARGES


@<TRIPOS>ATOM
  1 O       -0.4020     1.1990     0.0710 O.3   1 <1>  -0.3630 
  2 C        0.9230     1.2020     0.3680 C.ar  1 <1>   0.0830 
  3 C       -1.3120     2.1810     0.5210 C.3   1 <1>   0.2000 
  4 C        1.7540     0.4450    -0.4210 C.ar  1 <1>  -0.1440 
  5 C        1.4510     1.9260     1.4500 C.ar  1 <1>  -0.1500 
  6 C       -2.7130     1.6640     0.2090 C.3   1 <1>  -0.2400 
  7 C       -1.0350     3.4950    -0.2140 C.3   1 <1>  -0.2400 
  8 C        3.1470     0.3720    -0.1680 C.ar  1 <1>   0.0000 
  9 C        1.1320    -0.3310    -1.5670 C.3   1 <1>   0.4870 
 10 C        2.7880     1.8690     1.7180 C.ar  1 <1>  -0.1500 
 11 C        3.6630     1.0960     0.9320 C.ar  1 <1>   0.0000 
 12 C        4.0620    -0.3870    -0.9380 C.ar  1 <1>  -0.1500 
 13 N        0.4700    -1.5520    -1.0470 N.4   1 <1>  -0.9590 
 14 C        5.0400     1.0250     1.2230 C.ar  1 <1>  -0.1500 
 15 C        5.3940    -0.4370    -0.6330 C.ar  1 <1>  -0.1500 
 16 C        1.3310    -2.3460    -0.1100 C.3   1 <1>   0.5240 
 17 C       -0.1680    -2.3560    -2.1300 C.3   1 <1>   0.3430 
 18 C        5.8900     0.2760     0.4610 C.ar  1 <1>  -0.1500 
 19 C        0.6240    -3.5860     0.4290 C.2   1 <1>   0.0460 
 20 C       -1.6400    -2.6440    -1.7740 C.3   1 <1>   0.1200 
 21 N        0.4930    -4.7010    -0.3210 N.2   1 <1>  -0.5650 
 22 C        0.0740    -3.7640     1.6500 C.2   1 <1>  -0.3020 
 23 O       -2.2010    -1.5280    -1.1480 O.3   1 <1>  -0.6800 
 24 C       -0.1220    -5.5310     0.4560 C.2   1 <1>   0.0060 
 25 N       -0.4080    -5.0200     1.6730 N.pl3 1 <1>   0.0330 
 26 C       -0.4880    -6.9460     0.0600 C.3   1 <1>  -0.0600 
 27 H       -1.2120     2.2960     1.5860 H     1 <1>   0.0800 
 28 H        0.8170     2.5250     2.0760 H     1 <1>   0.1500 
 29 H       -2.8300     1.5040    -0.8480 H     1 <1>   0.0800 
 30 H       -3.4490     2.3780     0.5310 H     1 <1>   0.0800 
 31 H       -2.8880     0.7400     0.7310 H     1 <1>   0.0800 
 32 H       -1.1240     3.3570    -1.2770 H     1 <1>   0.0800 
 33 H       -0.0510     3.8610     0.0150 H     1 <1>   0.0800 
 34 H       -1.7460     4.2410     0.0920 H     1 <1>   0.0800 
 35 H        1.8760    -0.5880    -2.2990 H     1 <1>   0.0800 
 36 H        0.3960     0.2940    -2.0470 H     1 <1>   0.0800 
 37 H        3.1980     2.4210     2.5460 H     1 <1>   0.1500 
 38 H        3.7260    -0.9440    -1.7910 H     1 <1>   0.1500 
 39 H       -0.3410    -1.2060    -0.5000 H     1 <1>   0.4500 
 40 H        5.4170     1.5790     2.0640 H     1 <1>   0.1500 
 41 H        6.0800    -1.0180    -1.2250 H     1 <1>   0.1500 
 42 H        1.6150    -1.7300     0.7260 H     1 <1>   0.0800 
 43 H        2.2300    -2.6590    -0.6130 H     1 <1>   0.0800 
 44 H        0.3610    -3.2820    -2.2880 H     1 <1>   0.0800 
 45 H       -0.1520    -1.8040    -3.0540 H     1 <1>   0.0800 
 46 H        6.9420     0.2260     0.6890 H     1 <1>   0.1500 
 47 H       -1.7110    -3.4790    -1.0990 H     1 <1>   0.0800 
 48 H       -2.2040    -2.8670    -2.6630 H     1 <1>   0.0800 
 49 H        0.0030    -3.0930     2.4890 H     1 <1>   0.1500 
 50 H       -3.1510    -1.6810    -0.9540 H     1 <1>   0.4000 
 51 H       -0.8790    -5.4990     2.4480 H     1 <1>   0.2700 
 52 H       -0.1620    -7.1410    -0.9460 H     1 <1>   0.0800 
 53 H       -1.5520    -7.0830     0.1100 H     1 <1>   0.0800 
 54 H       -0.0080    -7.6490     0.7170 H     1 <1>   0.0800 
@<TRIPOS>BOND
  1   1   2  1   
  2   1   3  1   
  3   2   4  ar  
  4   2   5  ar  
  5   3   6  1   
  6   3   7  1   
  7   3  27  1   
  8   4   8  ar  
  9   4   9  1   
 10   5  10  ar  
 11   5  28  1   
 12   6  29  1   
 13   6  30  1   
 14   6  31  1   
 15   7  32  1   
 16   7  33  1   
 17   7  34  1   
 18   8  11  ar  
 19   8  12  ar  
 20   9  13  1   
 21   9  35  1   
 22   9  36  1   
 23  10  11  ar  
 24  10  37  1   
 25  11  14  ar  
 26  12  15  ar  
 27  12  38  1   
 28  13  16  1   
 29  13  17  1   
 30  13  39  1   
 31  14  18  ar  
 32  14  40  1   
 33  15  18  ar  
 34  15  41  1   
 35  16  19  1   
 36  16  42  1   
 37  16  43  1   
 38  17  20  1   
 39  17  44  1   
 40  17  45  1   
 41  18  46  1   
 42  19  21  1   
 43  19  22  2   
 44  20  23  1   
 45  20  47  1   
 46  20  48  1   
 47  21  24  2   
 48  22  25  1   
 49  22  49  1   
 50  23  50  1   
 51  24  25  1   
 52  24  26  1   
 53  25  51  1   
 54  26  52  1   
 55  26  53  1   
 56  26  54  1   
@<TRIPOS>SUBSTRUCTURE
  1 ****  13 GROUP 4 **** **** 0

# MOE 2024.06 (io_trps.svl 2023.06)
