@<TRIPOS>MOLECULE
NONAME
50 52 1 0 0 
SMALL
USER_CHARGES


@<TRIPOS>ATOM
  1 O       -4.4770     2.7710    -0.3250 O.2   1 <1>  -0.5700 
  2 C       -3.4770     2.1850     0.0530 C.2   1 <1>   0.5440 
  3 N       -3.4690     0.8120    -0.0670 N.am  1 <1>  -0.6600 
  4 C       -2.3950     2.9360     0.6520 C.ar  1 <1>   0.0860 
  5 C       -2.4980    -0.0450     0.6910 C.3   1 <1>   0.3210 
  6 C       -4.3060     0.1210    -1.1010 C.3   1 <1>   0.1400 
  7 C       -1.0680     2.7830     0.2350 C.ar  1 <1>   0.1400 
  8 C       -2.6170     3.8580     1.6700 C.ar  1 <1>  -0.1500 
  9 C       -3.0780    -1.4070     1.0800 C.2   1 <1>   0.0460 
 10 C       -5.6900    -0.3100    -0.5720 C.3   1 <1>   0.3430 
 11 O       -0.6050     1.9840    -0.7290 O.3   1 <1>  -0.2800 
 12 C       -0.0210     3.4830     0.8090 C.ar  1 <1>   0.0000 
 13 C       -1.5730     4.5710     2.2580 C.ar  1 <1>  -0.1500 
 14 N       -4.1000    -1.5140     1.9590 N.2   1 <1>  -0.5650 
 15 C       -2.6800    -2.6330     0.6610 C.2   1 <1>  -0.3320 
 16 N       -6.3880     0.8060     0.1400 N.4   1 <1>  -0.9590 
 17 C        0.7100     2.1490    -0.7890 C.2   1 <1>  -0.0400 
 18 C       -0.2720     4.3880     1.8370 C.ar  1 <1>  -0.1500 
 19 C        1.1290     3.0460     0.1230 C.2   1 <1>  -0.1500 
 20 C       -4.2820    -2.7890     2.0730 C.2   1 <1>   0.0360 
 21 N       -3.4530    -3.5260     1.3070 N.pl3 1 <1>   0.0330 
 22 C       -1.5880    -3.0620    -0.3080 C.3   1 <1>  -0.0600 
 23 C       -6.2760     0.6370     1.6180 C.3   1 <1>   0.2630 
 24 C       -7.7930     1.0010    -0.3050 C.3   1 <1>   0.2630 
 25 C        1.4820     1.3510    -1.8170 C.3   1 <1>  -0.0600 
 26 H       -2.1950     0.4560     1.5930 H     1 <1>   0.0800 
 27 H       -1.6220    -0.1940     0.0880 H     1 <1>   0.0800 
 28 H       -3.7820    -0.7430    -1.4710 H     1 <1>   0.0800 
 29 H       -4.4470     0.7840    -1.9370 H     1 <1>   0.0800 
 30 H       -3.6230     4.0280     2.0130 H     1 <1>   0.1500 
 31 H       -5.5700    -1.1500     0.0910 H     1 <1>   0.0800 
 32 H       -6.2840    -0.6390    -1.4080 H     1 <1>   0.0800 
 33 H       -1.7890     5.2730     3.0470 H     1 <1>   0.1500 
 34 H       -5.8310     1.6610    -0.0930 H     1 <1>   0.4500 
 35 H        0.5420     4.9320     2.2820 H     1 <1>   0.1500 
 36 H        2.1260     3.3950     0.3230 H     1 <1>   0.1500 
 37 H       -5.0160    -3.2460     2.7160 H     1 <1>   0.1500 
 38 H       -3.4090    -4.5480     1.2510 H     1 <1>   0.2700 
 39 H       -1.0980    -2.2110    -0.7430 H     1 <1>   0.0800 
 40 H       -2.0080    -3.6540    -1.1030 H     1 <1>   0.0800 
 41 H       -0.8490    -3.6510     0.2070 H     1 <1>   0.0800 
 42 H       -6.7310    -0.2890     1.9280 H     1 <1>   0.0800 
 43 H       -6.7570     1.4560     2.1270 H     1 <1>   0.0800 
 44 H       -5.2370     0.6190     1.9060 H     1 <1>   0.0800 
 45 H       -8.3820     0.1280    -0.0780 H     1 <1>   0.0800 
 46 H       -7.8250     1.1790    -1.3670 H     1 <1>   0.0800 
 47 H       -8.2250     1.8520     0.1970 H     1 <1>   0.0800 
 48 H        1.1250     1.5880    -2.8020 H     1 <1>   0.0800 
 49 H        1.3490     0.3000    -1.6390 H     1 <1>   0.0800 
 50 H        2.5300     1.5850    -1.7590 H     1 <1>   0.0800 
@<TRIPOS>BOND
  1   1   2  2   
  2   2   3  am  
  3   2   4  1   
  4   3   5  1   
  5   3   6  1   
  6   4   7  ar  
  7   4   8  ar  
  8   5   9  1   
  9   5  26  1   
 10   5  27  1   
 11   6  10  1   
 12   6  28  1   
 13   6  29  1   
 14   7  11  1   
 15   7  12  ar  
 16   8  13  ar  
 17   8  30  1   
 18   9  14  1   
 19   9  15  2   
 20  10  16  1   
 21  10  31  1   
 22  10  32  1   
 23  11  17  1   
 24  12  18  ar  
 25  12  19  1   
 26  13  18  ar  
 27  13  33  1   
 28  14  20  2   
 29  15  21  1   
 30  15  22  1   
 31  16  23  1   
 32  16  24  1   
 33  16  34  1   
 34  17  19  2   
 35  17  25  1   
 36  18  35  1   
 37  19  36  1   
 38  20  21  1   
 39  20  37  1   
 40  21  38  1   
 41  22  39  1   
 42  22  40  1   
 43  22  41  1   
 44  23  42  1   
 45  23  43  1   
 46  23  44  1   
 47  24  45  1   
 48  24  46  1   
 49  24  47  1   
 50  25  48  1   
 51  25  49  1   
 52  25  50  1   
@<TRIPOS>SUBSTRUCTURE
  1 ****   3 GROUP 4 **** **** 0

# MOE 2024.06 (io_trps.svl 2023.06)
