@<TRIPOS>MOLECULE
NONAME
39 38 1 0 0 
SMALL
USER_CHARGES


@<TRIPOS>ATOM
  1 O       -1.9490    -0.9550     1.1090 O.2   1 <1>  -0.5700 
  2 C       -1.4510    -1.2070     0.0320 C.2   1 <1>   0.7800 
  3 O       -0.4220    -2.0370    -0.1020 O.3   1 <1>  -0.4300 
  4 N       -1.9090    -0.6670    -1.1140 N.am  1 <1>  -0.7300 
  5 C        0.2650    -2.7140     0.9290 C.3   1 <1>   0.2800 
  6 C       -3.1170     0.1750    -1.2370 C.3   1 <1>   0.2810 
  7 C        0.9020    -1.7070     1.8930 C.3   1 <1>  -0.2400 
  8 C        1.3690    -3.5030     0.2230 C.3   1 <1>  -0.2400 
  9 C       -0.6770    -3.6900     1.6420 C.3   1 <1>  -0.2400 
 10 C       -4.2540    -0.6030    -1.9240 C.2   1 <1>   0.4480 
 11 C       -2.7310     1.4230    -2.0310 C.3   1 <1>  -0.2400 
 12 O       -4.0900    -1.1600    -2.9710 O.2   1 <1>  -0.5700 
 13 C       -5.6080    -0.6260    -1.2590 C.3   1 <1>  -0.0380 
 14 C       -5.4640    -1.0820     0.1640 C.2   1 <1>   0.6590 
 15 O       -5.6720    -0.3250     1.0740 O.2   1 <1>  -0.5700 
 16 O       -5.0760    -2.3340     0.3420 O.3   1 <1>  -0.4300 
 17 C       -4.8030    -2.8400     1.6280 C.3   1 <1>   0.1200 
 18 C       -4.4540    -4.3170     1.4850 C.3   1 <1>  -0.2400 
 19 H       -1.5580    -1.0620    -1.9860 H     1 <1>   0.3700 
 20 H       -3.4290     0.4870    -0.2550 H     1 <1>   0.0800 
 21 H        1.4960    -0.9940     1.3510 H     1 <1>   0.0800 
 22 H        1.5380    -2.2190     2.5920 H     1 <1>   0.0800 
 23 H        0.1540    -1.1850     2.4610 H     1 <1>   0.0800 
 24 H        2.0270    -2.8350    -0.3020 H     1 <1>   0.0800 
 25 H        0.9410    -4.1970    -0.4780 H     1 <1>   0.0800 
 26 H        1.9490    -4.0570     0.9390 H     1 <1>   0.0800 
 27 H       -1.4350    -3.1660     2.1930 H     1 <1>   0.0800 
 28 H       -0.1220    -4.2890     2.3410 H     1 <1>   0.0800 
 29 H       -1.1420    -4.3460     0.9280 H     1 <1>   0.0800 
 30 H       -2.4090     1.1540    -3.0220 H     1 <1>   0.0800 
 31 H       -1.9380     1.9490    -1.5280 H     1 <1>   0.0800 
 32 H       -3.5760     2.0820    -2.1140 H     1 <1>   0.0800 
 33 H       -6.2590    -1.3020    -1.7810 H     1 <1>   0.0800 
 34 H       -6.0380     0.3570    -1.2830 H     1 <1>   0.0800 
 35 H       -5.6760    -2.7060     2.2440 H     1 <1>   0.0800 
 36 H       -3.9780    -2.2850     2.0440 H     1 <1>   0.0800 
 37 H       -5.2940    -4.8600     1.0900 H     1 <1>   0.0800 
 38 H       -4.2030    -4.7250     2.4470 H     1 <1>   0.0800 
 39 H       -3.6100    -4.4350     0.8300 H     1 <1>   0.0800 
@<TRIPOS>BOND
  1   1   2  2   
  2   2   3  1   
  3   2   4  am  
  4   3   5  1   
  5   4   6  1   
  6   4  19  1   
  7   5   7  1   
  8   5   8  1   
  9   5   9  1   
 10   6  10  1   
 11   6  11  1   
 12   6  20  1   
 13   7  21  1   
 14   7  22  1   
 15   7  23  1   
 16   8  24  1   
 17   8  25  1   
 18   8  26  1   
 19   9  27  1   
 20   9  28  1   
 21   9  29  1   
 22  10  12  2   
 23  10  13  1   
 24  11  30  1   
 25  11  31  1   
 26  11  32  1   
 27  13  14  1   
 28  13  33  1   
 29  13  34  1   
 30  14  15  2   
 31  14  16  1   
 32  16  17  1   
 33  17  18  1   
 34  17  35  1   
 35  17  36  1   
 36  18  37  1   
 37  18  38  1   
 38  18  39  1   
@<TRIPOS>SUBSTRUCTURE
  1 ****   2 GROUP 4 **** **** 0

# MOE 2024.06 (io_trps.svl 2023.06)
