@<TRIPOS>MOLECULE
NONAME
47 48 1 0 0 
SMALL
USER_CHARGES


@<TRIPOS>ATOM
  1 S        1.1540     0.8180    -0.9100 S.o2  1 <1>   1.3330 
  2 O        1.0930    -0.5430    -1.3960 O.2   1 <1>  -0.6500 
  3 O        1.5830     1.8580    -1.8180 O.2   1 <1>  -0.6500 
  4 N        2.1360     0.8240     0.4770 N.am  1 <1>  -0.8490 
  5 C       -0.4810     1.2140    -0.2680 C.3   1 <1>  -0.0550 
  6 C        3.2530     1.7730     0.4220 C.3   1 <1>   0.1160 
  7 C        2.6030    -0.5000     0.8960 C.3   1 <1>   0.1160 
  8 C       -0.7960     2.6490     0.2200 C.3   1 <1>  -0.0800 
  9 C       -0.6960     3.7260    -0.8730 C.3   1 <1>   0.2000 
 10 C        0.0670     3.1560     1.3850 C.3   1 <1>   0.1400 
 11 O       -1.7870     4.5690    -0.7280 O.3   1 <1>  -0.6800 
 12 C        0.5680     4.5310    -0.5730 C.3   1 <1>   0.1400 
 13 N        0.8350     4.3110     0.8680 N.am  1 <1>  -0.6600 
 14 C        1.7050     5.0370     1.6500 C.2   1 <1>   0.5440 
 15 O        1.9310     4.6390     2.7760 O.2   1 <1>  -0.5700 
 16 C        2.2750     6.2900     1.2150 C.ar  1 <1>   0.0860 
 17 C        3.1990     6.3910     0.1660 C.ar  1 <1>   0.3930 
 18 C        1.9020     7.4640     1.8530 C.ar  1 <1>  -0.1500 
 19 O        3.6040     5.2570    -0.4430 O.3   1 <1>  -0.3630 
 20 N        3.7120     7.5390    -0.2810 N.ar  1 <1>  -0.6200 
 21 C        2.4360     8.6510     1.4070 C.ar  1 <1>  -0.1500 
 22 C        4.4690     5.2890    -1.5610 C.3   1 <1>   0.1200 
 23 C        3.3230     8.6330     0.3460 C.ar  1 <1>   0.1600 
 24 C        4.7240     3.8580    -2.0230 C.3   1 <1>  -0.2400 
 25 H       -1.1900     0.9840    -1.0390 H     1 <1>   0.0800 
 26 H       -0.6850     0.5390     0.5410 H     1 <1>   0.0800 
 27 H        3.7540     1.8150     1.3730 H     1 <1>   0.0800 
 28 H        2.8930     2.7600     0.1920 H     1 <1>   0.0800 
 29 H        3.9540     1.4760    -0.3390 H     1 <1>   0.0800 
 30 H        3.1430    -0.4280     1.8240 H     1 <1>   0.0800 
 31 H        3.2470    -0.9240     0.1430 H     1 <1>   0.0800 
 32 H        1.7630    -1.1580     1.0410 H     1 <1>   0.0800 
 33 H       -1.8130     2.6040     0.5710 H     1 <1>   0.0800 
 34 H       -0.7080     3.3330    -1.8760 H     1 <1>   0.0800 
 35 H        0.7310     2.4060     1.7760 H     1 <1>   0.0800 
 36 H       -0.5610     3.4950     2.1920 H     1 <1>   0.0800 
 37 H       -1.7190     5.0330     0.1300 H     1 <1>   0.4000 
 38 H        0.4380     5.5750    -0.8010 H     1 <1>   0.0800 
 39 H        1.3940     4.1520    -1.1450 H     1 <1>   0.0800 
 40 H        1.2110     7.4350     2.6790 H     1 <1>   0.1500 
 41 H        2.1710     9.5830     1.8740 H     1 <1>   0.1500 
 42 H        3.9950     5.8620    -2.3390 H     1 <1>   0.0800 
 43 H        5.3890     5.7660    -1.2680 H     1 <1>   0.0800 
 44 H        3.7340     9.5670     0.0000 H     1 <1>   0.1500 
 45 H        3.7960     3.3770    -2.2750 H     1 <1>   0.0800 
 46 H        5.2270     3.3060    -1.2510 H     1 <1>   0.0800 
 47 H        5.3500     3.8680    -2.8970 H     1 <1>   0.0800 
@<TRIPOS>BOND
  1   1   2  2   
  2   1   3  2   
  3   1   4  am  
  4   1   5  1   
  5   4   6  1   
  6   4   7  1   
  7   5   8  1   
  8   5  25  1   
  9   5  26  1   
 10   6  27  1   
 11   6  28  1   
 12   6  29  1   
 13   7  30  1   
 14   7  31  1   
 15   7  32  1   
 16   8   9  1   
 17   8  10  1   
 18   8  33  1   
 19   9  11  1   
 20   9  12  1   
 21   9  34  1   
 22  10  13  1   
 23  10  35  1   
 24  10  36  1   
 25  11  37  1   
 26  12  13  1   
 27  12  38  1   
 28  12  39  1   
 29  13  14  am  
 30  14  15  2   
 31  14  16  1   
 32  16  17  ar  
 33  16  18  ar  
 34  17  19  1   
 35  17  20  ar  
 36  18  21  ar  
 37  18  40  1   
 38  19  22  1   
 39  20  23  ar  
 40  21  23  ar  
 41  21  41  1   
 42  22  24  1   
 43  22  42  1   
 44  22  43  1   
 45  23  44  1   
 46  24  45  1   
 47  24  46  1   
 48  24  47  1   
@<TRIPOS>SUBSTRUCTURE
  1 ****  13 GROUP 4 **** **** 0

# MOE 2024.06 (io_trps.svl 2023.06)
