@<TRIPOS>MOLECULE
NONAME
48 52 1 0 0 
SMALL
USER_CHARGES


@<TRIPOS>ATOM
  1 O        0.4070    -0.2490     1.3340 O.2   1 <1>  -0.5700 
  2 C       -0.6560     0.2920     1.1350 C.2   1 <1>   0.5690 
  3 N       -1.6220    -0.2870     0.3440 N.am  1 <1>  -0.6600 
  4 C       -0.8720     1.6220     1.8240 C.3   1 <1>   0.1570 
  5 C       -2.9560     0.3070     0.0350 C.3   1 <1>   0.1400 
  6 C       -1.3650    -1.5620    -0.3850 C.3   1 <1>   0.1400 
  7 N       -0.8430     2.7120     0.8400 N.pl3 1 <1>   0.3140 
  8 C       -4.0490    -0.6930     0.4130 C.3   1 <1>  -0.1600 
  9 C       -2.4420    -2.5830    -0.0170 C.3   1 <1>  -0.1600 
 10 N       -1.8910     3.5440     0.6760 N.2   1 <1>  -0.7070 
 11 C        0.1730     3.0420     0.0190 C.2   1 <1>  -0.3020 
 12 C       -3.8480    -2.0410    -0.2910 C.3   1 <1>   0.4600 
 13 C       -1.5130     4.3780    -0.2460 C.2   1 <1>   0.1390 
 14 C       -0.2260     4.1140    -0.6970 C.2   1 <1>  -0.1500 
 15 O       -3.9340    -1.8520    -1.6870 O.3   1 <1>  -0.5600 
 16 C       -4.9010    -3.0530     0.1460 C.2   1 <1>  -0.3320 
 17 C       -5.2140    -1.7860    -2.2710 C.3   1 <1>   0.1200 
 18 N       -5.0330    -3.6060     1.3900 N.pl3 1 <1>   0.0330 
 19 C       -5.8600    -3.5460    -0.6630 C.2   1 <1>  -0.1810 
 20 C       -5.9710    -3.1130    -2.1030 C.3   1 <1>   0.0210 
 21 C       -6.1000    -4.4710     1.3590 C.ar  1 <1>  -0.1520 
 22 C       -6.6420    -4.4570     0.0760 C.ar  1 <1>   0.0000 
 23 C       -6.6460    -5.2790     2.3590 C.ar  1 <1>  -0.1500 
 24 C       -7.7460    -5.2630    -0.2170 C.ar  1 <1>  -0.1500 
 25 C       -7.7340    -6.0670     2.0570 C.ar  1 <1>  -0.1500 
 26 C       -8.2830    -6.0590     0.7690 C.ar  1 <1>  -0.1500 
 27 H       -0.0900     1.7890     2.5390 H     1 <1>   0.0800 
 28 H       -1.8150     1.6270     2.3340 H     1 <1>   0.0800 
 29 H       -3.0070     0.5270    -1.0190 H     1 <1>   0.0800 
 30 H       -3.1180     1.2250     0.5700 H     1 <1>   0.0800 
 31 H       -0.3940    -1.9580    -0.1400 H     1 <1>   0.0800 
 32 H       -1.3870    -1.3720    -1.4460 H     1 <1>   0.0800 
 33 H       -5.0150    -0.2920     0.1740 H     1 <1>   0.0800 
 34 H       -4.0230    -0.8410     1.4760 H     1 <1>   0.0800 
 35 H       -2.3380    -2.8260     1.0230 H     1 <1>   0.0800 
 36 H       -2.2980    -3.4860    -0.5800 H     1 <1>   0.0800 
 37 H        1.1050     2.5040    -0.0090 H     1 <1>   0.1500 
 38 H       -2.1330     5.1800    -0.6100 H     1 <1>   0.1500 
 39 H        0.3070     4.6610    -1.4540 H     1 <1>   0.1500 
 40 H       -5.0860    -1.5610    -3.3150 H     1 <1>   0.0800 
 41 H       -5.7610    -0.9830    -1.8090 H     1 <1>   0.0800 
 42 H       -4.4410    -3.4300     2.2070 H     1 <1>   0.2700 
 43 H       -5.5430    -3.8640    -2.7420 H     1 <1>   0.0800 
 44 H       -7.0030    -2.9790    -2.3720 H     1 <1>   0.0800 
 45 H       -6.2180    -5.2800     3.3450 H     1 <1>   0.1500 
 46 H       -8.1560    -5.2480    -1.2090 H     1 <1>   0.1500 
 47 H       -8.1730    -6.6980     2.8090 H     1 <1>   0.1500 
 48 H       -9.1330    -6.6840     0.5580 H     1 <1>   0.1500 
@<TRIPOS>BOND
  1   1   2  2   
  2   2   3  am  
  3   2   4  1   
  4   3   5  1   
  5   3   6  1   
  6   4   7  1   
  7   4  27  1   
  8   4  28  1   
  9   5   8  1   
 10   5  29  1   
 11   5  30  1   
 12   6   9  1   
 13   6  31  1   
 14   6  32  1   
 15   7  10  1   
 16   7  11  1   
 17   8  12  1   
 18   8  33  1   
 19   8  34  1   
 20   9  12  1   
 21   9  35  1   
 22   9  36  1   
 23  10  13  2   
 24  11  14  2   
 25  11  37  1   
 26  12  15  1   
 27  12  16  1   
 28  13  14  1   
 29  13  38  1   
 30  14  39  1   
 31  15  17  1   
 32  16  18  1   
 33  16  19  2   
 34  17  20  1   
 35  17  40  1   
 36  17  41  1   
 37  18  21  1   
 38  18  42  1   
 39  19  20  1   
 40  19  22  1   
 41  20  43  1   
 42  20  44  1   
 43  21  22  ar  
 44  21  23  ar  
 45  22  24  ar  
 46  23  25  ar  
 47  23  45  1   
 48  24  26  ar  
 49  24  46  1   
 50  25  26  ar  
 51  25  47  1   
 52  26  48  1   
@<TRIPOS>SUBSTRUCTURE
  1 ****   8 GROUP 4 **** **** 0

# MOE 2024.06 (io_trps.svl 2023.06)
