@<TRIPOS>MOLECULE
NONAME
55 58 1 0 0 
SMALL
USER_CHARGES


@<TRIPOS>ATOM
  1 CL      -0.2530     1.5630    -2.4850 Cl    1 <1>  -0.1770 
  2 C        0.0290     2.0920    -0.8420 C.ar  1 <1>   0.1770 
  3 C       -1.0260     2.5310    -0.0410 C.ar  1 <1>   0.0540 
  4 C        1.3360     2.0730    -0.3900 C.ar  1 <1>  -0.1500 
  5 C       -2.4000     2.5430    -0.4880 C.2   1 <1>   0.4620 
  6 C       -0.7020     2.9720     1.2440 C.ar  1 <1>  -0.1500 
  7 C        1.6260     2.5070     0.8910 C.ar  1 <1>  -0.1500 
  8 N       -3.0370     1.5650    -1.0260 N.2   1 <1>  -0.4100 
  9 N       -3.1740     3.6220    -0.3410 N.2   1 <1>  -0.5650 
 10 C        0.6030     2.9600     1.7060 C.ar  1 <1>  -0.1500 
 11 O       -4.2470     1.9640    -1.2630 O.3   1 <1>  -0.0190 
 12 C       -4.2650     3.1980    -0.8290 C.2   1 <1>   0.2980 
 13 C       -5.5490     3.9960    -0.9450 C.3   1 <1>   0.0200 
 14 C       -6.6300     3.4680     0.0100 C.3   1 <1>  -0.1600 
 15 C       -7.9270     4.2970    -0.0710 C.3   1 <1>  -0.0990 
 16 C       -9.0350     3.8280     0.8680 C.2   1 <1>   0.5690 
 17 O       -8.8310     2.8500     1.5480 O.2   1 <1>  -0.5700 
 18 N      -10.2250     4.5100     0.9240 N.am  1 <1>  -0.6600 
 19 C      -10.5870     5.7040     0.1080 C.3   1 <1>   0.1400 
 20 C      -11.3110     4.0930     1.8580 C.3   1 <1>   0.1400 
 21 C      -11.8340     5.3840    -0.7190 C.3   1 <1>  -0.1600 
 22 C      -12.5740     3.7690     1.0580 C.3   1 <1>  -0.1600 
 23 C      -13.0030     4.9430     0.1720 C.3   1 <1>   0.4180 
 24 O      -13.3420     5.9920     1.0470 O.3   1 <1>  -0.5600 
 25 C      -14.2110     4.5380    -0.6690 C.2   1 <1>  -0.2880 
 26 C      -14.1630     7.0110     0.5480 C.3   1 <1>   0.1200 
 27 C      -15.3710     5.1980    -0.6830 C.2   1 <1>  -0.2760 
 28 C      -15.5370     6.4540     0.1520 C.3   1 <1>  -0.0220 
 29 C      -16.5910     4.7800    -1.4840 C.3   1 <1>  -0.1020 
 30 H        2.1180     1.7240    -1.0390 H     1 <1>   0.1500 
 31 H       -1.4900     3.3280     1.8860 H     1 <1>   0.1500 
 32 H        2.6410     2.4960     1.2510 H     1 <1>   0.1500 
 33 H        0.8230     3.3040     2.7030 H     1 <1>   0.1500 
 34 H       -5.8960     3.9460    -1.9610 H     1 <1>   0.0800 
 35 H       -5.3340     5.0240    -0.7140 H     1 <1>   0.0800 
 36 H       -6.2540     3.4960     1.0190 H     1 <1>   0.0800 
 37 H       -6.8490     2.4400    -0.2280 H     1 <1>   0.0800 
 38 H       -8.3060     4.2570    -1.0760 H     1 <1>   0.0800 
 39 H       -7.7000     5.3190     0.1700 H     1 <1>   0.0800 
 40 H       -9.7870     5.9930    -0.5470 H     1 <1>   0.0800 
 41 H      -10.7910     6.5290     0.7700 H     1 <1>   0.0800 
 42 H      -11.5090     4.8950     2.5480 H     1 <1>   0.0800 
 43 H      -11.0160     3.2290     2.4300 H     1 <1>   0.0800 
 44 H      -11.5960     4.5920    -1.4050 H     1 <1>   0.0800 
 45 H      -12.1180     6.2370    -1.3060 H     1 <1>   0.0800 
 46 H      -13.3770     3.5220     1.7280 H     1 <1>   0.0800 
 47 H      -12.3800     2.9060     0.4480 H     1 <1>   0.0800 
 48 H      -14.0340     3.6500    -1.2490 H     1 <1>   0.1500 
 49 H      -13.6800     7.4590    -0.3010 H     1 <1>   0.0800 
 50 H      -14.2700     7.7540     1.3180 H     1 <1>   0.0800 
 51 H      -16.0630     7.2070    -0.4070 H     1 <1>   0.0800 
 52 H      -16.1080     6.2310     1.0360 H     1 <1>   0.0800 
 53 H      -16.8580     5.5500    -2.1850 H     1 <1>   0.0800 
 54 H      -17.4220     4.6030    -0.8260 H     1 <1>   0.0800 
 55 H      -16.3900     3.8760    -2.0310 H     1 <1>   0.0800 
@<TRIPOS>BOND
  1   1   2  1   
  2   2   3  ar  
  3   2   4  ar  
  4   3   5  1   
  5   3   6  ar  
  6   4   7  ar  
  7   4  30  1   
  8   5   8  2   
  9   5   9  1   
 10   6  10  ar  
 11   6  31  1   
 12   7  10  ar  
 13   7  32  1   
 14   8  11  1   
 15   9  12  2   
 16  10  33  1   
 17  11  12  1   
 18  12  13  1   
 19  13  14  1   
 20  13  34  1   
 21  13  35  1   
 22  14  15  1   
 23  14  36  1   
 24  14  37  1   
 25  15  16  1   
 26  15  38  1   
 27  15  39  1   
 28  16  17  2   
 29  16  18  am  
 30  18  19  1   
 31  18  20  1   
 32  19  21  1   
 33  19  40  1   
 34  19  41  1   
 35  20  22  1   
 36  20  42  1   
 37  20  43  1   
 38  21  23  1   
 39  21  44  1   
 40  21  45  1   
 41  22  23  1   
 42  22  46  1   
 43  22  47  1   
 44  23  24  1   
 45  23  25  1   
 46  24  26  1   
 47  25  27  2   
 48  25  48  1   
 49  26  28  1   
 50  26  49  1   
 51  26  50  1   
 52  27  28  1   
 53  27  29  1   
 54  28  51  1   
 55  28  52  1   
 56  29  53  1   
 57  29  54  1   
 58  29  55  1   
@<TRIPOS>SUBSTRUCTURE
  1 ****  14 GROUP 4 **** **** 0

# MOE 2024.06 (io_trps.svl 2023.06)
