@<TRIPOS>MOLECULE
NONAME
47 49 1 0 0 
SMALL
USER_CHARGES


@<TRIPOS>ATOM
  1 O       -0.3000    -0.0320     0.3530 O.3   1 <1>  -0.5600 
  2 C        0.4230    -1.2330     0.5210 C.3   1 <1>   0.2800 
  3 C       -1.6810    -0.0690     0.1130 C.3   1 <1>   0.1200 
  4 C       -0.5370    -2.4650     0.5970 C.3   1 <1>   0.2000 
  5 C        1.1740    -1.0360     1.8550 C.3   1 <1>  -0.1600 
  6 C        1.3920    -1.3000    -0.6850 C.3   1 <1>  -0.1600 
  7 C       -1.9850    -1.0840    -0.9890 C.3   1 <1>  -0.1600 
  8 O        0.1180    -3.6980     0.7430 O.3   1 <1>  -0.6800 
  9 C       -1.5930    -2.5030    -0.5500 C.3   1 <1>   0.2800 
 10 C        2.3900    -1.9530     2.0130 C.3   1 <1>   0.2090 
 11 C        2.8480    -1.0400    -0.3040 C.3   1 <1>   0.2090 
 12 O       -2.7230    -3.0930    -0.0190 O.3   1 <1>  -0.6800 
 13 C       -1.2390    -3.3620    -1.7740 C.3   1 <1>  -0.2400 
 14 N        3.2330    -1.9780     0.7820 N.pl3 1 <1>  -0.8380 
 15 C        3.7480    -3.2040     0.3850 C.ar  1 <1>   0.4100 
 16 N        2.8360    -4.1130     0.0660 N.ar  1 <1>  -0.6200 
 17 C        5.1360    -3.4590     0.3100 C.ar  1 <1>   0.1670 
 18 C        3.3600    -5.2600    -0.3170 C.ar  1 <1>   0.1670 
 19 N        5.6570    -4.6060    -0.0830 N.ar  1 <1>  -0.6200 
 20 C        6.1440    -2.3860     0.6850 C.3   1 <1>  -0.0970 
 21 C        4.7280    -5.4980    -0.3900 C.ar  1 <1>   0.1600 
 22 C        2.3650    -6.3410    -0.6850 C.3   1 <1>  -0.0970 
 23 H       -2.1870    -0.3230     1.0290 H     1 <1>   0.0800 
 24 H       -1.9860     0.9190    -0.1880 H     1 <1>   0.0800 
 25 H       -1.0880    -2.3400     1.5130 H     1 <1>   0.0800 
 26 H        1.5230    -0.0200     1.9180 H     1 <1>   0.0800 
 27 H        0.5080    -1.1940     2.6820 H     1 <1>   0.0800 
 28 H        1.3640    -2.2710    -1.1350 H     1 <1>   0.0800 
 29 H        1.0980    -0.5960    -1.4420 H     1 <1>   0.0800 
 30 H       -1.4250    -0.7940    -1.8590 H     1 <1>   0.0800 
 31 H       -3.0280    -1.0490    -1.2510 H     1 <1>   0.0800 
 32 H        1.0610    -3.6500     0.4270 H     1 <1>   0.4000 
 33 H        2.0630    -2.9500     2.2550 H     1 <1>   0.0800 
 34 H        2.9920    -1.6060     2.8360 H     1 <1>   0.0800 
 35 H        2.9750    -0.0250     0.0310 H     1 <1>   0.0800 
 36 H        3.4820    -1.1940    -1.1610 H     1 <1>   0.0800 
 37 H       -2.4590    -3.9650     0.3380 H     1 <1>   0.4000 
 38 H       -0.3950    -2.9550    -2.2960 H     1 <1>   0.0800 
 39 H       -2.0680    -3.3850    -2.4580 H     1 <1>   0.0800 
 40 H       -1.0020    -4.3690    -1.4830 H     1 <1>   0.0800 
 41 H        5.7370    -1.7090     1.4130 H     1 <1>   0.0800 
 42 H        6.4210    -1.8340    -0.1930 H     1 <1>   0.0800 
 43 H        7.0250    -2.8390     1.1030 H     1 <1>   0.0800 
 44 H        5.0750    -6.4620    -0.7150 H     1 <1>   0.1500 
 45 H        2.8620    -7.2520    -0.9640 H     1 <1>   0.0800 
 46 H        1.7600    -6.0080    -1.5090 H     1 <1>   0.0800 
 47 H        1.7230    -6.5380     0.1540 H     1 <1>   0.0800 
@<TRIPOS>BOND
  1   1   2  1   
  2   1   3  1   
  3   2   4  1   
  4   2   5  1   
  5   2   6  1   
  6   3   7  1   
  7   3  23  1   
  8   3  24  1   
  9   4   8  1   
 10   4   9  1   
 11   4  25  1   
 12   5  10  1   
 13   5  26  1   
 14   5  27  1   
 15   6  11  1   
 16   6  28  1   
 17   6  29  1   
 18   7   9  1   
 19   7  30  1   
 20   7  31  1   
 21   8  32  1   
 22   9  12  1   
 23   9  13  1   
 24  10  14  1   
 25  10  33  1   
 26  10  34  1   
 27  11  14  1   
 28  11  35  1   
 29  11  36  1   
 30  12  37  1   
 31  13  38  1   
 32  13  39  1   
 33  13  40  1   
 34  14  15  1   
 35  15  16  ar  
 36  15  17  ar  
 37  16  18  ar  
 38  17  19  ar  
 39  17  20  1   
 40  18  21  ar  
 41  18  22  1   
 42  19  21  ar  
 43  20  41  1   
 44  20  42  1   
 45  20  43  1   
 46  21  44  1   
 47  22  45  1   
 48  22  46  1   
 49  22  47  1   
@<TRIPOS>SUBSTRUCTURE
  1 ****   6 GROUP 4 **** **** 0

# MOE 2024.06 (io_trps.svl 2023.06)
