@<TRIPOS>MOLECULE
NONAME
55 58 1 0 0 
SMALL
USER_CHARGES


@<TRIPOS>ATOM
  1 O       -0.3720     0.5350    -1.0740 O.2   1 <1>  -0.5700 
  2 C       -0.2970     1.7240    -0.8680 C.2   1 <1>   0.5690 
  3 N       -1.2420     2.4240    -0.1600 N.am  1 <1>  -0.5090 
  4 C        0.9100     2.4630    -1.4560 C.3   1 <1>   0.1810 
  5 C       -1.1580     3.9100    -0.0150 C.3   1 <1>   0.3640 
  6 C       -2.3880     1.7640     0.5140 C.3   1 <1>   0.0490 
  7 O        1.0940     3.7550    -0.9190 O.3   1 <1>  -0.5600 
  8 C       -2.5110     4.5730    -0.2760 C.ar  1 <1>  -0.1440 
  9 C       -0.0880     4.5290    -0.9390 C.3   1 <1>   0.2610 
 10 C       -2.5520     1.9400     1.9930 C.3   1 <1>  -0.2000 
 11 C       -2.1430     0.6140     1.4390 C.3   1 <1>  -0.2000 
 12 C       -3.1940     4.3620    -1.4660 C.ar  1 <1>  -0.1500 
 13 C       -3.0700     5.4060     0.6850 C.ar  1 <1>  -0.1500 
 14 C        0.2000     5.9810    -0.5460 C.2   1 <1>   0.5690 
 15 C       -4.4090     4.9830    -1.6940 C.ar  1 <1>  -0.1500 
 16 C       -4.2870     6.0250     0.4590 C.ar  1 <1>  -0.1500 
 17 O        0.2460     6.8240    -1.4150 O.2   1 <1>  -0.5700 
 18 N        0.4990     6.3410     0.7460 N.am  1 <1>  -0.6600 
 19 C       -4.9640     5.8170    -0.7380 C.ar  1 <1>   0.0820 
 20 C        0.2440     7.7650     1.1580 C.3   1 <1>   0.1400 
 21 C        1.7870     5.8430     1.3200 C.3   1 <1>   0.1400 
 22 O       -6.1570     6.3860    -1.0420 O.3   1 <1>  -0.3620 
 23 C        1.4910     8.6600     0.9380 C.3   1 <1>   0.3430 
 24 C        2.9750     6.6610     0.7470 C.3   1 <1>   0.3430 
 25 C       -6.8150     7.2430    -0.1360 C.3   1 <1>   0.0400 
 26 N        2.5240     7.9530     0.1040 N.4   1 <1>  -0.9590 
 27 C        3.6530     8.8320    -0.3150 C.3   1 <1>   0.2630 
 28 H        0.7900     2.5500    -2.5210 H     1 <1>   0.0800 
 29 H        1.8010     1.8950    -1.2580 H     1 <1>   0.0800 
 30 H       -0.8740     4.1080     1.0020 H     1 <1>   0.0800 
 31 H       -3.2730     1.7400    -0.1010 H     1 <1>   0.1000 
 32 H       -0.4540     4.5370    -1.9510 H     1 <1>   0.0800 
 33 H       -1.8210     2.4890     2.5590 H     1 <1>   0.1000 
 34 H       -3.5460     2.0370     2.3930 H     1 <1>   0.1000 
 35 H       -2.8550    -0.1920     1.4500 H     1 <1>   0.1000 
 36 H       -1.1320     0.2710     1.5750 H     1 <1>   0.1000 
 37 H       -2.7920     3.7110    -2.2230 H     1 <1>   0.1500 
 38 H       -2.5640     5.5760     1.6190 H     1 <1>   0.1500 
 39 H       -4.9390     4.8220    -2.6150 H     1 <1>   0.1500 
 40 H       -4.6940     6.6610     1.2220 H     1 <1>   0.1500 
 41 H       -0.5780     8.1620     0.5850 H     1 <1>   0.0800 
 42 H       -0.0480     7.7970     2.1940 H     1 <1>   0.0800 
 43 H        1.7620     5.9520     2.3910 H     1 <1>   0.0800 
 44 H        1.9290     4.7970     1.1130 H     1 <1>   0.0800 
 45 H        1.9130     8.9220     1.8940 H     1 <1>   0.0800 
 46 H        1.1840     9.5720     0.4530 H     1 <1>   0.0800 
 47 H        3.4830     6.0580     0.0110 H     1 <1>   0.0800 
 48 H        3.6760     6.8630     1.5390 H     1 <1>   0.0800 
 49 H       -7.7330     7.5680    -0.5930 H     1 <1>   0.0800 
 50 H       -6.1860     8.0920     0.0620 H     1 <1>   0.0800 
 51 H       -7.0290     6.6990     0.7670 H     1 <1>   0.0800 
 52 H        1.9850     7.6600    -0.7410 H     1 <1>   0.4500 
 53 H        4.2130     9.1610     0.5460 H     1 <1>   0.0800 
 54 H        3.2770     9.6990    -0.8350 H     1 <1>   0.0800 
 55 H        4.3160     8.2990    -0.9770 H     1 <1>   0.0800 
@<TRIPOS>BOND
  1   1   2  2   
  2   2   3  am  
  3   2   4  1   
  4   3   5  1   
  5   3   6  1   
  6   4   7  1   
  7   4  28  1   
  8   4  29  1   
  9   5   8  1   
 10   5   9  1   
 11   5  30  1   
 12   6  10  1   
 13   6  11  1   
 14   6  31  1   
 15   7   9  1   
 16   8  12  ar  
 17   8  13  ar  
 18   9  14  1   
 19   9  32  1   
 20  10  11  1   
 21  10  33  1   
 22  10  34  1   
 23  11  35  1   
 24  11  36  1   
 25  12  15  ar  
 26  12  37  1   
 27  13  16  ar  
 28  13  38  1   
 29  14  17  2   
 30  14  18  am  
 31  15  19  ar  
 32  15  39  1   
 33  16  19  ar  
 34  16  40  1   
 35  18  20  1   
 36  18  21  1   
 37  19  22  1   
 38  20  23  1   
 39  20  41  1   
 40  20  42  1   
 41  21  24  1   
 42  21  43  1   
 43  21  44  1   
 44  22  25  1   
 45  23  26  1   
 46  23  45  1   
 47  23  46  1   
 48  24  26  1   
 49  24  47  1   
 50  24  48  1   
 51  25  49  1   
 52  25  50  1   
 53  25  51  1   
 54  26  27  1   
 55  26  52  1   
 56  27  53  1   
 57  27  54  1   
 58  27  55  1   
@<TRIPOS>SUBSTRUCTURE
  1 ****   5 GROUP 4 **** **** 0

# MOE 2024.06 (io_trps.svl 2023.06)
