@<TRIPOS>MOLECULE
NONAME
44 46 1 0 0 
SMALL
USER_CHARGES


@<TRIPOS>ATOM
  1 CL       3.5700     0.5910     0.2240 Cl    1 <1>  -0.1770 
  2 C        3.1210     2.2580     0.4630 C.ar  1 <1>   0.1770 
  3 C        2.1160     2.8260    -0.2990 C.ar  1 <1>   0.1600 
  4 C        3.7680     3.0110     1.4150 C.ar  1 <1>  -0.1500 
  5 N        1.7130     4.0820    -0.1840 N.ar  1 <1>  -0.6200 
  6 C        3.3530     4.3200     1.5410 C.ar  1 <1>  -0.1500 
  7 C        2.3340     4.8470     0.7390 C.ar  1 <1>   0.3960 
  8 C        1.9450     6.2500     0.9310 C.2   1 <1>   0.5440 
  9 O        1.9750     6.7190     2.0600 O.2   1 <1>  -0.5700 
 10 N        1.5710     7.0960    -0.1020 N.am  1 <1>  -0.6600 
 11 C        1.9020     6.7900    -1.5340 C.3   1 <1>   0.1400 
 12 C        0.8370     8.3640     0.1730 C.3   1 <1>   0.1400 
 13 C        2.3730     8.0030    -2.3560 C.3   1 <1>   0.1400 
 14 C        1.8060     9.5360     0.3810 C.3   1 <1>  -0.1600 
 15 N        3.2380     8.9210    -1.5610 N.am  1 <1>  -0.6600 
 16 C        2.5080    10.0270    -0.8910 C.3   1 <1>   0.1400 
 17 C        4.5120     8.5450    -1.1980 C.2   1 <1>   0.7150 
 18 O        4.9450     7.4660    -1.5650 O.2   1 <1>  -0.5700 
 19 C        5.3290     9.3880    -0.3690 C.2   1 <1>  -0.2370 
 20 N        5.7180     9.0430     0.8960 N.pl3 1 <1>   0.0480 
 21 C        5.8580    10.6230    -0.6420 C.2   1 <1>  -0.1500 
 22 C        6.4670    10.0530     1.3940 C.2   1 <1>  -0.3020 
 23 C        5.3620     7.7990     1.6040 C.3   1 <1>   0.0160 
 24 C        6.5830    11.0550     0.4720 C.2   1 <1>   0.0190 
 25 C        7.2890    12.3010     0.5830 C.1   1 <1>   0.5380 
 26 N        7.8420    13.2950     0.6670 N.1   1 <1>  -0.5570 
 27 H        1.6260     2.2100    -1.0330 H     1 <1>   0.1500 
 28 H        4.5500     2.5910     2.0220 H     1 <1>   0.1500 
 29 H        3.8150     4.9550     2.2750 H     1 <1>   0.1500 
 30 H        1.0430     6.3480    -2.0080 H     1 <1>   0.0800 
 31 H        2.6940     6.0630    -1.5680 H     1 <1>   0.0800 
 32 H        0.2500     8.2350     1.0670 H     1 <1>   0.0800 
 33 H        0.1550     8.5740    -0.6320 H     1 <1>   0.0800 
 34 H        1.5170     8.5370    -2.7250 H     1 <1>   0.0800 
 35 H        2.9230     7.6510    -3.2120 H     1 <1>   0.0800 
 36 H        2.5370     9.2690     1.1220 H     1 <1>   0.0800 
 37 H        1.2450    10.3610     0.7820 H     1 <1>   0.0800 
 38 H        3.1870    10.8210    -0.6370 H     1 <1>   0.0800 
 39 H        1.7810    10.4350    -1.5720 H     1 <1>   0.0800 
 40 H        5.7470    11.1780    -1.5580 H     1 <1>   0.1500 
 41 H        6.8910    10.0240     2.3830 H     1 <1>   0.1500 
 42 H        5.5950     6.9550     0.9810 H     1 <1>   0.0800 
 43 H        4.3110     7.8040     1.8240 H     1 <1>   0.0800 
 44 H        5.9180     7.7310     2.5210 H     1 <1>   0.0800 
@<TRIPOS>BOND
  1   1   2  1   
  2   2   3  ar  
  3   2   4  ar  
  4   3   5  ar  
  5   3  27  1   
  6   4   6  ar  
  7   4  28  1   
  8   5   7  ar  
  9   6   7  ar  
 10   6  29  1   
 11   7   8  1   
 12   8   9  2   
 13   8  10  am  
 14  10  11  1   
 15  10  12  1   
 16  11  13  1   
 17  11  30  1   
 18  11  31  1   
 19  12  14  1   
 20  12  32  1   
 21  12  33  1   
 22  13  15  1   
 23  13  34  1   
 24  13  35  1   
 25  14  16  1   
 26  14  36  1   
 27  14  37  1   
 28  15  16  1   
 29  15  17  am  
 30  16  38  1   
 31  16  39  1   
 32  17  18  2   
 33  17  19  1   
 34  19  20  1   
 35  19  21  2   
 36  20  22  1   
 37  20  23  1   
 38  21  24  1   
 39  21  40  1   
 40  22  24  2   
 41  22  41  1   
 42  23  42  1   
 43  23  43  1   
 44  23  44  1   
 45  24  25  1   
 46  25  26  3   
@<TRIPOS>SUBSTRUCTURE
  1 ****  17 GROUP 4 **** **** 0

# MOE 2024.06 (io_trps.svl 2023.06)
