@<TRIPOS>MOLECULE
NONAME
41 43 1 0 0 
SMALL
USER_CHARGES


@<TRIPOS>ATOM
  1 CL       1.9360    -1.6940     2.6040 Cl    1 <1>  -0.1770 
  2 C        2.2030    -1.6080     0.8680 C.ar  1 <1>   0.1770 
  3 C        1.7320    -2.6700     0.0560 C.ar  1 <1>   0.4100 
  4 C        2.8460    -0.5550     0.2950 C.ar  1 <1>   0.2170 
  5 N        1.8960    -2.6620    -1.2560 N.ar  1 <1>  -0.6200 
  6 N        1.1000    -3.7300     0.6080 N.pl3 1 <1>  -0.8690 
  7 N        2.9940    -0.5970    -1.0570 N.ar  1 <1>  -0.1790 
  8 C        3.4070     0.6520     1.0370 C.3   1 <1>  -0.0970 
  9 C        2.5240    -1.6300    -1.7840 C.ar  1 <1>   0.7710 
 10 C        0.5830    -4.9510    -0.0640 C.3   1 <1>   0.2890 
 11 N        2.6830    -1.6460    -3.1030 N.pl3 1 <1>  -0.9000 
 12 C       -0.8970    -5.1000     0.2490 C.3   1 <1>  -0.0800 
 13 C        1.1650    -6.1860     0.6180 C.3   1 <1>   0.1200 
 14 C       -0.8690    -5.7790     1.6240 C.3   1 <1>   0.1200 
 15 C       -1.6210    -5.9600    -0.8070 C.3   1 <1>  -0.0170 
 16 O        0.3630    -6.4310     1.7350 O.3   1 <1>  -0.5600 
 17 C       -3.0970    -6.1300    -0.4800 C.ar  1 <1>  -0.1430 
 18 C       -4.0060    -5.1060    -0.6540 C.ar  1 <1>  -0.1500 
 19 C       -3.6050    -7.3180     0.0070 C.ar  1 <1>  -0.1500 
 20 C       -5.3390    -5.3120    -0.3380 C.ar  1 <1>   0.1600 
 21 C       -4.9570    -7.4190     0.2930 C.ar  1 <1>   0.1600 
 22 N       -5.8360    -6.4440     0.1340 N.ar  1 <1>  -0.6200 
 23 H        1.0150    -3.7970     1.6310 H     1 <1>   0.4000 
 24 H        3.4640     0.1470    -1.5650 H     1 <1>   0.4570 
 25 H        3.2340     0.5790     2.0960 H     1 <1>   0.0800 
 26 H        2.9380     1.5570     0.6910 H     1 <1>   0.0800 
 27 H        4.4690     0.7280     0.8840 H     1 <1>   0.0800 
 28 H        0.7930    -4.9360    -1.1200 H     1 <1>   0.0800 
 29 H        3.1340    -0.9580    -3.7090 H     1 <1>   0.4000 
 30 H        2.3120    -2.4550    -3.6140 H     1 <1>   0.4000 
 31 H       -1.3820    -4.1420     0.3050 H     1 <1>   0.0800 
 32 H        2.1850    -6.0440     0.9300 H     1 <1>   0.0800 
 33 H        1.0990    -7.0450    -0.0260 H     1 <1>   0.0800 
 34 H       -1.6570    -6.4970     1.7630 H     1 <1>   0.0800 
 35 H       -0.9170    -5.0460     2.4110 H     1 <1>   0.0800 
 36 H       -1.1580    -6.9290    -0.8800 H     1 <1>   0.0800 
 37 H       -1.5360    -5.4880    -1.7710 H     1 <1>   0.0800 
 38 H       -3.6940    -4.1510    -1.0330 H     1 <1>   0.1500 
 39 H       -2.9660    -8.1660     0.1700 H     1 <1>   0.1500 
 40 H       -6.0340    -4.5010    -0.4800 H     1 <1>   0.1500 
 41 H       -5.3340    -8.3530     0.6730 H     1 <1>   0.1500 
@<TRIPOS>BOND
  1   1   2  1   
  2   2   3  ar  
  3   2   4  ar  
  4   3   5  ar  
  5   3   6  1   
  6   4   7  ar  
  7   4   8  1   
  8   5   9  ar  
  9   6  10  1   
 10   6  23  1   
 11   7   9  ar  
 12   7  24  1   
 13   8  25  1   
 14   8  26  1   
 15   8  27  1   
 16   9  11  1   
 17  10  12  1   
 18  10  13  1   
 19  10  28  1   
 20  11  29  1   
 21  11  30  1   
 22  12  14  1   
 23  12  15  1   
 24  12  31  1   
 25  13  16  1   
 26  13  32  1   
 27  13  33  1   
 28  14  16  1   
 29  14  34  1   
 30  14  35  1   
 31  15  17  1   
 32  15  36  1   
 33  15  37  1   
 34  17  18  ar  
 35  17  19  ar  
 36  18  20  ar  
 37  18  38  1   
 38  19  21  ar  
 39  19  39  1   
 40  20  22  ar  
 41  20  40  1   
 42  21  22  ar  
 43  21  41  1   
@<TRIPOS>SUBSTRUCTURE
  1 ****  10 GROUP 4 **** **** 0

# MOE 2024.06 (io_trps.svl 2023.06)
