@<TRIPOS>MOLECULE
NONAME
42 43 1 0 0 
SMALL
USER_CHARGES


@<TRIPOS>ATOM
  1 O        1.6660     3.5130     3.6050 O.co2 1 <1>  -0.9000 
  2 C        2.1670     4.3450     2.8270 C.2   1 <1>   1.0330 
  3 O        3.0970     5.0700     3.2270 O.co2 1 <1>  -0.9000 
  4 C        1.6390     4.4700     1.4700 C.2   1 <1>  -0.0060 
  5 N        2.1180     5.2910     0.4810 N.2   1 <1>  -0.5650 
  6 C        0.5800     3.8120     0.9520 C.2   1 <1>  -0.0100 
  7 C        1.3310     5.0820    -0.5040 C.2   1 <1>   0.2980 
  8 O        0.3910     4.2000    -0.2810 O.3   1 <1>  -0.2800 
  9 C        1.4430     5.7980    -1.8430 C.3   1 <1>   0.5230 
 10 N        2.4800     6.8830    -1.7360 N.4   1 <1>  -0.9590 
 11 C        1.9870     8.0270    -0.9170 C.3   1 <1>   0.4860 
 12 C        3.1290     7.2930    -3.0030 C.3   1 <1>   0.3430 
 13 C        3.1860     8.8260    -0.4500 C.ar  1 <1>  -0.1440 
 14 C        3.9770     6.1460    -3.5410 C.3   1 <1>  -0.2400 
 15 C        3.9530     8.3530     0.6070 C.ar  1 <1>  -0.1500 
 16 C        3.5320    10.0230    -1.0630 C.ar  1 <1>  -0.1500 
 17 C        5.0610     9.0620     1.0300 C.ar  1 <1>  -0.1500 
 18 C        4.6420    10.7320    -0.6370 C.ar  1 <1>  -0.1500 
 19 C        5.4170    10.2500     0.4140 C.ar  1 <1>   0.0830 
 20 O        6.5190    10.8780     0.8910 O.3   1 <1>  -0.3630 
 21 C        6.9190    12.1370     0.4050 C.3   1 <1>   0.1200 
 22 C        8.1560    12.5720     1.1860 C.3   1 <1>  -0.2400 
 23 H       -0.0610     3.0780     1.4100 H     1 <1>   0.1500 
 24 H        0.4870     6.2110    -2.1150 H     1 <1>   0.0800 
 25 H        1.7310     5.0730    -2.5840 H     1 <1>   0.0800 
 26 H        3.2000     6.4680    -1.1160 H     1 <1>   0.4500 
 27 H        1.4600     7.6640    -0.0480 H     1 <1>   0.0800 
 28 H        1.3210     8.6480    -1.4910 H     1 <1>   0.0800 
 29 H        3.7760     8.1370    -2.8190 H     1 <1>   0.0800 
 30 H        2.3880     7.5860    -3.7290 H     1 <1>   0.0800 
 31 H        4.6940     5.8270    -2.8040 H     1 <1>   0.0800 
 32 H        4.5220     6.4890    -4.4030 H     1 <1>   0.0800 
 33 H        3.3740     5.3120    -3.8470 H     1 <1>   0.0800 
 34 H        3.7010     7.4350     1.1220 H     1 <1>   0.1500 
 35 H        2.9440    10.4180    -1.8740 H     1 <1>   0.1500 
 36 H        5.6550     8.6950     1.8490 H     1 <1>   0.1500 
 37 H        4.8890    11.6550    -1.1290 H     1 <1>   0.1500 
 38 H        6.1110    12.8330     0.5550 H     1 <1>   0.0800 
 39 H        7.1460    12.0430    -0.6430 H     1 <1>   0.0800 
 40 H        7.9230    12.6450     2.2340 H     1 <1>   0.0800 
 41 H        8.4870    13.5340     0.8400 H     1 <1>   0.0800 
 42 H        8.9500    11.8620     1.0440 H     1 <1>   0.0800 
@<TRIPOS>BOND
  1   1   2  ar  
  2   2   3  ar  
  3   2   4  1   
  4   4   5  1   
  5   4   6  2   
  6   5   7  2   
  7   6   8  1   
  8   6  23  1   
  9   7   8  1   
 10   7   9  1   
 11   9  10  1   
 12   9  24  1   
 13   9  25  1   
 14  10  11  1   
 15  10  12  1   
 16  10  26  1   
 17  11  13  1   
 18  11  27  1   
 19  11  28  1   
 20  12  14  1   
 21  12  29  1   
 22  12  30  1   
 23  13  15  ar  
 24  13  16  ar  
 25  14  31  1   
 26  14  32  1   
 27  14  33  1   
 28  15  17  ar  
 29  15  34  1   
 30  16  18  ar  
 31  16  35  1   
 32  17  19  ar  
 33  17  36  1   
 34  18  19  ar  
 35  18  37  1   
 36  19  20  1   
 37  20  21  1   
 38  21  22  1   
 39  21  38  1   
 40  21  39  1   
 41  22  40  1   
 42  22  41  1   
 43  22  42  1   
@<TRIPOS>SUBSTRUCTURE
  1 ****  15 GROUP 4 **** **** 0

# MOE 2024.06 (io_trps.svl 2023.06)
