@<TRIPOS>MOLECULE
NONAME
53 55 1 0 0 
SMALL
USER_CHARGES


@<TRIPOS>ATOM
  1 O       -1.3720     0.2940     2.3480 O.2   1 <1>  -0.5700 
  2 C       -1.8190     0.9350     1.4240 C.2   1 <1>   0.5690 
  3 N       -2.5460     0.3120     0.4390 N.am  1 <1>  -0.6600 
  4 C       -1.5990     2.4590     1.4210 C.3   1 <1>   0.1710 
  5 C       -3.3510     0.9430    -0.6370 C.3   1 <1>   0.1400 
  6 C       -2.7310    -1.1610     0.4140 C.3   1 <1>   0.1400 
  7 N       -0.3840     2.9550     0.7120 N.3   1 <1>  -0.8100 
  8 C       -4.4220    -0.0980    -0.9580 C.3   1 <1>   0.2000 
  9 C       -3.6980    -1.4320    -0.7450 C.3   1 <1>  -0.0800 
 10 C       -0.1900     4.3980     0.9480 C.3   1 <1>   0.2530 
 11 C       -0.3760     2.6230    -0.7200 C.3   1 <1>   0.0300 
 12 O       -5.4380     0.0340    -0.0250 O.3   1 <1>  -0.6800 
 13 C       -4.6120    -2.6520    -0.5220 C.3   1 <1>  -0.0170 
 14 C        1.1450     4.8920     0.4040 C.ar  1 <1>  -0.1440 
 15 C       -3.7930    -3.9290    -0.4160 C.ar  1 <1>  -0.1440 
 16 C        2.3230     4.2560     0.7600 C.ar  1 <1>  -0.1500 
 17 C        1.2000     5.9870    -0.4460 C.ar  1 <1>  -0.1500 
 18 C       -3.4140    -4.4580     0.8020 C.ar  1 <1>  -0.1500 
 19 C       -3.3820    -4.6230    -1.5360 C.ar  1 <1>  -0.1500 
 20 C        3.5400     4.7050     0.2750 C.ar  1 <1>  -0.1500 
 21 C        2.4160     6.4360    -0.9310 C.ar  1 <1>  -0.1500 
 22 C       -2.6590    -5.6190     0.8390 C.ar  1 <1>   0.1600 
 23 C       -2.6300    -5.7770    -1.3890 C.ar  1 <1>   0.1600 
 24 C        3.5930     5.7980    -0.5740 C.ar  1 <1>  -0.1440 
 25 N       -2.2570    -6.2900    -0.2280 N.ar  1 <1>  -0.6200 
 26 C        4.9260     6.2920    -1.1050 C.3   1 <1>  -0.0970 
 27 H       -1.5250     2.7520     2.4530 H     1 <1>   0.0800 
 28 H       -2.4680     2.9430     1.0190 H     1 <1>   0.0800 
 29 H       -3.7910     1.8760    -0.3330 H     1 <1>   0.0800 
 30 H       -2.7260     1.0970    -1.4990 H     1 <1>   0.0800 
 31 H       -1.7870    -1.6600     0.2660 H     1 <1>   0.0800 
 32 H       -3.1520    -1.4770     1.3530 H     1 <1>   0.0800 
 33 H       -4.8420     0.0130    -1.9430 H     1 <1>   0.0800 
 34 H       -3.1000    -1.6180    -1.6200 H     1 <1>   0.0800 
 35 H       -0.9980     4.9490     0.4980 H     1 <1>   0.0800 
 36 H       -0.2060     4.5870     2.0080 H     1 <1>   0.0800 
 37 H        0.5430     2.9520    -1.1740 H     1 <1>   0.0800 
 38 H       -1.2010     3.0950    -1.2230 H     1 <1>   0.0800 
 39 H       -0.4360     1.5560    -0.8500 H     1 <1>   0.0800 
 40 H       -5.0430     0.0300     0.8710 H     1 <1>   0.4000 
 41 H       -5.3010    -2.7380    -1.3440 H     1 <1>   0.0800 
 42 H       -5.1960    -2.5260     0.3730 H     1 <1>   0.0800 
 43 H        2.2870     3.4010     1.4140 H     1 <1>   0.1500 
 44 H        0.2980     6.4950    -0.7340 H     1 <1>   0.1500 
 45 H       -3.6950    -3.9800     1.7230 H     1 <1>   0.1500 
 46 H       -3.6390    -4.2790    -2.5200 H     1 <1>   0.1500 
 47 H        4.4420     4.1970     0.5640 H     1 <1>   0.1500 
 48 H        2.4430     7.2870    -1.5880 H     1 <1>   0.1500 
 49 H       -2.3710    -6.0150     1.7970 H     1 <1>   0.1500 
 50 H       -2.3190    -6.3060    -2.2730 H     1 <1>   0.1500 
 51 H        5.6230     5.4780    -1.1860 H     1 <1>   0.0800 
 52 H        5.3300     7.0320    -0.4380 H     1 <1>   0.0800 
 53 H        4.8030     6.7310    -2.0780 H     1 <1>   0.0800 
@<TRIPOS>BOND
  1   1   2  2   
  2   2   3  am  
  3   2   4  1   
  4   3   5  1   
  5   3   6  1   
  6   4   7  1   
  7   4  27  1   
  8   4  28  1   
  9   5   8  1   
 10   5  29  1   
 11   5  30  1   
 12   6   9  1   
 13   6  31  1   
 14   6  32  1   
 15   7  10  1   
 16   7  11  1   
 17   8   9  1   
 18   8  12  1   
 19   8  33  1   
 20   9  13  1   
 21   9  34  1   
 22  10  14  1   
 23  10  35  1   
 24  10  36  1   
 25  11  37  1   
 26  11  38  1   
 27  11  39  1   
 28  12  40  1   
 29  13  15  1   
 30  13  41  1   
 31  13  42  1   
 32  14  16  ar  
 33  14  17  ar  
 34  15  18  ar  
 35  15  19  ar  
 36  16  20  ar  
 37  16  43  1   
 38  17  21  ar  
 39  17  44  1   
 40  18  22  ar  
 41  18  45  1   
 42  19  23  ar  
 43  19  46  1   
 44  20  24  ar  
 45  20  47  1   
 46  21  24  ar  
 47  21  48  1   
 48  22  25  ar  
 49  22  49  1   
 50  23  25  ar  
 51  23  50  1   
 52  24  26  1   
 53  26  51  1   
 54  26  52  1   
 55  26  53  1   
@<TRIPOS>SUBSTRUCTURE
  1 ****   3 GROUP 4 **** **** 0

# MOE 2024.06 (io_trps.svl 2023.06)
