@<TRIPOS>MOLECULE
NONAME
45 47 1 0 0 
SMALL
USER_CHARGES


@<TRIPOS>ATOM
  1 O       -0.5430     0.2900     1.1100 O.2   1 <1>  -0.5700 
  2 C       -1.5230     0.9420     0.7890 C.2   1 <1>   0.5440 
  3 N       -2.7270     0.2940     0.6290 N.am  1 <1>  -0.6600 
  4 C       -1.4170     2.3660     0.5630 C.ar  1 <1>   0.0860 
  5 C       -3.7850     0.7720    -0.3000 C.3   1 <1>   0.1400 
  6 C       -2.9140    -1.1530     0.8890 C.3   1 <1>   0.1400 
  7 C       -0.4700     2.8950    -0.3320 C.ar  1 <1>   0.1000 
  8 C       -2.2670     3.2500     1.2290 C.ar  1 <1>  -0.1500 
  9 C       -4.6710    -0.4460    -0.5990 C.3   1 <1>   0.2000 
 10 C       -3.7720    -1.6440    -0.2780 C.3   1 <1>  -0.0800 
 11 N        0.4230     2.0730    -1.0000 N.pl3 1 <1>  -0.9000 
 12 C       -0.4180     4.2670    -0.5560 C.ar  1 <1>  -0.1500 
 13 C       -2.1960     4.6090     1.0000 C.ar  1 <1>   0.0830 
 14 O       -5.7680    -0.4580     0.2710 O.3   1 <1>  -0.5600 
 15 C       -4.5230    -2.9540     0.0210 C.3   1 <1>   0.0200 
 16 C       -1.2760     5.1240     0.1030 C.ar  1 <1>  -0.1500 
 17 O       -3.0190     5.4540     1.6460 O.3   1 <1>  -0.5330 
 18 C       -6.8750     0.2680    -0.1620 C.3   1 <1>   0.0400 
 19 C       -3.5980    -4.1520     0.1620 C.2   1 <1>  -0.0400 
 20 O       -4.1100    -5.3030     0.5090 O.3   1 <1>  -0.0190 
 21 C       -2.2770    -4.3270    -0.0020 C.2   1 <1>  -0.1500 
 22 N       -3.2050    -6.2350     0.5890 N.2   1 <1>  -0.4100 
 23 C       -2.0890    -5.6750     0.2880 C.2   1 <1>   0.1080 
 24 C       -0.7580    -6.3910     0.2550 C.3   1 <1>  -0.0590 
 25 H       -4.3520     1.5710     0.1430 H     1 <1>   0.0800 
 26 H       -3.3220     1.1170    -1.2080 H     1 <1>   0.0800 
 27 H       -1.9740    -1.6730     0.9430 H     1 <1>   0.0800 
 28 H       -3.4410    -1.2700     1.8200 H     1 <1>   0.0800 
 29 H       -2.9810     2.8520     1.9270 H     1 <1>   0.1500 
 30 H       -5.0210    -0.4690    -1.6170 H     1 <1>   0.0800 
 31 H       -3.1220    -1.8000    -1.1200 H     1 <1>   0.0800 
 32 H        0.5530     1.1490    -0.5550 H     1 <1>   0.4000 
 33 H        1.3200     2.4830    -1.2740 H     1 <1>   0.4000 
 34 H        0.2990     4.6600    -1.2520 H     1 <1>   0.1500 
 35 H       -5.2180    -3.1550    -0.7750 H     1 <1>   0.0800 
 36 H       -5.0910    -2.8500     0.9290 H     1 <1>   0.0800 
 37 H       -1.2380     6.1850    -0.0660 H     1 <1>   0.1500 
 38 H       -3.5820     5.0070     2.3030 H     1 <1>   0.4500 
 39 H       -7.6350     0.2000     0.5960 H     1 <1>   0.0800 
 40 H       -7.2430    -0.1590    -1.0790 H     1 <1>   0.0800 
 41 H       -6.6000     1.2980    -0.3070 H     1 <1>   0.0800 
 42 H       -1.5100    -3.6310    -0.2860 H     1 <1>   0.1500 
 43 H       -0.3170    -6.2980    -0.7200 H     1 <1>   0.0800 
 44 H       -0.8960    -7.4340     0.4780 H     1 <1>   0.0800 
 45 H       -0.0980    -5.9630     0.9870 H     1 <1>   0.0800 
@<TRIPOS>BOND
  1   1   2  2   
  2   2   3  am  
  3   2   4  1   
  4   3   5  1   
  5   3   6  1   
  6   4   7  ar  
  7   4   8  ar  
  8   5   9  1   
  9   5  25  1   
 10   5  26  1   
 11   6  10  1   
 12   6  27  1   
 13   6  28  1   
 14   7  11  1   
 15   7  12  ar  
 16   8  13  ar  
 17   8  29  1   
 18   9  10  1   
 19   9  14  1   
 20   9  30  1   
 21  10  15  1   
 22  10  31  1   
 23  11  32  1   
 24  11  33  1   
 25  12  16  ar  
 26  12  34  1   
 27  13  16  ar  
 28  13  17  1   
 29  14  18  1   
 30  15  19  1   
 31  15  35  1   
 32  15  36  1   
 33  16  37  1   
 34  17  38  1   
 35  18  39  1   
 36  18  40  1   
 37  18  41  1   
 38  19  20  1   
 39  19  21  2   
 40  20  22  1   
 41  21  23  1   
 42  21  42  1   
 43  22  23  2   
 44  23  24  1   
 45  24  43  1   
 46  24  44  1   
 47  24  45  1   
@<TRIPOS>SUBSTRUCTURE
  1 ****   3 GROUP 4 **** **** 0

# MOE 2024.06 (io_trps.svl 2023.06)
