@<TRIPOS>MOLECULE
NONAME
59 62 1 0 0 
SMALL
USER_CHARGES


@<TRIPOS>ATOM
  1 O       -1.4300     2.6400     1.0830 O.3   1 <1>  -0.3630 
  2 C       -0.4600     2.5110     0.1430 C.ar  1 <1>   0.0830 
  3 C       -1.6830     1.6410     2.0650 C.3   1 <1>   0.1200 
  4 C        0.5170     1.5230     0.1760 C.ar  1 <1>  -0.1500 
  5 C       -0.4950     3.4030    -0.9170 C.ar  1 <1>  -0.1500 
  6 C       -2.1290     0.3110     1.4180 C.3   1 <1>   0.3430 
  7 C        1.4180     1.3980    -0.8670 C.ar  1 <1>   0.0830 
  8 C        0.4130     3.2910    -1.9550 C.ar  1 <1>  -0.1500 
  9 N       -2.7800     0.5370     0.0930 N.4   1 <1>  -0.9590 
 10 O        2.3110     0.3840    -0.7700 O.3   1 <1>  -0.3630 
 11 C        1.3660     2.2870    -1.9370 C.ar  1 <1>  -0.1500 
 12 C       -4.1680     1.0920     0.2250 C.3   1 <1>   0.3430 
 13 C       -2.7410    -0.6680    -0.7810 C.3   1 <1>   0.3430 
 14 C        3.4010     0.2850    -1.6620 C.3   1 <1>   0.0400 
 15 C       -4.7380     1.5050    -1.1420 C.3   1 <1>   0.1440 
 16 C       -3.2530    -0.3010    -2.1770 C.3   1 <1>  -0.1600 
 17 C       -6.1700     1.9310    -0.9430 C.ar  1 <1>   0.1660 
 18 C       -4.6590     0.3270    -2.1360 C.3   1 <1>  -0.1600 
 19 C       -4.0810     2.7940    -1.7050 C.3   1 <1>  -0.1600 
 20 N       -7.0490     1.2580    -0.2470 N.ar  1 <1>  -0.6200 
 21 C       -6.4380     3.1160    -1.5540 C.ar  1 <1>  -0.1430 
 22 C       -5.2250     3.6620    -2.2660 C.3   1 <1>  -0.0170 
 23 C       -8.2590     1.8200    -0.1800 C.ar  1 <1>   0.7200 
 24 C       -7.7090     3.6170    -1.4300 C.ar  1 <1>   0.1600 
 25 N       -8.6240     2.9770    -0.7420 N.ar  1 <1>  -0.6200 
 26 N       -9.2160     1.1460     0.5480 N.pl3 1 <1>  -0.8380 
 27 C       -9.1770    -0.3290     0.7460 C.3   1 <1>   0.1290 
 28 C      -10.4740     1.8120     0.9890 C.3   1 <1>   0.1290 
 29 H       -2.4650     2.0150     2.7000 H     1 <1>   0.0800 
 30 H       -0.8000     1.5100     2.6670 H     1 <1>   0.0800 
 31 H        0.6160     0.8410     0.9960 H     1 <1>   0.1500 
 32 H       -1.2300     4.1890    -0.9280 H     1 <1>   0.1500 
 33 H       -2.7900    -0.2210     2.0830 H     1 <1>   0.0800 
 34 H       -1.2520    -0.2990     1.2790 H     1 <1>   0.0800 
 35 H        0.3840     3.9880    -2.7760 H     1 <1>   0.1500 
 36 H       -2.2100     1.2720    -0.3600 H     1 <1>   0.4500 
 37 H        2.0570     2.2160    -2.7560 H     1 <1>   0.1500 
 38 H       -4.1670     1.9510     0.8750 H     1 <1>   0.0800 
 39 H       -4.8180     0.3480     0.6570 H     1 <1>   0.0800 
 40 H       -3.3620    -1.4440    -0.3610 H     1 <1>   0.0800 
 41 H       -1.7310    -1.0390    -0.8550 H     1 <1>   0.0800 
 42 H        4.0160    -0.5400    -1.3480 H     1 <1>   0.0800 
 43 H        3.9690     1.1980    -1.6240 H     1 <1>   0.0800 
 44 H        3.0290     0.1040    -2.6540 H     1 <1>   0.0800 
 45 H       -3.2830    -1.1920    -2.7800 H     1 <1>   0.0800 
 46 H       -2.5540     0.3710    -2.6440 H     1 <1>   0.0800 
 47 H       -4.9490     0.6530    -3.1210 H     1 <1>   0.0800 
 48 H       -5.3650    -0.4290    -1.8320 H     1 <1>   0.0800 
 49 H       -3.3380     2.5980    -2.4570 H     1 <1>   0.0800 
 50 H       -3.6180     3.3410    -0.9020 H     1 <1>   0.0800 
 51 H       -5.3340     3.5150    -3.3270 H     1 <1>   0.0800 
 52 H       -5.0740     4.7070    -2.0560 H     1 <1>   0.0800 
 53 H       -7.9790     4.5500    -1.8950 H     1 <1>   0.1500 
 54 H       -8.4860    -0.7890     0.0610 H     1 <1>   0.0800 
 55 H      -10.1520    -0.7490     0.5710 H     1 <1>   0.0800 
 56 H       -8.8720    -0.5490     1.7530 H     1 <1>   0.0800 
 57 H      -10.2980     2.8570     1.1800 H     1 <1>   0.0800 
 58 H      -10.8360     1.3580     1.8940 H     1 <1>   0.0800 
 59 H      -11.2200     1.7190     0.2190 H     1 <1>   0.0800 
@<TRIPOS>BOND
  1   1   2  1   
  2   1   3  1   
  3   2   4  ar  
  4   2   5  ar  
  5   3   6  1   
  6   3  29  1   
  7   3  30  1   
  8   4   7  ar  
  9   4  31  1   
 10   5   8  ar  
 11   5  32  1   
 12   6   9  1   
 13   6  33  1   
 14   6  34  1   
 15   7  10  1   
 16   7  11  ar  
 17   8  11  ar  
 18   8  35  1   
 19   9  12  1   
 20   9  13  1   
 21   9  36  1   
 22  10  14  1   
 23  11  37  1   
 24  12  15  1   
 25  12  38  1   
 26  12  39  1   
 27  13  16  1   
 28  13  40  1   
 29  13  41  1   
 30  14  42  1   
 31  14  43  1   
 32  14  44  1   
 33  15  17  1   
 34  15  18  1   
 35  15  19  1   
 36  16  18  1   
 37  16  45  1   
 38  16  46  1   
 39  17  20  ar  
 40  17  21  ar  
 41  18  47  1   
 42  18  48  1   
 43  19  22  1   
 44  19  49  1   
 45  19  50  1   
 46  20  23  ar  
 47  21  22  1   
 48  21  24  ar  
 49  22  51  1   
 50  22  52  1   
 51  23  25  ar  
 52  23  26  1   
 53  24  25  ar  
 54  24  53  1   
 55  26  27  1   
 56  26  28  1   
 57  27  54  1   
 58  27  55  1   
 59  27  56  1   
 60  28  57  1   
 61  28  58  1   
 62  28  59  1   
@<TRIPOS>SUBSTRUCTURE
  1 ****  12 GROUP 4 **** **** 0

# MOE 2024.06 (io_trps.svl 2023.06)
