@<TRIPOS>MOLECULE
NONAME
57 59 1 0 0 
SMALL
USER_CHARGES


@<TRIPOS>ATOM
  1 O        0.0060    -1.7810    -1.7890 O.2   1 <1>  -0.5700 
  2 C        0.3920    -1.8460    -0.6450 C.2   1 <1>   0.5690 
  3 N        1.7120    -1.7970    -0.3350 N.am  1 <1>  -0.7300 
  4 C       -0.6720    -1.9820     0.4600 C.3   1 <1>   0.4040 
  5 C        2.8000    -1.7870    -1.3330 C.3   1 <1>   0.2840 
  6 N       -2.0520    -1.5580     0.0140 N.4   1 <1>  -0.9590 
  7 C        3.9940    -2.4640    -0.6880 C.ar  1 <1>  -0.1430 
  8 C       -3.1310    -2.0590     0.9200 C.3   1 <1>   0.3430 
  9 C       -2.1330    -0.0840    -0.1980 C.3   1 <1>   0.3430 
 10 C        4.9870    -1.7130    -0.0770 C.ar  1 <1>  -0.1500 
 11 C        4.0860    -3.8450    -0.6890 C.ar  1 <1>  -0.1500 
 12 C       -4.5230    -1.7740     0.3330 C.3   1 <1>   0.0000 
 13 C       -3.4870     0.2760    -0.8120 C.3   1 <1>  -0.1600 
 14 C        6.0770    -2.3260     0.5410 C.ar  1 <1>   0.0820 
 15 C        5.1610    -4.4660    -0.0820 C.ar  1 <1>  -0.1500 
 16 C       -5.5890    -2.3040     1.3030 C.3   1 <1>   0.2000 
 17 C       -4.6620    -0.2560     0.0270 C.3   1 <1>  -0.1600 
 18 C       -4.8360    -2.6110    -0.9220 C.3   1 <1>  -0.1600 
 19 O        7.0410    -1.5890     1.1670 O.3   1 <1>  -0.3630 
 20 C        6.1620    -3.7290     0.5300 C.ar  1 <1>   0.0820 
 21 O       -5.7870    -1.4580     2.3740 O.3   1 <1>  -0.6800 
 22 C       -6.8590    -2.4780     0.4780 C.3   1 <1>  -0.1600 
 23 C       -6.3660    -2.7540    -0.9510 C.3   1 <1>  -0.1600 
 24 C        7.0450    -0.1780     1.1630 C.3   1 <1>   0.0400 
 25 O        7.1590    -4.4780     1.0810 O.3   1 <1>  -0.3630 
 26 C        8.4780    -3.9910     1.1930 C.3   1 <1>   0.0400 
 27 H        2.0680    -1.9150     0.6180 H     1 <1>   0.3700 
 28 H       -0.3690    -1.3980     1.3110 H     1 <1>   0.0800 
 29 H       -0.6970    -3.0160     0.7560 H     1 <1>   0.0800 
 30 H        2.5010    -2.3190    -2.2220 H     1 <1>   0.0800 
 31 H        3.0380    -0.7730    -1.6040 H     1 <1>   0.0800 
 32 H       -2.1830    -1.9780    -0.9210 H     1 <1>   0.4500 
 33 H       -3.0240    -3.1200     1.0710 H     1 <1>   0.0800 
 34 H       -3.0570    -1.5730     1.8800 H     1 <1>   0.0800 
 35 H       -2.0200     0.4280     0.7440 H     1 <1>   0.0800 
 36 H       -1.3460     0.2390    -0.8620 H     1 <1>   0.0800 
 37 H        4.8940    -0.6450    -0.0880 H     1 <1>   0.1500 
 38 H        3.3260    -4.4450    -1.1590 H     1 <1>   0.1500 
 39 H       -3.5620     1.3470    -0.8810 H     1 <1>   0.0800 
 40 H       -3.5340    -0.1050    -1.8170 H     1 <1>   0.0800 
 41 H        5.2350    -5.5390    -0.0800 H     1 <1>   0.1500 
 42 H       -5.2900    -3.2620     1.6950 H     1 <1>   0.0800 
 43 H       -5.5880    -0.0520    -0.4820 H     1 <1>   0.0800 
 44 H       -4.6770     0.2990     0.9500 H     1 <1>   0.0800 
 45 H       -4.4700    -2.1780    -1.8370 H     1 <1>   0.0800 
 46 H       -4.4090    -3.5940    -0.8200 H     1 <1>   0.0800 
 47 H       -6.4860    -0.8070     2.1650 H     1 <1>   0.4000 
 48 H       -7.4470    -3.2990     0.8510 H     1 <1>   0.0800 
 49 H       -7.4520    -1.5790     0.4840 H     1 <1>   0.0800 
 50 H       -6.6500    -3.7400    -1.2780 H     1 <1>   0.0800 
 51 H       -6.7960    -2.0340    -1.6280 H     1 <1>   0.0800 
 52 H        7.9190     0.1540     1.6930 H     1 <1>   0.0800 
 53 H        6.1610     0.1760     1.6630 H     1 <1>   0.0800 
 54 H        7.0830     0.1690     0.1450 H     1 <1>   0.0800 
 55 H        9.1340    -4.8300     1.3320 H     1 <1>   0.0800 
 56 H        8.5360    -3.3400     2.0470 H     1 <1>   0.0800 
 57 H        8.7370    -3.4640     0.2920 H     1 <1>   0.0800 
@<TRIPOS>BOND
  1   1   2  2   
  2   2   3  am  
  3   2   4  1   
  4   3   5  1   
  5   3  27  1   
  6   4   6  1   
  7   4  28  1   
  8   4  29  1   
  9   5   7  1   
 10   5  30  1   
 11   5  31  1   
 12   6   8  1   
 13   6   9  1   
 14   6  32  1   
 15   7  10  ar  
 16   7  11  ar  
 17   8  12  1   
 18   8  33  1   
 19   8  34  1   
 20   9  13  1   
 21   9  35  1   
 22   9  36  1   
 23  10  14  ar  
 24  10  37  1   
 25  11  15  ar  
 26  11  38  1   
 27  12  16  1   
 28  12  17  1   
 29  12  18  1   
 30  13  17  1   
 31  13  39  1   
 32  13  40  1   
 33  14  19  1   
 34  14  20  ar  
 35  15  20  ar  
 36  15  41  1   
 37  16  21  1   
 38  16  22  1   
 39  16  42  1   
 40  17  43  1   
 41  17  44  1   
 42  18  23  1   
 43  18  45  1   
 44  18  46  1   
 45  19  24  1   
 46  20  25  1   
 47  21  47  1   
 48  22  23  1   
 49  22  48  1   
 50  22  49  1   
 51  23  50  1   
 52  23  51  1   
 53  24  52  1   
 54  24  53  1   
 55  24  54  1   
 56  25  26  1   
 57  26  55  1   
 58  26  56  1   
 59  26  57  1   
@<TRIPOS>SUBSTRUCTURE
  1 ****   2 GROUP 4 **** **** 0

# MOE 2024.06 (io_trps.svl 2023.06)
