@<TRIPOS>MOLECULE
NONAME
56 58 1 0 0 
SMALL
USER_CHARGES


@<TRIPOS>ATOM
  1 O       -0.4530    -0.2470    -0.1740 O.2   1 <1>  -0.5700 
  2 C       -1.4270     0.4680    -0.3120 C.2   1 <1>   0.7160 
  3 N       -2.6050    -0.0910    -0.7110 N.am  1 <1>  -0.7300 
  4 C       -1.3560     1.8780    -0.0590 C.2   1 <1>  -0.0860 
  5 C       -2.9500    -1.4980    -0.9860 C.3   1 <1>   0.2200 
  6 C       -2.4340     2.7780    -0.0750 C.2   1 <1>   0.3720 
  7 C       -0.3000     2.6750     0.2730 C.2   1 <1>   0.0870 
  8 C       -2.8080    -2.3260     0.3040 C.3   1 <1>  -0.1600 
  9 C       -2.1210    -1.9940    -2.1700 C.3   1 <1>  -0.2400 
 10 N       -2.0560     3.9680     0.2320 N.2   1 <1>  -0.4100 
 11 N       -3.7670     2.4620    -0.3790 N.pl3 1 <1>  -0.8210 
 12 O       -0.7720     3.8850     0.4400 O.3   1 <1>  -0.0190 
 13 C        1.1120     2.4520     0.4540 C.ar  1 <1>   0.0530 
 14 C       -3.3370    -3.7750     0.2020 C.3   1 <1>  -0.0800 
 15 C       -4.2740     3.1270    -1.6140 C.3   1 <1>   0.2090 
 16 C       -4.7200     2.7460     0.7320 C.3   1 <1>   0.2090 
 17 C        1.8570     1.6470    -0.4090 C.ar  1 <1>  -0.1500 
 18 C        1.7960     3.0640     1.5050 C.ar  1 <1>  -0.1500 
 19 C       -3.9580    -4.2070     1.5370 C.3   1 <1>  -0.2400 
 20 C       -2.2220    -4.7670    -0.1600 C.3   1 <1>  -0.2400 
 21 C       -5.7090     3.5310    -1.3100 C.3   1 <1>  -0.1600 
 22 C       -5.7110     3.7670     0.1910 C.3   1 <1>  -0.1600 
 23 C        3.2130     1.4510    -0.2310 C.ar  1 <1>  -0.1500 
 24 C        3.1530     2.8760     1.6890 C.ar  1 <1>  -0.1500 
 25 C        3.8750     2.0680     0.8270 C.ar  1 <1>   0.0830 
 26 O        5.1990     1.9300     1.0750 O.3   1 <1>  -0.3630 
 27 C        6.0120     1.0930     0.2830 C.3   1 <1>   0.0400 
 28 H       -3.3900     0.5760    -0.7330 H     1 <1>   0.3700 
 29 H       -3.9860    -1.5170    -1.2800 H     1 <1>   0.0800 
 30 H       -3.3650    -1.8090     1.0650 H     1 <1>   0.0800 
 31 H       -1.7790    -2.3400     0.6200 H     1 <1>   0.0800 
 32 H       -1.0960    -2.1380    -1.8810 H     1 <1>   0.0800 
 33 H       -2.1650    -1.2850    -2.9760 H     1 <1>   0.0800 
 34 H       -2.5120    -2.9270    -2.5290 H     1 <1>   0.0800 
 35 H       -4.1080    -3.8230    -0.5500 H     1 <1>   0.0800 
 36 H       -4.2280     2.4530    -2.4520 H     1 <1>   0.0800 
 37 H       -3.6860     4.0040    -1.8340 H     1 <1>   0.0800 
 38 H       -4.2160     3.1220     1.6080 H     1 <1>   0.0800 
 39 H       -5.2320     1.8340     0.9890 H     1 <1>   0.0800 
 40 H        1.3620     1.1660    -1.2340 H     1 <1>   0.1500 
 41 H        1.2540     3.6950     2.1860 H     1 <1>   0.1500 
 42 H       -3.2290    -4.1570     2.3270 H     1 <1>   0.0800 
 43 H       -4.3230    -5.2170     1.4710 H     1 <1>   0.0800 
 44 H       -4.7850    -3.5690     1.7910 H     1 <1>   0.0800 
 45 H       -1.4580    -4.7680     0.5980 H     1 <1>   0.0800 
 46 H       -1.7620    -4.5180    -1.0970 H     1 <1>   0.0800 
 47 H       -2.6210    -5.7620    -0.2410 H     1 <1>   0.0800 
 48 H       -6.3650     2.7150    -1.5580 H     1 <1>   0.0800 
 49 H       -6.0030     4.4040    -1.8640 H     1 <1>   0.0800 
 50 H       -5.3420     4.7550     0.4080 H     1 <1>   0.0800 
 51 H       -6.6870     3.6510     0.6280 H     1 <1>   0.0800 
 52 H        3.7360     0.8170    -0.9210 H     1 <1>   0.1500 
 53 H        3.6640     3.3540     2.5050 H     1 <1>   0.1500 
 54 H        7.0120     1.1300     0.6770 H     1 <1>   0.0800 
 55 H        6.0040     1.4550    -0.7290 H     1 <1>   0.0800 
 56 H        5.6340     0.0880     0.3370 H     1 <1>   0.0800 
@<TRIPOS>BOND
  1   1   2  2   
  2   2   3  am  
  3   2   4  1   
  4   3   5  1   
  5   3  28  1   
  6   4   6  1   
  7   4   7  2   
  8   5   8  1   
  9   5   9  1   
 10   5  29  1   
 11   6  10  2   
 12   6  11  1   
 13   7  12  1   
 14   7  13  1   
 15   8  14  1   
 16   8  30  1   
 17   8  31  1   
 18   9  32  1   
 19   9  33  1   
 20   9  34  1   
 21  10  12  1   
 22  11  15  1   
 23  11  16  1   
 24  13  17  ar  
 25  13  18  ar  
 26  14  19  1   
 27  14  20  1   
 28  14  35  1   
 29  15  21  1   
 30  15  36  1   
 31  15  37  1   
 32  16  22  1   
 33  16  38  1   
 34  16  39  1   
 35  17  23  ar  
 36  17  40  1   
 37  18  24  ar  
 38  18  41  1   
 39  19  42  1   
 40  19  43  1   
 41  19  44  1   
 42  20  45  1   
 43  20  46  1   
 44  20  47  1   
 45  21  22  1   
 46  21  48  1   
 47  21  49  1   
 48  22  50  1   
 49  22  51  1   
 50  23  25  ar  
 51  23  52  1   
 52  24  25  ar  
 53  24  53  1   
 54  25  26  1   
 55  26  27  1   
 56  27  54  1   
 57  27  55  1   
 58  27  56  1   
@<TRIPOS>SUBSTRUCTURE
  1 ****   2 GROUP 4 **** **** 0

# MOE 2024.06 (io_trps.svl 2023.06)
