@<TRIPOS>MOLECULE
NONAME
60 64 1 0 0 
SMALL
USER_CHARGES


@<TRIPOS>ATOM
  1 O        0.0830     0.9040     1.2790 O.2   1 <1>  -0.5700 
  2 C        0.3010     1.9740     0.7620 C.2   1 <1>   0.5690 
  3 N       -0.6910     2.9190     0.6520 N.am  1 <1>  -0.6600 
  4 C        1.6960     2.2870     0.2160 C.3   1 <1>  -0.0990 
  5 C       -2.0980     2.6150     1.0630 C.3   1 <1>   0.1400 
  6 C       -0.5510     4.2790     0.0630 C.3   1 <1>   0.1400 
  7 C        2.7790     1.1780     0.1630 C.3   1 <1>   0.0000 
  8 C       -3.0480     2.6770    -0.1610 C.3   1 <1>   0.0000 
  9 C       -1.4430     4.3870    -1.1790 C.3   1 <1>  -0.1600 
 10 C        4.0490     1.7780    -0.4910 C.3   1 <1>  -0.1600 
 11 C        3.1700     0.6750     1.5750 C.3   1 <1>  -0.1600 
 12 C        2.3280    -0.0280    -0.6980 C.3   1 <1>  -0.1600 
 13 C       -4.5040     2.3950     0.2490 C.3   1 <1>   0.2000 
 14 C       -2.9090     4.0510    -0.8530 C.3   1 <1>  -0.1600 
 15 C       -2.7660     1.5060    -1.1190 C.3   1 <1>  -0.1600 
 16 C        5.1770     0.7340    -0.5850 C.3   1 <1>  -0.0800 
 17 C        4.2870    -0.3820     1.4900 C.3   1 <1>  -0.0800 
 18 C        3.4450    -1.0850    -0.7850 C.3   1 <1>  -0.0800 
 19 O       -4.8260     3.0190     1.4570 O.3   1 <1>  -0.5600 
 20 C       -4.6190     0.8710     0.3550 C.3   1 <1>  -0.1600 
 21 C       -3.4920     0.3000    -0.5170 C.3   1 <1>  -0.1600 
 22 C        5.5290     0.2420     0.8300 C.3   1 <1>  -0.1600 
 23 C        4.6920    -0.4570    -1.4320 C.3   1 <1>  -0.1600 
 24 C        3.7970    -1.5670     0.6350 C.3   1 <1>  -0.1600 
 25 C       -6.1870     3.0670     1.7490 C.3   1 <1>   0.0400 
 26 H        1.5590     2.6410    -0.7880 H     1 <1>   0.0800 
 27 H        2.0820     3.1020     0.7990 H     1 <1>   0.0800 
 28 H       -2.1600     1.6480     1.5310 H     1 <1>   0.0800 
 29 H       -2.4010     3.3420     1.7950 H     1 <1>   0.0800 
 30 H       -0.8620     5.0040     0.7950 H     1 <1>   0.0800 
 31 H        0.4680     4.4960    -0.1990 H     1 <1>   0.0800 
 32 H       -1.3840     5.3880    -1.5690 H     1 <1>   0.0800 
 33 H       -1.0720     3.7190    -1.9360 H     1 <1>   0.0800 
 34 H        3.8200     2.1350    -1.4790 H     1 <1>   0.0800 
 35 H        4.3960     2.6180     0.0860 H     1 <1>   0.0800 
 36 H        3.4990     1.5000     2.1810 H     1 <1>   0.0800 
 37 H        2.3210     0.2340     2.0660 H     1 <1>   0.0800 
 38 H        1.4550    -0.4870    -0.2710 H     1 <1>   0.0800 
 39 H        2.0680     0.3030    -1.6870 H     1 <1>   0.0800 
 40 H       -5.1640     2.7590    -0.5220 H     1 <1>   0.0800 
 41 H       -3.4950     4.0760    -1.7550 H     1 <1>   0.0800 
 42 H       -3.2990     4.8070    -0.1930 H     1 <1>   0.0800 
 43 H       -3.1890     1.7180    -2.0860 H     1 <1>   0.0800 
 44 H       -1.7150     1.3100    -1.2430 H     1 <1>   0.0800 
 45 H        6.0460     1.1750    -1.0430 H     1 <1>   0.0800 
 46 H        4.5340    -0.7270     2.4790 H     1 <1>   0.0800 
 47 H        3.1080    -1.9190    -1.3770 H     1 <1>   0.0800 
 48 H       -4.4750     0.5570     1.3750 H     1 <1>   0.0800 
 49 H       -5.5800     0.5390     0.0050 H     1 <1>   0.0800 
 50 H       -2.8080    -0.2600     0.1000 H     1 <1>   0.0800 
 51 H       -3.8730    -0.3480    -1.2880 H     1 <1>   0.0800 
 52 H        5.8830     1.0650     1.4250 H     1 <1>   0.0800 
 53 H        6.3180    -0.4870     0.7770 H     1 <1>   0.0800 
 54 H        5.4730    -1.1930    -1.5080 H     1 <1>   0.0800 
 55 H        4.4570    -0.1250    -2.4280 H     1 <1>   0.0800 
 56 H        2.9300    -2.0090     1.0930 H     1 <1>   0.0800 
 57 H        4.5630    -2.3210     0.5850 H     1 <1>   0.0800 
 58 H       -6.3080     3.5850     2.6840 H     1 <1>   0.0800 
 59 H       -6.5710     2.0660     1.8400 H     1 <1>   0.0800 
 60 H       -6.7000     3.6020     0.9690 H     1 <1>   0.0800 
@<TRIPOS>BOND
  1   1   2  2   
  2   2   3  am  
  3   2   4  1   
  4   3   5  1   
  5   3   6  1   
  6   4   7  1   
  7   4  26  1   
  8   4  27  1   
  9   5   8  1   
 10   5  28  1   
 11   5  29  1   
 12   6   9  1   
 13   6  30  1   
 14   6  31  1   
 15   7  10  1   
 16   7  11  1   
 17   7  12  1   
 18   8  13  1   
 19   8  14  1   
 20   8  15  1   
 21   9  14  1   
 22   9  32  1   
 23   9  33  1   
 24  10  16  1   
 25  10  34  1   
 26  10  35  1   
 27  11  17  1   
 28  11  36  1   
 29  11  37  1   
 30  12  18  1   
 31  12  38  1   
 32  12  39  1   
 33  13  19  1   
 34  13  20  1   
 35  13  40  1   
 36  14  41  1   
 37  14  42  1   
 38  15  21  1   
 39  15  43  1   
 40  15  44  1   
 41  16  22  1   
 42  16  23  1   
 43  16  45  1   
 44  17  22  1   
 45  17  24  1   
 46  17  46  1   
 47  18  23  1   
 48  18  24  1   
 49  18  47  1   
 50  19  25  1   
 51  20  21  1   
 52  20  48  1   
 53  20  49  1   
 54  21  50  1   
 55  21  51  1   
 56  22  52  1   
 57  22  53  1   
 58  23  54  1   
 59  23  55  1   
 60  24  56  1   
 61  24  57  1   
 62  25  58  1   
 63  25  59  1   
 64  25  60  1   
@<TRIPOS>SUBSTRUCTURE
  1 ****   2 GROUP 4 **** **** 0

# MOE 2024.06 (io_trps.svl 2023.06)
