@<TRIPOS>MOLECULE
NONAME
69 72 1 0 0 
SMALL
USER_CHARGES


@<TRIPOS>ATOM
  1 O       -1.5790    -1.4290    -0.0690 O.2   1 <1>  -0.5700 
  2 C       -2.0860    -0.3730    -0.3700 C.2   1 <1>   0.5690 
  3 N       -3.3400    -0.3250    -0.8890 N.am  1 <1>  -0.7300 
  4 C       -1.3230     0.9260    -0.1270 C.3   1 <1>  -0.0190 
  5 C       -4.1620    -1.5050    -1.2480 C.3   1 <1>   0.1400 
  6 C       -2.0990     1.8950     0.7880 C.3   1 <1>  -0.1600 
  7 C       -0.9200     1.6100    -1.4560 C.3   1 <1>  -0.1600 
  8 C       -5.2170    -1.8440    -0.1590 C.3   1 <1>   0.1430 
  9 C       -1.2650     3.1410     1.1570 C.3   1 <1>   0.2000 
 10 C       -0.6280     3.1180    -1.3150 C.3   1 <1>  -0.1600 
 11 C       -6.2120    -0.6630    -0.0730 C.ar  1 <1>  -0.1440 
 12 C       -5.9810    -3.1300    -0.5520 C.3   1 <1>  -0.1600 
 13 C       -4.5350    -2.1400     1.2000 C.3   1 <1>  -0.1600 
 14 O       -2.1440     4.2320     1.2730 O.3   1 <1>  -0.5600 
 15 C       -0.1760     3.4740     0.1030 C.3   1 <1>   0.2000 
 16 C       -7.0140    -0.3610    -1.1720 C.ar  1 <1>  -0.1500 
 17 C       -6.3390     0.1420     1.0580 C.ar  1 <1>  -0.1500 
 18 C       -5.1010    -4.3840    -0.5570 C.3   1 <1>   0.3430 
 19 C       -3.6250    -3.3630     1.1490 C.3   1 <1>   0.3430 
 20 C       -2.8060     4.3340     2.4950 C.3   1 <1>   0.0400 
 21 O        0.0920     4.8270     0.1390 O.3   1 <1>  -0.6800 
 22 C       -7.9110     0.6920    -1.1410 C.ar  1 <1>  -0.1500 
 23 C       -7.2360     1.1960     1.0910 C.ar  1 <1>  -0.1500 
 24 N       -4.4260    -4.5540     0.7610 N.4   1 <1>  -0.9590 
 25 C       -8.0250     1.4720    -0.0080 C.ar  1 <1>  -0.1500 
 26 C       -3.5830    -5.7810     0.7890 C.3   1 <1>   0.4870 
 27 C       -4.4760    -6.9900     0.5850 C.ar  1 <1>  -0.1430 
 28 C       -4.4610    -7.6720    -0.6240 C.ar  1 <1>  -0.1500 
 29 C       -5.3180    -7.4210     1.6010 C.ar  1 <1>  -0.1500 
 30 C       -5.2880    -8.7650    -0.8180 C.ar  1 <1>  -0.1500 
 31 C       -6.1440    -8.5140     1.4050 C.ar  1 <1>  -0.1500 
 32 C       -6.1310    -9.1840     0.1950 C.ar  1 <1>  -0.1500 
 33 H       -3.7880     0.5860    -1.0370 H     1 <1>   0.3700 
 34 H       -0.4170     0.6580     0.3900 H     1 <1>   0.0800 
 35 H       -4.6530    -1.3020    -2.1840 H     1 <1>   0.0800 
 36 H       -3.5060    -2.3400    -1.4140 H     1 <1>   0.0800 
 37 H       -2.3860     1.3860     1.6900 H     1 <1>   0.0800 
 38 H       -2.9930     2.2110     0.2780 H     1 <1>   0.0800 
 39 H       -0.0430     1.1140    -1.8380 H     1 <1>   0.0800 
 40 H       -1.6960     1.4880    -2.1910 H     1 <1>   0.0800 
 41 H       -0.7690     2.9900     2.1020 H     1 <1>   0.0800 
 42 H       -1.5270     3.6700    -1.5330 H     1 <1>   0.0800 
 43 H        0.1270     3.4080    -2.0240 H     1 <1>   0.0800 
 44 H       -6.4070    -3.0270    -1.5340 H     1 <1>   0.0800 
 45 H       -6.8010    -3.2810     0.1280 H     1 <1>   0.0800 
 46 H       -5.2810    -2.2990     1.9590 H     1 <1>   0.0800 
 47 H       -3.9410    -1.2990     1.5090 H     1 <1>   0.0800 
 48 H        0.7380     2.9510     0.3290 H     1 <1>   0.0800 
 49 H       -6.9580    -0.9350    -2.0780 H     1 <1>   0.1500 
 50 H       -5.7520    -0.0170     1.9420 H     1 <1>   0.1500 
 51 H       -4.3610    -4.3040    -1.3370 H     1 <1>   0.0800 
 52 H       -5.7160    -5.2460    -0.7690 H     1 <1>   0.0800 
 53 H       -3.1750    -3.5150     2.1170 H     1 <1>   0.0800 
 54 H       -2.8330    -3.2040     0.4350 H     1 <1>   0.0800 
 55 H       -3.4390     5.2030     2.4600 H     1 <1>   0.0800 
 56 H       -2.0810     4.4480     3.2830 H     1 <1>   0.0800 
 57 H       -3.4070     3.4570     2.6550 H     1 <1>   0.0800 
 58 H       -0.7520     5.2600     0.3990 H     1 <1>   0.4000 
 59 H       -8.5230     0.9060    -2.0010 H     1 <1>   0.1500 
 60 H       -7.3220     1.8050     1.9740 H     1 <1>   0.1500 
 61 H       -5.1660    -4.6950     1.4590 H     1 <1>   0.4500 
 62 H       -8.7240     2.2900     0.0180 H     1 <1>   0.1500 
 63 H       -2.8360    -5.7390     0.0130 H     1 <1>   0.0800 
 64 H       -3.0830    -5.8670     1.7400 H     1 <1>   0.0800 
 65 H       -3.8080    -7.3690    -1.4250 H     1 <1>   0.1500 
 66 H       -5.3410    -6.9220     2.5550 H     1 <1>   0.1500 
 67 H       -5.2760    -9.2950    -1.7560 H     1 <1>   0.1500 
 68 H       -6.7980    -8.8500     2.1930 H     1 <1>   0.1500 
 69 H       -6.7730   -10.0350     0.0440 H     1 <1>   0.1500 
@<TRIPOS>BOND
  1   1   2  2   
  2   2   3  am  
  3   2   4  1   
  4   3   5  1   
  5   3  33  1   
  6   4   6  1   
  7   4   7  1   
  8   4  34  1   
  9   5   8  1   
 10   5  35  1   
 11   5  36  1   
 12   6   9  1   
 13   6  37  1   
 14   6  38  1   
 15   7  10  1   
 16   7  39  1   
 17   7  40  1   
 18   8  11  1   
 19   8  12  1   
 20   8  13  1   
 21   9  14  1   
 22   9  15  1   
 23   9  41  1   
 24  10  15  1   
 25  10  42  1   
 26  10  43  1   
 27  11  16  ar  
 28  11  17  ar  
 29  12  18  1   
 30  12  44  1   
 31  12  45  1   
 32  13  19  1   
 33  13  46  1   
 34  13  47  1   
 35  14  20  1   
 36  15  21  1   
 37  15  48  1   
 38  16  22  ar  
 39  16  49  1   
 40  17  23  ar  
 41  17  50  1   
 42  18  24  1   
 43  18  51  1   
 44  18  52  1   
 45  19  24  1   
 46  19  53  1   
 47  19  54  1   
 48  20  55  1   
 49  20  56  1   
 50  20  57  1   
 51  21  58  1   
 52  22  25  ar  
 53  22  59  1   
 54  23  25  ar  
 55  23  60  1   
 56  24  26  1   
 57  24  61  1   
 58  25  62  1   
 59  26  27  1   
 60  26  63  1   
 61  26  64  1   
 62  27  28  ar  
 63  27  29  ar  
 64  28  30  ar  
 65  28  65  1   
 66  29  31  ar  
 67  29  66  1   
 68  30  32  ar  
 69  30  67  1   
 70  31  32  ar  
 71  31  68  1   
 72  32  69  1   
@<TRIPOS>SUBSTRUCTURE
  1 ****   8 GROUP 4 **** **** 0

# MOE 2024.06 (io_trps.svl 2023.06)
