@<TRIPOS>MOLECULE
NONAME
58 61 1 0 0 
SMALL
USER_CHARGES


@<TRIPOS>ATOM
  1 O       -0.6360    -1.9890    -0.1870 O.2   1 <1>  -0.5700 
  2 C        0.4420    -2.5070    -0.3530 C.2   1 <1>   0.5690 
  3 N        0.9790    -2.7510    -1.5880 N.am  1 <1>  -0.6600 
  4 C        1.2520    -2.9200     0.8580 C.3   1 <1>  -0.0990 
  5 C        2.3070    -3.4030    -1.7140 C.3   1 <1>   0.1400 
  6 C        0.2690    -2.4200    -2.8510 C.3   1 <1>   0.0600 
  7 C        2.7190    -2.4870     0.6930 C.3   1 <1>  -0.0800 
  8 C        3.3020    -2.7950    -0.7070 C.3   1 <1>  -0.0800 
  9 C        3.6590    -3.1380     1.7170 C.3   1 <1>  -0.1600 
 10 C        4.5260    -3.6870    -0.4680 C.3   1 <1>  -0.1600 
 11 C        4.9620    -3.3490     0.9540 C.3   1 <1>   0.2200 
 12 N        5.8520    -4.3800     1.5800 N.am  1 <1>  -0.6600 
 13 C        7.0890    -4.0900     2.1170 C.2   1 <1>   0.5690 
 14 C        5.4000    -5.8070     1.5430 C.3   1 <1>   0.0600 
 15 O        7.7960    -4.9600     2.5720 O.2   1 <1>  -0.5700 
 16 C        7.6330    -2.6660     2.1750 C.3   1 <1>   0.0820 
 17 C        7.9750    -2.0990     0.8010 C.2   1 <1>  -0.1810 
 18 C        8.1460    -0.7300     0.4730 C.ar  1 <1>   0.0000 
 19 C        8.1520    -2.7870    -0.3430 C.2   1 <1>  -0.0100 
 20 C        8.1190     0.4950     1.1530 C.ar  1 <1>  -0.1440 
 21 C        8.4000    -0.7310    -0.8910 C.ar  1 <1>   0.1400 
 22 O        8.4010    -1.9810    -1.3620 O.3   1 <1>  -0.2800 
 23 C        8.3340     1.6540     0.4340 C.ar  1 <1>  -0.1500 
 24 C        7.8670     0.5710     2.6500 C.3   1 <1>  -0.0970 
 25 C        8.6150     0.4350    -1.6240 C.ar  1 <1>  -0.1440 
 26 C        8.5830     1.6400    -0.9420 C.ar  1 <1>  -0.1440 
 27 C        8.8810     0.3520    -3.1220 C.3   1 <1>  -0.0970 
 28 C        8.8150     2.9660    -1.6530 C.3   1 <1>  -0.0970 
 29 H        0.8320    -2.4750     1.7410 H     1 <1>   0.0800 
 30 H        1.1790    -3.9880     0.9510 H     1 <1>   0.0800 
 31 H        2.1810    -4.4560    -1.5250 H     1 <1>   0.0800 
 32 H        2.6870    -3.2840    -2.7150 H     1 <1>   0.0800 
 33 H        0.8510    -1.7200    -3.4230 H     1 <1>   0.0800 
 34 H       -0.6910    -1.9790    -2.6410 H     1 <1>   0.0800 
 35 H        0.1170    -3.3150    -3.4290 H     1 <1>   0.0800 
 36 H        2.7600    -1.4180     0.8260 H     1 <1>   0.0800 
 37 H        3.6510    -1.8630    -1.1220 H     1 <1>   0.0800 
 38 H        3.2550    -4.0780     2.0420 H     1 <1>   0.0800 
 39 H        3.8070    -2.5030     2.5720 H     1 <1>   0.0800 
 40 H        5.3090    -3.4800    -1.1760 H     1 <1>   0.0800 
 41 H        4.2370    -4.7190    -0.5420 H     1 <1>   0.0800 
 42 H        5.4550    -2.3960     0.9080 H     1 <1>   0.0800 
 43 H        4.3290    -5.8790     1.5450 H     1 <1>   0.0800 
 44 H        5.7750    -6.3380     2.4010 H     1 <1>   0.0800 
 45 H        5.7830    -6.2790     0.6550 H     1 <1>   0.0800 
 46 H        6.8950    -2.0550     2.6550 H     1 <1>   0.0800 
 47 H        8.5170    -2.6540     2.7850 H     1 <1>   0.0800 
 48 H        8.1140    -3.8460    -0.5320 H     1 <1>   0.1500 
 49 H        8.3130     2.6010     0.9430 H     1 <1>   0.1500 
 50 H        8.0310     1.5700     3.0140 H     1 <1>   0.0800 
 51 H        8.5370    -0.0870     3.1710 H     1 <1>   0.0800 
 52 H        6.8510     0.2960     2.8660 H     1 <1>   0.0800 
 53 H        8.2910     1.0780    -3.6490 H     1 <1>   0.0800 
 54 H        8.6280    -0.6210    -3.5050 H     1 <1>   0.0800 
 55 H        9.9220     0.5330    -3.3170 H     1 <1>   0.0800 
 56 H        8.9500     3.7660    -0.9470 H     1 <1>   0.0800 
 57 H        7.9700     3.2000    -2.2750 H     1 <1>   0.0800 
 58 H        9.6970     2.9120    -2.2650 H     1 <1>   0.0800 
@<TRIPOS>BOND
  1   1   2  2   
  2   2   3  am  
  3   2   4  1   
  4   3   5  1   
  5   3   6  1   
  6   4   7  1   
  7   4  29  1   
  8   4  30  1   
  9   5   8  1   
 10   5  31  1   
 11   5  32  1   
 12   6  33  1   
 13   6  34  1   
 14   6  35  1   
 15   7   8  1   
 16   7   9  1   
 17   7  36  1   
 18   8  10  1   
 19   8  37  1   
 20   9  11  1   
 21   9  38  1   
 22   9  39  1   
 23  10  11  1   
 24  10  40  1   
 25  10  41  1   
 26  11  12  1   
 27  11  42  1   
 28  12  13  am  
 29  12  14  1   
 30  13  15  2   
 31  13  16  1   
 32  14  43  1   
 33  14  44  1   
 34  14  45  1   
 35  16  17  1   
 36  16  46  1   
 37  16  47  1   
 38  17  18  1   
 39  17  19  2   
 40  18  20  ar  
 41  18  21  ar  
 42  19  22  1   
 43  19  48  1   
 44  20  23  ar  
 45  20  24  1   
 46  21  22  1   
 47  21  25  ar  
 48  23  26  ar  
 49  23  49  1   
 50  24  50  1   
 51  24  51  1   
 52  24  52  1   
 53  25  26  ar  
 54  25  27  1   
 55  26  28  1   
 56  27  53  1   
 57  27  54  1   
 58  27  55  1   
 59  28  56  1   
 60  28  57  1   
 61  28  58  1   
@<TRIPOS>SUBSTRUCTURE
  1 ****  11 GROUP 4 **** **** 0

# MOE 2024.06 (io_trps.svl 2023.06)
