@<TRIPOS>MOLECULE
NONAME
45 46 1 0 0 
SMALL
USER_CHARGES


@<TRIPOS>ATOM
  1 O       -0.6100     0.2250    -1.1760 O.2   1 <1>  -0.5700 
  2 C       -1.6320     0.7340    -0.7550 C.2   1 <1>   0.5440 
  3 N       -1.5790     2.0280    -0.2690 N.am  1 <1>  -0.6600 
  4 C       -2.8540    -0.0370    -0.7660 C.ar  1 <1>   0.0860 
  5 C       -2.5700     2.5900     0.6900 C.3   1 <1>   0.0600 
  6 C       -0.3900     2.8940    -0.5060 C.3   1 <1>   0.0600 
  7 C       -2.8500    -1.3670    -0.3540 C.ar  1 <1>   0.1600 
  8 C       -4.0740     0.4840    -1.1870 C.ar  1 <1>  -0.1500 
  9 N       -3.9000    -2.1690    -0.3000 N.ar  1 <1>  -0.6200 
 10 C       -5.1760    -0.3350    -1.1420 C.ar  1 <1>  -0.1500 
 11 C       -5.0560    -1.6470    -0.6920 C.ar  1 <1>   0.4100 
 12 N       -6.1640    -2.4510    -0.6480 N.pl3 1 <1>  -0.8690 
 13 C       -6.1040    -3.8900    -0.3220 C.3   1 <1>   0.2090 
 14 C       -7.5280    -4.4360    -0.2210 C.3   1 <1>  -0.1600 
 15 C       -7.5700    -5.9520     0.0400 C.3   1 <1>   0.0630 
 16 C       -9.0050    -6.4610    -0.0720 C.ar  1 <1>  -0.1430 
 17 C       -6.9750    -6.3330     1.4030 C.3   1 <1>  -0.2400 
 18 C       -9.9920    -6.0310     0.8050 C.ar  1 <1>  -0.1500 
 19 C       -9.3430    -7.3690    -1.0660 C.ar  1 <1>  -0.1500 
 20 C      -11.2900    -6.4980     0.6910 C.ar  1 <1>  -0.1500 
 21 C      -10.6400    -7.8380    -1.1820 C.ar  1 <1>  -0.1500 
 22 C      -11.6150    -7.4020    -0.3040 C.ar  1 <1>  -0.1500 
 23 H       -3.2130     1.8190     1.0760 H     1 <1>   0.0800 
 24 H       -3.1690     3.3360     0.1970 H     1 <1>   0.0800 
 25 H       -2.0560     3.0450     1.5190 H     1 <1>   0.0800 
 26 H        0.1820     2.5300    -1.3420 H     1 <1>   0.0800 
 27 H        0.2370     2.8930     0.3690 H     1 <1>   0.0800 
 28 H       -0.7050     3.9000    -0.7200 H     1 <1>   0.0800 
 29 H       -1.9060    -1.7850    -0.0490 H     1 <1>   0.1500 
 30 H       -4.1400     1.4980    -1.5380 H     1 <1>   0.1500 
 31 H       -6.1390     0.0230    -1.4520 H     1 <1>   0.1500 
 32 H       -6.9840    -2.1620    -1.1820 H     1 <1>   0.4000 
 33 H       -5.5820    -4.0160     0.6110 H     1 <1>   0.0800 
 34 H       -5.5560    -4.4050    -1.0940 H     1 <1>   0.0800 
 35 H       -8.0390    -4.2410    -1.1460 H     1 <1>   0.0800 
 36 H       -8.0440    -3.9190     0.5680 H     1 <1>   0.0800 
 37 H       -6.9800    -6.4370    -0.7200 H     1 <1>   0.0800 
 38 H       -7.4590    -5.7930     2.1970 H     1 <1>   0.0800 
 39 H       -5.9220    -6.1240     1.4350 H     1 <1>   0.0800 
 40 H       -7.1120    -7.3860     1.5760 H     1 <1>   0.0800 
 41 H       -9.7560    -5.3280     1.5840 H     1 <1>   0.1500 
 42 H       -8.5970    -7.7190    -1.7580 H     1 <1>   0.1500 
 43 H      -12.0470    -6.1580     1.3760 H     1 <1>   0.1500 
 44 H      -10.8900    -8.5420    -1.9560 H     1 <1>   0.1500 
 45 H      -12.6240    -7.7660    -0.3930 H     1 <1>   0.1500 
@<TRIPOS>BOND
  1   1   2  2   
  2   2   3  am  
  3   2   4  1   
  4   3   5  1   
  5   3   6  1   
  6   4   7  ar  
  7   4   8  ar  
  8   5  23  1   
  9   5  24  1   
 10   5  25  1   
 11   6  26  1   
 12   6  27  1   
 13   6  28  1   
 14   7   9  ar  
 15   7  29  1   
 16   8  10  ar  
 17   8  30  1   
 18   9  11  ar  
 19  10  11  ar  
 20  10  31  1   
 21  11  12  1   
 22  12  13  1   
 23  12  32  1   
 24  13  14  1   
 25  13  33  1   
 26  13  34  1   
 27  14  15  1   
 28  14  35  1   
 29  14  36  1   
 30  15  16  1   
 31  15  17  1   
 32  15  37  1   
 33  16  18  ar  
 34  16  19  ar  
 35  17  38  1   
 36  17  39  1   
 37  17  40  1   
 38  18  20  ar  
 39  18  41  1   
 40  19  21  ar  
 41  19  42  1   
 42  20  22  ar  
 43  20  43  1   
 44  21  22  ar  
 45  21  44  1   
 46  22  45  1   
@<TRIPOS>SUBSTRUCTURE
  1 ****  12 GROUP 4 **** **** 0

# MOE 2024.06 (io_trps.svl 2023.06)
