@<TRIPOS>MOLECULE
NONAME
48 49 1 0 0 
SMALL
USER_CHARGES


@<TRIPOS>ATOM
  1 S        0.1880     0.0680     0.6700 S.o2  1 <1>   1.3330 
  2 O       -1.0770     0.1610     1.3630 O.2   1 <1>  -0.6500 
  3 O        1.4220     0.1720     1.4150 O.2   1 <1>  -0.6500 
  4 N        0.2220    -1.3940    -0.1920 N.am  1 <1>  -0.8490 
  5 C        0.1830     1.2980    -0.6320 C.3   1 <1>  -0.0550 
  6 C        1.5720    -1.8030    -0.5930 C.3   1 <1>   0.1160 
  7 C       -0.4320    -2.4840     0.5390 C.3   1 <1>   0.1160 
  8 C        0.0570     2.7360    -0.1020 C.3   1 <1>  -0.0800 
  9 C       -0.0870     3.7580    -1.2250 C.3   1 <1>   0.2000 
 10 C        1.2750     3.2250     0.6870 C.3   1 <1>   0.1400 
 11 O       -1.4040     3.8170    -1.6490 O.3   1 <1>  -0.6800 
 12 C        0.3780     5.0810    -0.6220 C.3   1 <1>   0.1400 
 13 N        1.3310     4.6880     0.4460 N.am  1 <1>  -0.6600 
 14 C        2.4030     5.4550     0.8440 C.2   1 <1>   0.5440 
 15 O        3.3490     4.9010     1.3710 O.2   1 <1>  -0.5700 
 16 C        2.4300     6.8880     0.6260 C.ar  1 <1>   0.0860 
 17 C        3.5430     7.5020     0.0540 C.ar  1 <1>  -0.1500 
 18 C        1.3510     7.7010     0.9750 C.ar  1 <1>  -0.1500 
 19 C        3.5800     8.8640    -0.1860 C.ar  1 <1>  -0.1430 
 20 C        1.3580     9.0660     0.7470 C.ar  1 <1>  -0.1430 
 21 C        2.4800     9.6420     0.1590 C.ar  1 <1>   0.0830 
 22 C        4.8150     9.4910    -0.8180 C.3   1 <1>  -0.0970 
 23 C        0.1480     9.9000     1.1470 C.3   1 <1>  -0.0970 
 24 O        2.5060    10.9620    -0.0740 O.3   1 <1>  -0.5330 
 25 H        1.0770     1.2080    -1.2160 H     1 <1>   0.0800 
 26 H       -0.6510     1.1010    -1.2790 H     1 <1>   0.0800 
 27 H        1.5240    -2.6830    -1.2110 H     1 <1>   0.0800 
 28 H        2.1750    -2.0160     0.2750 H     1 <1>   0.0800 
 29 H        2.0460    -1.0180    -1.1580 H     1 <1>   0.0800 
 30 H       -0.4070    -3.3900    -0.0410 H     1 <1>   0.0800 
 31 H       -1.4630    -2.2350     0.7270 H     1 <1>   0.0800 
 32 H        0.0610    -2.6510     1.4820 H     1 <1>   0.0800 
 33 H       -0.7960     2.8040     0.5520 H     1 <1>   0.0800 
 34 H        0.5320     3.5070    -2.0690 H     1 <1>   0.0800 
 35 H        2.1840     2.7740     0.3230 H     1 <1>   0.0800 
 36 H        1.1780     3.0170     1.7400 H     1 <1>   0.0800 
 37 H       -2.0040     3.9650    -0.8920 H     1 <1>   0.4000 
 38 H       -0.4480     5.6120    -0.1820 H     1 <1>   0.0800 
 39 H        0.8630     5.6920    -1.3640 H     1 <1>   0.0800 
 40 H        4.3870     6.8850    -0.2000 H     1 <1>   0.1500 
 41 H        0.4990     7.2380     1.4400 H     1 <1>   0.1500 
 42 H        5.5700     8.7530    -1.0150 H     1 <1>   0.0800 
 43 H        5.2230    10.2330    -0.1560 H     1 <1>   0.0800 
 44 H        4.5470     9.9670    -1.7450 H     1 <1>   0.0800 
 45 H       -0.6150     9.2840     1.5890 H     1 <1>   0.0800 
 46 H       -0.2700    10.3840     0.2830 H     1 <1>   0.0800 
 47 H        0.4350    10.6450     1.8690 H     1 <1>   0.0800 
 48 H        1.6960    11.4120     0.2200 H     1 <1>   0.4500 
@<TRIPOS>BOND
  1   1   2  2   
  2   1   3  2   
  3   1   4  am  
  4   1   5  1   
  5   4   6  1   
  6   4   7  1   
  7   5   8  1   
  8   5  25  1   
  9   5  26  1   
 10   6  27  1   
 11   6  28  1   
 12   6  29  1   
 13   7  30  1   
 14   7  31  1   
 15   7  32  1   
 16   8   9  1   
 17   8  10  1   
 18   8  33  1   
 19   9  11  1   
 20   9  12  1   
 21   9  34  1   
 22  10  13  1   
 23  10  35  1   
 24  10  36  1   
 25  11  37  1   
 26  12  13  1   
 27  12  38  1   
 28  12  39  1   
 29  13  14  am  
 30  14  15  2   
 31  14  16  1   
 32  16  17  ar  
 33  16  18  ar  
 34  17  19  ar  
 35  17  40  1   
 36  18  20  ar  
 37  18  41  1   
 38  19  21  ar  
 39  19  22  1   
 40  20  21  ar  
 41  20  23  1   
 42  21  24  1   
 43  22  42  1   
 44  22  43  1   
 45  22  44  1   
 46  23  45  1   
 47  23  46  1   
 48  23  47  1   
 49  24  48  1   
@<TRIPOS>SUBSTRUCTURE
  1 ****  13 GROUP 4 **** **** 0

# MOE 2024.06 (io_trps.svl 2023.06)
