@<TRIPOS>MOLECULE
NONAME
47 48 1 0 0 
SMALL
USER_CHARGES


@<TRIPOS>ATOM
  1 O       -3.9980     2.4350     1.6640 O.2   1 <1>  -0.5700 
  2 C       -3.1970     2.0070     0.8660 C.2   1 <1>   0.5690 
  3 N       -2.9710     0.6510     0.7820 N.am  1 <1>  -0.6600 
  4 C       -2.4860     3.0250    -0.0230 C.3   1 <1>   0.0440 
  5 C       -2.1530     0.0210    -0.2940 C.3   1 <1>   0.3200 
  6 C       -3.3030    -0.2300     1.9590 C.3   1 <1>   0.1400 
  7 C       -0.9660     2.9010     0.0300 C.ar  1 <1>  -0.1440 
  8 C       -2.9760    -1.0910    -0.9090 C.2   1 <1>  -0.3320 
  9 C       -4.8110    -0.2620     2.2820 C.3   1 <1>   0.3430 
 10 C       -0.2250     2.8200    -1.1410 C.ar  1 <1>  -0.1500 
 11 C       -0.3110     2.8610     1.2510 C.ar  1 <1>  -0.1500 
 12 N       -2.7040    -2.4060    -0.7830 N.pl3 1 <1>   0.0330 
 13 C       -4.0850    -1.0030    -1.6740 C.2   1 <1>   0.0770 
 14 N       -5.6110    -0.3810     1.0280 N.4   1 <1>  -0.9590 
 15 C        1.1520     2.6790    -1.0970 C.ar  1 <1>  -0.1430 
 16 C        1.0640     2.7240     1.3000 C.ar  1 <1>  -0.1500 
 17 C       -3.6970    -3.0320    -1.4480 C.2   1 <1>   0.0360 
 18 N       -4.5590    -2.2230    -1.9760 N.2   1 <1>  -0.5650 
 19 C       -6.6840     0.6530     0.9790 C.3   1 <1>   0.2630 
 20 C       -6.1360    -1.7560     0.7780 C.3   1 <1>   0.2630 
 21 C        1.7940     2.6300     0.1290 C.ar  1 <1>  -0.1500 
 22 C        1.9570     2.5900    -2.3820 C.3   1 <1>  -0.0970 
 23 H       -2.7540     4.0140     0.3020 H     1 <1>   0.0800 
 24 H       -2.8410     2.9120    -1.0300 H     1 <1>   0.0800 
 25 H       -1.2280    -0.3510     0.1160 H     1 <1>   0.0800 
 26 H       -1.9140     0.7260    -1.0690 H     1 <1>   0.0800 
 27 H       -2.7730     0.1330     2.8240 H     1 <1>   0.0800 
 28 H       -2.9650    -1.2350     1.7780 H     1 <1>   0.0800 
 29 H       -5.0600     0.6610     2.7820 H     1 <1>   0.0800 
 30 H       -5.0330    -1.0710     2.9570 H     1 <1>   0.0800 
 31 H       -0.7160     2.8690    -2.0970 H     1 <1>   0.1500 
 32 H       -0.8650     2.9400     2.1720 H     1 <1>   0.1500 
 33 H       -1.9050    -2.8540    -0.3190 H     1 <1>   0.2700 
 34 H       -4.5850    -0.1130    -2.0270 H     1 <1>   0.1500 
 35 H       -4.9270    -0.1630     0.2790 H     1 <1>   0.4500 
 36 H        1.5690     2.6940     2.2500 H     1 <1>   0.1500 
 37 H       -3.7470    -4.1050    -1.5260 H     1 <1>   0.1500 
 38 H       -7.4060     0.4820     1.7610 H     1 <1>   0.0800 
 39 H       -7.1890     0.6230     0.0270 H     1 <1>   0.0800 
 40 H       -6.2570     1.6350     1.1110 H     1 <1>   0.0800 
 41 H       -6.8470    -2.0340     1.5390 H     1 <1>   0.0800 
 42 H       -5.3270    -2.4680     0.7740 H     1 <1>   0.0800 
 43 H       -6.6200    -1.7990    -0.1850 H     1 <1>   0.0800 
 44 H        2.8640     2.5270     0.1770 H     1 <1>   0.1500 
 45 H        1.3630     2.1720    -3.1740 H     1 <1>   0.0800 
 46 H        2.8220     1.9660    -2.2410 H     1 <1>   0.0800 
 47 H        2.2830     3.5720    -2.6740 H     1 <1>   0.0800 
@<TRIPOS>BOND
  1   1   2  2   
  2   2   3  am  
  3   2   4  1   
  4   3   5  1   
  5   3   6  1   
  6   4   7  1   
  7   4  23  1   
  8   4  24  1   
  9   5   8  1   
 10   5  25  1   
 11   5  26  1   
 12   6   9  1   
 13   6  27  1   
 14   6  28  1   
 15   7  10  ar  
 16   7  11  ar  
 17   8  12  1   
 18   8  13  2   
 19   9  14  1   
 20   9  29  1   
 21   9  30  1   
 22  10  15  ar  
 23  10  31  1   
 24  11  16  ar  
 25  11  32  1   
 26  12  17  1   
 27  12  33  1   
 28  13  18  1   
 29  13  34  1   
 30  14  19  1   
 31  14  20  1   
 32  14  35  1   
 33  15  21  ar  
 34  15  22  1   
 35  16  21  ar  
 36  16  36  1   
 37  17  18  2   
 38  17  37  1   
 39  19  38  1   
 40  19  39  1   
 41  19  40  1   
 42  20  41  1   
 43  20  42  1   
 44  20  43  1   
 45  21  44  1   
 46  22  45  1   
 47  22  46  1   
 48  22  47  1   
@<TRIPOS>SUBSTRUCTURE
  1 ****   5 GROUP 4 **** **** 0

# MOE 2024.06 (io_trps.svl 2023.06)
