@<TRIPOS>MOLECULE
NONAME
46 48 1 0 0 
SMALL
USER_CHARGES


@<TRIPOS>ATOM
  1 O       -1.8160    -0.8140    -2.8090 O.2   1 <1>  -0.5700 
  2 C       -2.0160    -1.0530    -1.6450 C.2   1 <1>   0.5690 
  3 N       -1.9840    -0.0840    -0.6840 N.am  1 <1>  -0.6600 
  4 C       -2.3570    -2.4750    -1.2830 C.3   1 <1>  -0.0190 
  5 C       -2.3120    -0.3470     0.7460 C.3   1 <1>   0.2200 
  6 C       -1.5660     1.3160    -1.0090 C.3   1 <1>   0.0600 
  7 C       -1.3530    -3.0800    -0.2790 C.3   1 <1>   0.1200 
  8 C       -3.8430    -2.5420    -0.9120 C.3   1 <1>   0.3430 
  9 C       -1.3100    -1.3510     1.3680 C.3   1 <1>   0.1200 
 10 C       -3.8040    -0.7540     0.9060 C.3   1 <1>   0.3430 
 11 O       -1.5980    -2.6880     1.0450 O.3   1 <1>  -0.5600 
 12 N       -4.1270    -2.1740     0.5170 N.4   1 <1>  -0.9590 
 13 C       -5.4730    -2.6100     0.9740 C.3   1 <1>   0.4860 
 14 C       -5.5630    -4.1160     0.8490 C.ar  1 <1>  -0.1440 
 15 C       -6.4710    -4.6850    -0.0320 C.ar  1 <1>   0.1600 
 16 C       -4.7410    -4.9460     1.5910 C.ar  1 <1>  -0.1500 
 17 N       -6.6060    -5.9800    -0.2450 N.ar  1 <1>  -0.6200 
 18 C       -4.8790    -6.3000     1.3860 C.ar  1 <1>  -0.1500 
 19 C       -5.8080    -6.7680     0.4700 C.ar  1 <1>   0.3930 
 20 O       -5.8890    -8.1040     0.3110 O.3   1 <1>  -0.3620 
 21 C       -6.8330    -8.6760    -0.5690 C.3   1 <1>   0.1200 
 22 C       -6.6790   -10.1930    -0.5110 C.3   1 <1>  -0.2400 
 23 H       -2.2470    -3.0400    -2.1920 H     1 <1>   0.0800 
 24 H       -2.1850     0.5820     1.2750 H     1 <1>   0.0800 
 25 H       -0.7010     1.5860    -0.4270 H     1 <1>   0.0800 
 26 H       -2.3660     2.0020    -0.7940 H     1 <1>   0.0800 
 27 H       -1.3100     1.4110    -2.0510 H     1 <1>   0.0800 
 28 H       -0.3400    -2.8160    -0.5400 H     1 <1>   0.0800 
 29 H       -1.4300    -4.1550    -0.3020 H     1 <1>   0.0800 
 30 H       -4.1690    -3.5560    -1.0820 H     1 <1>   0.0800 
 31 H       -4.4040    -1.9050    -1.5770 H     1 <1>   0.0800 
 32 H       -1.3580    -1.2790     2.4400 H     1 <1>   0.0800 
 33 H       -0.3010    -1.1230     1.0670 H     1 <1>   0.0800 
 34 H       -4.4090    -0.0710     0.3340 H     1 <1>   0.0800 
 35 H       -4.0600    -0.6230     1.9440 H     1 <1>   0.0800 
 36 H       -3.4310    -2.7440     1.0400 H     1 <1>   0.4500 
 37 H       -5.6220    -2.3340     2.0050 H     1 <1>   0.0800 
 38 H       -6.2380    -2.1380     0.3790 H     1 <1>   0.0800 
 39 H       -7.1250    -4.0490    -0.6060 H     1 <1>   0.1500 
 40 H       -4.0220    -4.5750     2.3020 H     1 <1>   0.1500 
 41 H       -4.2780    -7.0110     1.9240 H     1 <1>   0.1500 
 42 H       -7.8180    -8.3770    -0.2520 H     1 <1>   0.0800 
 43 H       -6.6410    -8.3080    -1.5620 H     1 <1>   0.0800 
 44 H       -6.8640   -10.5460     0.4880 H     1 <1>   0.0800 
 45 H       -5.6880   -10.4770    -0.8160 H     1 <1>   0.0800 
 46 H       -7.3880   -10.6550    -1.1740 H     1 <1>   0.0800 
@<TRIPOS>BOND
  1   1   2  2   
  2   2   3  am  
  3   2   4  1   
  4   3   5  1   
  5   3   6  1   
  6   4   7  1   
  7   4   8  1   
  8   4  23  1   
  9   5   9  1   
 10   5  10  1   
 11   5  24  1   
 12   6  25  1   
 13   6  26  1   
 14   6  27  1   
 15   7  11  1   
 16   7  28  1   
 17   7  29  1   
 18   8  12  1   
 19   8  30  1   
 20   8  31  1   
 21   9  11  1   
 22   9  32  1   
 23   9  33  1   
 24  10  12  1   
 25  10  34  1   
 26  10  35  1   
 27  12  13  1   
 28  12  36  1   
 29  13  14  1   
 30  13  37  1   
 31  13  38  1   
 32  14  15  ar  
 33  14  16  ar  
 34  15  17  ar  
 35  15  39  1   
 36  16  18  ar  
 37  16  40  1   
 38  17  19  ar  
 39  18  19  ar  
 40  18  41  1   
 41  19  20  1   
 42  20  21  1   
 43  21  22  1   
 44  21  42  1   
 45  21  43  1   
 46  22  44  1   
 47  22  45  1   
 48  22  46  1   
@<TRIPOS>SUBSTRUCTURE
  1 ****   8 GROUP 4 **** **** 0

# MOE 2024.06 (io_trps.svl 2023.06)
