@<TRIPOS>MOLECULE
NONAME
38 39 1 0 0 
SMALL
USER_CHARGES


@<TRIPOS>ATOM
  1 O        2.3730    -1.7400     0.6610 O.3   1 <1>  -0.0190 
  2 N        2.0390    -2.9080     0.2040 N.2   1 <1>  -0.4100 
  3 C        1.6040    -0.9080     0.0030 C.2   1 <1>   0.2980 
  4 C        1.1170    -2.7260    -0.6580 C.2   1 <1>   0.3350 
  5 N        0.8120    -1.4450    -0.8400 N.2   1 <1>  -0.5650 
  6 C        1.7390     0.5820     0.2770 C.3   1 <1>   0.3000 
  7 C        0.4240    -3.8420    -1.4440 C.3   1 <1>   0.2910 
  8 O        1.4470     0.8690     1.6160 O.3   1 <1>  -0.5600 
  9 N       -0.7570    -4.4200    -0.7530 N.3   1 <1>  -0.8100 
 10 C        1.5270     2.2190     1.9420 C.3   1 <1>   0.0400 
 11 C       -1.2110    -5.6550    -1.4230 C.3   1 <1>   0.2900 
 12 C       -1.8530    -3.4400    -0.6440 C.3   1 <1>   0.0300 
 13 C       -2.2890    -6.3900    -0.6340 C.2   1 <1>   0.0060 
 14 N       -3.4350    -6.7150    -1.1490 N.2   1 <1>  -0.5650 
 15 N       -2.1450    -6.7770     0.6610 N.pl3 1 <1>   0.0480 
 16 C       -4.0730    -7.3420    -0.1460 C.2   1 <1>   0.0770 
 17 C       -3.3050    -7.3900     0.9620 C.2   1 <1>  -0.3020 
 18 C       -1.0050    -6.5920     1.5880 C.3   1 <1>   0.0960 
 19 C        0.0470    -7.6850     1.3800 C.3   1 <1>  -0.2400 
 20 H        1.0520     1.1240    -0.3480 H     1 <1>   0.0800 
 21 H        2.7460     0.8960     0.0700 H     1 <1>   0.0800 
 22 H        1.1510    -4.6190    -1.5980 H     1 <1>   0.0800 
 23 H        0.1340    -3.4620    -2.4070 H     1 <1>   0.0800 
 24 H        1.2870     2.3240     2.9860 H     1 <1>   0.0800 
 25 H        0.8160     2.7720     1.3510 H     1 <1>   0.0800 
 26 H        2.5280     2.5720     1.7650 H     1 <1>   0.0800 
 27 H       -0.3780    -6.3240    -1.5460 H     1 <1>   0.0800 
 28 H       -1.5950    -5.4190    -2.4010 H     1 <1>   0.0800 
 29 H       -1.5290    -2.5790    -0.0860 H     1 <1>   0.0800 
 30 H       -2.6910    -3.8720    -0.1230 H     1 <1>   0.0800 
 31 H       -2.1790    -3.1240    -1.6200 H     1 <1>   0.0800 
 32 H       -5.0690    -7.7310    -0.2770 H     1 <1>   0.1500 
 33 H       -3.5170    -7.8180     1.9240 H     1 <1>   0.1500 
 34 H       -1.3760    -6.6290     2.5960 H     1 <1>   0.0800 
 35 H       -0.5700    -5.6220     1.4330 H     1 <1>   0.0800 
 36 H       -0.3850    -8.6560     1.5460 H     1 <1>   0.0800 
 37 H        0.8550    -7.5450     2.0760 H     1 <1>   0.0800 
 38 H        0.4460    -7.6360     0.3840 H     1 <1>   0.0800 
@<TRIPOS>BOND
  1   1   2  1   
  2   1   3  1   
  3   2   4  2   
  4   3   5  2   
  5   3   6  1   
  6   4   5  1   
  7   4   7  1   
  8   6   8  1   
  9   6  20  1   
 10   6  21  1   
 11   7   9  1   
 12   7  22  1   
 13   7  23  1   
 14   8  10  1   
 15   9  11  1   
 16   9  12  1   
 17  10  24  1   
 18  10  25  1   
 19  10  26  1   
 20  11  13  1   
 21  11  27  1   
 22  11  28  1   
 23  12  29  1   
 24  12  30  1   
 25  12  31  1   
 26  13  14  2   
 27  13  15  1   
 28  14  16  1   
 29  15  17  1   
 30  15  18  1   
 31  16  17  2   
 32  16  32  1   
 33  17  33  1   
 34  18  19  1   
 35  18  34  1   
 36  18  35  1   
 37  19  36  1   
 38  19  37  1   
 39  19  38  1   
@<TRIPOS>SUBSTRUCTURE
  1 ****   9 GROUP 4 **** **** 0

# MOE 2024.06 (io_trps.svl 2023.06)
