@<TRIPOS>MOLECULE
NONAME
47 49 1 0 0 
SMALL
USER_CHARGES


@<TRIPOS>ATOM
  1 O        2.2130     0.6950     2.0210 O.2   1 <1>  -0.5700 
  2 C        2.2550     0.0140     1.0120 C.2   1 <1>   0.5440 
  3 N        2.1450     0.6250    -0.2220 N.am  1 <1>  -0.6600 
  4 C        2.4380    -1.4180     1.1350 C.ar  1 <1>   0.0860 
  5 C        2.4950    -0.0810    -1.5010 C.3   1 <1>   0.1400 
  6 C        1.9350     2.0960    -0.3330 C.3   1 <1>   0.1400 
  7 C        1.4350    -2.3060     0.7580 C.ar  1 <1>  -0.1500 
  8 C        3.6320    -1.9510     1.6150 C.ar  1 <1>  -0.1500 
  9 C        3.6000     0.6380    -2.2930 C.3   1 <1>   0.1400 
 10 C        3.2340     2.8690    -0.0510 C.3   1 <1>  -0.1600 
 11 C        1.6110    -3.6760     0.8410 C.ar  1 <1>   0.0830 
 12 C        3.8210    -3.3180     1.7070 C.ar  1 <1>  -0.1500 
 13 N        4.6210     1.2130    -1.3720 N.am  1 <1>  -0.6600 
 14 C        4.4110     2.6420    -1.0160 C.3   1 <1>   0.1400 
 15 O        0.5730    -4.4470     0.4370 O.3   1 <1>  -0.3630 
 16 C        2.8150    -4.1850     1.3200 C.ar  1 <1>  -0.1500 
 17 C        5.6100     0.4120    -0.8420 C.2   1 <1>   0.7160 
 18 C        0.6360    -5.8530     0.4970 C.3   1 <1>   0.1200 
 19 O        5.8890    -0.6250    -1.4160 O.2   1 <1>  -0.5700 
 20 C        6.3200     0.7560     0.3640 C.2   1 <1>  -0.0860 
 21 C       -0.6880    -6.4070    -0.0200 C.3   1 <1>  -0.2400 
 22 C        7.7070     0.6990     0.5130 C.2   1 <1>   0.1390 
 23 C        5.8940     1.1600     1.5940 C.2   1 <1>  -0.3020 
 24 N        8.1080     1.0510     1.6960 N.2   1 <1>  -0.7070 
 25 N        6.9760     1.3330     2.3650 N.pl3 1 <1>   0.3000 
 26 H        1.6150    -0.1690    -2.1120 H     1 <1>   0.0800 
 27 H        2.8440    -1.0770    -1.2970 H     1 <1>   0.0800 
 28 H        1.1900     2.3900     0.3880 H     1 <1>   0.0800 
 29 H        1.5560     2.3400    -1.3100 H     1 <1>   0.0800 
 30 H        0.5010    -1.9220     0.3920 H     1 <1>   0.1500 
 31 H        4.4190    -1.2820     1.9150 H     1 <1>   0.1500 
 32 H        3.1650     1.4200    -2.8880 H     1 <1>   0.0800 
 33 H        4.0620    -0.0590    -2.9710 H     1 <1>   0.0800 
 34 H        3.5470     2.6580     0.9510 H     1 <1>   0.0800 
 35 H        3.0010     3.9180    -0.0670 H     1 <1>   0.0800 
 36 H        4.7550    -3.7060     2.0770 H     1 <1>   0.1500 
 37 H        5.3100     3.0410    -0.5770 H     1 <1>   0.0800 
 38 H        4.2330     3.1930    -1.9230 H     1 <1>   0.0800 
 39 H        2.9870    -5.2420     1.3980 H     1 <1>   0.1500 
 40 H        0.7960    -6.1430     1.5210 H     1 <1>   0.0800 
 41 H        1.4540    -6.1840    -0.1190 H     1 <1>   0.0800 
 42 H       -1.4990    -6.0570     0.5930 H     1 <1>   0.0800 
 43 H       -0.6710    -7.4810     0.0130 H     1 <1>   0.0800 
 44 H       -0.8460    -6.0970    -1.0370 H     1 <1>   0.0800 
 45 H        8.3750     0.3930    -0.2760 H     1 <1>   0.1500 
 46 H        4.8910     1.3100     1.9500 H     1 <1>   0.1500 
 47 H        6.9840     1.6290     3.3500 H     1 <1>   0.2700 
@<TRIPOS>BOND
  1   1   2  2   
  2   2   3  am  
  3   2   4  1   
  4   3   5  1   
  5   3   6  1   
  6   4   7  ar  
  7   4   8  ar  
  8   5   9  1   
  9   5  26  1   
 10   5  27  1   
 11   6  10  1   
 12   6  28  1   
 13   6  29  1   
 14   7  11  ar  
 15   7  30  1   
 16   8  12  ar  
 17   8  31  1   
 18   9  13  1   
 19   9  32  1   
 20   9  33  1   
 21  10  14  1   
 22  10  34  1   
 23  10  35  1   
 24  11  15  1   
 25  11  16  ar  
 26  12  16  ar  
 27  12  36  1   
 28  13  14  1   
 29  13  17  am  
 30  14  37  1   
 31  14  38  1   
 32  15  18  1   
 33  16  39  1   
 34  17  19  2   
 35  17  20  1   
 36  18  21  1   
 37  18  40  1   
 38  18  41  1   
 39  20  22  1   
 40  20  23  2   
 41  21  42  1   
 42  21  43  1   
 43  21  44  1   
 44  22  24  2   
 45  22  45  1   
 46  23  25  1   
 47  23  46  1   
 48  24  25  1   
 49  25  47  1   
@<TRIPOS>SUBSTRUCTURE
  1 ****   4 GROUP 4 **** **** 0

# MOE 2024.06 (io_trps.svl 2023.06)
