@<TRIPOS>MOLECULE
NONAME
57 59 1 0 0 
SMALL
USER_CHARGES


@<TRIPOS>ATOM
  1 O       -4.2180     2.6190    -1.2360 O.2   1 <1>  -0.5700 
  2 C       -3.2130     2.1060    -0.7800 C.2   1 <1>   0.5440 
  3 N       -2.8950     0.8260    -1.1690 N.am  1 <1>  -0.6600 
  4 C       -2.4000     2.8430     0.1680 C.ar  1 <1>   0.0860 
  5 C       -1.9630    -0.0470    -0.3800 C.3   1 <1>   0.3640 
  6 C       -3.6810     0.1470    -2.2420 C.3   1 <1>   0.1400 
  7 C       -1.0610     3.1160    -0.0870 C.ar  1 <1>  -0.1500 
  8 C       -2.9280     3.2870     1.3760 C.ar  1 <1>  -0.1500 
  9 C       -0.5380    -0.0710    -0.9570 C.ar  1 <1>  -0.1430 
 10 C       -2.5470    -1.4830    -0.2080 C.3   1 <1>   0.2000 
 11 C       -3.1700    -1.2740    -2.5250 C.3   1 <1>   0.1200 
 12 C       -0.2500     3.7790     0.8240 C.ar  1 <1>   0.1170 
 13 C       -2.1410     3.9550     2.2960 C.ar  1 <1>  -0.1500 
 14 C       -0.2080     0.4290    -2.2130 C.ar  1 <1>  -0.1500 
 15 C        0.4780    -0.5990    -0.1710 C.ar  1 <1>  -0.1500 
 16 O       -3.1480    -2.0450    -1.3580 O.3   1 <1>  -0.5600 
 17 C       -3.6100    -1.5090     0.8990 C.3   1 <1>   0.1200 
 18 N        1.1100     3.9930     0.5560 N.am  1 <1>  -0.5470 
 19 C       -0.8040     4.2010     2.0330 C.ar  1 <1>  -0.1430 
 20 C        1.0970     0.3910    -2.6710 C.ar  1 <1>  -0.1500 
 21 C        1.7840    -0.6440    -0.6280 C.ar  1 <1>  -0.1500 
 22 O       -3.0170    -1.3020     2.1430 O.3   1 <1>  -0.6800 
 23 C        1.7680     4.1540    -0.6320 C.2   1 <1>   0.5690 
 24 C        0.0310     4.9400     3.0730 C.3   1 <1>  -0.0970 
 25 C        2.0940    -0.1510    -1.8810 C.ar  1 <1>  -0.1500 
 26 O        1.2180     4.2420    -1.7010 O.2   1 <1>  -0.5700 
 27 C        3.2810     4.2370    -0.5870 C.3   1 <1>  -0.0990 
 28 C        3.9250     2.8450    -0.4880 C.3   1 <1>  -0.1600 
 29 C        5.4520     2.9370    -0.4200 C.3   1 <1>  -0.2400 
 30 H       -1.8680     0.3700     0.6070 H     1 <1>   0.0800 
 31 H       -4.7150     0.0990    -1.9450 H     1 <1>   0.0800 
 32 H       -3.6250     0.7350    -3.1410 H     1 <1>   0.0800 
 33 H       -0.6460     2.7950    -1.0230 H     1 <1>   0.1500 
 34 H       -3.9670     3.1020     1.5870 H     1 <1>   0.1500 
 35 H       -1.7580    -2.1560     0.0730 H     1 <1>   0.0800 
 36 H       -2.1790    -1.2540    -2.9400 H     1 <1>   0.0800 
 37 H       -3.8200    -1.7660    -3.2270 H     1 <1>   0.0800 
 38 H       -2.5840     4.2810     3.2210 H     1 <1>   0.1500 
 39 H       -0.9580     0.8670    -2.8470 H     1 <1>   0.1500 
 40 H        0.2600    -0.9790     0.8120 H     1 <1>   0.1500 
 41 H       -4.1120    -2.4600     0.9210 H     1 <1>   0.0800 
 42 H       -4.3300    -0.7250     0.7400 H     1 <1>   0.0800 
 43 H        1.6980     4.0360     1.3830 H     1 <1>   0.3700 
 44 H        1.3350     0.7890    -3.6420 H     1 <1>   0.1500 
 45 H        2.5580    -1.0600    -0.0090 H     1 <1>   0.1500 
 46 H       -2.6490    -2.1380     2.4910 H     1 <1>   0.4000 
 47 H       -0.5820     5.2780     3.8890 H     1 <1>   0.0800 
 48 H        0.4970     5.8000     2.6270 H     1 <1>   0.0800 
 49 H        0.7900     4.2890     3.4680 H     1 <1>   0.0800 
 50 H        3.1070    -0.1830    -2.2410 H     1 <1>   0.1500 
 51 H        3.6210     4.7260    -1.4830 H     1 <1>   0.0800 
 52 H        3.5760     4.8430     0.2500 H     1 <1>   0.0800 
 53 H        3.5570     2.3320     0.3840 H     1 <1>   0.0800 
 54 H        3.6410     2.2680    -1.3520 H     1 <1>   0.0800 
 55 H        5.7600     3.4940     0.4480 H     1 <1>   0.0800 
 56 H        5.8390     3.4220    -1.2990 H     1 <1>   0.0800 
 57 H        5.8770     1.9510    -0.3610 H     1 <1>   0.0800 
@<TRIPOS>BOND
  1   1   2  2   
  2   2   3  am  
  3   2   4  1   
  4   3   5  1   
  5   3   6  1   
  6   4   7  ar  
  7   4   8  ar  
  8   5   9  1   
  9   5  10  1   
 10   5  30  1   
 11   6  11  1   
 12   6  31  1   
 13   6  32  1   
 14   7  12  ar  
 15   7  33  1   
 16   8  13  ar  
 17   8  34  1   
 18   9  14  ar  
 19   9  15  ar  
 20  10  16  1   
 21  10  17  1   
 22  10  35  1   
 23  11  16  1   
 24  11  36  1   
 25  11  37  1   
 26  12  18  1   
 27  12  19  ar  
 28  13  19  ar  
 29  13  38  1   
 30  14  20  ar  
 31  14  39  1   
 32  15  21  ar  
 33  15  40  1   
 34  17  22  1   
 35  17  41  1   
 36  17  42  1   
 37  18  23  am  
 38  18  43  1   
 39  19  24  1   
 40  20  25  ar  
 41  20  44  1   
 42  21  25  ar  
 43  21  45  1   
 44  22  46  1   
 45  23  26  2   
 46  23  27  1   
 47  24  47  1   
 48  24  48  1   
 49  24  49  1   
 50  25  50  1   
 51  27  28  1   
 52  27  51  1   
 53  27  52  1   
 54  28  29  1   
 55  28  53  1   
 56  28  54  1   
 57  29  55  1   
 58  29  56  1   
 59  29  57  1   
@<TRIPOS>SUBSTRUCTURE
  1 ****   7 GROUP 4 **** **** 0

# MOE 2024.06 (io_trps.svl 2023.06)
