@<TRIPOS>MOLECULE
NONAME
42 44 1 0 0 
SMALL
USER_CHARGES


@<TRIPOS>ATOM
  1 O        1.9020     2.8130     3.0670 O.co2 1 <1>  -0.9000 
  2 C        3.0350     2.4130     2.7650 C.2   1 <1>   0.9470 
  3 O        3.9990     2.5950     3.5210 O.co2 1 <1>  -0.9000 
  4 C        3.2930     1.8800     1.3530 C.3   1 <1>  -0.2420 
  5 C        3.3590     0.4760     0.7990 C.3   1 <1>  -0.2420 
  6 C        4.3720     2.6970     0.6650 C.3   1 <1>   0.2350 
  7 C        2.1320     1.3220     0.5690 C.3   1 <1>  -0.2000 
  8 C        3.2110    -0.8820     1.4890 C.2   1 <1>   0.9470 
  9 C        4.4660     0.4350    -0.2400 C.3   1 <1>   0.2350 
 10 N        4.8250     1.8580    -0.4830 N.am  1 <1>  -0.6600 
 11 O        4.2200    -1.4320     1.9520 O.co2 1 <1>  -0.9000 
 12 O        2.1270    -1.4790     1.4340 O.co2 1 <1>  -0.9000 
 13 C        5.4310     2.2960    -1.6240 C.2   1 <1>   0.5690 
 14 O        5.7550     1.5350    -2.5080 O.2   1 <1>  -0.5700 
 15 C        5.7200     3.7770    -1.8270 C.3   1 <1>   0.0440 
 16 C        6.7910     4.3850    -0.9120 C.ar  1 <1>  -0.1430 
 17 C        6.9180     5.7710    -0.8360 C.ar  1 <1>   0.0820 
 18 C        7.6400     3.5870    -0.1570 C.ar  1 <1>  -0.1500 
 19 O        6.0730     6.5250    -1.5910 O.3   1 <1>  -0.3620 
 20 C        7.8850     6.3340    -0.0090 C.ar  1 <1>  -0.1500 
 21 C        8.5960     4.1500     0.6680 C.ar  1 <1>  -0.1500 
 22 C        6.0080     7.9260    -1.4440 C.3   1 <1>   0.0400 
 23 C        8.7220     5.5330     0.7450 C.ar  1 <1>   0.0820 
 24 O        9.6320     6.1630     1.5320 O.3   1 <1>  -0.3630 
 25 C       10.3900     5.4450     2.4790 C.3   1 <1>   0.0400 
 26 H        5.1980     2.8570     1.3380 H     1 <1>   0.0800 
 27 H        3.9770     3.6430     0.3430 H     1 <1>   0.0800 
 28 H        1.9250     1.6960    -0.4160 H     1 <1>   0.1000 
 29 H        1.2370     1.0630     1.1110 H     1 <1>   0.1000 
 30 H        4.1290    -0.0430    -1.1430 H     1 <1>   0.0800 
 31 H        5.3240    -0.0860     0.1480 H     1 <1>   0.0800 
 32 H        6.0290     3.9220    -2.8450 H     1 <1>   0.0800 
 33 H        4.7950     4.3070    -1.7010 H     1 <1>   0.0800 
 34 H        7.5660     2.5120    -0.1960 H     1 <1>   0.1500 
 35 H        8.0120     7.3950     0.0710 H     1 <1>   0.1500 
 36 H        9.2250     3.4950     1.2400 H     1 <1>   0.1500 
 37 H        5.2250     8.2930    -2.0810 H     1 <1>   0.0800 
 38 H        6.9510     8.3520    -1.7400 H     1 <1>   0.0800 
 39 H        5.7840     8.1580    -0.4170 H     1 <1>   0.0800 
 40 H       10.9790     6.1480     3.0390 H     1 <1>   0.0800 
 41 H       11.0350     4.7580     1.9610 H     1 <1>   0.0800 
 42 H        9.7190     4.9220     3.1380 H     1 <1>   0.0800 
@<TRIPOS>BOND
  1   1   2  ar  
  2   2   3  ar  
  3   2   4  1   
  4   4   5  1   
  5   4   6  1   
  6   4   7  1   
  7   5   7  1   
  8   5   8  1   
  9   5   9  1   
 10   6  10  1   
 11   6  26  1   
 12   6  27  1   
 13   7  28  1   
 14   7  29  1   
 15   8  11  ar  
 16   8  12  ar  
 17   9  10  1   
 18   9  30  1   
 19   9  31  1   
 20  10  13  am  
 21  13  14  2   
 22  13  15  1   
 23  15  16  1   
 24  15  32  1   
 25  15  33  1   
 26  16  17  ar  
 27  16  18  ar  
 28  17  19  1   
 29  17  20  ar  
 30  18  21  ar  
 31  18  34  1   
 32  19  22  1   
 33  20  23  ar  
 34  20  35  1   
 35  21  23  ar  
 36  21  36  1   
 37  22  37  1   
 38  22  38  1   
 39  22  39  1   
 40  23  24  1   
 41  24  25  1   
 42  25  40  1   
 43  25  41  1   
 44  25  42  1   
@<TRIPOS>SUBSTRUCTURE
  1 ****   6 GROUP 4 **** **** 0

# MOE 2024.06 (io_trps.svl 2023.06)
