@<TRIPOS>MOLECULE
NONAME
48 51 1 0 0 
SMALL
USER_CHARGES


@<TRIPOS>ATOM
  1 O        1.3970     2.0910     1.2340 O.3   1 <1>  -0.0190 
  2 N        1.8450     0.9050     1.5130 N.2   1 <1>  -0.4100 
  3 C        0.8430     2.1400     0.0520 C.2   1 <1>  -0.0400 
  4 C        1.5580     0.1680     0.5000 C.2   1 <1>   0.1080 
  5 C        0.9080     0.9120    -0.4820 C.2   1 <1>  -0.1500 
  6 C        0.2820     3.4500    -0.4690 C.3   1 <1>   0.0200 
  7 C        1.8850    -1.3050     0.3980 C.3   1 <1>  -0.0590 
  8 C        1.4020     4.4940    -0.6410 C.3   1 <1>  -0.0800 
  9 C        0.9580     5.8280    -1.2420 C.3   1 <1>   0.2000 
 10 C        2.0880     4.8730     0.6810 C.3   1 <1>   0.3430 
 11 O       -0.2480     6.1970    -0.6370 O.3   1 <1>  -0.5600 
 12 C        2.0540     6.7740    -0.7580 C.3   1 <1>   0.3430 
 13 N        2.2800     6.3500     0.6560 N.4   1 <1>  -0.9590 
 14 C       -0.9730     7.1820    -1.3110 C.3   1 <1>   0.0400 
 15 C        3.5500     6.8410     1.2670 C.3   1 <1>   0.5230 
 16 C        3.5080     8.3540     1.3960 C.2   1 <1>  -0.0400 
 17 O        3.3570     9.0680     0.3000 O.3   1 <1>  -0.2800 
 18 C        3.5920     9.1710     2.4680 C.2   1 <1>  -0.1500 
 19 C        3.3090    10.3540     0.6150 C.2   1 <1>   0.1410 
 20 C        3.4660    10.4690     1.9610 C.2   1 <1>  -0.1500 
 21 C        3.1000    11.3370    -0.4240 C.2   1 <1>   0.2880 
 22 N        2.7380    11.0510    -1.6540 N.2   1 <1>  -0.7070 
 23 C        3.2440    12.7180    -0.2610 C.2   1 <1>  -0.1500 
 24 N        2.6580    12.2380    -2.2830 N.pl3 1 <1>   0.3000 
 25 C        2.9570    13.2600    -1.4600 C.2   1 <1>  -0.3020 
 26 H        0.5600     0.5470    -1.4310 H     1 <1>   0.1500 
 27 H       -0.1970     3.2760    -1.4170 H     1 <1>   0.0800 
 28 H       -0.4680     3.8030     0.2180 H     1 <1>   0.0800 
 29 H        2.5310    -1.4810    -0.4420 H     1 <1>   0.0800 
 30 H        0.9800    -1.8720     0.2750 H     1 <1>   0.0800 
 31 H        2.3810    -1.6350     1.2940 H     1 <1>   0.0800 
 32 H        2.1550     4.0720    -1.2850 H     1 <1>   0.0800 
 33 H        0.8450     5.7960    -2.3140 H     1 <1>   0.0800 
 34 H        3.0300     4.3540     0.7640 H     1 <1>   0.0800 
 35 H        1.4640     4.5980     1.5170 H     1 <1>   0.0800 
 36 H        1.7460     7.8050    -0.8300 H     1 <1>   0.0800 
 37 H        2.9490     6.6270    -1.3380 H     1 <1>   0.0800 
 38 H        1.4930     6.7670     1.1740 H     1 <1>   0.4500 
 39 H       -1.8720     7.3790    -0.7520 H     1 <1>   0.0800 
 40 H       -1.2370     6.8240    -2.2930 H     1 <1>   0.0800 
 41 H       -0.3900     8.0840    -1.3810 H     1 <1>   0.0800 
 42 H        3.6770     6.4080     2.2450 H     1 <1>   0.0800 
 43 H        4.3890     6.5570     0.6530 H     1 <1>   0.0800 
 44 H        3.7210     8.9260     3.5090 H     1 <1>   0.1500 
 45 H        3.4830    11.3710     2.5470 H     1 <1>   0.1500 
 46 H        3.5300    13.2160     0.6480 H     1 <1>   0.1500 
 47 H        2.3970    12.3210    -3.2740 H     1 <1>   0.2700 
 48 H        2.9480    14.2900    -1.7710 H     1 <1>   0.1500 
@<TRIPOS>BOND
  1   1   2  1   
  2   1   3  1   
  3   2   4  2   
  4   3   5  2   
  5   3   6  1   
  6   4   5  1   
  7   4   7  1   
  8   5  26  1   
  9   6   8  1   
 10   6  27  1   
 11   6  28  1   
 12   7  29  1   
 13   7  30  1   
 14   7  31  1   
 15   8   9  1   
 16   8  10  1   
 17   8  32  1   
 18   9  11  1   
 19   9  12  1   
 20   9  33  1   
 21  10  13  1   
 22  10  34  1   
 23  10  35  1   
 24  11  14  1   
 25  12  13  1   
 26  12  36  1   
 27  12  37  1   
 28  13  15  1   
 29  13  38  1   
 30  14  39  1   
 31  14  40  1   
 32  14  41  1   
 33  15  16  1   
 34  15  42  1   
 35  15  43  1   
 36  16  17  1   
 37  16  18  2   
 38  17  19  1   
 39  18  20  1   
 40  18  44  1   
 41  19  20  2   
 42  19  21  1   
 43  20  45  1   
 44  21  22  2   
 45  21  23  1   
 46  22  24  1   
 47  23  25  2   
 48  23  46  1   
 49  24  25  1   
 50  24  47  1   
 51  25  48  1   
@<TRIPOS>SUBSTRUCTURE
  1 ****  13 GROUP 4 **** **** 0

# MOE 2024.06 (io_trps.svl 2023.06)
