@<TRIPOS>MOLECULE
NONAME
44 46 1 0 0 
SMALL
USER_CHARGES


@<TRIPOS>ATOM
  1 O       -4.3640     2.5450     2.8190 O.2   1 <1>  -0.5700 
  2 C       -3.5540     1.8910     2.1900 C.2   1 <1>   0.5440 
  3 N       -3.7010     0.5190     2.1590 N.am  1 <1>  -0.6600 
  4 C       -2.4690     2.5650     1.5050 C.ar  1 <1>   0.0860 
  5 C       -2.5590    -0.3780     1.8250 C.3   1 <1>   0.3200 
  6 C       -4.8760    -0.1510     2.8100 C.3   1 <1>   0.1400 
  7 C       -2.2470     2.3870     0.1380 C.ar  1 <1>  -0.1500 
  8 C       -1.5990     3.4100     2.1950 C.ar  1 <1>  -0.1500 
  9 C       -2.6180    -0.7750     0.3650 C.2   1 <1>  -0.3320 
 10 C       -6.2180     0.1940     2.1400 C.3   1 <1>   0.1200 
 11 C       -1.1820     2.9830    -0.5120 C.ar  1 <1>  -0.1430 
 12 C       -0.5370     4.0220     1.5560 C.ar  1 <1>  -0.1500 
 13 N       -3.7440    -1.1330    -0.2790 N.pl3 1 <1>   0.0330 
 14 C       -1.6270    -0.8290    -0.5510 C.2   1 <1>   0.0770 
 15 O       -6.1050     0.1140     0.7590 O.3   1 <1>  -0.6800 
 16 C       -0.3210     3.8080     0.2050 C.ar  1 <1>   0.0820 
 17 C       -0.9580     2.7250    -1.9920 C.3   1 <1>  -0.0170 
 18 C       -3.3650    -1.3730    -1.5520 C.2   1 <1>   0.0060 
 19 N       -2.1000    -1.2040    -1.7550 N.2   1 <1>  -0.5650 
 20 O        0.7410     4.4110    -0.3760 O.3   1 <1>  -0.3620 
 21 C        0.4830     3.0700    -2.3720 C.3   1 <1>  -0.1600 
 22 C       -4.3460    -1.7880    -2.6260 C.3   1 <1>  -0.0600 
 23 C        0.8640     4.4320    -1.7850 C.3   1 <1>   0.1200 
 24 H       -2.5930    -1.2610     2.4400 H     1 <1>   0.0800 
 25 H       -1.6260     0.1190     2.0270 H     1 <1>   0.0800 
 26 H       -4.9180     0.1430     3.8450 H     1 <1>   0.0800 
 27 H       -4.7530    -1.2190     2.7830 H     1 <1>   0.0800 
 28 H       -2.9200     1.7620    -0.4210 H     1 <1>   0.1500 
 29 H       -1.7660     3.5820     3.2440 H     1 <1>   0.1500 
 30 H       -6.5200     1.1960     2.3960 H     1 <1>   0.0800 
 31 H       -6.9850    -0.4900     2.4590 H     1 <1>   0.0800 
 32 H        0.1310     4.6670     2.0960 H     1 <1>   0.1500 
 33 H       -4.7010    -1.1440     0.1020 H     1 <1>   0.2700 
 34 H       -0.5810    -0.6070    -0.4110 H     1 <1>   0.1500 
 35 H       -5.5190     0.8470     0.4700 H     1 <1>   0.4000 
 36 H       -1.6380     3.3390    -2.5560 H     1 <1>   0.0800 
 37 H       -1.1600     1.6940    -2.2280 H     1 <1>   0.0800 
 38 H        0.5840     3.0890    -3.4430 H     1 <1>   0.0800 
 39 H        1.1530     2.3210    -1.9860 H     1 <1>   0.0800 
 40 H       -5.1150    -1.0460    -2.7290 H     1 <1>   0.0800 
 41 H       -4.7930    -2.7310    -2.3710 H     1 <1>   0.0800 
 42 H       -3.8340    -1.8910    -3.5660 H     1 <1>   0.0800 
 43 H        1.8830     4.6810    -2.0200 H     1 <1>   0.0800 
 44 H        0.2140     5.2040    -2.1580 H     1 <1>   0.0800 
@<TRIPOS>BOND
  1   1   2  2   
  2   2   3  am  
  3   2   4  1   
  4   3   5  1   
  5   3   6  1   
  6   4   7  ar  
  7   4   8  ar  
  8   5   9  1   
  9   5  24  1   
 10   5  25  1   
 11   6  10  1   
 12   6  26  1   
 13   6  27  1   
 14   7  11  ar  
 15   7  28  1   
 16   8  12  ar  
 17   8  29  1   
 18   9  13  1   
 19   9  14  2   
 20  10  15  1   
 21  10  30  1   
 22  10  31  1   
 23  11  16  ar  
 24  11  17  1   
 25  12  16  ar  
 26  12  32  1   
 27  13  18  1   
 28  13  33  1   
 29  14  19  1   
 30  14  34  1   
 31  15  35  1   
 32  16  20  1   
 33  17  21  1   
 34  17  36  1   
 35  17  37  1   
 36  18  19  2   
 37  18  22  1   
 38  20  23  1   
 39  21  23  1   
 40  21  38  1   
 41  21  39  1   
 42  22  40  1   
 43  22  41  1   
 44  22  42  1   
 45  23  43  1   
 46  23  44  1   
@<TRIPOS>SUBSTRUCTURE
  1 ****   7 GROUP 4 **** **** 0

# MOE 2024.06 (io_trps.svl 2023.06)
