@<TRIPOS>MOLECULE
NONAME
47 48 1 0 0 
SMALL
USER_CHARGES


@<TRIPOS>ATOM
  1 S        0.7860    -0.0520    -0.2880 S.o2  1 <1>   1.3330 
  2 O        0.9130    -0.6360     1.0290 O.2   1 <1>  -0.6500 
  3 O        0.7040    -0.9180    -1.4430 O.2   1 <1>  -0.6500 
  4 N       -0.5830     0.9520    -0.2780 N.am  1 <1>  -0.8490 
  5 C        2.1390     1.0910    -0.5550 C.3   1 <1>  -0.0550 
  6 C       -0.7990     1.6290     1.0050 C.3   1 <1>   0.1160 
  7 C       -1.7970     0.2350    -0.6760 C.3   1 <1>   0.1160 
  8 C        3.5010     0.3860    -0.7100 C.3   1 <1>  -0.0800 
  9 C        4.6630     1.3040    -1.0540 C.3   1 <1>   0.2200 
 10 C        3.9980    -0.3380     0.5490 C.3   1 <1>   0.1200 
 11 N        4.6070     2.5460    -0.2510 N.am  1 <1>  -0.7300 
 12 C        5.8330     0.4650    -0.5630 C.3   1 <1>   0.1200 
 13 O        5.3790    -0.1220     0.6180 O.3   1 <1>  -0.5600 
 14 C        4.2440     3.7780    -0.7050 C.2   1 <1>   0.5440 
 15 O        3.8000     3.8660    -1.8320 O.2   1 <1>  -0.5700 
 16 C        4.3360     4.9390     0.1610 C.ar  1 <1>   0.0860 
 17 C        5.5130     5.3370     0.8180 C.ar  1 <1>  -0.1440 
 18 C        3.1870     5.7030     0.3640 C.ar  1 <1>  -0.1500 
 19 C        5.4980     6.4410     1.6570 C.ar  1 <1>  -0.1500 
 20 C        6.8460     4.6160     0.6310 C.3   1 <1>  -0.0170 
 21 C        3.1810     6.8040     1.1990 C.ar  1 <1>  -0.1500 
 22 C        4.3410     7.1720     1.8520 C.ar  1 <1>  -0.1500 
 23 C        7.1470     3.6830     1.8090 C.3   1 <1>  -0.2400 
 24 H        1.9440     1.6550    -1.4470 H     1 <1>   0.0800 
 25 H        2.1820     1.7830     0.2620 H     1 <1>   0.0800 
 26 H       -1.6280     2.3120     0.9260 H     1 <1>   0.0800 
 27 H        0.0760     2.1900     1.2820 H     1 <1>   0.0800 
 28 H       -1.0100     0.9100     1.7800 H     1 <1>   0.0800 
 29 H       -2.6420     0.9020    -0.6780 H     1 <1>   0.0800 
 30 H       -1.9890    -0.5820     0.0000 H     1 <1>   0.0800 
 31 H       -1.6810    -0.1610    -1.6720 H     1 <1>   0.0800 
 32 H        3.4150    -0.3470    -1.4940 H     1 <1>   0.0800 
 33 H        4.7270     1.5280    -2.1060 H     1 <1>   0.0800 
 34 H        3.8100    -1.3980     0.5020 H     1 <1>   0.0800 
 35 H        3.5600     0.0670     1.4460 H     1 <1>   0.0800 
 36 H        4.9270     2.4360     0.7150 H     1 <1>   0.3700 
 37 H        6.7150     1.0490    -0.3650 H     1 <1>   0.0800 
 38 H        6.0600    -0.3230    -1.2600 H     1 <1>   0.0800 
 39 H        2.2840     5.4240    -0.1500 H     1 <1>   0.1500 
 40 H        6.3980     6.7450     2.1640 H     1 <1>   0.1500 
 41 H        6.8590     4.0600    -0.2900 H     1 <1>   0.0800 
 42 H        7.6320     5.3480     0.5570 H     1 <1>   0.0800 
 43 H        2.2790     7.3740     1.3390 H     1 <1>   0.1500 
 44 H        4.3450     8.0260     2.5060 H     1 <1>   0.1500 
 45 H        6.3810     2.9360     1.9130 H     1 <1>   0.0800 
 46 H        7.2020     4.2450     2.7240 H     1 <1>   0.0800 
 47 H        8.0890     3.1870     1.6550 H     1 <1>   0.0800 
@<TRIPOS>BOND
  1   1   2  2   
  2   1   3  2   
  3   1   4  am  
  4   1   5  1   
  5   4   6  1   
  6   4   7  1   
  7   5   8  1   
  8   5  24  1   
  9   5  25  1   
 10   6  26  1   
 11   6  27  1   
 12   6  28  1   
 13   7  29  1   
 14   7  30  1   
 15   7  31  1   
 16   8   9  1   
 17   8  10  1   
 18   8  32  1   
 19   9  11  1   
 20   9  12  1   
 21   9  33  1   
 22  10  13  1   
 23  10  34  1   
 24  10  35  1   
 25  11  14  am  
 26  11  36  1   
 27  12  13  1   
 28  12  37  1   
 29  12  38  1   
 30  14  15  2   
 31  14  16  1   
 32  16  17  ar  
 33  16  18  ar  
 34  17  19  ar  
 35  17  20  1   
 36  18  21  ar  
 37  18  39  1   
 38  19  22  ar  
 39  19  40  1   
 40  20  23  1   
 41  20  41  1   
 42  20  42  1   
 43  21  22  ar  
 44  21  43  1   
 45  22  44  1   
 46  23  45  1   
 47  23  46  1   
 48  23  47  1   
@<TRIPOS>SUBSTRUCTURE
  1 ****  11 GROUP 4 **** **** 0

# MOE 2024.06 (io_trps.svl 2023.06)
