@<TRIPOS>MOLECULE
NONAME
47 49 1 0 0 
SMALL
USER_CHARGES


@<TRIPOS>ATOM
  1 O       -0.1000     0.4620     0.4440 O.2   1 <1>  -0.5700 
  2 C        0.8040    -0.2660     0.0950 C.2   1 <1>   0.5690 
  3 N        1.9700     0.2490    -0.4230 N.am  1 <1>  -0.6600 
  4 C        0.6040    -1.7730     0.2990 C.3   1 <1>   0.1810 
  5 C        3.1400    -0.5540    -0.8820 C.3   1 <1>   0.1400 
  6 C        2.1530     1.7130    -0.6490 C.3   1 <1>   0.1400 
  7 O        0.7250    -2.5090    -0.9000 O.3   1 <1>  -0.5600 
  8 C        4.4450    -0.0170    -0.2690 C.3   1 <1>   0.1100 
  9 C        3.4810     2.2030    -0.0480 C.3   1 <1>   0.1100 
 10 C        0.7950    -3.9010    -0.7550 C.3   1 <1>   0.1200 
 11 N        4.6380     1.4210    -0.5440 N.3   1 <1>  -0.8100 
 12 C       -0.5160    -4.5180    -0.2320 C.3   1 <1>   0.2000 
 13 C        5.9190     1.9020     0.0400 C.3   1 <1>   0.2910 
 14 O       -0.6320    -4.3470     1.1450 O.3   1 <1>  -0.5600 
 15 C       -0.5940    -6.0280    -0.4130 C.3   1 <1>  -0.1600 
 16 C        6.2790     3.3530    -0.2940 C.2   1 <1>   0.3350 
 17 C       -1.5430    -5.2620     1.6600 C.3   1 <1>   0.1200 
 18 C       -1.5130    -6.4640     0.7190 C.3   1 <1>  -0.1600 
 19 N        6.9990     3.7180    -1.2820 N.2   1 <1>  -0.4100 
 20 N        5.8780     4.3690     0.4660 N.2   1 <1>  -0.5650 
 21 O        7.0960     5.0110    -1.2300 O.3   1 <1>  -0.0190 
 22 C        6.4070     5.3370    -0.1650 C.2   1 <1>   0.2980 
 23 C        6.3020     6.7950     0.2150 C.3   1 <1>  -0.0600 
 24 H       -0.3820    -1.9320     0.6950 H     1 <1>   0.0800 
 25 H        1.3280    -2.1330     1.0060 H     1 <1>   0.0800 
 26 H        3.2040    -0.4970    -1.9550 H     1 <1>   0.0800 
 27 H        3.0290    -1.5870    -0.6130 H     1 <1>   0.0800 
 28 H        1.3430     2.2690    -0.2110 H     1 <1>   0.0800 
 29 H        2.1530     1.9080    -1.7060 H     1 <1>   0.0800 
 30 H        5.2710    -0.5710    -0.6820 H     1 <1>   0.0800 
 31 H        4.4250    -0.1870     0.7940 H     1 <1>   0.0800 
 32 H        3.4250     2.1390     1.0260 H     1 <1>   0.0800 
 33 H        3.6030     3.2380    -0.3140 H     1 <1>   0.0800 
 34 H        1.6180    -4.1520    -0.1090 H     1 <1>   0.0800 
 35 H        0.9980    -4.2950    -1.7340 H     1 <1>   0.0800 
 36 H       -1.3620    -4.0470    -0.7020 H     1 <1>   0.0800 
 37 H        6.7160     1.2820    -0.3290 H     1 <1>   0.0800 
 38 H        5.8880     1.7970     1.1100 H     1 <1>   0.0800 
 39 H        0.3820    -6.4630    -0.2830 H     1 <1>   0.0800 
 40 H       -0.9770    -6.2940    -1.3820 H     1 <1>   0.0800 
 41 H       -2.5150    -4.7980     1.6720 H     1 <1>   0.0800 
 42 H       -1.2430    -5.5190     2.6620 H     1 <1>   0.0800 
 43 H       -1.1350    -7.3380     1.2190 H     1 <1>   0.0800 
 44 H       -2.5060    -6.6670     0.3590 H     1 <1>   0.0800 
 45 H        5.7080     6.9000     1.1040 H     1 <1>   0.0800 
 46 H        5.8390     7.3440    -0.5840 H     1 <1>   0.0800 
 47 H        7.2820     7.1930     0.3980 H     1 <1>   0.0800 
@<TRIPOS>BOND
  1   1   2  2   
  2   2   3  am  
  3   2   4  1   
  4   3   5  1   
  5   3   6  1   
  6   4   7  1   
  7   4  24  1   
  8   4  25  1   
  9   5   8  1   
 10   5  26  1   
 11   5  27  1   
 12   6   9  1   
 13   6  28  1   
 14   6  29  1   
 15   7  10  1   
 16   8  11  1   
 17   8  30  1   
 18   8  31  1   
 19   9  11  1   
 20   9  32  1   
 21   9  33  1   
 22  10  12  1   
 23  10  34  1   
 24  10  35  1   
 25  11  13  1   
 26  12  14  1   
 27  12  15  1   
 28  12  36  1   
 29  13  16  1   
 30  13  37  1   
 31  13  38  1   
 32  14  17  1   
 33  15  18  1   
 34  15  39  1   
 35  15  40  1   
 36  16  19  2   
 37  16  20  1   
 38  17  18  1   
 39  17  41  1   
 40  17  42  1   
 41  18  43  1   
 42  18  44  1   
 43  19  21  1   
 44  20  22  2   
 45  21  22  1   
 46  22  23  1   
 47  23  45  1   
 48  23  46  1   
 49  23  47  1   
@<TRIPOS>SUBSTRUCTURE
  1 ****   3 GROUP 4 **** **** 0

# MOE 2024.06 (io_trps.svl 2023.06)
