@<TRIPOS>MOLECULE
NONAME
40 42 1 0 0 
SMALL
USER_CHARGES


@<TRIPOS>ATOM
  1 O       -0.9450     0.2880    -0.0080 O.2   1 <1>  -0.5700 
  2 C       -1.9060     0.9960    -0.2470 C.2   1 <1>   0.5440 
  3 N       -3.0920     0.4060    -0.6440 N.am  1 <1>  -0.6600 
  4 C       -1.7760     2.4330    -0.0910 C.ar  1 <1>   0.0860 
  5 C       -4.3930     1.1370    -0.5730 C.3   1 <1>   0.2200 
  6 C       -3.1120    -1.0480    -0.9930 C.3   1 <1>   0.0600 
  7 C       -1.4360     2.9910     1.1400 C.ar  1 <1>  -0.1500 
  8 C       -1.9930     3.3030    -1.1590 C.ar  1 <1>  -0.1500 
  9 C       -5.4780     0.4160     0.2250 C.3   1 <1>  -0.1600 
 10 C       -5.0250     1.3700    -1.9420 C.3   1 <1>  -0.1600 
 11 C       -1.3370     4.3610     1.3050 C.ar  1 <1>  -0.1500 
 12 C       -1.8970     4.6740    -1.0010 C.ar  1 <1>  -0.1500 
 13 C       -6.7860     1.0630    -0.2470 C.3   1 <1>  -0.0800 
 14 C       -6.4990     1.6650    -1.6360 C.3   1 <1>  -0.0800 
 15 C       -1.5710     5.2050     0.2340 C.ar  1 <1>  -0.1500 
 16 C       -7.2480     2.2260     0.6430 C.3   1 <1>  -0.1600 
 17 C       -6.8090     3.1650    -1.5310 C.3   1 <1>  -0.1600 
 18 C       -7.7390     3.2840    -0.3330 C.3   1 <1>   0.2000 
 19 O       -7.6310     4.5360     0.2290 O.3   1 <1>  -0.6800 
 20 H       -4.2510     2.0970    -0.1080 H     1 <1>   0.0800 
 21 H       -3.8720    -1.2570    -1.7230 H     1 <1>   0.0800 
 22 H       -3.3000    -1.6270    -0.1070 H     1 <1>   0.0800 
 23 H       -2.1610    -1.3440    -1.4000 H     1 <1>   0.0800 
 24 H       -1.2470     2.3330     1.9700 H     1 <1>   0.1500 
 25 H       -2.2360     2.8910    -2.1220 H     1 <1>   0.1500 
 26 H       -5.5120    -0.6260    -0.0300 H     1 <1>   0.0800 
 27 H       -5.3250     0.5160     1.2850 H     1 <1>   0.0800 
 28 H       -4.5480     2.1740    -2.4730 H     1 <1>   0.0800 
 29 H       -4.9680     0.4770    -2.5350 H     1 <1>   0.0800 
 30 H       -1.0750     4.7700     2.2650 H     1 <1>   0.1500 
 31 H       -2.0710     5.3280    -1.8380 H     1 <1>   0.1500 
 32 H       -7.5710     0.3270    -0.3170 H     1 <1>   0.0800 
 33 H       -7.1380     1.2130    -2.3760 H     1 <1>   0.0800 
 34 H       -1.4950     6.2720     0.3600 H     1 <1>   0.1500 
 35 H       -6.4200     2.6120     1.2110 H     1 <1>   0.0800 
 36 H       -8.0330     1.9210     1.3120 H     1 <1>   0.0800 
 37 H       -7.2800     3.5320    -2.4250 H     1 <1>   0.0800 
 38 H       -5.9060     3.7210    -1.3450 H     1 <1>   0.0800 
 39 H       -8.7640     3.1090    -0.6160 H     1 <1>   0.0800 
 40 H       -6.7080     4.7020     0.4950 H     1 <1>   0.4000 
@<TRIPOS>BOND
  1   1   2  2   
  2   2   3  am  
  3   2   4  1   
  4   3   5  1   
  5   3   6  1   
  6   4   7  ar  
  7   4   8  ar  
  8   5   9  1   
  9   5  10  1   
 10   5  20  1   
 11   6  21  1   
 12   6  22  1   
 13   6  23  1   
 14   7  11  ar  
 15   7  24  1   
 16   8  12  ar  
 17   8  25  1   
 18   9  13  1   
 19   9  26  1   
 20   9  27  1   
 21  10  14  1   
 22  10  28  1   
 23  10  29  1   
 24  11  15  ar  
 25  11  30  1   
 26  12  15  ar  
 27  12  31  1   
 28  13  14  1   
 29  13  16  1   
 30  13  32  1   
 31  14  17  1   
 32  14  33  1   
 33  15  34  1   
 34  16  18  1   
 35  16  35  1   
 36  16  36  1   
 37  17  18  1   
 38  17  37  1   
 39  17  38  1   
 40  18  19  1   
 41  18  39  1   
 42  19  40  1   
@<TRIPOS>SUBSTRUCTURE
  1 ****   5 GROUP 4 **** **** 0

# MOE 2024.06 (io_trps.svl 2023.06)
