@<TRIPOS>MOLECULE
NONAME
44 46 1 0 0 
SMALL
USER_CHARGES


@<TRIPOS>ATOM
  1 O        0.6040     1.2730     0.2820 O.2   1 <1>  -0.5700 
  2 C        0.4150     2.4620     0.2670 C.2   1 <1>   0.5690 
  3 N       -0.6300     3.0010     0.9310 N.am  1 <1>  -0.7300 
  4 C        1.3340     3.3800    -0.5380 C.3   1 <1>   0.1810 
  5 C       -0.9770     4.4450     0.9030 C.3   1 <1>   0.3640 
  6 O        1.2680     4.7190    -0.1030 O.3   1 <1>  -0.5600 
  7 C       -2.4360     4.5620     0.4670 C.ar  1 <1>  -0.1440 
  8 C       -0.0420     5.2690    -0.0320 C.3   1 <1>   0.2610 
  9 C       -3.3020     5.4030     1.1540 C.ar  1 <1>   0.1600 
 10 C       -2.9310     3.8450    -0.6090 C.ar  1 <1>  -0.1500 
 11 C        0.0430     6.7340     0.4180 C.2   1 <1>   0.5690 
 12 N       -4.5840     5.5710     0.8680 N.ar  1 <1>  -0.6200 
 13 C       -4.2620     4.0130    -0.9220 C.ar  1 <1>  -0.1500 
 14 O       -0.8500     7.2320     1.0630 O.2   1 <1>  -0.5700 
 15 N        1.1360     7.4610     0.0870 N.am  1 <1>  -0.7300 
 16 C       -5.0330     4.8740    -0.1620 C.ar  1 <1>   0.1600 
 17 C        1.3900     8.8620     0.5100 C.3   1 <1>   0.3210 
 18 C        2.8340     9.2880     0.2490 C.2   1 <1>   0.3350 
 19 N        3.7290     8.5760    -0.3170 N.2   1 <1>  -0.4100 
 20 N        3.2690    10.4870     0.6110 N.2   1 <1>  -0.5650 
 21 O        4.8160     9.2860    -0.3540 O.3   1 <1>  -0.0190 
 22 C        4.4800    10.4180     0.2150 C.2   1 <1>   0.2980 
 23 C        5.5520    11.5020     0.3370 C.3   1 <1>   0.1000 
 24 C        5.1590    12.6130     1.3240 C.3   1 <1>  -0.2400 
 25 C        5.8620    12.1130    -1.0370 C.3   1 <1>  -0.2400 
 26 H       -1.2560     2.3780     1.4440 H     1 <1>   0.3700 
 27 H        1.0630     3.3430    -1.5770 H     1 <1>   0.0800 
 28 H        2.3510     3.0490    -0.4300 H     1 <1>   0.0800 
 29 H       -0.8760     4.8220     1.9070 H     1 <1>   0.0800 
 30 H       -0.4450     5.2590    -1.0280 H     1 <1>   0.0800 
 31 H       -2.9250     5.9750     1.9850 H     1 <1>   0.1500 
 32 H       -2.3130     3.1750    -1.1830 H     1 <1>   0.1500 
 33 H       -4.7030     3.4810    -1.7450 H     1 <1>   0.1500 
 34 H        1.9460     6.9890    -0.3330 H     1 <1>   0.3700 
 35 H       -6.0730     4.9970    -0.4140 H     1 <1>   0.1500 
 36 H        0.7290     9.5180    -0.0270 H     1 <1>   0.0800 
 37 H        1.1810     8.9590     1.5610 H     1 <1>   0.0800 
 38 H        6.4450    11.0300     0.7100 H     1 <1>   0.0800 
 39 H        4.2740    13.1220     0.9820 H     1 <1>   0.0800 
 40 H        5.9550    13.3290     1.4230 H     1 <1>   0.0800 
 41 H        4.9550    12.1900     2.2910 H     1 <1>   0.0800 
 42 H        4.9830    12.5810    -1.4420 H     1 <1>   0.0800 
 43 H        6.1870    11.3470    -1.7190 H     1 <1>   0.0800 
 44 H        6.6420    12.8490    -0.9540 H     1 <1>   0.0800 
@<TRIPOS>BOND
  1   1   2  2   
  2   2   3  am  
  3   2   4  1   
  4   3   5  1   
  5   3  26  1   
  6   4   6  1   
  7   4  27  1   
  8   4  28  1   
  9   5   7  1   
 10   5   8  1   
 11   5  29  1   
 12   6   8  1   
 13   7   9  ar  
 14   7  10  ar  
 15   8  11  1   
 16   8  30  1   
 17   9  12  ar  
 18   9  31  1   
 19  10  13  ar  
 20  10  32  1   
 21  11  14  2   
 22  11  15  am  
 23  12  16  ar  
 24  13  16  ar  
 25  13  33  1   
 26  15  17  1   
 27  15  34  1   
 28  16  35  1   
 29  17  18  1   
 30  17  36  1   
 31  17  37  1   
 32  18  19  2   
 33  18  20  1   
 34  19  21  1   
 35  20  22  2   
 36  21  22  1   
 37  22  23  1   
 38  23  24  1   
 39  23  25  1   
 40  23  38  1   
 41  24  39  1   
 42  24  40  1   
 43  24  41  1   
 44  25  42  1   
 45  25  43  1   
 46  25  44  1   
@<TRIPOS>SUBSTRUCTURE
  1 ****  11 GROUP 4 **** **** 0

# MOE 2024.06 (io_trps.svl 2023.06)
