@<TRIPOS>MOLECULE
NONAME
57 59 1 0 0 
SMALL
USER_CHARGES


@<TRIPOS>ATOM
  1 O       -0.3270     0.8440    -0.6050 O.2   1 <1>  -0.5700 
  2 C       -0.3860     2.0360    -0.4080 C.2   1 <1>   0.5690 
  3 N       -1.5120     2.6730     0.0550 N.am  1 <1>  -0.6600 
  4 C        0.8720     2.8470    -0.7200 C.3   1 <1>   0.1810 
  5 C       -1.5060     4.1600     0.2830 C.3   1 <1>   0.3640 
  6 C       -2.7120     1.9670     0.5910 C.3   1 <1>   0.2200 
  7 O        0.9270     4.0680    -0.0280 O.3   1 <1>  -0.5600 
  8 C       -2.7110     4.8010    -0.4140 C.ar  1 <1>  -0.1440 
  9 C       -0.2190     4.8740    -0.2090 C.3   1 <1>   0.2610 
 10 C       -2.3330     1.1290     1.8120 C.3   1 <1>  -0.2400 
 11 C       -3.3950     1.1260    -0.4890 C.3   1 <1>  -0.2400 
 12 C       -3.0270     4.4920    -1.7310 C.ar  1 <1>  -0.1500 
 13 C       -3.4980     5.7160     0.2690 C.ar  1 <1>  -0.1500 
 14 C       -0.0280     6.2530     0.4530 C.2   1 <1>   0.5690 
 15 C       -4.1120     5.0870    -2.3520 C.ar  1 <1>  -0.1500 
 16 C       -4.5830     6.3120    -0.3500 C.ar  1 <1>  -0.1500 
 17 O       -0.6320     6.4920     1.4770 O.2   1 <1>  -0.5700 
 18 N        0.8010     7.2020    -0.1100 N.am  1 <1>  -0.6600 
 19 C       -4.8900     5.9980    -1.6610 C.ar  1 <1>  -0.1500 
 20 C        0.9620     8.5490     0.5100 C.3   1 <1>   0.1400 
 21 C        1.6990     6.9620    -1.2770 C.3   1 <1>   0.1400 
 22 C        2.4150     8.7480     0.9500 C.3   1 <1>  -0.1600 
 23 C        3.1550     7.1460    -0.8470 C.3   1 <1>  -0.1600 
 24 C        3.3730     8.5250    -0.2250 C.3   1 <1>   0.2000 
 25 O        4.6880     8.5640     0.2260 O.3   1 <1>  -0.5600 
 26 C        5.2430     9.8310     0.3590 C.3   1 <1>   0.1200 
 27 C        6.6840     9.6510     0.8180 C.3   1 <1>  -0.2400 
 28 H        0.9200     3.0470    -1.7740 H     1 <1>   0.0800 
 29 H        1.7380     2.2760    -0.4370 H     1 <1>   0.0800 
 30 H       -1.5950     4.3110     1.3450 H     1 <1>   0.0800 
 31 H       -3.4290     2.7010     0.9200 H     1 <1>   0.0800 
 32 H       -0.3250     5.0410    -1.2650 H     1 <1>   0.0800 
 33 H       -1.6780     0.3220     1.5360 H     1 <1>   0.0800 
 34 H       -3.2170     0.7070     2.2520 H     1 <1>   0.0800 
 35 H       -1.8480     1.7450     2.5470 H     1 <1>   0.0800 
 36 H       -2.7710     0.3080    -0.8000 H     1 <1>   0.0800 
 37 H       -3.6340     1.7350    -1.3400 H     1 <1>   0.0800 
 38 H       -4.3100     0.7170    -0.1020 H     1 <1>   0.0800 
 39 H       -2.4340     3.7810    -2.2780 H     1 <1>   0.1500 
 40 H       -3.2670     5.9780     1.2890 H     1 <1>   0.1500 
 41 H       -4.3510     4.8390    -3.3710 H     1 <1>   0.1500 
 42 H       -5.1860     7.0220     0.1890 H     1 <1>   0.1500 
 43 H       -5.7340     6.4610    -2.1430 H     1 <1>   0.1500 
 44 H        0.6890     9.3000    -0.2110 H     1 <1>   0.0800 
 45 H        0.3130     8.6600     1.3620 H     1 <1>   0.0800 
 46 H        1.5790     5.9720    -1.6740 H     1 <1>   0.0800 
 47 H        1.4560     7.6650    -2.0550 H     1 <1>   0.0800 
 48 H        2.6360     8.0480     1.7360 H     1 <1>   0.0800 
 49 H        2.5220     9.7430     1.3360 H     1 <1>   0.0800 
 50 H        3.7960     7.0350    -1.7020 H     1 <1>   0.0800 
 51 H        3.4050     6.3820    -0.1320 H     1 <1>   0.0800 
 52 H        3.2360     9.2830    -0.9790 H     1 <1>   0.0800 
 53 H        5.2110    10.3290    -0.5960 H     1 <1>   0.0800 
 54 H        4.6830    10.3900     1.0890 H     1 <1>   0.0800 
 55 H        7.2340     9.0810     0.0910 H     1 <1>   0.0800 
 56 H        6.7060     9.1410     1.7640 H     1 <1>   0.0800 
 57 H        7.1540    10.6110     0.9330 H     1 <1>   0.0800 
@<TRIPOS>BOND
  1   1   2  2   
  2   2   3  am  
  3   2   4  1   
  4   3   5  1   
  5   3   6  1   
  6   4   7  1   
  7   4  28  1   
  8   4  29  1   
  9   5   8  1   
 10   5   9  1   
 11   5  30  1   
 12   6  10  1   
 13   6  11  1   
 14   6  31  1   
 15   7   9  1   
 16   8  12  ar  
 17   8  13  ar  
 18   9  14  1   
 19   9  32  1   
 20  10  33  1   
 21  10  34  1   
 22  10  35  1   
 23  11  36  1   
 24  11  37  1   
 25  11  38  1   
 26  12  15  ar  
 27  12  39  1   
 28  13  16  ar  
 29  13  40  1   
 30  14  17  2   
 31  14  18  am  
 32  15  19  ar  
 33  15  41  1   
 34  16  19  ar  
 35  16  42  1   
 36  18  20  1   
 37  18  21  1   
 38  19  43  1   
 39  20  22  1   
 40  20  44  1   
 41  20  45  1   
 42  21  23  1   
 43  21  46  1   
 44  21  47  1   
 45  22  24  1   
 46  22  48  1   
 47  22  49  1   
 48  23  24  1   
 49  23  50  1   
 50  23  51  1   
 51  24  25  1   
 52  24  52  1   
 53  25  26  1   
 54  26  27  1   
 55  26  53  1   
 56  26  54  1   
 57  27  55  1   
 58  27  56  1   
 59  27  57  1   
@<TRIPOS>SUBSTRUCTURE
  1 ****   9 GROUP 4 **** **** 0

# MOE 2024.06 (io_trps.svl 2023.06)
