@<TRIPOS>MOLECULE
NONAME
50 51 1 0 0 
SMALL
USER_CHARGES


@<TRIPOS>ATOM
  1 O       -2.7680     0.6000    -1.4020 O.2   1 <1>  -0.5700 
  2 C       -2.2740     0.7690    -0.3140 C.2   1 <1>   0.5690 
  3 N       -1.9750    -0.2780     0.4990 N.am  1 <1>  -0.7300 
  4 C       -1.9730     2.1840     0.1800 C.3   1 <1>  -0.0190 
  5 C       -2.1510    -1.7060     0.1280 C.3   1 <1>   0.1400 
  6 C       -2.9840     3.2270    -0.3390 C.3   1 <1>  -0.1600 
  7 C       -0.5270     2.5980    -0.1810 C.3   1 <1>  -0.1600 
  8 C       -3.6330    -2.0780     0.1000 C.3   1 <1>   0.1200 
  9 C       -2.7570     4.6210     0.2830 C.3   1 <1>   0.2000 
 10 C       -0.2930     4.1230    -0.1640 C.3   1 <1>  -0.1600 
 11 O       -3.7370    -3.4810    -0.0110 O.3   1 <1>  -0.3620 
 12 O       -3.0850     5.5960    -0.6770 O.3   1 <1>  -0.5600 
 13 C       -1.2930     4.8390     0.7480 C.3   1 <1>   0.2000 
 14 C       -4.9450    -4.1050    -0.0200 C.ar  1 <1>   0.0820 
 15 C       -4.4490     5.8220    -0.8560 C.3   1 <1>   0.0400 
 16 O       -1.0040     6.1870     0.7240 O.3   1 <1>  -0.6800 
 17 C       -4.9510    -5.4970    -0.0060 C.ar  1 <1>  -0.1440 
 18 C       -6.1530    -3.4110    -0.0420 C.ar  1 <1>  -0.1500 
 19 C       -6.1600    -6.1740    -0.0080 C.ar  1 <1>  -0.1500 
 20 C       -3.6460    -6.2790     0.0120 C.3   1 <1>  -0.0970 
 21 C       -7.3580    -4.0930    -0.0450 C.ar  1 <1>  -0.1440 
 22 C       -7.3560    -5.4770    -0.0260 C.ar  1 <1>  -0.1500 
 23 C       -8.6710    -3.3310    -0.0670 C.3   1 <1>  -0.0970 
 24 H       -1.5400    -0.1070     1.4070 H     1 <1>   0.3700 
 25 H       -2.0590     2.1670     1.2520 H     1 <1>   0.0800 
 26 H       -1.7260    -1.8750    -0.8460 H     1 <1>   0.0800 
 27 H       -1.6390    -2.3220     0.8470 H     1 <1>   0.0800 
 28 H       -3.9840     2.8970    -0.1200 H     1 <1>   0.0800 
 29 H       -2.8800     3.2910    -1.4100 H     1 <1>   0.0800 
 30 H        0.1500     2.1230     0.5070 H     1 <1>   0.0800 
 31 H       -0.2870     2.2340    -1.1670 H     1 <1>   0.0800 
 32 H       -4.1130    -1.6310    -0.7530 H     1 <1>   0.0800 
 33 H       -4.1160    -1.7790     1.0130 H     1 <1>   0.0800 
 34 H       -3.3960     4.7540     1.1400 H     1 <1>   0.0800 
 35 H       -0.4150     4.5030    -1.1640 H     1 <1>   0.0800 
 36 H        0.7120     4.3320     0.1570 H     1 <1>   0.0800 
 37 H       -1.1650     4.4940     1.7590 H     1 <1>   0.0800 
 38 H       -4.5640     6.5980    -1.5920 H     1 <1>   0.0800 
 39 H       -4.8820     6.1410     0.0760 H     1 <1>   0.0800 
 40 H       -4.9210     4.9220    -1.2070 H     1 <1>   0.0800 
 41 H       -1.5420     6.5610    -0.0110 H     1 <1>   0.4000 
 42 H       -6.1740    -2.3390    -0.0580 H     1 <1>   0.1500 
 43 H       -6.1790    -7.2490     0.0050 H     1 <1>   0.1500 
 44 H       -3.8270    -7.3380     0.0090 H     1 <1>   0.0800 
 45 H       -3.0850    -6.0280     0.8930 H     1 <1>   0.0800 
 46 H       -3.0620    -6.0280    -0.8550 H     1 <1>   0.0800 
 47 H       -8.2840    -6.0200    -0.0250 H     1 <1>   0.1500 
 48 H       -9.4390    -3.9170    -0.5390 H     1 <1>   0.0800 
 49 H       -8.5630    -2.4120    -0.6150 H     1 <1>   0.0800 
 50 H       -8.9760    -3.1030     0.9380 H     1 <1>   0.0800 
@<TRIPOS>BOND
  1   1   2  2   
  2   2   3  am  
  3   2   4  1   
  4   3   5  1   
  5   3  24  1   
  6   4   6  1   
  7   4   7  1   
  8   4  25  1   
  9   5   8  1   
 10   5  26  1   
 11   5  27  1   
 12   6   9  1   
 13   6  28  1   
 14   6  29  1   
 15   7  10  1   
 16   7  30  1   
 17   7  31  1   
 18   8  11  1   
 19   8  32  1   
 20   8  33  1   
 21   9  12  1   
 22   9  13  1   
 23   9  34  1   
 24  10  13  1   
 25  10  35  1   
 26  10  36  1   
 27  11  14  1   
 28  12  15  1   
 29  13  16  1   
 30  13  37  1   
 31  14  17  ar  
 32  14  18  ar  
 33  15  38  1   
 34  15  39  1   
 35  15  40  1   
 36  16  41  1   
 37  17  19  ar  
 38  17  20  1   
 39  18  21  ar  
 40  18  42  1   
 41  19  22  ar  
 42  19  43  1   
 43  20  44  1   
 44  20  45  1   
 45  20  46  1   
 46  21  22  ar  
 47  21  23  1   
 48  22  47  1   
 49  23  48  1   
 50  23  49  1   
 51  23  50  1   
@<TRIPOS>SUBSTRUCTURE
  1 ****   2 GROUP 4 **** **** 0

# MOE 2024.06 (io_trps.svl 2023.06)
