@<TRIPOS>MOLECULE
NONAME
48 51 1 0 0 
SMALL
USER_CHARGES


@<TRIPOS>ATOM
  1 S       -0.6510     0.2200     0.5460 S.3   1 <1>  -0.4600 
  2 C       -1.2750    -1.4030     1.0850 C.3   1 <1>   0.2500 
  3 C        0.4930     0.6900     1.8710 C.3   1 <1>  -0.0100 
  4 C       -2.2650    -1.9470     0.0670 C.2   1 <1>  -0.0400 
  5 O       -2.8530    -3.0940     0.3240 O.3   1 <1>  -0.2800 
  6 C       -2.6900    -1.4670    -1.1230 C.2   1 <1>  -0.1500 
  7 C       -3.6720    -3.4010    -0.6780 C.2   1 <1>   0.0550 
  8 C       -3.6000    -2.4060    -1.6070 C.2   1 <1>  -0.1500 
  9 C       -4.4580    -4.6120    -0.6550 C.2   1 <1>   0.7150 
 10 O       -4.3350    -5.4710     0.2060 O.2   1 <1>  -0.5700 
 11 N       -5.4630    -4.8220    -1.5700 N.am  1 <1>  -0.6600 
 12 C       -6.8010    -4.2500    -1.2260 C.3   1 <1>   0.1400 
 13 C       -5.5660    -6.1820    -2.1980 C.3   1 <1>   0.1400 
 14 C       -7.5620    -5.1610    -0.2190 C.3   1 <1>   0.4230 
 15 C       -6.5780    -7.0950    -1.4600 C.3   1 <1>   0.3430 
 16 N       -6.9320    -6.5330    -0.1110 N.4   1 <1>  -0.9590 
 17 C       -9.0630    -5.2660    -0.5790 C.3   1 <1>   0.1200 
 18 C       -7.7350    -7.4200     0.7830 C.3   1 <1>   0.5180 
 19 O       -9.7290    -6.1190     0.3100 O.3   1 <1>  -0.5600 
 20 C       -7.1290    -8.8280     0.8060 C.3   1 <1>  -0.1950 
 21 C       -9.2250    -7.4280     0.3790 C.3   1 <1>   0.1200 
 22 C       -7.0310    -9.5810     2.0980 C.3   1 <1>  -0.2000 
 23 C       -5.7860    -9.0890     1.4180 C.3   1 <1>  -0.2000 
 24 H       -0.4300    -2.0590     1.1820 H     1 <1>   0.0800 
 25 H       -1.7490    -1.2630     2.0390 H     1 <1>   0.0800 
 26 H        0.9070     1.6500     1.6190 H     1 <1>   0.0800 
 27 H        1.2650    -0.0560     1.9260 H     1 <1>   0.0800 
 28 H       -0.0640     0.7430     2.7890 H     1 <1>   0.0800 
 29 H       -2.4000    -0.5550    -1.6160 H     1 <1>   0.1500 
 30 H       -4.1250    -2.3320    -2.5420 H     1 <1>   0.1500 
 31 H       -6.6820    -3.2690    -0.7970 H     1 <1>   0.0800 
 32 H       -7.3720    -4.1340    -2.1320 H     1 <1>   0.0800 
 33 H       -5.8510    -6.0840    -3.2320 H     1 <1>   0.0800 
 34 H       -4.5970    -6.6540    -2.1800 H     1 <1>   0.0800 
 35 H       -7.5040    -4.6860     0.7470 H     1 <1>   0.0800 
 36 H       -6.1390    -8.0740    -1.3560 H     1 <1>   0.0800 
 37 H       -7.4680    -7.1960    -2.0580 H     1 <1>   0.0800 
 38 H       -6.0100    -6.3780     0.3470 H     1 <1>   0.4500 
 39 H       -9.2020    -5.6390    -1.5790 H     1 <1>   0.0800 
 40 H       -9.5300    -4.2990    -0.5070 H     1 <1>   0.0800 
 41 H       -7.6780    -7.0260     1.7850 H     1 <1>   0.0800 
 42 H       -7.4150    -9.4200    -0.0470 H     1 <1>   0.1000 
 43 H       -9.8000    -7.9600     1.1170 H     1 <1>   0.0800 
 44 H       -9.3690    -7.9050    -0.5740 H     1 <1>   0.0800 
 45 H       -7.3150    -9.1140     3.0260 H     1 <1>   0.1000 
 46 H       -7.2200   -10.6420     2.1040 H     1 <1>   0.1000 
 47 H       -5.1330    -9.8200     0.9700 H     1 <1>   0.1000 
 48 H       -5.2370    -8.2900     1.8890 H     1 <1>   0.1000 
@<TRIPOS>BOND
  1   1   2  1   
  2   1   3  1   
  3   2   4  1   
  4   2  24  1   
  5   2  25  1   
  6   3  26  1   
  7   3  27  1   
  8   3  28  1   
  9   4   5  1   
 10   4   6  2   
 11   5   7  1   
 12   6   8  1   
 13   6  29  1   
 14   7   8  2   
 15   7   9  1   
 16   8  30  1   
 17   9  10  2   
 18   9  11  am  
 19  11  12  1   
 20  11  13  1   
 21  12  14  1   
 22  12  31  1   
 23  12  32  1   
 24  13  15  1   
 25  13  33  1   
 26  13  34  1   
 27  14  16  1   
 28  14  17  1   
 29  14  35  1   
 30  15  16  1   
 31  15  36  1   
 32  15  37  1   
 33  16  18  1   
 34  16  38  1   
 35  17  19  1   
 36  17  39  1   
 37  17  40  1   
 38  18  20  1   
 39  18  21  1   
 40  18  41  1   
 41  19  21  1   
 42  20  22  1   
 43  20  23  1   
 44  20  42  1   
 45  21  43  1   
 46  21  44  1   
 47  22  23  1   
 48  22  45  1   
 49  22  46  1   
 50  23  47  1   
 51  23  48  1   
@<TRIPOS>SUBSTRUCTURE
  1 ****   9 GROUP 4 **** **** 0

# MOE 2024.06 (io_trps.svl 2023.06)
