@<TRIPOS>MOLECULE
NONAME
43 46 1 0 0 
SMALL
USER_CHARGES


@<TRIPOS>ATOM
  1 O       -1.1870     0.0210     0.5510 O.3   1 <1>  -0.5600 
  2 C       -1.8580     1.2280     0.7350 C.3   1 <1>   0.1200 
  3 C       -1.3600    -0.6300    -0.6640 C.3   1 <1>   0.1200 
  4 C       -3.3910     1.0670     0.8260 C.3   1 <1>   0.4230 
  5 C       -2.7270    -1.3300    -0.7280 C.3   1 <1>  -0.0800 
  6 N       -4.0090     0.9180    -0.5580 N.4   1 <1>  -0.9590 
  7 C       -3.7960    -0.0030     1.8850 C.3   1 <1>   0.2090 
  8 C       -3.1030    -2.0650     0.5740 C.3   1 <1>   0.2090 
  9 C       -3.8590    -0.4240    -1.2340 C.3   1 <1>   0.3430 
 10 C       -5.4630     1.2660    -0.5090 C.3   1 <1>   0.2630 
 11 N       -4.1720    -1.3390     1.3210 N.pl3 1 <1>  -0.8210 
 12 C       -5.5110    -1.7230     1.2430 C.2   1 <1>   0.5990 
 13 N       -6.4740    -1.1380     1.8500 N.2   1 <1>  -0.4100 
 14 N       -5.8900    -2.7250     0.4460 N.2   1 <1>  -0.5650 
 15 O       -7.5100    -1.8070     1.4760 O.3   1 <1>  -0.0190 
 16 C       -7.1600    -2.7540     0.6490 C.2   1 <1>   0.4250 
 17 C       -8.1420    -3.6500     0.0770 C.ar  1 <1>   0.0530 
 18 C       -9.5050    -3.5290     0.3610 C.ar  1 <1>  -0.1500 
 19 C       -7.7580    -4.6760    -0.7890 C.ar  1 <1>  -0.1500 
 20 C      -10.4370    -4.3860    -0.1960 C.ar  1 <1>  -0.1500 
 21 C       -8.6860    -5.5350    -1.3490 C.ar  1 <1>  -0.1500 
 22 C      -10.0290    -5.3910    -1.0540 C.ar  1 <1>  -0.1500 
 23 H       -1.4970     1.6320     1.6650 H     1 <1>   0.0800 
 24 H       -1.5770     1.9090    -0.0490 H     1 <1>   0.0800 
 25 H       -1.2160     0.0670    -1.4720 H     1 <1>   0.0800 
 26 H       -0.5800    -1.3720    -0.7210 H     1 <1>   0.0800 
 27 H       -3.7360     2.0080     1.2200 H     1 <1>   0.0800 
 28 H       -2.6190    -2.0980    -1.4720 H     1 <1>   0.0800 
 29 H       -3.5400     1.6040    -1.1600 H     1 <1>   0.4500 
 30 H       -4.6140     0.3910     2.4610 H     1 <1>   0.0800 
 31 H       -2.9850    -0.1410     2.5810 H     1 <1>   0.0800 
 32 H       -2.2400    -2.1800     1.2100 H     1 <1>   0.0800 
 33 H       -3.4400    -3.0610     0.3370 H     1 <1>   0.0800 
 34 H       -4.7790    -0.9760    -1.1250 H     1 <1>   0.0800 
 35 H       -3.7200    -0.2610    -2.2900 H     1 <1>   0.0800 
 36 H       -5.9940     0.5650     0.1150 H     1 <1>   0.0800 
 37 H       -5.8910     1.2350    -1.4970 H     1 <1>   0.0800 
 38 H       -5.6010     2.2560    -0.1060 H     1 <1>   0.0800 
 39 H       -9.8480    -2.7570     1.0270 H     1 <1>   0.1500 
 40 H       -6.7170    -4.8050    -1.0260 H     1 <1>   0.1500 
 41 H      -11.4820    -4.2740     0.0370 H     1 <1>   0.1500 
 42 H       -8.3640    -6.3180    -2.0150 H     1 <1>   0.1500 
 43 H      -10.7530    -6.0590    -1.4880 H     1 <1>   0.1500 
@<TRIPOS>BOND
  1   1   2  1   
  2   1   3  1   
  3   2   4  1   
  4   2  23  1   
  5   2  24  1   
  6   3   5  1   
  7   3  25  1   
  8   3  26  1   
  9   4   6  1   
 10   4   7  1   
 11   4  27  1   
 12   5   8  1   
 13   5   9  1   
 14   5  28  1   
 15   6   9  1   
 16   6  10  1   
 17   6  29  1   
 18   7  11  1   
 19   7  30  1   
 20   7  31  1   
 21   8  11  1   
 22   8  32  1   
 23   8  33  1   
 24   9  34  1   
 25   9  35  1   
 26  10  36  1   
 27  10  37  1   
 28  10  38  1   
 29  11  12  1   
 30  12  13  2   
 31  12  14  1   
 32  13  15  1   
 33  14  16  2   
 34  15  16  1   
 35  16  17  1   
 36  17  18  ar  
 37  17  19  ar  
 38  18  20  ar  
 39  18  39  1   
 40  19  21  ar  
 41  19  40  1   
 42  20  22  ar  
 43  20  41  1   
 44  21  22  ar  
 45  21  42  1   
 46  22  43  1   
@<TRIPOS>SUBSTRUCTURE
  1 ****  12 GROUP 4 **** **** 0

# MOE 2024.06 (io_trps.svl 2023.06)
