@<TRIPOS>MOLECULE
NONAME
52 55 1 0 0 
SMALL
USER_CHARGES


@<TRIPOS>ATOM
  1 O        2.7270    -0.4420    -2.2140 O.2   1 <1>  -0.5700 
  2 C        2.0430    -1.1240    -1.4880 C.2   1 <1>   0.5690 
  3 N        1.6840    -0.7910    -0.2140 N.am  1 <1>  -0.4940 
  4 C        1.4930    -2.4550    -2.0020 C.3   1 <1>   0.1710 
  5 C        1.8000     0.3890     0.5560 C.2   1 <1>  -0.0880 
  6 N        0.2100    -2.8240    -1.3370 N.3   1 <1>  -0.8100 
  7 N        2.8410     1.2750     0.6240 N.pl3 1 <1>   0.3140 
  8 C        0.8480     0.8420     1.4070 C.2   1 <1>  -0.1810 
  9 C       -0.0910    -4.2610    -1.3600 C.3   1 <1>   0.2530 
 10 C       -0.9190    -2.0030    -1.8250 C.3   1 <1>   0.1100 
 11 N        2.5460     2.2870     1.4880 N.2   1 <1>  -0.7070 
 12 C        4.1770     1.1720    -0.0470 C.3   1 <1>   0.1760 
 13 C        1.3650     2.0130     1.9410 C.2   1 <1>   0.1390 
 14 C       -0.5070     0.2400     1.7370 C.3   1 <1>  -0.0590 
 15 C       -0.8150    -4.6680    -0.0790 C.ar  1 <1>  -0.1430 
 16 C       -2.2800    -2.4180    -1.2440 C.3   1 <1>   0.1200 
 17 C        4.9340    -0.1150     0.3220 C.3   1 <1>  -0.1600 
 18 C        5.1600     2.2950     0.3030 C.3   1 <1>  -0.1600 
 19 C       -1.7610    -3.8730     0.5820 C.ar  1 <1>   0.0830 
 20 C       -0.4880    -5.9010     0.4700 C.ar  1 <1>  -0.1500 
 21 O       -2.1900    -2.6640     0.1420 O.3   1 <1>  -0.3630 
 22 C        6.4280     0.2390     0.3440 C.3   1 <1>  -0.1600 
 23 C        6.5270     1.7140    -0.0450 C.3   1 <1>  -0.1600 
 24 C       -2.3280    -4.3110     1.7680 C.ar  1 <1>  -0.1500 
 25 C       -1.0680    -6.3360     1.6490 C.ar  1 <1>  -0.1500 
 26 C       -1.9870    -5.5380     2.3030 C.ar  1 <1>  -0.1500 
 27 H        0.9970    -1.4700     0.1430 H     1 <1>   0.3700 
 28 H        2.2390    -3.2010    -1.7930 H     1 <1>   0.0800 
 29 H        1.3610    -2.4000    -3.0680 H     1 <1>   0.0800 
 30 H        0.8290    -4.8170    -1.4180 H     1 <1>   0.0800 
 31 H       -0.6810    -4.5140    -2.2240 H     1 <1>   0.0800 
 32 H       -0.9750    -2.0620    -2.8990 H     1 <1>   0.0800 
 33 H       -0.7450    -0.9720    -1.5670 H     1 <1>   0.0800 
 34 H        4.0220     1.2040    -1.1080 H     1 <1>   0.0800 
 35 H        0.8520     2.6340     2.6560 H     1 <1>   0.1500 
 36 H       -0.6300    -0.7160     1.2620 H     1 <1>   0.0800 
 37 H       -1.2890     0.8950     1.4000 H     1 <1>   0.0800 
 38 H       -0.5980     0.1050     2.8000 H     1 <1>   0.0800 
 39 H       -2.6590    -3.3040    -1.7230 H     1 <1>   0.0800 
 40 H       -2.9920    -1.6270    -1.3880 H     1 <1>   0.0800 
 41 H        4.7370    -0.8850    -0.4020 H     1 <1>   0.0800 
 42 H        4.6320    -0.4560     1.2970 H     1 <1>   0.0800 
 43 H        5.1320     2.5010     1.3590 H     1 <1>   0.0800 
 44 H        4.9490     3.1950    -0.2480 H     1 <1>   0.0800 
 45 H        0.2310    -6.5380    -0.0150 H     1 <1>   0.1500 
 46 H        6.9910    -0.3780    -0.3360 H     1 <1>   0.0800 
 47 H        6.8130     0.1000     1.3400 H     1 <1>   0.0800 
 48 H        7.3230     2.2180     0.4740 H     1 <1>   0.0800 
 49 H        6.6890     1.7960    -1.1070 H     1 <1>   0.0800 
 50 H       -3.0430    -3.6830     2.2680 H     1 <1>   0.1500 
 51 H       -0.8000    -7.2950     2.0600 H     1 <1>   0.1500 
 52 H       -2.4360    -5.8710     3.2230 H     1 <1>   0.1500 
@<TRIPOS>BOND
  1   1   2  2   
  2   2   3  am  
  3   2   4  1   
  4   3   5  1   
  5   3  27  1   
  6   4   6  1   
  7   4  28  1   
  8   4  29  1   
  9   5   7  1   
 10   5   8  2   
 11   6   9  1   
 12   6  10  1   
 13   7  11  1   
 14   7  12  1   
 15   8  13  1   
 16   8  14  1   
 17   9  15  1   
 18   9  30  1   
 19   9  31  1   
 20  10  16  1   
 21  10  32  1   
 22  10  33  1   
 23  11  13  2   
 24  12  17  1   
 25  12  18  1   
 26  12  34  1   
 27  13  35  1   
 28  14  36  1   
 29  14  37  1   
 30  14  38  1   
 31  15  19  ar  
 32  15  20  ar  
 33  16  21  1   
 34  16  39  1   
 35  16  40  1   
 36  17  22  1   
 37  17  41  1   
 38  17  42  1   
 39  18  23  1   
 40  18  43  1   
 41  18  44  1   
 42  19  21  1   
 43  19  24  ar  
 44  20  25  ar  
 45  20  45  1   
 46  22  23  1   
 47  22  46  1   
 48  22  47  1   
 49  23  48  1   
 50  23  49  1   
 51  24  26  ar  
 52  24  50  1   
 53  25  26  ar  
 54  25  51  1   
 55  26  52  1   
@<TRIPOS>SUBSTRUCTURE
  1 ****   3 GROUP 4 **** **** 0

# MOE 2024.06 (io_trps.svl 2023.06)
