@<TRIPOS>MOLECULE
NONAME
60 63 1 0 0 
SMALL
USER_CHARGES


@<TRIPOS>ATOM
  1 O        1.0780    -0.4450     1.6640 O.3   1 <1>  -0.5600 
  2 C        1.4490     0.4920     0.7070 C.3   1 <1>   0.1200 
  3 C        1.1860    -1.7650     1.2160 C.3   1 <1>   0.1200 
  4 C        2.9270     0.2820     0.3400 C.3   1 <1>   0.1900 
  5 C        2.6340    -2.1090     0.7780 C.3   1 <1>   0.1900 
  6 N        3.1530    -1.0930    -0.1880 N.3   1 <1>  -0.8100 
  7 C        3.3640     1.3490    -0.6860 C.3   1 <1>   0.3430 
  8 C        2.6830    -3.5210     0.1530 C.3   1 <1>  -0.1600 
  9 C        4.5800    -1.2760    -0.5410 C.3   1 <1>   0.1100 
 10 N        4.7970     1.1720    -1.1110 N.4   1 <1>  -0.9590 
 11 C        2.0820    -4.6260     1.0410 C.3   1 <1>  -0.1600 
 12 C        5.0480    -0.2320    -1.5760 C.3   1 <1>   0.3430 
 13 C        5.1950     2.1750    -2.1330 C.3   1 <1>   0.4860 
 14 C        2.3160    -6.0090     0.4270 C.3   1 <1>  -0.2400 
 15 C        5.1410     3.5530    -1.5010 C.ar  1 <1>  -0.1440 
 16 C        6.0050     3.8690    -0.4650 C.ar  1 <1>  -0.1500 
 17 C        4.2390     4.5060    -1.9460 C.ar  1 <1>  -0.1500 
 18 C        5.9820     5.1210     0.1330 C.ar  1 <1>  -0.1440 
 19 C        4.2020     5.7560    -1.3570 C.ar  1 <1>  -0.1500 
 20 C        5.0710     6.0720    -0.3160 C.ar  1 <1>   0.0820 
 21 C        6.9430     5.4530     1.2790 C.3   1 <1>   0.2390 
 22 O        5.0740     7.2830     0.2980 O.3   1 <1>  -0.3630 
 23 N        8.2840     4.8760     1.0520 N.pl3 1 <1>   0.3140 
 24 C        4.2280     8.3360    -0.1170 C.3   1 <1>   0.0400 
 25 N        8.6640     3.6910     1.5270 N.2   1 <1>  -0.7070 
 26 C        9.2910     5.3910     0.3410 C.2   1 <1>   0.0360 
 27 C        9.8740     3.5910     1.0810 C.2   1 <1>   0.3660 
 28 N       10.3100     4.6100     0.3320 N.2   1 <1>  -0.5650 
 29 H        0.8110     0.3810    -0.1530 H     1 <1>   0.0800 
 30 H        1.2970     1.4660     1.1360 H     1 <1>   0.0800 
 31 H        0.8800    -2.3960     2.0310 H     1 <1>   0.0800 
 32 H        0.5010    -1.9060     0.3980 H     1 <1>   0.0800 
 33 H        3.5030     0.4190     1.2390 H     1 <1>   0.0800 
 34 H        3.2490    -2.1050     1.6630 H     1 <1>   0.0800 
 35 H        3.2300     2.3270    -0.2530 H     1 <1>   0.0800 
 36 H        2.7180     1.2740    -1.5450 H     1 <1>   0.0800 
 37 H        2.1620    -3.5070    -0.7880 H     1 <1>   0.0800 
 38 H        3.7050    -3.7950    -0.0290 H     1 <1>   0.0800 
 39 H        5.1910    -1.2170     0.3450 H     1 <1>   0.0800 
 40 H        4.7300    -2.2430    -0.9830 H     1 <1>   0.0800 
 41 H        5.3770     1.3440    -0.2810 H     1 <1>   0.4500 
 42 H        2.5330    -4.5950     2.0180 H     1 <1>   0.0800 
 43 H        1.0210    -4.4830     1.1540 H     1 <1>   0.0800 
 44 H        4.5140    -0.4110    -2.4950 H     1 <1>   0.0800 
 45 H        6.0990    -0.3740    -1.7690 H     1 <1>   0.0800 
 46 H        6.2000     1.9820    -2.4710 H     1 <1>   0.0800 
 47 H        4.5330     2.1280    -2.9820 H     1 <1>   0.0800 
 48 H        3.3690    -6.2110     0.3330 H     1 <1>   0.0800 
 49 H        1.8620    -6.0720    -0.5470 H     1 <1>   0.0800 
 50 H        1.8810    -6.7670     1.0540 H     1 <1>   0.0800 
 51 H        6.7120     3.1320    -0.1220 H     1 <1>   0.1500 
 52 H        3.5590     4.2920    -2.7550 H     1 <1>   0.1500 
 53 H        3.4920     6.4740    -1.7240 H     1 <1>   0.1500 
 54 H        6.5560     5.0570     2.1990 H     1 <1>   0.0800 
 55 H        7.0600     6.5140     1.3950 H     1 <1>   0.0800 
 56 H        4.4290     9.1910     0.5040 H     1 <1>   0.0800 
 57 H        3.2030     8.0320     0.0050 H     1 <1>   0.0800 
 58 H        4.4420     8.5740    -1.1440 H     1 <1>   0.0800 
 59 H        9.2320     6.3420    -0.1580 H     1 <1>   0.1500 
 60 H       10.5140     2.7460     1.2840 H     1 <1>   0.1500 
@<TRIPOS>BOND
  1   1   2  1   
  2   1   3  1   
  3   2   4  1   
  4   2  29  1   
  5   2  30  1   
  6   3   5  1   
  7   3  31  1   
  8   3  32  1   
  9   4   6  1   
 10   4   7  1   
 11   4  33  1   
 12   5   6  1   
 13   5   8  1   
 14   5  34  1   
 15   6   9  1   
 16   7  10  1   
 17   7  35  1   
 18   7  36  1   
 19   8  11  1   
 20   8  37  1   
 21   8  38  1   
 22   9  12  1   
 23   9  39  1   
 24   9  40  1   
 25  10  12  1   
 26  10  13  1   
 27  10  41  1   
 28  11  14  1   
 29  11  42  1   
 30  11  43  1   
 31  12  44  1   
 32  12  45  1   
 33  13  15  1   
 34  13  46  1   
 35  13  47  1   
 36  14  48  1   
 37  14  49  1   
 38  14  50  1   
 39  15  16  ar  
 40  15  17  ar  
 41  16  18  ar  
 42  16  51  1   
 43  17  19  ar  
 44  17  52  1   
 45  18  20  ar  
 46  18  21  1   
 47  19  20  ar  
 48  19  53  1   
 49  20  22  1   
 50  21  23  1   
 51  21  54  1   
 52  21  55  1   
 53  22  24  1   
 54  23  25  1   
 55  23  26  1   
 56  24  56  1   
 57  24  57  1   
 58  24  58  1   
 59  25  27  2   
 60  26  28  2   
 61  26  59  1   
 62  27  28  1   
 63  27  60  1   
@<TRIPOS>SUBSTRUCTURE
  1 ****  10 GROUP 4 **** **** 0

# MOE 2024.06 (io_trps.svl 2023.06)
