@<TRIPOS>MOLECULE
NONAME
42 44 1 0 0 
SMALL
USER_CHARGES


@<TRIPOS>ATOM
  1 F       -1.0580    -0.9040     0.2030 F     1 <1>  -0.1900 
  2 C       -1.8640     0.1170     0.3130 C.ar  1 <1>   0.1900 
  3 C       -3.1500     0.0410    -0.2240 C.ar  1 <1>   0.0860 
  4 C       -1.3770     1.2300     0.9690 C.ar  1 <1>  -0.1500 
  5 C       -3.9610     1.1760    -0.0670 C.ar  1 <1>  -0.1440 
  6 C       -3.6000    -1.1620    -0.8960 C.2   1 <1>   0.5440 
  7 C       -2.1960     2.3340     1.1080 C.ar  1 <1>  -0.1500 
  8 C       -3.4800     2.3010     0.5900 C.ar  1 <1>  -0.1500 
  9 C       -5.3860     1.2040    -0.6090 C.3   1 <1>  -0.0960 
 10 O       -4.0560    -1.1220    -2.0220 O.2   1 <1>  -0.5700 
 11 N       -3.5400    -2.3710    -0.2660 N.am  1 <1>  -0.7300 
 12 C       -3.8940    -3.6720    -0.8760 C.3   1 <1>   0.2200 
 13 C       -5.1870    -4.1760    -0.2600 C.3   1 <1>  -0.0800 
 14 C       -2.8950    -4.7360    -0.4320 C.3   1 <1>   0.1200 
 15 C       -4.6830    -4.8420     1.0240 C.3   1 <1>   0.1200 
 16 C       -5.9070    -5.1690    -1.1920 C.3   1 <1>  -0.0170 
 17 O       -3.3630    -5.2370     0.7870 O.3   1 <1>  -0.5600 
 18 C       -7.2140    -5.6560    -0.5850 C.ar  1 <1>  -0.1430 
 19 C       -7.3440    -6.9170    -0.0380 C.ar  1 <1>  -0.1500 
 20 C       -8.3390    -4.8580    -0.5510 C.ar  1 <1>  -0.1500 
 21 C       -8.5580    -7.3060     0.5040 C.ar  1 <1>   0.1600 
 22 C       -9.5060    -5.3430     0.0150 C.ar  1 <1>   0.1600 
 23 N       -9.6420    -6.5480     0.5460 N.ar  1 <1>  -0.6200 
 24 H       -0.3750     1.2320     1.3610 H     1 <1>   0.1500 
 25 H       -1.8390     3.2150     1.6140 H     1 <1>   0.1500 
 26 H       -4.1060     3.1690     0.7040 H     1 <1>   0.1500 
 27 H       -5.9180     2.0730    -0.2660 H     1 <1>   0.0800 
 28 H       -5.9250     0.3300    -0.2910 H     1 <1>   0.0800 
 29 H       -5.3650     1.2220    -1.6850 H     1 <1>   0.0800 
 30 H       -3.1050    -2.4400     0.6560 H     1 <1>   0.3700 
 31 H       -3.9400    -3.5840    -1.9490 H     1 <1>   0.0800 
 32 H       -5.8540    -3.3620    -0.0370 H     1 <1>   0.0800 
 33 H       -1.9010    -4.3440    -0.3050 H     1 <1>   0.0800 
 34 H       -2.8760    -5.5530    -1.1310 H     1 <1>   0.0800 
 35 H       -5.2610    -5.7020     1.3140 H     1 <1>   0.0800 
 36 H       -4.6670    -4.1350     1.8340 H     1 <1>   0.0800 
 37 H       -5.2710    -6.0120    -1.4020 H     1 <1>   0.0800 
 38 H       -6.1230    -4.6840    -2.1280 H     1 <1>   0.0800 
 39 H       -6.5150    -7.6010    -0.0270 H     1 <1>   0.1500 
 40 H       -8.3190    -3.8640    -0.9600 H     1 <1>   0.1500 
 41 H       -8.6410    -8.2920     0.9270 H     1 <1>   0.1500 
 42 H      -10.3740    -4.7070     0.0330 H     1 <1>   0.1500 
@<TRIPOS>BOND
  1   1   2  1   
  2   2   3  ar  
  3   2   4  ar  
  4   3   5  ar  
  5   3   6  1   
  6   4   7  ar  
  7   4  24  1   
  8   5   8  ar  
  9   5   9  1   
 10   6  10  2   
 11   6  11  am  
 12   7   8  ar  
 13   7  25  1   
 14   8  26  1   
 15   9  27  1   
 16   9  28  1   
 17   9  29  1   
 18  11  12  1   
 19  11  30  1   
 20  12  13  1   
 21  12  14  1   
 22  12  31  1   
 23  13  15  1   
 24  13  16  1   
 25  13  32  1   
 26  14  17  1   
 27  14  33  1   
 28  14  34  1   
 29  15  17  1   
 30  15  35  1   
 31  15  36  1   
 32  16  18  1   
 33  16  37  1   
 34  16  38  1   
 35  18  19  ar  
 36  18  20  ar  
 37  19  21  ar  
 38  19  39  1   
 39  20  22  ar  
 40  20  40  1   
 41  21  23  ar  
 42  21  41  1   
 43  22  23  ar  
 44  22  42  1   
@<TRIPOS>SUBSTRUCTURE
  1 ****  11 GROUP 4 **** **** 0

# MOE 2024.06 (io_trps.svl 2023.06)
