@<TRIPOS>MOLECULE
NONAME
47 50 1 0 0 
SMALL
USER_CHARGES


@<TRIPOS>ATOM
  1 O        0.0750     0.4360     0.0850 O.2   1 <1>  -0.5700 
  2 C        0.0390     1.6510     0.1390 C.2   1 <1>   0.5440 
  3 N       -1.1890     2.2760     0.2220 N.am  1 <1>  -0.6600 
  4 C        1.2810     2.4000     0.0980 C.ar  1 <1>   0.0860 
  5 C       -2.4150     1.4740     0.5110 C.3   1 <1>   0.1400 
  6 C       -1.3860     3.7140    -0.1340 C.3   1 <1>   0.1400 
  7 C        2.2530     2.1250    -0.8620 C.ar  1 <1>  -0.1500 
  8 C        1.5650     3.4130     1.0130 C.ar  1 <1>  -0.1500 
  9 C       -3.5100     2.3620     1.1050 C.3   1 <1>  -0.1600 
 10 C       -2.7520     3.9030    -0.7880 C.3   1 <1>  -0.1600 
 11 C        3.4360     2.8380    -0.9190 C.ar  1 <1>  -0.1500 
 12 C        2.7460     4.1270     0.9560 C.ar  1 <1>  -0.1500 
 13 C       -3.8850     3.5410     0.1880 C.3   1 <1>   0.4180 
 14 C        3.7120     3.8610    -0.0140 C.ar  1 <1>   0.0530 
 15 O       -4.0960     4.6300     1.0540 O.3   1 <1>  -0.5600 
 16 C       -5.1630     3.2090    -0.5820 C.2   1 <1>  -0.2880 
 17 C        4.9470     4.6090    -0.0790 C.2   1 <1>   0.0870 
 18 C       -4.9090     5.6800     0.6060 C.3   1 <1>   0.1200 
 19 C       -6.2860     3.9290    -0.5230 C.2   1 <1>  -0.2760 
 20 O        5.1860     5.6070     0.7400 O.3   1 <1>  -0.2800 
 21 C        6.0390     4.5180    -0.8710 C.2   1 <1>   0.0770 
 22 C       -6.3340     5.1850     0.3240 C.3   1 <1>  -0.0220 
 23 C       -7.5720     3.5800    -1.2500 C.3   1 <1>  -0.1020 
 24 C        6.3700     6.0690     0.4260 C.2   1 <1>   0.3280 
 25 N        6.9460     5.4560    -0.5430 N.2   1 <1>  -0.5650 
 26 H       -2.1740     0.6860     1.2050 H     1 <1>   0.0800 
 27 H       -2.7600     1.0190    -0.4020 H     1 <1>   0.0800 
 28 H       -0.6160     4.0330    -0.8150 H     1 <1>   0.0800 
 29 H       -1.3270     4.3140     0.7590 H     1 <1>   0.0800 
 30 H        2.0660     1.3340    -1.5690 H     1 <1>   0.1500 
 31 H        0.8440     3.6350     1.7820 H     1 <1>   0.1500 
 32 H       -3.1500     2.7330     2.0480 H     1 <1>   0.0800 
 33 H       -4.3810     1.7660     1.3060 H     1 <1>   0.0800 
 34 H       -2.7990     3.2650    -1.6520 H     1 <1>   0.0800 
 35 H       -2.8590     4.9110    -1.1360 H     1 <1>   0.0800 
 36 H        4.1550     2.5920    -1.6790 H     1 <1>   0.1500 
 37 H        2.9270     4.9040     1.6790 H     1 <1>   0.1500 
 38 H       -5.0690     2.3170    -1.1740 H     1 <1>   0.1500 
 39 H       -4.4770     6.0980    -0.2840 H     1 <1>   0.0800 
 40 H       -4.9220     6.4350     1.3720 H     1 <1>   0.0800 
 41 H        6.2230     3.8200    -1.6690 H     1 <1>   0.1500 
 42 H       -6.8690     5.9630    -0.1900 H     1 <1>   0.0800 
 43 H       -6.8400     4.9830     1.2510 H     1 <1>   0.0800 
 44 H       -7.8410     4.3680    -1.9310 H     1 <1>   0.0800 
 45 H       -8.3710     3.4430    -0.5430 H     1 <1>   0.0800 
 46 H       -7.4540     2.6700    -1.8110 H     1 <1>   0.0800 
 47 H        6.7680     6.9020     0.9810 H     1 <1>   0.1500 
@<TRIPOS>BOND
  1   1   2  2   
  2   2   3  am  
  3   2   4  1   
  4   3   5  1   
  5   3   6  1   
  6   4   7  ar  
  7   4   8  ar  
  8   5   9  1   
  9   5  26  1   
 10   5  27  1   
 11   6  10  1   
 12   6  28  1   
 13   6  29  1   
 14   7  11  ar  
 15   7  30  1   
 16   8  12  ar  
 17   8  31  1   
 18   9  13  1   
 19   9  32  1   
 20   9  33  1   
 21  10  13  1   
 22  10  34  1   
 23  10  35  1   
 24  11  14  ar  
 25  11  36  1   
 26  12  14  ar  
 27  12  37  1   
 28  13  15  1   
 29  13  16  1   
 30  14  17  1   
 31  15  18  1   
 32  16  19  2   
 33  16  38  1   
 34  17  20  1   
 35  17  21  2   
 36  18  22  1   
 37  18  39  1   
 38  18  40  1   
 39  19  22  1   
 40  19  23  1   
 41  20  24  1   
 42  21  25  1   
 43  21  41  1   
 44  22  42  1   
 45  22  43  1   
 46  23  44  1   
 47  23  45  1   
 48  23  46  1   
 49  24  25  2   
 50  24  47  1   
@<TRIPOS>SUBSTRUCTURE
  1 ****   6 GROUP 4 **** **** 0

# MOE 2024.06 (io_trps.svl 2023.06)
