@<TRIPOS>MOLECULE
NONAME
47 50 1 0 0 
SMALL
USER_CHARGES


@<TRIPOS>ATOM
  1 S       -0.3140    -1.3500    -0.3920 S.3   1 <1>  -0.0800 
  2 C       -1.7880    -2.0520     0.2880 C.2   1 <1>  -0.0450 
  3 C       -1.0030     0.2580    -0.4210 C.2   1 <1>  -0.1400 
  4 C       -1.8500    -3.4640     0.5690 C.2   1 <1>   0.7150 
  5 C       -2.6970    -1.0590     0.4600 C.2   1 <1>  -0.1500 
  6 C       -2.2580     0.2370     0.0600 C.2   1 <1>  -0.1500 
  7 C       -0.1350     1.3800    -0.9510 C.3   1 <1>  -0.0600 
  8 O       -2.8070    -3.9470     1.1490 O.2   1 <1>  -0.5700 
  9 N       -0.8960    -4.3530     0.1390 N.am  1 <1>  -0.6600 
 10 C       -0.4360    -5.4410     1.0790 C.3   1 <1>   0.2200 
 11 C       -0.6940    -4.5310    -1.3280 C.3   1 <1>   0.1400 
 12 C        0.9750    -5.9500     0.7430 C.3   1 <1>   0.1200 
 13 C       -1.4400    -6.6220     1.1320 C.3   1 <1>   0.3430 
 14 C       -0.6280    -6.0020    -1.7830 C.3   1 <1>  -0.0800 
 15 O        0.9120    -6.9910    -0.1870 O.3   1 <1>  -0.5600 
 16 N       -2.4130    -6.5780    -0.0060 N.4   1 <1>  -0.9590 
 17 C        0.7550    -6.6220    -1.5160 C.3   1 <1>   0.1200 
 18 C       -1.7860    -6.9220    -1.3260 C.3   1 <1>   0.3430 
 19 C       -3.6170    -7.4180     0.2780 C.3   1 <1>   0.5240 
 20 C       -3.2600    -8.8930     0.4640 C.2   1 <1>   0.0460 
 21 N       -2.8600    -9.6540    -0.5770 N.2   1 <1>  -0.5650 
 22 C       -3.2920    -9.6230     1.6030 C.2   1 <1>  -0.3020 
 23 C       -2.6600   -10.8210    -0.0540 C.2   1 <1>   0.0360 
 24 N       -2.9050   -10.8700     1.2720 N.pl3 1 <1>   0.0330 
 25 H       -3.6830    -1.2030     0.8680 H     1 <1>   0.1500 
 26 H       -2.9040     1.0940     0.1530 H     1 <1>   0.1500 
 27 H       -0.6690     2.3120    -0.9130 H     1 <1>   0.0800 
 28 H        0.1430     1.1800    -1.9700 H     1 <1>   0.0800 
 29 H        0.7560     1.4660    -0.3560 H     1 <1>   0.0800 
 30 H       -0.3790    -5.0140     2.0650 H     1 <1>   0.0800 
 31 H       -1.5000    -4.0440    -1.8520 H     1 <1>   0.0800 
 32 H        0.2160    -4.0290    -1.6140 H     1 <1>   0.0800 
 33 H        1.4220    -6.3640     1.6300 H     1 <1>   0.0800 
 34 H        1.6140    -5.1630     0.3800 H     1 <1>   0.0800 
 35 H       -1.9810    -6.5500     2.0600 H     1 <1>   0.0800 
 36 H       -0.9120    -7.5620     1.1350 H     1 <1>   0.0800 
 37 H       -0.6940    -5.9710    -2.8560 H     1 <1>   0.0800 
 38 H       -2.7170    -5.5900    -0.0270 H     1 <1>   0.4500 
 39 H        1.5520    -5.9500    -1.7870 H     1 <1>   0.0800 
 40 H        0.8680    -7.5210    -2.0990 H     1 <1>   0.0800 
 41 H       -1.4160    -7.9340    -1.2920 H     1 <1>   0.0800 
 42 H       -2.5540    -6.8930    -2.0820 H     1 <1>   0.0800 
 43 H       -4.0970    -7.0620     1.1730 H     1 <1>   0.0800 
 44 H       -4.3200    -7.3340    -0.5330 H     1 <1>   0.0800 
 45 H       -3.5650    -9.3450     2.6060 H     1 <1>   0.1500 
 46 H       -2.3320   -11.6860    -0.6060 H     1 <1>   0.1500 
 47 H       -2.8200   -11.6900     1.8820 H     1 <1>   0.2700 
@<TRIPOS>BOND
  1   1   2  1   
  2   1   3  1   
  3   2   4  1   
  4   2   5  2   
  5   3   6  2   
  6   3   7  1   
  7   4   8  2   
  8   4   9  am  
  9   5   6  1   
 10   5  25  1   
 11   6  26  1   
 12   7  27  1   
 13   7  28  1   
 14   7  29  1   
 15   9  10  1   
 16   9  11  1   
 17  10  12  1   
 18  10  13  1   
 19  10  30  1   
 20  11  14  1   
 21  11  31  1   
 22  11  32  1   
 23  12  15  1   
 24  12  33  1   
 25  12  34  1   
 26  13  16  1   
 27  13  35  1   
 28  13  36  1   
 29  14  17  1   
 30  14  18  1   
 31  14  37  1   
 32  15  17  1   
 33  16  18  1   
 34  16  19  1   
 35  16  38  1   
 36  17  39  1   
 37  17  40  1   
 38  18  41  1   
 39  18  42  1   
 40  19  20  1   
 41  19  43  1   
 42  19  44  1   
 43  20  21  1   
 44  20  22  2   
 45  21  23  2   
 46  22  24  1   
 47  22  45  1   
 48  23  24  1   
 49  23  46  1   
 50  24  47  1   
@<TRIPOS>SUBSTRUCTURE
  1 ****   9 GROUP 4 **** **** 0

# MOE 2024.06 (io_trps.svl 2023.06)
