@<TRIPOS>MOLECULE
NONAME
57 60 1 0 0 
SMALL
USER_CHARGES


@<TRIPOS>ATOM
  1 O       -1.6590    -0.0380     2.8220 O.2   1 <1>  -0.5700 
  2 C       -1.6860     0.8100     1.9600 C.2   1 <1>   0.5690 
  3 N       -1.9320     0.4950     0.6490 N.am  1 <1>  -0.6600 
  4 C       -1.4380     2.2490     2.3990 C.3   1 <1>   0.0820 
  5 C       -2.0720    -0.9420     0.2290 C.3   1 <1>   0.3640 
  6 C       -2.0650     1.5200    -0.4370 C.3   1 <1>   0.1400 
  7 C       -0.2030     2.8710     1.7510 C.2   1 <1>  -0.1810 
  8 C       -0.7350    -1.5340    -0.2500 C.ar  1 <1>  -0.1440 
  9 C       -3.1840    -1.1450    -0.8510 C.3   1 <1>   0.2000 
 10 C       -2.4730     0.9050    -1.7830 C.3   1 <1>   0.1200 
 11 C        1.0840     2.3370     1.7790 C.2   1 <1>   0.1080 
 12 C       -0.0830     4.0110     1.0330 C.2   1 <1>  -0.3320 
 13 C        0.3770    -0.7710    -0.5950 C.ar  1 <1>  -0.1500 
 14 C       -0.6340    -2.9170    -0.3300 C.ar  1 <1>  -0.1500 
 15 O       -3.5220     0.0160    -1.5780 O.3   1 <1>  -0.5600 
 16 C       -4.4840    -1.6660    -0.2270 C.3   1 <1>   0.1200 
 17 N        1.9280     3.0640     1.1250 N.2   1 <1>  -0.7070 
 18 C        1.5030     1.0600     2.4770 C.3   1 <1>  -0.0590 
 19 N        1.2250     4.1240     0.6640 N.pl3 1 <1>   0.5930 
 20 C       -1.1430     5.0350     0.6440 C.3   1 <1>  -0.0600 
 21 C        1.5460    -1.3740    -1.0230 C.ar  1 <1>  -0.1500 
 22 C        0.5340    -3.5240    -0.7600 C.ar  1 <1>  -0.1500 
 23 O       -4.3290    -2.9920     0.1710 O.3   1 <1>  -0.6800 
 24 C        1.8130     5.1520    -0.1240 C.ar  1 <1>  -0.0230 
 25 C        1.6260    -2.7520    -1.1090 C.ar  1 <1>  -0.1500 
 26 C        1.8730     6.4630     0.3390 C.ar  1 <1>  -0.1500 
 27 C        2.3400     4.8620    -1.3790 C.ar  1 <1>  -0.1500 
 28 C        2.4280     7.4630    -0.4400 C.ar  1 <1>  -0.1500 
 29 C        2.8950     5.8600    -2.1600 C.ar  1 <1>  -0.1500 
 30 C        2.9370     7.1620    -1.6920 C.ar  1 <1>  -0.1500 
 31 H       -2.3140     2.8260     2.1830 H     1 <1>   0.0800 
 32 H       -1.3030     2.2630     3.4650 H     1 <1>   0.0800 
 33 H       -2.3550    -1.5230     1.0900 H     1 <1>   0.0800 
 34 H       -2.8100     2.2410    -0.1510 H     1 <1>   0.0800 
 35 H       -1.1310     2.0370    -0.5670 H     1 <1>   0.0800 
 36 H       -2.8480    -1.8650    -1.5750 H     1 <1>   0.0800 
 37 H       -1.6520     0.3820    -2.2430 H     1 <1>   0.0800 
 38 H       -2.8130     1.6730    -2.4560 H     1 <1>   0.0800 
 39 H        0.3600     0.3000    -0.5280 H     1 <1>   0.1500 
 40 H       -1.4710    -3.5360    -0.0520 H     1 <1>   0.1500 
 41 H       -5.2910    -1.6230    -0.9370 H     1 <1>   0.0800 
 42 H       -4.7370    -1.0840     0.6430 H     1 <1>   0.0800 
 43 H        1.1740     0.2050     1.9170 H     1 <1>   0.0800 
 44 H        1.0770     1.0170     3.4620 H     1 <1>   0.0800 
 45 H        2.5740     1.0240     2.5620 H     1 <1>   0.0800 
 46 H       -2.1230     4.7200     0.9520 H     1 <1>   0.0800 
 47 H       -1.1510     5.1720    -0.4230 H     1 <1>   0.0800 
 48 H       -0.9330     5.9810     1.1100 H     1 <1>   0.0800 
 49 H        2.3970    -0.7680    -1.2830 H     1 <1>   0.1500 
 50 H        0.5930    -4.5970    -0.8170 H     1 <1>   0.1500 
 51 H       -4.4170    -3.5940    -0.5940 H     1 <1>   0.4000 
 52 H        2.5360    -3.2200    -1.4420 H     1 <1>   0.1500 
 53 H        1.4880     6.7000     1.3160 H     1 <1>   0.1500 
 54 H        2.3170     3.8480    -1.7380 H     1 <1>   0.1500 
 55 H        2.4680     8.4740    -0.0730 H     1 <1>   0.1500 
 56 H        3.2980     5.6250    -3.1290 H     1 <1>   0.1500 
 57 H        3.3690     7.9390    -2.2980 H     1 <1>   0.1500 
@<TRIPOS>BOND
  1   1   2  2   
  2   2   3  am  
  3   2   4  1   
  4   3   5  1   
  5   3   6  1   
  6   4   7  1   
  7   4  31  1   
  8   4  32  1   
  9   5   8  1   
 10   5   9  1   
 11   5  33  1   
 12   6  10  1   
 13   6  34  1   
 14   6  35  1   
 15   7  11  1   
 16   7  12  2   
 17   8  13  ar  
 18   8  14  ar  
 19   9  15  1   
 20   9  16  1   
 21   9  36  1   
 22  10  15  1   
 23  10  37  1   
 24  10  38  1   
 25  11  17  2   
 26  11  18  1   
 27  12  19  1   
 28  12  20  1   
 29  13  21  ar  
 30  13  39  1   
 31  14  22  ar  
 32  14  40  1   
 33  16  23  1   
 34  16  41  1   
 35  16  42  1   
 36  17  19  1   
 37  18  43  1   
 38  18  44  1   
 39  18  45  1   
 40  19  24  1   
 41  20  46  1   
 42  20  47  1   
 43  20  48  1   
 44  21  25  ar  
 45  21  49  1   
 46  22  25  ar  
 47  22  50  1   
 48  23  51  1   
 49  24  26  ar  
 50  24  27  ar  
 51  25  52  1   
 52  26  28  ar  
 53  26  53  1   
 54  27  29  ar  
 55  27  54  1   
 56  28  30  ar  
 57  28  55  1   
 58  29  30  ar  
 59  29  56  1   
 60  30  57  1   
@<TRIPOS>SUBSTRUCTURE
  1 ****   6 GROUP 4 **** **** 0

# MOE 2024.06 (io_trps.svl 2023.06)
