@<TRIPOS>MOLECULE
NONAME
48 49 1 0 0 
SMALL
USER_CHARGES


@<TRIPOS>ATOM
  1 O       -0.2650    -2.3220     1.7350 O.2   1 <1>  -0.5700 
  2 C       -0.0270    -2.8590     0.6760 C.2   1 <1>   0.6900 
  3 N       -1.0070    -3.2490    -0.1540 N.am  1 <1>  -0.7300 
  4 N        1.2370    -3.0790     0.3180 N.am  1 <1>  -0.8000 
  5 C       -2.4420    -2.9050     0.0480 C.3   1 <1>   0.2010 
  6 C       -3.2760    -3.0060    -1.2360 C.2   1 <1>   0.5690 
  7 O       -2.7020    -3.2690    -2.2720 O.2   1 <1>  -0.5700 
  8 N       -4.6360    -2.8120    -1.2030 N.am  1 <1>  -0.6600 
  9 C       -5.4620    -3.0890    -2.4140 C.3   1 <1>   0.1400 
 10 C       -5.4110    -2.4180     0.0020 C.3   1 <1>   0.1400 
 11 C       -5.8280    -4.5780    -2.5250 C.3   1 <1>   0.1400 
 12 C       -6.1170    -3.6260     0.6250 C.3   1 <1>  -0.1600 
 13 N       -6.4210    -5.1990    -1.2920 N.am  1 <1>  -0.6600 
 14 C       -7.1170    -4.3160    -0.3110 C.3   1 <1>   0.1400 
 15 C       -6.4320    -6.5760    -1.1780 C.2   1 <1>   0.5440 
 16 O       -6.0600    -7.2490    -2.1220 O.2   1 <1>  -0.5700 
 17 C       -6.8760    -7.2350     0.0370 C.ar  1 <1>   0.0860 
 18 C       -8.1170    -7.8770     0.1490 C.ar  1 <1>  -0.1430 
 19 C       -6.0440    -7.2210     1.1560 C.ar  1 <1>  -0.1500 
 20 C       -8.4980    -8.4480     1.3540 C.ar  1 <1>  -0.1500 
 21 C       -9.0750    -7.9770    -1.0360 C.3   1 <1>  -0.0170 
 22 C       -6.4270    -7.7940     2.3530 C.ar  1 <1>  -0.1500 
 23 C       -7.6610    -8.4060     2.4540 C.ar  1 <1>  -0.1500 
 24 C       -9.9500    -6.7270    -1.1520 C.3   1 <1>  -0.2400 
 25 H       -0.7870    -3.4800    -1.1260 H     1 <1>   0.3700 
 26 H        1.9670    -2.8600     0.9920 H     1 <1>   0.3700 
 27 H        1.4790    -3.6960    -0.4520 H     1 <1>   0.3700 
 28 H       -2.5070    -1.9000     0.4250 H     1 <1>   0.0800 
 29 H       -2.8520    -3.5730     0.7830 H     1 <1>   0.0800 
 30 H       -4.9120    -2.8050    -3.2950 H     1 <1>   0.0800 
 31 H       -6.3570    -2.4940    -2.3970 H     1 <1>   0.0800 
 32 H       -6.1390    -1.6760    -0.2760 H     1 <1>   0.0800 
 33 H       -4.7650    -1.9660     0.7340 H     1 <1>   0.0800 
 34 H       -4.9310    -5.1160    -2.7840 H     1 <1>   0.0800 
 35 H       -6.5190    -4.7080    -3.3390 H     1 <1>   0.0800 
 36 H       -6.6600    -3.2740     1.4830 H     1 <1>   0.0800 
 37 H       -5.3920    -4.3350     0.9780 H     1 <1>   0.0800 
 38 H       -7.7110    -3.5870    -0.8350 H     1 <1>   0.0800 
 39 H       -7.7950    -4.9020     0.2840 H     1 <1>   0.0800 
 40 H       -5.0790    -6.7520     1.0750 H     1 <1>   0.1500 
 41 H       -9.4540    -8.9350     1.4430 H     1 <1>   0.1500 
 42 H       -9.7080    -8.8380    -0.9130 H     1 <1>   0.0800 
 43 H       -8.5260    -8.1230    -1.9510 H     1 <1>   0.0800 
 44 H       -5.7670    -7.7680     3.2030 H     1 <1>   0.1500 
 45 H       -7.9690    -8.8550     3.3830 H     1 <1>   0.1500 
 46 H      -10.4800    -6.5550    -0.2320 H     1 <1>   0.0800 
 47 H      -10.6650    -6.8530    -1.9450 H     1 <1>   0.0800 
 48 H       -9.3460    -5.8670    -1.3750 H     1 <1>   0.0800 
@<TRIPOS>BOND
  1   1   2  2   
  2   2   3  am  
  3   2   4  am  
  4   3   5  1   
  5   3  25  1   
  6   4  26  1   
  7   4  27  1   
  8   5   6  1   
  9   5  28  1   
 10   5  29  1   
 11   6   7  2   
 12   6   8  am  
 13   8   9  1   
 14   8  10  1   
 15   9  11  1   
 16   9  30  1   
 17   9  31  1   
 18  10  12  1   
 19  10  32  1   
 20  10  33  1   
 21  11  13  1   
 22  11  34  1   
 23  11  35  1   
 24  12  14  1   
 25  12  36  1   
 26  12  37  1   
 27  13  14  1   
 28  13  15  am  
 29  14  38  1   
 30  14  39  1   
 31  15  16  2   
 32  15  17  1   
 33  17  18  ar  
 34  17  19  ar  
 35  18  20  ar  
 36  18  21  1   
 37  19  22  ar  
 38  19  40  1   
 39  20  23  ar  
 40  20  41  1   
 41  21  24  1   
 42  21  42  1   
 43  21  43  1   
 44  22  23  ar  
 45  22  44  1   
 46  23  45  1   
 47  24  46  1   
 48  24  47  1   
 49  24  48  1   
@<TRIPOS>SUBSTRUCTURE
  1 ****  13 GROUP 4 **** **** 0

# MOE 2024.06 (io_trps.svl 2023.06)
