@<TRIPOS>MOLECULE
Untitled Document
36 38 1 0 0 
SMALL
USER_CHARGES


@<TRIPOS>ATOM
  1 CL      -0.6680     1.1330     2.1300 Cl    1 <1>  -0.1770 
  2 C       -1.9260     0.0220     1.6630 C.ar  1 <1>   0.1770 
  3 C       -3.2450     0.4260     1.7140 C.ar  1 <1>  -0.1500 
  4 C       -1.5900    -1.2520     1.2480 C.ar  1 <1>  -0.1500 
  5 C       -4.2420    -0.4600     1.3420 C.ar  1 <1>  -0.1500 
  6 C       -2.5940    -2.1290     0.8760 C.ar  1 <1>  -0.1500 
  7 C       -3.9420    -1.7560     0.9080 C.ar  1 <1>   0.0860 
  8 C       -4.9770    -2.6930     0.5040 C.2   1 <1>   0.5440 
  9 O       -4.7880    -3.8920     0.5430 O.2   1 <1>  -0.5700 
 10 N       -6.1950    -2.2590     0.0530 N.am  1 <1>  -0.7300 
 11 C       -7.2290    -3.1390    -0.5580 C.3   1 <1>   0.2200 
 12 C       -8.5220    -2.3280    -0.8030 C.3   1 <1>  -0.0800 
 13 C       -7.5740    -4.3590     0.3490 C.3   1 <1>   0.3430 
 14 C       -9.0780    -1.8380     0.5540 C.3   1 <1>  -0.1600 
 15 C       -9.5800    -3.2920    -1.3820 C.3   1 <1>  -0.1600 
 16 N       -9.0120    -4.3150     0.8140 N.4   1 <1>  -0.9590 
 17 C       -9.2490    -3.0190     1.5320 C.3   1 <1>   0.3430 
 18 C       -9.9170    -4.4150    -0.3790 C.3   1 <1>   0.3430 
 19 H       -3.4810     1.4220     2.0460 H     1 <1>   0.1500 
 20 H       -0.5570    -1.5500     1.2180 H     1 <1>   0.1500 
 21 H       -5.2650    -0.1350     1.3990 H     1 <1>   0.1500 
 22 H       -2.3330    -3.1240     0.5550 H     1 <1>   0.1500 
 23 H       -6.2710    -1.2710    -0.2000 H     1 <1>   0.3700 
 24 H       -6.8400    -3.5050    -1.4940 H     1 <1>   0.0800 
 25 H       -8.3450    -1.5100    -1.4820 H     1 <1>   0.0800 
 26 H       -6.9160    -4.3650     1.2020 H     1 <1>   0.0800 
 27 H       -7.4010    -5.2650    -0.2070 H     1 <1>   0.0800 
 28 H      -10.0300    -1.3570     0.4110 H     1 <1>   0.0800 
 29 H       -8.4260    -1.1060     0.9980 H     1 <1>   0.0800 
 30 H       -9.2230    -3.7280    -2.2990 H     1 <1>   0.0800 
 31 H      -10.4810    -2.7550    -1.6230 H     1 <1>   0.0800 
 32 H       -9.1820    -5.1020     1.4560 H     1 <1>   0.4500 
 33 H      -10.2420    -3.0020     1.9530 H     1 <1>   0.0800 
 34 H       -8.5390    -2.9210     2.3390 H     1 <1>   0.0800 
 35 H       -9.7970    -5.3750    -0.8550 H     1 <1>   0.0800 
 36 H      -10.9440    -4.3230    -0.0640 H     1 <1>   0.0800 
@<TRIPOS>BOND
  1   1   2  1   
  2   2   3  ar  
  3   2   4  ar  
  4   3   5  ar  
  5   3  19  1   
  6   4   6  ar  
  7   4  20  1   
  8   5   7  ar  
  9   5  21  1   
 10   6   7  ar  
 11   6  22  1   
 12   7   8  1   
 13   8   9  2   
 14   8  10  am  
 15  10  11  1   
 16  10  23  1   
 17  11  12  1   
 18  11  13  1   
 19  11  24  1   
 20  12  14  1   
 21  12  15  1   
 22  12  25  1   
 23  13  16  1   
 24  13  26  1   
 25  13  27  1   
 26  14  17  1   
 27  14  28  1   
 28  14  29  1   
 29  15  18  1   
 30  15  30  1   
 31  15  31  1   
 32  16  17  1   
 33  16  18  1   
 34  16  32  1   
 35  17  33  1   
 36  17  34  1   
 37  18  35  1   
 38  18  36  1   
@<TRIPOS>SUBSTRUCTURE
  1 ****  10 GROUP 4 **** **** 0

# MOE 2024.06 (io_trps.svl 2023.06)
