@<TRIPOS>MOLECULE
NONAME
56 58 1 0 0 
SMALL
USER_CHARGES


@<TRIPOS>ATOM
  1 F       -1.1170     0.0430     2.3590 F     1 <1>  -0.1900 
  2 C       -2.2600     0.4130     1.8390 C.ar  1 <1>   0.1900 
  3 C       -2.3530     1.4730     0.9300 C.ar  1 <1>   0.0830 
  4 C       -3.3750    -0.2980     2.2380 C.ar  1 <1>  -0.1500 
  5 O       -1.3320     2.2480     0.4630 O.3   1 <1>  -0.3630 
  6 C       -3.6090     1.7890     0.4380 C.ar  1 <1>  -0.1500 
  7 C       -4.6140     0.0440     1.7280 C.ar  1 <1>  -0.1500 
  8 C        0.0150     2.0480     0.8300 C.3   1 <1>   0.0400 
  9 C       -4.7570     1.0890     0.8140 C.ar  1 <1>   0.0530 
 10 C       -6.0440     1.4630     0.2830 C.2   1 <1>   0.0870 
 11 O       -6.3770     2.7290     0.2640 O.3   1 <1>  -0.0190 
 12 C       -7.0870     0.7680    -0.2520 C.2   1 <1>  -0.0860 
 13 N       -7.5680     2.9380    -0.2240 N.2   1 <1>  -0.4100 
 14 C       -8.0200     1.7760    -0.5390 C.2   1 <1>   0.3720 
 15 C       -7.2490    -0.6340    -0.5060 C.2   1 <1>   0.7160 
 16 N       -9.3010     1.5890    -1.0830 N.pl3 1 <1>  -0.8210 
 17 O       -6.4290    -1.4440    -0.1190 O.2   1 <1>  -0.5700 
 18 N       -8.3470    -1.0730    -1.1840 N.am  1 <1>  -0.7300 
 19 C      -10.3810     1.7850    -0.0770 C.3   1 <1>   0.1290 
 20 C       -9.5440     2.4080    -2.3030 C.3   1 <1>   0.1290 
 21 C       -8.8470    -2.4490    -1.3810 C.3   1 <1>   0.2200 
 22 C       -9.1460    -3.1440    -0.0270 C.3   1 <1>  -0.0800 
 23 C       -7.8550    -3.2030    -2.2720 C.3   1 <1>  -0.2400 
 24 C       -9.7500    -4.5510    -0.2300 C.3   1 <1>  -0.1600 
 25 C      -10.0930    -2.2920     0.8500 C.3   1 <1>  -0.1600 
 26 C      -10.0900    -5.2330     1.1020 C.3   1 <1>  -0.1600 
 27 C      -10.4280    -2.9810     2.1790 C.3   1 <1>  -0.1600 
 28 C      -11.0320    -4.3690     1.9460 C.3   1 <1>  -0.1600 
 29 H       -3.2740    -1.1090     2.9360 H     1 <1>   0.1500 
 30 H       -3.6970     2.6020    -0.2600 H     1 <1>   0.1500 
 31 H       -5.4830    -0.5080     2.0390 H     1 <1>   0.1500 
 32 H        0.6140     2.7750     0.3120 H     1 <1>   0.0800 
 33 H        0.3140     1.0570     0.5400 H     1 <1>   0.0800 
 34 H        0.1130     2.1870     1.8920 H     1 <1>   0.0800 
 35 H       -9.0170    -0.3220    -1.4070 H     1 <1>   0.3700 
 36 H      -11.3260     1.4710    -0.4850 H     1 <1>   0.0800 
 37 H      -10.4410     2.8230     0.2040 H     1 <1>   0.0800 
 38 H      -10.1720     1.2000     0.8020 H     1 <1>   0.0800 
 39 H      -10.4480     2.0860    -2.7900 H     1 <1>   0.0800 
 40 H       -8.7220     2.2940    -2.9890 H     1 <1>   0.0800 
 41 H       -9.6320     3.4500    -2.0410 H     1 <1>   0.0800 
 42 H       -9.7750    -2.3740    -1.9220 H     1 <1>   0.0800 
 43 H       -8.2140    -3.2650     0.5000 H     1 <1>   0.0800 
 44 H       -6.9560    -3.4310    -1.7280 H     1 <1>   0.0800 
 45 H       -7.6050    -2.6080    -3.1310 H     1 <1>   0.0800 
 46 H       -8.2840    -4.1230    -2.6210 H     1 <1>   0.0800 
 47 H      -10.6440    -4.4760    -0.8250 H     1 <1>   0.0800 
 48 H       -9.0540    -5.1800    -0.7550 H     1 <1>   0.0800 
 49 H       -9.6370    -1.3440     1.0730 H     1 <1>   0.0800 
 50 H      -11.0040    -2.1010     0.3110 H     1 <1>   0.0800 
 51 H      -10.5510    -6.1870     0.9110 H     1 <1>   0.0800 
 52 H       -9.1810    -5.4100     1.6520 H     1 <1>   0.0800 
 53 H       -9.5300    -3.0770     2.7660 H     1 <1>   0.0800 
 54 H      -11.1230    -2.3750     2.7350 H     1 <1>   0.0800 
 55 H      -11.2110    -4.8490     2.8930 H     1 <1>   0.0800 
 56 H      -11.9770    -4.2700     1.4410 H     1 <1>   0.0800 
@<TRIPOS>BOND
  1   1   2  1   
  2   2   3  ar  
  3   2   4  ar  
  4   3   5  1   
  5   3   6  ar  
  6   4   7  ar  
  7   4  29  1   
  8   5   8  1   
  9   6   9  ar  
 10   6  30  1   
 11   7   9  ar  
 12   7  31  1   
 13   8  32  1   
 14   8  33  1   
 15   8  34  1   
 16   9  10  1   
 17  10  11  1   
 18  10  12  2   
 19  11  13  1   
 20  12  14  1   
 21  12  15  1   
 22  13  14  2   
 23  14  16  1   
 24  15  17  2   
 25  15  18  am  
 26  16  19  1   
 27  16  20  1   
 28  18  21  1   
 29  18  35  1   
 30  19  36  1   
 31  19  37  1   
 32  19  38  1   
 33  20  39  1   
 34  20  40  1   
 35  20  41  1   
 36  21  22  1   
 37  21  23  1   
 38  21  42  1   
 39  22  24  1   
 40  22  25  1   
 41  22  43  1   
 42  23  44  1   
 43  23  45  1   
 44  23  46  1   
 45  24  26  1   
 46  24  47  1   
 47  24  48  1   
 48  25  27  1   
 49  25  49  1   
 50  25  50  1   
 51  26  28  1   
 52  26  51  1   
 53  26  52  1   
 54  27  28  1   
 55  27  53  1   
 56  27  54  1   
 57  28  55  1   
 58  28  56  1   
@<TRIPOS>SUBSTRUCTURE
  1 ****  15 GROUP 4 **** **** 0

# MOE 2024.06 (io_trps.svl 2023.06)
