@<TRIPOS>MOLECULE
NONAME
45 47 1 0 0 
SMALL
USER_CHARGES


@<TRIPOS>ATOM
  1 O        1.3390    -0.8140     1.9720 O.2   1 <1>  -0.5700 
  2 C        1.7230    -1.0270     0.8450 C.2   1 <1>   0.5690 
  3 N        2.1170    -0.0260    -0.0040 N.am  1 <1>  -0.4940 
  4 C        1.8260    -2.4650     0.3240 C.3   1 <1>   0.1250 
  5 C        2.1800     1.3800     0.1610 C.2   1 <1>  -0.0880 
  6 C        0.7430    -2.8650    -0.6610 C.ar  1 <1>  -0.1440 
  7 C        1.7400    -3.5800     1.3920 C.3   1 <1>  -0.1600 
  8 N        1.3550     2.1760     0.9000 N.pl3 1 <1>   0.3140 
  9 C        3.0830     2.2070    -0.4200 C.2   1 <1>  -0.1810 
 10 C        0.3700    -4.1740    -0.4620 C.ar  1 <1>  -0.1430 
 11 C        0.1460    -2.1150    -1.6630 C.ar  1 <1>  -0.1500 
 12 C        1.1260    -4.7980     0.6850 C.3   1 <1>  -0.0170 
 13 N        1.7110     3.4750     0.8040 N.2   1 <1>  -0.7070 
 14 C        0.1480     1.8110     1.6530 C.3   1 <1>   0.0160 
 15 C        2.7430     3.4840     0.0220 C.2   1 <1>   0.1080 
 16 C        4.2300     1.8370    -1.3470 C.3   1 <1>   0.0210 
 17 C       -0.5930    -4.7700    -1.2540 C.ar  1 <1>  -0.1500 
 18 C       -0.8220    -2.7040    -2.4620 C.ar  1 <1>  -0.1500 
 19 C        3.4570     4.7750    -0.3360 C.3   1 <1>   0.0210 
 20 C        5.4910     1.5340    -0.5370 C.3   1 <1>  -0.2400 
 21 C       -1.1890    -4.0270    -2.2600 C.ar  1 <1>  -0.1500 
 22 C        2.8710     5.3980    -1.6080 C.3   1 <1>  -0.2400 
 23 H        2.5060    -0.3500    -0.8880 H     1 <1>   0.3700 
 24 H        2.7700    -2.5670    -0.1800 H     1 <1>   0.0800 
 25 H        1.0660    -3.2800     2.1760 H     1 <1>   0.0800 
 26 H        2.7000    -3.8000     1.8250 H     1 <1>   0.0800 
 27 H        0.4140    -1.0880    -1.8300 H     1 <1>   0.1500 
 28 H        0.4730    -5.3470     1.3400 H     1 <1>   0.0800 
 29 H        1.8930    -5.4470     0.3010 H     1 <1>   0.0800 
 30 H       -0.3630     1.0150     1.1460 H     1 <1>   0.0800 
 31 H       -0.4950     2.6670     1.7240 H     1 <1>   0.0800 
 32 H        0.4350     1.4930     2.6380 H     1 <1>   0.0800 
 33 H        4.4200     2.6440    -2.0320 H     1 <1>   0.0800 
 34 H        3.9600     0.9750    -1.9290 H     1 <1>   0.0800 
 35 H       -0.8770    -5.7950    -1.0920 H     1 <1>   0.1500 
 36 H       -1.2930    -2.1330    -3.2420 H     1 <1>   0.1500 
 37 H        4.5060     4.5860    -0.4670 H     1 <1>   0.0800 
 38 H        3.3480     5.4650     0.4820 H     1 <1>   0.0800 
 39 H        5.7790     2.3960     0.0380 H     1 <1>   0.0800 
 40 H        6.3000     1.2670    -1.1920 H     1 <1>   0.0800 
 41 H        5.3070     0.7190     0.1410 H     1 <1>   0.0800 
 42 H       -1.9410    -4.4770    -2.8850 H     1 <1>   0.1500 
 43 H        2.9750     4.7220    -2.4370 H     1 <1>   0.0800 
 44 H        3.3770     6.3180    -1.8380 H     1 <1>   0.0800 
 45 H        1.8250     5.6030    -1.4600 H     1 <1>   0.0800 
@<TRIPOS>BOND
  1   1   2  2   
  2   2   3  am  
  3   2   4  1   
  4   3   5  1   
  5   3  23  1   
  6   4   6  1   
  7   4   7  1   
  8   4  24  1   
  9   5   8  1   
 10   5   9  2   
 11   6  10  ar  
 12   6  11  ar  
 13   7  12  1   
 14   7  25  1   
 15   7  26  1   
 16   8  13  1   
 17   8  14  1   
 18   9  15  1   
 19   9  16  1   
 20  10  12  1   
 21  10  17  ar  
 22  11  18  ar  
 23  11  27  1   
 24  12  28  1   
 25  12  29  1   
 26  13  15  2   
 27  14  30  1   
 28  14  31  1   
 29  14  32  1   
 30  15  19  1   
 31  16  20  1   
 32  16  33  1   
 33  16  34  1   
 34  17  21  ar  
 35  17  35  1   
 36  18  21  ar  
 37  18  36  1   
 38  19  22  1   
 39  19  37  1   
 40  19  38  1   
 41  20  39  1   
 42  20  40  1   
 43  20  41  1   
 44  21  42  1   
 45  22  43  1   
 46  22  44  1   
 47  22  45  1   
@<TRIPOS>SUBSTRUCTURE
  1 ****   3 GROUP 4 **** **** 0

# MOE 2024.06 (io_trps.svl 2023.06)
