@<TRIPOS>MOLECULE
NONAME
39 40 1 0 0 
SMALL
USER_CHARGES


@<TRIPOS>ATOM
  1 O       -0.9410     0.8940     2.2260 O.2   1 <1>  -0.5700 
  2 C       -1.5170     1.1900     1.1930 C.2   1 <1>   0.5440 
  3 N       -2.2260     0.2180     0.5220 N.am  1 <1>  -0.6600 
  4 C       -1.4500     2.5510     0.7130 C.ar  1 <1>   0.0860 
  5 C       -2.3700    -1.1690     1.0870 C.3   1 <1>   0.1400 
  6 C       -2.9340     0.4490    -0.7680 C.3   1 <1>   0.1400 
  7 C       -0.5670     3.0140    -0.2820 C.ar  1 <1>   0.0820 
  8 C       -2.3500     3.4680     1.2590 C.ar  1 <1>  -0.1500 
  9 C       -3.6190    -1.9210     0.5800 C.3   1 <1>   0.2000 
 10 C       -4.4420     0.1980    -0.6120 C.3   1 <1>  -0.1600 
 11 O        0.3810     2.2740    -0.9120 O.3   1 <1>  -0.3630 
 12 C       -0.6310     4.3360    -0.6980 C.ar  1 <1>  -0.1500 
 13 C       -2.4030     4.7860     0.8450 C.ar  1 <1>  -0.1430 
 14 O       -3.3400    -2.5540    -0.6220 O.3   1 <1>  -0.6800 
 15 C       -4.7940    -0.9600     0.3610 C.3   1 <1>  -0.1860 
 16 C        0.9650     1.1130    -0.3610 C.3   1 <1>   0.0400 
 17 C       -1.5370     5.2180    -0.1440 C.ar  1 <1>  -0.1500 
 18 C       -3.3970     5.7570     1.4570 C.3   1 <1>  -0.0970 
 19 C       -6.0300    -1.7290    -0.0620 C.2   1 <1>   0.9060 
 20 O       -7.0710    -1.5860     0.5830 O.co2 1 <1>  -0.9000 
 21 O       -5.9450    -2.4940    -1.0340 O.co2 1 <1>  -0.9000 
 22 H       -1.4890    -1.7440     0.8660 H     1 <1>   0.0800 
 23 H       -2.4500    -1.0860     2.1560 H     1 <1>   0.0800 
 24 H       -2.7680     1.4440    -1.1410 H     1 <1>   0.0800 
 25 H       -2.5360    -0.2390    -1.4950 H     1 <1>   0.0800 
 26 H       -3.0210     3.1190     2.0240 H     1 <1>   0.1500 
 27 H       -3.8960    -2.6890     1.2810 H     1 <1>   0.0800 
 28 H       -4.9240     1.0970    -0.2740 H     1 <1>   0.0800 
 29 H       -4.8390    -0.0250    -1.5870 H     1 <1>   0.0800 
 30 H        0.0450     4.6720    -1.4640 H     1 <1>   0.1500 
 31 H       -4.2360    -2.7360    -1.0370 H     1 <1>   0.4000 
 32 H       -5.0180    -0.5230     1.3160 H     1 <1>   0.0800 
 33 H        1.8740     0.9100    -0.8980 H     1 <1>   0.0800 
 34 H        0.2870     0.2870    -0.4770 H     1 <1>   0.0800 
 35 H        1.1880     1.2870     0.6780 H     1 <1>   0.0800 
 36 H       -1.5650     6.2400    -0.4810 H     1 <1>   0.1500 
 37 H       -4.1110     6.0640     0.7150 H     1 <1>   0.0800 
 38 H       -2.8820     6.6260     1.8260 H     1 <1>   0.0800 
 39 H       -3.9260     5.3010     2.2750 H     1 <1>   0.0800 
@<TRIPOS>BOND
  1   1   2  2   
  2   2   3  am  
  3   2   4  1   
  4   3   5  1   
  5   3   6  1   
  6   4   7  ar  
  7   4   8  ar  
  8   5   9  1   
  9   5  22  1   
 10   5  23  1   
 11   6  10  1   
 12   6  24  1   
 13   6  25  1   
 14   7  11  1   
 15   7  12  ar  
 16   8  13  ar  
 17   8  26  1   
 18   9  14  1   
 19   9  15  1   
 20   9  27  1   
 21  10  15  1   
 22  10  28  1   
 23  10  29  1   
 24  11  16  1   
 25  12  17  ar  
 26  12  30  1   
 27  13  17  ar  
 28  13  18  1   
 29  14  31  1   
 30  15  19  1   
 31  15  32  1   
 32  16  33  1   
 33  16  34  1   
 34  16  35  1   
 35  17  36  1   
 36  18  37  1   
 37  18  38  1   
 38  18  39  1   
 39  19  20  ar  
 40  19  21  ar  
@<TRIPOS>SUBSTRUCTURE
  1 ****   3 GROUP 4 **** **** 0

# MOE 2024.06 (io_trps.svl 2023.06)
