@<TRIPOS>MOLECULE
NONAME
48 49 1 0 0 
SMALL
USER_CHARGES


@<TRIPOS>ATOM
  1 S       -0.1980    -0.4570     0.6070 S.o2  1 <1>   1.5010 
  2 O       -1.3730     0.2280     1.0910 O.2   1 <1>  -0.6500 
  3 O        0.3870    -1.5320     1.3730 O.2   1 <1>  -0.6500 
  4 N       -0.6920    -1.0570    -0.8850 N.am  1 <1>  -0.9140 
  5 C        1.0580     0.7460     0.1470 C.2   1 <1>  -0.0630 
  6 C       -1.2480    -2.4120    -0.9890 C.3   1 <1>   0.2760 
  7 C        2.3560     0.4610    -0.2710 C.2   1 <1>   0.1080 
  8 C        0.9960     2.1000     0.0870 C.2   1 <1>  -0.3020 
  9 C       -2.3650    -2.7540     0.0070 C.3   1 <1>  -0.0800 
 10 C       -0.2270    -3.5450    -0.8220 C.3   1 <1>   0.1200 
 11 N        3.0340     1.5270    -0.5580 N.2   1 <1>  -0.7070 
 12 C        2.9610    -0.9210    -0.3980 C.3   1 <1>  -0.0590 
 13 N        2.1920     2.5470    -0.3320 N.pl3 1 <1>   0.3140 
 14 C       -1.7450    -3.9000     0.8110 C.3   1 <1>   0.1200 
 15 C       -3.6300    -3.2250    -0.7390 C.3   1 <1>  -0.0550 
 16 O       -0.8840    -4.5240    -0.0820 O.3   1 <1>  -0.5600 
 17 C        2.5930     3.9530    -0.5400 C.3   1 <1>   0.0960 
 18 S       -5.0900    -3.3390     0.2960 S.o2  1 <1>   1.3330 
 19 C        2.9020     4.6430     0.7950 C.3   1 <1>  -0.2400 
 20 O       -4.9140    -4.3640     1.3000 O.2   1 <1>  -0.6500 
 21 O       -5.4390    -1.9950     0.6930 O.2   1 <1>  -0.6500 
 22 N       -6.2670    -3.8870    -0.7980 N.am  1 <1>  -0.8490 
 23 C       -7.6140    -3.4410    -0.4310 C.3   1 <1>   0.1160 
 24 C       -6.2580    -5.3430    -0.9790 C.3   1 <1>   0.1160 
 25 H       -1.4330    -0.4060    -1.1400 H     1 <1>   0.4200 
 26 H       -1.6320    -2.5050    -1.9910 H     1 <1>   0.0800 
 27 H        0.1730     2.7500     0.3230 H     1 <1>   0.1500 
 28 H       -2.6250    -1.9370     0.6560 H     1 <1>   0.0800 
 29 H        0.6470    -3.2460    -0.2750 H     1 <1>   0.0800 
 30 H        0.0600    -3.9690    -1.7670 H     1 <1>   0.0800 
 31 H        2.3680    -1.5250    -1.0590 H     1 <1>   0.0800 
 32 H        3.0120    -1.3900     0.5670 H     1 <1>   0.0800 
 33 H        3.9570    -0.8480    -0.7980 H     1 <1>   0.0800 
 34 H       -2.4570    -4.6200     1.1740 H     1 <1>   0.0800 
 35 H       -1.1600    -3.5300     1.6360 H     1 <1>   0.0800 
 36 H       -3.4360    -4.1760    -1.1950 H     1 <1>   0.0800 
 37 H       -3.8480    -2.5270    -1.5240 H     1 <1>   0.0800 
 38 H        3.4650     3.9640    -1.1680 H     1 <1>   0.0800 
 39 H        1.7970     4.4640    -1.0490 H     1 <1>   0.0800 
 40 H        3.7020     4.1280     1.2980 H     1 <1>   0.0800 
 41 H        2.0310     4.6520     1.4260 H     1 <1>   0.0800 
 42 H        3.2080     5.6590     0.6180 H     1 <1>   0.0800 
 43 H       -8.3340    -3.7920    -1.1500 H     1 <1>   0.0800 
 44 H       -7.6550    -2.3650    -0.4130 H     1 <1>   0.0800 
 45 H       -7.8780    -3.8120     0.5460 H     1 <1>   0.0800 
 46 H       -6.9570    -5.6240    -1.7480 H     1 <1>   0.0800 
 47 H       -6.5290    -5.8390    -0.0610 H     1 <1>   0.0800 
 48 H       -5.2780    -5.6770    -1.2730 H     1 <1>   0.0800 
@<TRIPOS>BOND
  1   1   2  2   
  2   1   3  2   
  3   1   4  am  
  4   1   5  1   
  5   4   6  1   
  6   4  25  1   
  7   5   7  1   
  8   5   8  2   
  9   6   9  1   
 10   6  10  1   
 11   6  26  1   
 12   7  11  2   
 13   7  12  1   
 14   8  13  1   
 15   8  27  1   
 16   9  14  1   
 17   9  15  1   
 18   9  28  1   
 19  10  16  1   
 20  10  29  1   
 21  10  30  1   
 22  11  13  1   
 23  12  31  1   
 24  12  32  1   
 25  12  33  1   
 26  13  17  1   
 27  14  16  1   
 28  14  34  1   
 29  14  35  1   
 30  15  18  1   
 31  15  36  1   
 32  15  37  1   
 33  17  19  1   
 34  17  38  1   
 35  17  39  1   
 36  18  20  2   
 37  18  21  2   
 38  18  22  am  
 39  19  40  1   
 40  19  41  1   
 41  19  42  1   
 42  22  23  1   
 43  22  24  1   
 44  23  43  1   
 45  23  44  1   
 46  23  45  1   
 47  24  46  1   
 48  24  47  1   
 49  24  48  1   
@<TRIPOS>SUBSTRUCTURE
  1 ****   4 GROUP 4 **** **** 0

# MOE 2024.06 (io_trps.svl 2023.06)
