@<TRIPOS>MOLECULE
NONAME
42 44 1 0 0 
SMALL
USER_CHARGES


@<TRIPOS>ATOM
  1 F        1.9870     1.5040     0.6610 F     1 <1>  -0.1900 
  2 C        2.3010     0.2430     0.5070 C.ar  1 <1>   0.1900 
  3 C        1.4710    -0.7110     1.0730 C.ar  1 <1>   0.1900 
  4 C        3.4430    -0.1150    -0.2140 C.ar  1 <1>   0.0860 
  5 F        0.4150    -0.3430     1.7510 F     1 <1>  -0.1900 
  6 C        1.7300    -2.0600     0.9430 C.ar  1 <1>  -0.1500 
  7 C        4.3550     0.8430    -0.8160 C.2   1 <1>   0.5440 
  8 C        3.6820    -1.4900    -0.3400 C.ar  1 <1>  -0.1500 
  9 C        2.8500    -2.4460     0.2250 C.ar  1 <1>  -0.1500 
 10 O        5.0850     0.5150    -1.7340 O.2   1 <1>  -0.5700 
 11 N        4.5270     2.1160    -0.3400 N.am  1 <1>  -0.6600 
 12 C        5.2230     2.2690     0.9870 C.3   1 <1>   0.2200 
 13 C        4.5880     3.2510    -1.3170 C.3   1 <1>   0.1400 
 14 C        4.8760     3.5940     1.6850 C.3   1 <1>   0.1200 
 15 C        6.7550     2.0890     0.8340 C.3   1 <1>   0.3430 
 16 C        5.7540     4.2380    -1.1110 C.3   1 <1>  -0.0800 
 17 O        5.7400     4.6150     1.2880 O.3   1 <1>  -0.5600 
 18 N        7.2050     2.2010    -0.5970 N.4   1 <1>  -0.9590 
 19 C        5.4900     5.2030     0.0570 C.3   1 <1>   0.1200 
 20 C        7.1680     3.6190    -1.0630 C.3   1 <1>   0.3430 
 21 C        8.6270     1.6760    -0.7090 C.3   1 <1>   0.2370 
 22 C        9.6390     2.3930     0.1890 C.2   1 <1>   0.9060 
 23 O       10.1990     3.3980    -0.2580 O.co2 1 <1>  -0.9000 
 24 O        9.7440     2.0070     1.3570 O.co2 1 <1>  -0.9000 
 25 H        1.0720    -2.7860     1.3880 H     1 <1>   0.1500 
 26 H        4.5440    -1.8200    -0.8980 H     1 <1>   0.1500 
 27 H        3.0720    -3.4940     0.1030 H     1 <1>   0.1500 
 28 H        4.8690     1.4880     1.6370 H     1 <1>   0.0800 
 29 H        4.6530     2.8540    -2.3170 H     1 <1>   0.0800 
 30 H        3.6570     3.7890    -1.2620 H     1 <1>   0.0800 
 31 H        5.0170     3.4770     2.7450 H     1 <1>   0.0800 
 32 H        3.8540     3.8830     1.5090 H     1 <1>   0.0800 
 33 H        7.0240     1.1160     1.2100 H     1 <1>   0.0800 
 34 H        7.2770     2.8110     1.4430 H     1 <1>   0.0800 
 35 H        5.7490     4.8710    -1.9790 H     1 <1>   0.0800 
 36 H        6.5490     1.6340    -1.1700 H     1 <1>   0.4500 
 37 H        4.4780     5.5720     0.0470 H     1 <1>   0.0800 
 38 H        6.1540     6.0480    -0.0180 H     1 <1>   0.0800 
 39 H        7.8020     4.2220    -0.4290 H     1 <1>   0.0800 
 40 H        7.5880     3.6570    -2.0540 H     1 <1>   0.0800 
 41 H        8.6500     0.6360    -0.4420 H     1 <1>   0.0800 
 42 H        8.9730     1.7740    -1.7220 H     1 <1>   0.0800 
@<TRIPOS>BOND
  1   1   2  1   
  2   2   3  ar  
  3   2   4  ar  
  4   3   5  1   
  5   3   6  ar  
  6   4   7  1   
  7   4   8  ar  
  8   6   9  ar  
  9   6  25  1   
 10   7  10  2   
 11   7  11  am  
 12   8   9  ar  
 13   8  26  1   
 14   9  27  1   
 15  11  12  1   
 16  11  13  1   
 17  12  14  1   
 18  12  15  1   
 19  12  28  1   
 20  13  16  1   
 21  13  29  1   
 22  13  30  1   
 23  14  17  1   
 24  14  31  1   
 25  14  32  1   
 26  15  18  1   
 27  15  33  1   
 28  15  34  1   
 29  16  19  1   
 30  16  20  1   
 31  16  35  1   
 32  17  19  1   
 33  18  20  1   
 34  18  21  1   
 35  18  36  1   
 36  19  37  1   
 37  19  38  1   
 38  20  39  1   
 39  20  40  1   
 40  21  22  1   
 41  21  41  1   
 42  21  42  1   
 43  22  23  ar  
 44  22  24  ar  
@<TRIPOS>SUBSTRUCTURE
  1 ****  11 GROUP 4 **** **** 0

# MOE 2024.06 (io_trps.svl 2023.06)
