@<TRIPOS>MOLECULE
NONAME
52 55 1 0 0 
SMALL
USER_CHARGES


@<TRIPOS>ATOM
  1 F        0.3290    -1.0790     1.7410 F     1 <1>  -0.1900 
  2 C        0.1520    -2.1370     0.9940 C.ar  1 <1>   0.1900 
  3 C        0.9510    -3.2780     1.1230 C.ar  1 <1>   0.0820 
  4 C       -0.8750    -2.0710     0.0700 C.ar  1 <1>  -0.1500 
  5 O        1.9900    -3.4580     1.9880 O.3   1 <1>  -0.3630 
  6 C        0.6770    -4.3530     0.2940 C.ar  1 <1>  -0.1500 
  7 C       -1.1220    -3.1630    -0.7420 C.ar  1 <1>  -0.1500 
  8 C        2.5130    -2.4200     2.7860 C.3   1 <1>   0.0400 
  9 C       -0.3580    -4.3270    -0.6410 C.ar  1 <1>   0.0860 
 10 C       -0.6240    -5.4760    -1.4850 C.2   1 <1>   0.5440 
 11 O        0.2770    -5.9300    -2.1660 O.2   1 <1>  -0.5700 
 12 N       -1.8670    -6.0750    -1.5300 N.am  1 <1>  -0.6600 
 13 C       -2.2080    -7.1020    -2.5530 C.3   1 <1>   0.1400 
 14 C       -2.9020    -5.9220    -0.4710 C.3   1 <1>   0.1400 
 15 C       -2.3920    -8.4570    -1.8660 C.3   1 <1>  -0.1600 
 16 C       -3.0870    -7.2640     0.2400 C.3   1 <1>  -0.1600 
 17 C       -3.4390    -8.3940    -0.7440 C.3   1 <1>   0.4240 
 18 O       -4.6480    -8.0520    -1.3820 O.3   1 <1>  -0.5600 
 19 C       -3.5350    -9.7550    -0.0210 C.ar  1 <1>  -0.1430 
 20 C       -5.8360    -8.3650    -0.7240 C.3   1 <1>   0.1200 
 21 C       -4.7320   -10.4620     0.0290 C.ar  1 <1>  -0.1430 
 22 C       -2.4180   -10.3010     0.6030 C.ar  1 <1>  -0.1500 
 23 C       -5.9650    -9.8820    -0.6340 C.3   1 <1>  -0.0170 
 24 C       -4.8070   -11.6850     0.6770 C.ar  1 <1>  -0.1500 
 25 C       -2.4920   -11.5190     1.2530 C.ar  1 <1>  -0.1500 
 26 C       -3.6820   -12.2210     1.2950 C.ar  1 <1>   0.0830 
 27 O       -3.6700   -13.4090     1.9500 O.3   1 <1>  -0.3620 
 28 C       -4.8260   -14.2130     2.0330 C.3   1 <1>   0.0400 
 29 H       -1.4670    -1.1770    -0.0090 H     1 <1>   0.1500 
 30 H        1.2840    -5.2380     0.3700 H     1 <1>   0.1500 
 31 H       -1.9150    -3.1230    -1.4710 H     1 <1>   0.1500 
 32 H        3.3750    -2.7990     3.3040 H     1 <1>   0.0800 
 33 H        1.7670    -2.1140     3.4980 H     1 <1>   0.0800 
 34 H        2.8010    -1.6000     2.1520 H     1 <1>   0.0800 
 35 H       -1.4330    -7.1740    -3.2970 H     1 <1>   0.0800 
 36 H       -3.1190    -6.8150    -3.0510 H     1 <1>   0.0800 
 37 H       -3.8290    -5.6150    -0.9260 H     1 <1>   0.0800 
 38 H       -2.6150    -5.1770     0.2480 H     1 <1>   0.0800 
 39 H       -1.4400    -8.7590    -1.4740 H     1 <1>   0.0800 
 40 H       -2.6930    -9.1940    -2.5870 H     1 <1>   0.0800 
 41 H       -3.8460    -7.1820     0.9940 H     1 <1>   0.0800 
 42 H       -2.1690    -7.5030     0.7450 H     1 <1>   0.0800 
 43 H       -6.6490    -7.9520    -1.2960 H     1 <1>   0.0800 
 44 H       -5.8300    -7.9180     0.2540 H     1 <1>   0.0800 
 45 H       -1.4760    -9.7820     0.5900 H     1 <1>   0.1500 
 46 H       -6.0720   -10.2910    -1.6230 H     1 <1>   0.0800 
 47 H       -6.8450   -10.1290    -0.0680 H     1 <1>   0.0800 
 48 H       -5.7440   -12.2070     0.6940 H     1 <1>   0.1500 
 49 H       -1.6240   -11.9350     1.7320 H     1 <1>   0.1500 
 50 H       -4.5760   -15.1000     2.5850 H     1 <1>   0.0800 
 51 H       -5.1390   -14.4770     1.0380 H     1 <1>   0.0800 
 52 H       -5.5950   -13.6650     2.5480 H     1 <1>   0.0800 
@<TRIPOS>BOND
  1   1   2  1   
  2   2   3  ar  
  3   2   4  ar  
  4   3   5  1   
  5   3   6  ar  
  6   4   7  ar  
  7   4  29  1   
  8   5   8  1   
  9   6   9  ar  
 10   6  30  1   
 11   7   9  ar  
 12   7  31  1   
 13   8  32  1   
 14   8  33  1   
 15   8  34  1   
 16   9  10  1   
 17  10  11  2   
 18  10  12  am  
 19  12  13  1   
 20  12  14  1   
 21  13  15  1   
 22  13  35  1   
 23  13  36  1   
 24  14  16  1   
 25  14  37  1   
 26  14  38  1   
 27  15  17  1   
 28  15  39  1   
 29  15  40  1   
 30  16  17  1   
 31  16  41  1   
 32  16  42  1   
 33  17  18  1   
 34  17  19  1   
 35  18  20  1   
 36  19  21  ar  
 37  19  22  ar  
 38  20  23  1   
 39  20  43  1   
 40  20  44  1   
 41  21  23  1   
 42  21  24  ar  
 43  22  25  ar  
 44  22  45  1   
 45  23  46  1   
 46  23  47  1   
 47  24  26  ar  
 48  24  48  1   
 49  25  26  ar  
 50  25  49  1   
 51  26  27  1   
 52  27  28  1   
 53  28  50  1   
 54  28  51  1   
 55  28  52  1   
@<TRIPOS>SUBSTRUCTURE
  1 ****  16 GROUP 4 **** **** 0

# MOE 2024.06 (io_trps.svl 2023.06)
