@<TRIPOS>MOLECULE
NONAME
53 55 1 0 0 
SMALL
USER_CHARGES


@<TRIPOS>ATOM
  1 O        0.2280     0.8230    -0.2280 O.3   1 <1>  -0.6800 
  2 C        1.3230     1.6800    -0.2080 C.3   1 <1>   0.1200 
  3 C        1.0010     2.9390    -1.0160 C.3   1 <1>   0.2090 
  4 N        2.2230     3.7770    -1.1710 N.pl3 1 <1>  -0.8690 
  5 C        2.6230     4.6980    -0.2320 C.ar  1 <1>   0.4100 
  6 N        2.0920     4.6300     0.9730 N.ar  1 <1>  -0.6200 
  7 C        3.5530     5.6570    -0.5460 C.ar  1 <1>  -0.1500 
  8 C        2.5130     5.5440     1.8250 C.ar  1 <1>   0.4700 
  9 C        3.9210     6.5580     0.4240 C.ar  1 <1>   0.4100 
 10 N        3.3940     6.5050     1.6350 N.ar  1 <1>  -0.6200 
 11 N        4.8510     7.5400     0.1530 N.pl3 1 <1>  -0.8380 
 12 C        4.9130     8.7690     0.9820 C.3   1 <1>   0.4330 
 13 C        6.2060     7.1540    -0.3010 C.3   1 <1>   0.2090 
 14 C        3.7990     9.7460     0.6060 C.ar  1 <1>  -0.1430 
 15 C        6.3070     9.3320     0.7260 C.3   1 <1>  -0.1600 
 16 C        7.1580     8.1040     0.4180 C.3   1 <1>  -0.1600 
 17 C        3.5040    10.0210    -0.7210 C.ar  1 <1>  -0.1500 
 18 C        3.0500    10.3570     1.6000 C.ar  1 <1>  -0.1500 
 19 C        2.4820    10.8920    -1.0520 C.ar  1 <1>  -0.1500 
 20 C        2.0270    11.2290     1.2740 C.ar  1 <1>  -0.1500 
 21 C        1.7390    11.5040    -0.0550 C.ar  1 <1>  -0.1430 
 22 C        0.6210    12.4600    -0.4140 C.3   1 <1>   0.4860 
 23 N        1.2230    13.7470    -0.8670 N.4   1 <1>  -0.9590 
 24 C        1.9700    14.4230     0.2400 C.3   1 <1>   0.2630 
 25 C        0.1990    14.6510    -1.4680 C.3   1 <1>   0.2630 
 26 H        0.3970     0.0450     0.3390 H     1 <1>   0.4000 
 27 H        2.1620     1.1640    -0.6390 H     1 <1>   0.0800 
 28 H        1.5350     1.9410     0.8150 H     1 <1>   0.0800 
 29 H        0.2320     3.5030    -0.5140 H     1 <1>   0.0800 
 30 H        0.6440     2.6560    -1.9900 H     1 <1>   0.0800 
 31 H        2.4650     3.9840    -2.1410 H     1 <1>   0.4000 
 32 H        3.9810     5.7130    -1.5230 H     1 <1>   0.1500 
 33 H        2.0790     5.4980     2.8090 H     1 <1>   0.1500 
 34 H        4.8380     8.4980     2.0220 H     1 <1>   0.0800 
 35 H        6.2710     7.2960    -1.3660 H     1 <1>   0.0800 
 36 H        6.4220     6.1270    -0.0580 H     1 <1>   0.0800 
 37 H        6.6700     9.8820     1.5750 H     1 <1>   0.0800 
 38 H        6.2830     9.9820    -0.1300 H     1 <1>   0.0800 
 39 H        8.0190     8.3380    -0.1820 H     1 <1>   0.0800 
 40 H        7.4820     7.6420     1.3350 H     1 <1>   0.0800 
 41 H        4.0720     9.5360    -1.4980 H     1 <1>   0.1500 
 42 H        3.2580    10.1430     2.6340 H     1 <1>   0.1500 
 43 H        2.2750    11.0690    -2.0930 H     1 <1>   0.1500 
 44 H        1.4580    11.6780     2.0710 H     1 <1>   0.1500 
 45 H       -0.0150    12.6230     0.4410 H     1 <1>   0.0800 
 46 H        0.0290    12.0270    -1.2040 H     1 <1>   0.0800 
 47 H        1.9150    13.4900    -1.5870 H     1 <1>   0.4500 
 48 H        1.3020    14.6700     1.0490 H     1 <1>   0.0800 
 49 H        2.4310    15.3290    -0.1180 H     1 <1>   0.0800 
 50 H        2.7450    13.7750     0.6190 H     1 <1>   0.0800 
 51 H       -0.5410    14.9240    -0.7320 H     1 <1>   0.0800 
 52 H       -0.2970    14.1630    -2.2920 H     1 <1>   0.0800 
 53 H        0.6650    15.5510    -1.8360 H     1 <1>   0.0800 
@<TRIPOS>BOND
  1   1   2  1   
  2   1  26  1   
  3   2   3  1   
  4   2  27  1   
  5   2  28  1   
  6   3   4  1   
  7   3  29  1   
  8   3  30  1   
  9   4   5  1   
 10   4  31  1   
 11   5   6  ar  
 12   5   7  ar  
 13   6   8  ar  
 14   7   9  ar  
 15   7  32  1   
 16   8  10  ar  
 17   8  33  1   
 18   9  10  ar  
 19   9  11  1   
 20  11  12  1   
 21  11  13  1   
 22  12  14  1   
 23  12  15  1   
 24  12  34  1   
 25  13  16  1   
 26  13  35  1   
 27  13  36  1   
 28  14  17  ar  
 29  14  18  ar  
 30  15  16  1   
 31  15  37  1   
 32  15  38  1   
 33  16  39  1   
 34  16  40  1   
 35  17  19  ar  
 36  17  41  1   
 37  18  20  ar  
 38  18  42  1   
 39  19  21  ar  
 40  19  43  1   
 41  20  21  ar  
 42  20  44  1   
 43  21  22  1   
 44  22  23  1   
 45  22  45  1   
 46  22  46  1   
 47  23  24  1   
 48  23  25  1   
 49  23  47  1   
 50  24  48  1   
 51  24  49  1   
 52  24  50  1   
 53  25  51  1   
 54  25  52  1   
 55  25  53  1   
@<TRIPOS>SUBSTRUCTURE
  1 ****   9 GROUP 4 **** **** 0

# MOE 2024.06 (io_trps.svl 2023.06)
