@<TRIPOS>MOLECULE
NONAME
55 58 1 0 0 
SMALL
USER_CHARGES


@<TRIPOS>ATOM
  1 O       -0.9910     0.7810    -1.6150 O.2   1 <1>  -0.5700 
  2 C       -1.9270     1.2540    -0.9950 C.2   1 <1>   0.7150 
  3 N       -3.1900     0.7470    -1.2060 N.am  1 <1>  -0.6600 
  4 C       -1.6900     2.3070    -0.0500 C.2   1 <1>  -0.2370 
  5 C       -3.5000    -0.1320    -2.3670 C.3   1 <1>   0.1400 
  6 C       -4.2820     0.8120    -0.1980 C.3   1 <1>   0.1400 
  7 N       -0.6290     2.3460     0.7950 N.pl3 1 <1>   0.3140 
  8 C       -2.3980     3.4400     0.2160 C.2   1 <1>  -0.1500 
  9 C       -3.7710    -1.5520    -1.8670 C.3   1 <1>  -0.1600 
 10 C       -4.5610    -0.5980     0.3270 C.3   1 <1>  -0.1600 
 11 N       -0.6500     3.4270     1.5880 N.2   1 <1>  -0.7070 
 12 C        0.4570     1.3590     0.9080 C.3   1 <1>   0.0160 
 13 C       -1.7100     4.0800     1.2300 C.2   1 <1>   0.1080 
 14 C       -4.8850    -1.5840    -0.8090 C.3   1 <1>   0.4240 
 15 C       -2.1030     5.3880     1.8750 C.3   1 <1>  -0.0590 
 16 O       -6.0390    -1.1210    -1.4720 O.3   1 <1>  -0.5600 
 17 C       -5.0710    -3.0170    -0.2660 C.ar  1 <1>  -0.1440 
 18 C       -7.2760    -1.4640    -0.9290 C.3   1 <1>   0.1200 
 19 C       -6.2870    -3.6770    -0.3710 C.ar  1 <1>  -0.1440 
 20 C       -4.0150    -3.6780     0.3490 C.ar  1 <1>  -0.1500 
 21 C       -7.4580    -2.9750    -1.0300 C.3   1 <1>  -0.0170 
 22 C       -6.4380    -4.9630     0.1250 C.ar  1 <1>  -0.1500 
 23 C       -4.1450    -4.9640     0.8450 C.ar  1 <1>   0.0820 
 24 C       -5.3800    -5.6230     0.7440 C.ar  1 <1>   0.0820 
 25 O       -3.0130    -5.4750     1.4070 O.3   1 <1>  -0.3620 
 26 O       -5.5300    -6.8760     1.2650 O.3   1 <1>  -0.3620 
 27 C       -2.7210    -6.8530     1.3340 C.3   1 <1>   0.0400 
 28 C       -6.7870    -7.5120     1.3430 C.3   1 <1>   0.0400 
 29 H       -2.6830    -0.1410    -3.0690 H     1 <1>   0.0800 
 30 H       -4.3680     0.2510    -2.8770 H     1 <1>   0.0800 
 31 H       -5.1660     1.2170    -0.6610 H     1 <1>   0.0800 
 32 H       -4.0130     1.4450     0.6280 H     1 <1>   0.0800 
 33 H       -3.3010     3.7810    -0.2570 H     1 <1>   0.1500 
 34 H       -2.8570    -1.9390    -1.4590 H     1 <1>   0.0800 
 35 H       -4.0500    -2.1830    -2.6900 H     1 <1>   0.0800 
 36 H       -5.3660    -0.5750     1.0370 H     1 <1>   0.0800 
 37 H       -3.6880    -0.9350     0.8550 H     1 <1>   0.0800 
 38 H        0.0360     0.3780     1.0250 H     1 <1>   0.0800 
 39 H        1.0650     1.5970     1.7600 H     1 <1>   0.0800 
 40 H        1.0550     1.3940     0.0170 H     1 <1>   0.0800 
 41 H       -3.0000     5.7750     1.4280 H     1 <1>   0.0800 
 42 H       -1.3090     6.1000     1.7500 H     1 <1>   0.0800 
 43 H       -2.2690     5.2330     2.9250 H     1 <1>   0.0800 
 44 H       -8.0370    -0.9550    -1.4940 H     1 <1>   0.0800 
 45 H       -7.3180    -1.1360     0.0950 H     1 <1>   0.0800 
 46 H       -3.0590    -3.2000     0.4540 H     1 <1>   0.1500 
 47 H       -7.5160    -3.2600    -2.0650 H     1 <1>   0.0800 
 48 H       -8.3790    -3.2530    -0.5490 H     1 <1>   0.0800 
 49 H       -7.3940    -5.4350     0.0180 H     1 <1>   0.1500 
 50 H       -1.6660    -6.9810     1.4910 H     1 <1>   0.0800 
 51 H       -2.9970    -7.2200     0.3610 H     1 <1>   0.0800 
 52 H       -3.2680    -7.3640     2.1050 H     1 <1>   0.0800 
 53 H       -6.6550    -8.4500     1.8520 H     1 <1>   0.0800 
 54 H       -7.1520    -7.6880     0.3460 H     1 <1>   0.0800 
 55 H       -7.4620    -6.8860     1.8990 H     1 <1>   0.0800 
@<TRIPOS>BOND
  1   1   2  2   
  2   2   3  am  
  3   2   4  1   
  4   3   5  1   
  5   3   6  1   
  6   4   7  1   
  7   4   8  2   
  8   5   9  1   
  9   5  29  1   
 10   5  30  1   
 11   6  10  1   
 12   6  31  1   
 13   6  32  1   
 14   7  11  1   
 15   7  12  1   
 16   8  13  1   
 17   8  33  1   
 18   9  14  1   
 19   9  34  1   
 20   9  35  1   
 21  10  14  1   
 22  10  36  1   
 23  10  37  1   
 24  11  13  2   
 25  12  38  1   
 26  12  39  1   
 27  12  40  1   
 28  13  15  1   
 29  14  16  1   
 30  14  17  1   
 31  15  41  1   
 32  15  42  1   
 33  15  43  1   
 34  16  18  1   
 35  17  19  ar  
 36  17  20  ar  
 37  18  21  1   
 38  18  44  1   
 39  18  45  1   
 40  19  21  1   
 41  19  22  ar  
 42  20  23  ar  
 43  20  46  1   
 44  21  47  1   
 45  21  48  1   
 46  22  24  ar  
 47  22  49  1   
 48  23  24  ar  
 49  23  25  1   
 50  24  26  1   
 51  25  27  1   
 52  26  28  1   
 53  27  50  1   
 54  27  51  1   
 55  27  52  1   
 56  28  53  1   
 57  28  54  1   
 58  28  55  1   
@<TRIPOS>SUBSTRUCTURE
  1 ****  10 GROUP 4 **** **** 0

# MOE 2024.06 (io_trps.svl 2023.06)
