@<TRIPOS>MOLECULE
NONAME
37 38 1 0 0 
SMALL
USER_CHARGES


@<TRIPOS>ATOM
  1 O        2.2950    -1.0780     2.3730 O.2   1 <1>  -0.5700 
  2 C        2.1670    -1.2850     1.1910 C.2   1 <1>   0.5690 
  3 N        2.3070    -0.3270     0.2340 N.am  1 <1>  -0.4930 
  4 C        1.8190    -2.6920     0.7460 C.3   1 <1>  -0.0990 
  5 C        2.6090     1.0480     0.3950 C.2   1 <1>   0.0630 
  6 C        0.3520    -2.8040     0.3000 C.3   1 <1>  -0.1600 
  7 C        2.8800     1.7690     1.5590 C.2   1 <1>   0.1390 
  8 C        2.6940     1.9610    -0.5940 C.2   1 <1>  -0.3020 
  9 C       -0.0120    -4.2440    -0.0920 C.3   1 <1>   0.0960 
 10 N        3.1150     3.0240     1.3180 N.2   1 <1>  -0.7070 
 11 N        3.0000     3.1480    -0.0210 N.pl3 1 <1>   0.3140 
 12 N       -1.3750    -4.2990    -0.6520 N.pl3 1 <1>   0.3140 
 13 C        3.1910     4.4400    -0.7420 C.3   1 <1>   0.1760 
 14 N       -1.6510    -3.9250    -1.8920 N.2   1 <1>  -0.7070 
 15 C       -2.5070    -4.6980    -0.0640 C.2   1 <1>   0.0360 
 16 C        4.6200     4.9650    -0.5420 C.3   1 <1>  -0.2400 
 17 C        2.1580     5.4770    -0.2790 C.3   1 <1>  -0.2400 
 18 C       -2.9270    -4.1250    -1.9650 C.2   1 <1>   0.3660 
 19 N       -3.5100    -4.6040    -0.8580 N.2   1 <1>  -0.5650 
 20 H        2.1550    -0.6150    -0.7300 H     1 <1>   0.3700 
 21 H        2.0000    -3.3600     1.5700 H     1 <1>   0.0800 
 22 H        2.4760    -2.9750    -0.0570 H     1 <1>   0.0800 
 23 H        0.1850    -2.1560    -0.5440 H     1 <1>   0.0800 
 24 H       -0.2880    -2.4810     1.1050 H     1 <1>   0.0800 
 25 H        2.8950     1.3390     2.5460 H     1 <1>   0.1500 
 26 H        2.5580     1.8410    -1.6510 H     1 <1>   0.1500 
 27 H        0.0420    -4.8930     0.7630 H     1 <1>   0.0800 
 28 H        0.6660    -4.6050    -0.8440 H     1 <1>   0.0800 
 29 H        3.0400     4.2510    -1.7890 H     1 <1>   0.0800 
 30 H       -2.5510    -5.0500     0.9510 H     1 <1>   0.1500 
 31 H        4.7990     5.1690     0.4990 H     1 <1>   0.0800 
 32 H        4.7640     5.8730    -1.0990 H     1 <1>   0.0800 
 33 H        5.3330     4.2360    -0.8830 H     1 <1>   0.0800 
 34 H        2.2890     5.6910     0.7670 H     1 <1>   0.0800 
 35 H        1.1620     5.1040    -0.4380 H     1 <1>   0.0800 
 36 H        2.2740     6.3910    -0.8330 H     1 <1>   0.0800 
 37 H       -3.5080    -3.9260    -2.8510 H     1 <1>   0.1500 
@<TRIPOS>BOND
  1   1   2  2   
  2   2   3  am  
  3   2   4  1   
  4   3   5  1   
  5   3  20  1   
  6   4   6  1   
  7   4  21  1   
  8   4  22  1   
  9   5   7  1   
 10   5   8  2   
 11   6   9  1   
 12   6  23  1   
 13   6  24  1   
 14   7  10  2   
 15   7  25  1   
 16   8  11  1   
 17   8  26  1   
 18   9  12  1   
 19   9  27  1   
 20   9  28  1   
 21  10  11  1   
 22  11  13  1   
 23  12  14  1   
 24  12  15  1   
 25  13  16  1   
 26  13  17  1   
 27  13  29  1   
 28  14  18  2   
 29  15  19  2   
 30  15  30  1   
 31  16  31  1   
 32  16  32  1   
 33  16  33  1   
 34  17  34  1   
 35  17  35  1   
 36  17  36  1   
 37  18  19  1   
 38  18  37  1   
@<TRIPOS>SUBSTRUCTURE
  1 ****   3 GROUP 4 **** **** 0

# MOE 2024.06 (io_trps.svl 2023.06)
