@<TRIPOS>MOLECULE
NONAME
50 53 1 0 0 
SMALL
USER_CHARGES


@<TRIPOS>ATOM
  1 O       -0.1650     0.2330     0.1590 O.2   1 <1>  -0.5700 
  2 C       -1.2200     0.8240     0.2780 C.2   1 <1>   0.5440 
  3 N       -2.3930     0.1080     0.2140 N.am  1 <1>  -0.6600 
  4 C       -1.2210     2.2570     0.4680 C.ar  1 <1>   0.0860 
  5 C       -3.7260     0.6890    -0.0910 C.3   1 <1>   0.1400 
  6 C       -2.4100    -1.3640     0.0150 C.3   1 <1>   0.1400 
  7 C       -1.9430     2.8430     1.5010 C.ar  1 <1>   0.1600 
  8 C       -0.5100     3.1090    -0.3620 C.ar  1 <1>  -0.1500 
  9 C       -4.5500    -0.4770    -0.6360 C.3   1 <1>   0.2000 
 10 C       -3.8910    -1.7370    -0.0820 C.3   1 <1>  -0.0800 
 11 N       -2.0400     4.1400     1.7400 N.ar  1 <1>  -0.6200 
 12 C       -0.5800     4.4690    -0.1340 C.ar  1 <1>  -0.1440 
 13 O       -5.8710    -0.4080    -0.2180 O.3   1 <1>  -0.6800 
 14 C       -4.1650    -2.9800    -0.9440 C.3   1 <1>  -0.0170 
 15 C       -1.3630     4.9310     0.9220 C.ar  1 <1>   0.1670 
 16 C        0.2060     5.4080    -1.0410 C.3   1 <1>  -0.0970 
 17 C       -3.5180    -4.2200    -0.3510 C.ar  1 <1>   0.1670 
 18 C       -1.4900     6.4140     1.2220 C.3   1 <1>  -0.0970 
 19 N       -2.2910    -4.4740    -0.6890 N.ar  1 <1>  -0.6200 
 20 C       -4.2640    -5.0190     0.5300 C.ar  1 <1>  -0.1500 
 21 C       -1.7020    -5.5730    -0.1530 C.ar  1 <1>   0.3100 
 22 C       -3.6980    -6.1280     1.0820 C.ar  1 <1>  -0.1500 
 23 C       -2.3700    -6.4360     0.7430 C.ar  1 <1>   0.0000 
 24 C       -0.3720    -5.8670    -0.4970 C.ar  1 <1>  -0.1500 
 25 C       -1.6850    -7.5560     1.2560 C.ar  1 <1>  -0.1500 
 26 C        0.2770    -6.9600     0.0130 C.ar  1 <1>  -0.1500 
 27 C       -0.3890    -7.8140     0.8990 C.ar  1 <1>  -0.1500 
 28 H       -4.1620     1.0730     0.8140 H     1 <1>   0.0800 
 29 H       -3.6410     1.4720    -0.8250 H     1 <1>   0.0800 
 30 H       -1.8900    -1.6030    -0.8980 H     1 <1>   0.0800 
 31 H       -1.9250    -1.8680     0.8340 H     1 <1>   0.0800 
 32 H       -2.4730     2.1900     2.1710 H     1 <1>   0.1500 
 33 H        0.0810     2.6960    -1.1620 H     1 <1>   0.1500 
 34 H       -4.5310    -0.4660    -1.7130 H     1 <1>   0.0800 
 35 H       -4.2390    -1.9140     0.9210 H     1 <1>   0.0800 
 36 H       -5.9220    -0.4320     0.7560 H     1 <1>   0.4000 
 37 H       -3.7830    -2.8280    -1.9390 H     1 <1>   0.0800 
 38 H       -5.2260    -3.1330    -1.0270 H     1 <1>   0.0800 
 39 H        0.8650     4.8560    -1.6870 H     1 <1>   0.0800 
 40 H        0.8020     6.0820    -0.4530 H     1 <1>   0.0800 
 41 H       -0.4690     5.9780    -1.6540 H     1 <1>   0.0800 
 42 H       -1.5770     6.9830     0.3170 H     1 <1>   0.0800 
 43 H       -0.6280     6.7440     1.7720 H     1 <1>   0.0800 
 44 H       -2.3660     6.5980     1.8170 H     1 <1>   0.0800 
 45 H       -5.2770    -4.7450     0.7610 H     1 <1>   0.1500 
 46 H       -4.2370    -6.7650     1.7600 H     1 <1>   0.1500 
 47 H        0.1210    -5.1980    -1.1770 H     1 <1>   0.1500 
 48 H       -2.2010    -8.2080     1.9370 H     1 <1>   0.1500 
 49 H        1.2960    -7.1730    -0.2590 H     1 <1>   0.1500 
 50 H        0.1330    -8.6700     1.2920 H     1 <1>   0.1500 
@<TRIPOS>BOND
  1   1   2  2   
  2   2   3  am  
  3   2   4  1   
  4   3   5  1   
  5   3   6  1   
  6   4   7  ar  
  7   4   8  ar  
  8   5   9  1   
  9   5  28  1   
 10   5  29  1   
 11   6  10  1   
 12   6  30  1   
 13   6  31  1   
 14   7  11  ar  
 15   7  32  1   
 16   8  12  ar  
 17   8  33  1   
 18   9  10  1   
 19   9  13  1   
 20   9  34  1   
 21  10  14  1   
 22  10  35  1   
 23  11  15  ar  
 24  12  15  ar  
 25  12  16  1   
 26  13  36  1   
 27  14  17  1   
 28  14  37  1   
 29  14  38  1   
 30  15  18  1   
 31  16  39  1   
 32  16  40  1   
 33  16  41  1   
 34  17  19  ar  
 35  17  20  ar  
 36  18  42  1   
 37  18  43  1   
 38  18  44  1   
 39  19  21  ar  
 40  20  22  ar  
 41  20  45  1   
 42  21  23  ar  
 43  21  24  ar  
 44  22  23  ar  
 45  22  46  1   
 46  23  25  ar  
 47  24  26  ar  
 48  24  47  1   
 49  25  27  ar  
 50  25  48  1   
 51  26  27  ar  
 52  26  49  1   
 53  27  50  1   
@<TRIPOS>SUBSTRUCTURE
  1 ****   6 GROUP 4 **** **** 0

# MOE 2024.06 (io_trps.svl 2023.06)
