@<TRIPOS>MOLECULE
NONAME
38 39 1 0 0 
SMALL
USER_CHARGES


@<TRIPOS>ATOM
  1 S        0.1610    -0.4460    -0.7680 S.3   1 <1>  -0.0800 
  2 C       -1.3970    -0.9590    -0.2090 C.2   1 <1>   0.4420 
  3 C       -0.3790     1.1840    -0.5510 C.2   1 <1>   0.1980 
  4 N       -2.1590     0.0330     0.0790 N.2   1 <1>  -0.3380 
  5 N       -1.6110    -2.3170    -0.1470 N.am  1 <1>  -0.4940 
  6 N       -1.5710     1.2520    -0.1200 N.2   1 <1>  -0.3380 
  7 C        0.5760     2.3140    -0.8860 C.3   1 <1>   0.0200 
  8 C       -2.7150    -3.0270     0.2440 C.2   1 <1>   0.7150 
  9 C        1.7000     2.4340     0.1530 C.3   1 <1>  -0.1600 
 10 O       -3.7180    -2.4530     0.6140 O.2   1 <1>  -0.5700 
 11 C       -2.6400    -4.4680     0.1980 C.2   1 <1>   0.0550 
 12 C        2.6440     3.5990    -0.1710 C.3   1 <1>  -0.1600 
 13 O       -1.5200    -5.0510    -0.2150 O.3   1 <1>  -0.2800 
 14 C       -3.5350    -5.4320     0.5100 C.2   1 <1>   0.0460 
 15 C        3.7610     3.7110     0.8730 C.3   1 <1>  -0.1600 
 16 C       -1.8240    -6.3290    -0.1220 C.2   1 <1>   0.2980 
 17 N       -2.9950    -6.6260     0.2990 N.2   1 <1>  -0.5650 
 18 C       -4.9590    -5.3480     1.0270 C.3   1 <1>  -0.0590 
 19 C        4.7030     4.8740     0.5500 C.3   1 <1>  -0.2400 
 20 C       -0.7730    -7.3390    -0.5160 C.3   1 <1>  -0.0600 
 21 H       -0.8350    -2.9050    -0.4360 H     1 <1>   0.3700 
 22 H        0.0170     3.2330    -0.9170 H     1 <1>   0.0800 
 23 H        0.9920     2.1440    -1.8630 H     1 <1>   0.0800 
 24 H        2.2620     1.5170     0.1820 H     1 <1>   0.0800 
 25 H        1.2620     2.5870     1.1260 H     1 <1>   0.0800 
 26 H        2.0850     4.5200    -0.1930 H     1 <1>   0.0800 
 27 H        3.0810     3.4500    -1.1440 H     1 <1>   0.0800 
 28 H        4.3270     2.7950     0.8990 H     1 <1>   0.0800 
 29 H        3.3310     3.8650     1.8490 H     1 <1>   0.0800 
 30 H       -5.2740    -4.3300     1.1540 H     1 <1>   0.0800 
 31 H       -5.0270    -5.8510     1.9740 H     1 <1>   0.0800 
 32 H       -5.6220    -5.8300     0.3320 H     1 <1>   0.0800 
 33 H        5.1630     4.7310    -0.4120 H     1 <1>   0.0800 
 34 H        5.4780     4.9360     1.2930 H     1 <1>   0.0800 
 35 H        4.1630     5.8050     0.5420 H     1 <1>   0.0800 
 36 H        0.0960    -7.2180     0.1040 H     1 <1>   0.0800 
 37 H       -0.5010    -7.1960    -1.5440 H     1 <1>   0.0800 
 38 H       -1.1580    -8.3350    -0.3890 H     1 <1>   0.0800 
@<TRIPOS>BOND
  1   1   2  1   
  2   1   3  1   
  3   2   4  2   
  4   2   5  1   
  5   3   6  2   
  6   3   7  1   
  7   4   6  1   
  8   5   8  am  
  9   5  21  1   
 10   7   9  1   
 11   7  22  1   
 12   7  23  1   
 13   8  10  2   
 14   8  11  1   
 15   9  12  1   
 16   9  24  1   
 17   9  25  1   
 18  11  13  1   
 19  11  14  2   
 20  12  15  1   
 21  12  26  1   
 22  12  27  1   
 23  13  16  1   
 24  14  17  1   
 25  14  18  1   
 26  15  19  1   
 27  15  28  1   
 28  15  29  1   
 29  16  17  2   
 30  16  20  1   
 31  18  30  1   
 32  18  31  1   
 33  18  32  1   
 34  19  33  1   
 35  19  34  1   
 36  19  35  1   
 37  20  36  1   
 38  20  37  1   
 39  20  38  1   
@<TRIPOS>SUBSTRUCTURE
  1 ****   2 GROUP 4 **** **** 0

# MOE 2024.06 (io_trps.svl 2023.06)
