@<TRIPOS>MOLECULE
NONAME
53 55 1 0 0 
SMALL
USER_CHARGES


@<TRIPOS>ATOM
  1 O       -0.3430     0.8830    -2.4170 O.2   1 <1>  -0.5700 
  2 C       -1.2500     1.3350    -1.7420 C.2   1 <1>   0.5440 
  3 N       -1.5100     2.6900    -1.7960 N.am  1 <1>  -0.6600 
  4 C       -2.0350     0.4280    -0.9240 C.ar  1 <1>   0.0860 
  5 C       -2.8170     3.2950    -1.4170 C.3   1 <1>   0.1400 
  6 C       -0.5380     3.6390    -2.4040 C.3   1 <1>   0.1400 
  7 C       -2.2660     0.6730     0.4280 C.ar  1 <1>  -0.1500 
  8 C       -2.5800    -0.7330    -1.4700 C.ar  1 <1>  -0.1500 
  9 C       -2.5850     4.4580    -0.4490 C.3   1 <1>  -0.1600 
 10 C       -0.2960     4.8120    -1.4490 C.3   1 <1>  -0.1600 
 11 C       -3.0260    -0.1850     1.2040 C.ar  1 <1>   0.0830 
 12 C       -3.3390    -1.6010    -0.7080 C.ar  1 <1>  -0.1500 
 13 C       -1.6130     5.4980    -1.0410 C.3   1 <1>  -0.0190 
 14 O       -3.1950     0.1570     2.5050 O.3   1 <1>  -0.3630 
 15 C       -3.5680    -1.3300     0.6290 C.ar  1 <1>  -0.1500 
 16 C       -1.3490     6.6570    -0.0810 C.2   1 <1>   0.5690 
 17 C       -3.9010    -0.6750     3.3980 C.3   1 <1>   0.0400 
 18 O       -1.1730     6.4410     1.0940 O.2   1 <1>  -0.5700 
 19 N       -1.2940     7.9180    -0.5870 N.am  1 <1>  -0.7300 
 20 C       -1.0310     9.1260     0.2200 C.3   1 <1>   0.1400 
 21 C        0.4710     9.4000     0.2220 C.3   1 <1>  -0.1600 
 22 C        0.8220    10.5750     1.1410 C.3   1 <1>   0.0200 
 23 C        2.3160    10.8360     1.1360 C.2   1 <1>   0.0060 
 24 N        2.8640    11.8570     0.5650 N.2   1 <1>  -0.5650 
 25 N        3.2040    10.0110     1.7340 N.pl3 1 <1>   0.0330 
 26 C        4.1800    11.6930     0.8000 C.2   1 <1>   0.0770 
 27 C        4.4070    10.5690     1.5130 C.2   1 <1>  -0.3020 
 28 H       -3.4670     2.5680    -0.9660 H     1 <1>   0.0800 
 29 H       -3.3000     3.6570    -2.3090 H     1 <1>   0.0800 
 30 H       -0.9340     3.9940    -3.3400 H     1 <1>   0.0800 
 31 H        0.3990     3.1460    -2.6040 H     1 <1>   0.0800 
 32 H       -1.8420     1.5490     0.8850 H     1 <1>   0.1500 
 33 H       -2.3960    -0.9490    -2.5090 H     1 <1>   0.1500 
 34 H       -2.1900     4.0690     0.4730 H     1 <1>   0.0800 
 35 H       -3.5260     4.9290    -0.2260 H     1 <1>   0.0800 
 36 H        0.3550     5.5250    -1.9230 H     1 <1>   0.0800 
 37 H        0.2070     4.4450    -0.5710 H     1 <1>   0.0800 
 38 H       -3.7510    -2.4900    -1.1550 H     1 <1>   0.1500 
 39 H       -2.0680     5.9020    -1.9270 H     1 <1>   0.0800 
 40 H       -4.1620    -2.0170     1.2020 H     1 <1>   0.1500 
 41 H       -3.8840    -0.2130     4.3690 H     1 <1>   0.0800 
 42 H       -3.4140    -1.6330     3.4410 H     1 <1>   0.0800 
 43 H       -4.9170    -0.7720     3.0570 H     1 <1>   0.0800 
 44 H       -1.3780     8.0660    -1.5940 H     1 <1>   0.3700 
 45 H       -1.3760     8.9630     1.2280 H     1 <1>   0.0800 
 46 H       -1.5690     9.9620    -0.1930 H     1 <1>   0.0800 
 47 H        0.8000     9.6270    -0.7770 H     1 <1>   0.0800 
 48 H        0.9870     8.5190     0.5630 H     1 <1>   0.0800 
 49 H        0.5010    10.3720     2.1480 H     1 <1>   0.0800 
 50 H        0.3160    11.4640     0.8030 H     1 <1>   0.0800 
 51 H        2.9950     9.1450     2.2400 H     1 <1>   0.2700 
 52 H        4.9040    12.4040     0.4370 H     1 <1>   0.1500 
 53 H        5.3320    10.1490     1.8640 H     1 <1>   0.1500 
@<TRIPOS>BOND
  1   1   2  2   
  2   2   3  am  
  3   2   4  1   
  4   3   5  1   
  5   3   6  1   
  6   4   7  ar  
  7   4   8  ar  
  8   5   9  1   
  9   5  28  1   
 10   5  29  1   
 11   6  10  1   
 12   6  30  1   
 13   6  31  1   
 14   7  11  ar  
 15   7  32  1   
 16   8  12  ar  
 17   8  33  1   
 18   9  13  1   
 19   9  34  1   
 20   9  35  1   
 21  10  13  1   
 22  10  36  1   
 23  10  37  1   
 24  11  14  1   
 25  11  15  ar  
 26  12  15  ar  
 27  12  38  1   
 28  13  16  1   
 29  13  39  1   
 30  14  17  1   
 31  15  40  1   
 32  16  18  2   
 33  16  19  am  
 34  17  41  1   
 35  17  42  1   
 36  17  43  1   
 37  19  20  1   
 38  19  44  1   
 39  20  21  1   
 40  20  45  1   
 41  20  46  1   
 42  21  22  1   
 43  21  47  1   
 44  21  48  1   
 45  22  23  1   
 46  22  49  1   
 47  22  50  1   
 48  23  24  2   
 49  23  25  1   
 50  24  26  1   
 51  25  27  1   
 52  25  51  1   
 53  26  27  2   
 54  26  52  1   
 55  27  53  1   
@<TRIPOS>SUBSTRUCTURE
  1 ****  13 GROUP 4 **** **** 0

# MOE 2024.06 (io_trps.svl 2023.06)
