@<TRIPOS>MOLECULE
NONAME
51 53 1 0 0 
SMALL
USER_CHARGES


@<TRIPOS>ATOM
  1 O        0.5020    -0.5190     0.6020 O.3   1 <1>  -0.3630 
  2 C        0.3080    -1.7730     0.1490 C.ar  1 <1>   0.3920 
  3 C        1.5020    -0.1810     1.5380 C.3   1 <1>   0.0400 
  4 N       -0.5800    -1.8640    -0.8280 N.ar  1 <1>  -0.6200 
  5 C        0.9880    -2.8720     0.6720 C.ar  1 <1>  -0.1500 
  6 C       -0.8020    -3.0700    -1.3080 C.ar  1 <1>   0.1600 
  7 C        0.7360    -4.1310     0.1710 C.ar  1 <1>  -0.1500 
  8 C       -0.1980    -4.2290    -0.8440 C.ar  1 <1>  -0.1440 
  9 C       -0.5740    -5.5670    -1.4400 C.3   1 <1>   0.4870 
 10 N       -1.4360    -6.2950    -0.4590 N.4   1 <1>  -0.9590 
 11 C       -1.6250    -7.7400    -0.8590 C.3   1 <1>   0.3430 
 12 C       -2.7440    -5.5850    -0.2900 C.3   1 <1>   0.3430 
 13 C       -2.5740    -8.5430     0.0900 C.3   1 <1>   0.4230 
 14 C       -3.6120    -6.3260     0.7310 C.3   1 <1>  -0.1600 
 15 N       -2.7560   -10.0220    -0.2550 N.4   1 <1>  -0.9590 
 16 C       -3.9170    -7.8010     0.3540 C.3   1 <1>   0.0000 
 17 C       -3.9210   -10.6690     0.4440 C.3   1 <1>   0.3430 
 18 C       -2.8470   -10.3290    -1.7240 C.3   1 <1>   0.2630 
 19 C       -4.6210    -8.4750     1.5660 C.3   1 <1>  -0.1600 
 20 C       -4.8990    -7.8300    -0.8540 C.3   1 <1>   0.1200 
 21 C       -4.2430    -9.9590     1.7600 C.3   1 <1>  -0.1600 
 22 O       -4.2680    -7.4740    -2.0390 O.3   1 <1>  -0.6800 
 23 H        1.4780     0.8850     1.6780 H     1 <1>   0.0800 
 24 H        2.4610    -0.4740     1.1490 H     1 <1>   0.0800 
 25 H        1.2930    -0.6740     2.4700 H     1 <1>   0.0800 
 26 H        1.7050    -2.7520     1.4600 H     1 <1>   0.1500 
 27 H       -1.5140    -3.1240    -2.1150 H     1 <1>   0.1500 
 28 H        1.2620    -4.9840     0.5660 H     1 <1>   0.1500 
 29 H        0.3260    -6.1270    -1.6380 H     1 <1>   0.0800 
 30 H       -1.1000    -5.4260    -2.3710 H     1 <1>   0.0800 
 31 H       -0.9420    -6.2260     0.4420 H     1 <1>   0.4500 
 32 H       -2.0320    -7.7680    -1.8550 H     1 <1>   0.0800 
 33 H       -0.6650    -8.2280    -0.8790 H     1 <1>   0.0800 
 34 H       -2.5750    -4.5750     0.0560 H     1 <1>   0.0800 
 35 H       -3.2600    -5.5280    -1.2350 H     1 <1>   0.0800 
 36 H       -2.0720    -8.5320     1.0430 H     1 <1>   0.0800 
 37 H       -3.1120    -6.2740     1.6840 H     1 <1>   0.0800 
 38 H       -4.5360    -5.7840     0.8430 H     1 <1>   0.0800 
 39 H       -1.9250   -10.5180     0.1030 H     1 <1>   0.4500 
 40 H       -4.7950   -10.6300    -0.1870 H     1 <1>   0.0800 
 41 H       -3.7040   -11.7090     0.6350 H     1 <1>   0.0800 
 42 H       -3.6990    -9.8350    -2.1620 H     1 <1>   0.0800 
 43 H       -2.9570   -11.3910    -1.8770 H     1 <1>   0.0800 
 44 H       -1.9580   -10.0060    -2.2400 H     1 <1>   0.0800 
 45 H       -4.3810    -7.9660     2.4860 H     1 <1>   0.0800 
 46 H       -5.6910    -8.3940     1.4580 H     1 <1>   0.0800 
 47 H       -5.7130    -7.1410    -0.6920 H     1 <1>   0.0800 
 48 H       -5.3240    -8.8080    -0.9950 H     1 <1>   0.0800 
 49 H       -5.0610   -10.4680     2.2430 H     1 <1>   0.0800 
 50 H       -3.3960   -10.0440     2.4190 H     1 <1>   0.0800 
 51 H       -4.9380    -7.3450    -2.7520 H     1 <1>   0.4000 
@<TRIPOS>BOND
  1   1   2  1   
  2   1   3  1   
  3   2   4  ar  
  4   2   5  ar  
  5   3  23  1   
  6   3  24  1   
  7   3  25  1   
  8   4   6  ar  
  9   5   7  ar  
 10   5  26  1   
 11   6   8  ar  
 12   6  27  1   
 13   7   8  ar  
 14   7  28  1   
 15   8   9  1   
 16   9  10  1   
 17   9  29  1   
 18   9  30  1   
 19  10  11  1   
 20  10  12  1   
 21  10  31  1   
 22  11  13  1   
 23  11  32  1   
 24  11  33  1   
 25  12  14  1   
 26  12  34  1   
 27  12  35  1   
 28  13  15  1   
 29  13  16  1   
 30  13  36  1   
 31  14  16  1   
 32  14  37  1   
 33  14  38  1   
 34  15  17  1   
 35  15  18  1   
 36  15  39  1   
 37  16  19  1   
 38  16  20  1   
 39  17  21  1   
 40  17  40  1   
 41  17  41  1   
 42  18  42  1   
 43  18  43  1   
 44  18  44  1   
 45  19  21  1   
 46  19  45  1   
 47  19  46  1   
 48  20  22  1   
 49  20  47  1   
 50  20  48  1   
 51  21  49  1   
 52  21  50  1   
 53  22  51  1   
@<TRIPOS>SUBSTRUCTURE
  1 ****  10 GROUP 4 **** **** 0

# MOE 2024.06 (io_trps.svl 2023.06)
