@<TRIPOS>MOLECULE
NONAME
36 38 1 0 0 
SMALL
USER_CHARGES


@<TRIPOS>ATOM
  1 CL       2.5810    -0.3570    -2.4120 Cl    1 <1>  -0.1770 
  2 C        2.5950    -0.6240    -0.6790 C.ar  1 <1>   0.1770 
  3 C        2.5380    -1.9220    -0.1970 C.ar  1 <1>   0.1900 
  4 C        2.6460     0.4440     0.2100 C.ar  1 <1>  -0.1440 
  5 F        2.4980    -2.9270    -1.0340 F     1 <1>  -0.1900 
  6 C        2.5160    -2.1980     1.1560 C.ar  1 <1>  -0.1500 
  7 C        2.6090     0.1670     1.5740 C.ar  1 <1>  -0.1500 
  8 C        2.7130     1.8960    -0.2660 C.3   1 <1>   0.2540 
  9 C        2.5490    -1.1370     2.0450 C.ar  1 <1>  -0.1500 
 10 N        4.0890     2.4270    -0.3370 N.3   1 <1>  -0.8100 
 11 C        4.7730     2.4750     0.9810 C.3   1 <1>   0.1100 
 12 C        4.8790     1.8090    -1.4250 C.3   1 <1>   0.1100 
 13 C        6.0800     3.3120     1.0440 C.3   1 <1>   0.2200 
 14 C        6.1880     2.5480    -1.7740 C.3   1 <1>  -0.0190 
 15 N        6.1750     4.3210    -0.0420 N.am  1 <1>  -0.7300 
 16 C        7.3380     2.4180     1.0550 C.3   1 <1>   0.1200 
 17 C        6.1820     4.0050    -1.3540 C.2   1 <1>   0.5690 
 18 C        7.4440     1.8340    -1.2470 C.3   1 <1>   0.1200 
 19 O        7.3070     1.4150     0.0780 O.3   1 <1>  -0.5600 
 20 O        6.2180     4.8750    -2.1900 O.2   1 <1>  -0.5700 
 21 H        2.4720    -3.2160     1.5010 H     1 <1>   0.1500 
 22 H        2.6280     0.9750     2.2850 H     1 <1>   0.1500 
 23 H        2.1440     2.5120     0.4080 H     1 <1>   0.0800 
 24 H        2.2490     1.9930    -1.2320 H     1 <1>   0.0800 
 25 H        2.5270    -1.3260     3.1060 H     1 <1>   0.1500 
 26 H        4.0910     2.9060     1.6930 H     1 <1>   0.0800 
 27 H        4.9830     1.4720     1.3120 H     1 <1>   0.0800 
 28 H        5.0900     0.7810    -1.1850 H     1 <1>   0.0800 
 29 H        4.2720     1.8170    -2.3140 H     1 <1>   0.0800 
 30 H        6.0800     3.8460     1.9780 H     1 <1>   0.0800 
 31 H        6.2760     2.5410    -2.8440 H     1 <1>   0.0800 
 32 H        6.0230     5.3020     0.1900 H     1 <1>   0.3700 
 33 H        7.3980     1.9140     2.0030 H     1 <1>   0.0800 
 34 H        8.2300     3.0060     0.9300 H     1 <1>   0.0800 
 35 H        8.3130     2.4650    -1.3290 H     1 <1>   0.0800 
 36 H        7.6150     0.9470    -1.8310 H     1 <1>   0.0800 
@<TRIPOS>BOND
  1   1   2  1   
  2   2   3  ar  
  3   2   4  ar  
  4   3   5  1   
  5   3   6  ar  
  6   4   7  ar  
  7   4   8  1   
  8   6   9  ar  
  9   6  21  1   
 10   7   9  ar  
 11   7  22  1   
 12   8  10  1   
 13   8  23  1   
 14   8  24  1   
 15   9  25  1   
 16  10  11  1   
 17  10  12  1   
 18  11  13  1   
 19  11  26  1   
 20  11  27  1   
 21  12  14  1   
 22  12  28  1   
 23  12  29  1   
 24  13  15  1   
 25  13  16  1   
 26  13  30  1   
 27  14  17  1   
 28  14  18  1   
 29  14  31  1   
 30  15  17  am  
 31  15  32  1   
 32  16  19  1   
 33  16  33  1   
 34  16  34  1   
 35  17  20  2   
 36  18  19  1   
 37  18  35  1   
 38  18  36  1   
@<TRIPOS>SUBSTRUCTURE
  1 ****  10 GROUP 4 **** **** 0

# MOE 2024.06 (io_trps.svl 2023.06)
