@<TRIPOS>MOLECULE
NONAME
60 63 1 0 0 
SMALL
USER_CHARGES


@<TRIPOS>ATOM
  1 O       -0.2620     0.0170    -1.2170 O.2   1 <1>  -0.5700 
  2 C       -0.2530    -1.1680    -0.9790 C.2   1 <1>   0.5690 
  3 N        0.8480    -1.7960    -0.4380 N.am  1 <1>  -0.6600 
  4 C       -1.5280    -1.9520    -1.3220 C.3   1 <1>   0.2010 
  5 C        2.0550    -0.9990    -0.0450 C.3   1 <1>   0.2200 
  6 C        0.8370    -3.2650    -0.1480 C.3   1 <1>   0.1400 
  7 N       -1.5200    -3.4110    -0.9360 N.am  1 <1>  -0.6600 
  8 C        3.3220    -1.5030    -0.7430 C.3   1 <1>  -0.1600 
  9 C        2.3480    -1.1110     1.4510 C.3   1 <1>  -0.1600 
 10 C       -0.1660    -4.0310    -1.0230 C.3   1 <1>   0.1400 
 11 C       -2.6720    -4.0340    -0.5410 C.2   1 <1>   0.5690 
 12 C        4.1490    -2.2800     0.2920 C.3   1 <1>  -0.1600 
 13 C        3.3790    -2.2290     1.6130 C.3   1 <1>  -0.1600 
 14 O       -3.7360    -3.4610    -0.5540 O.2   1 <1>  -0.5700 
 15 C       -2.6550    -5.4850    -0.0900 C.3   1 <1>  -0.0990 
 16 C       -3.9990    -5.9610     0.4790 C.3   1 <1>   0.2000 
 17 O       -3.8020    -7.2640     0.9510 O.3   1 <1>  -0.5600 
 18 C       -5.1520    -5.9570    -0.5590 C.3   1 <1>   0.3430 
 19 C       -4.9110    -7.8400     1.5840 C.3   1 <1>   0.1200 
 20 N       -6.4010    -6.5920    -0.0130 N.4   1 <1>  -0.9590 
 21 C       -6.1010    -7.9280     0.6100 C.3   1 <1>   0.3430 
 22 C       -7.4730    -6.6790    -1.0390 C.3   1 <1>   0.4860 
 23 C       -8.7410    -7.1660    -0.3660 C.ar  1 <1>  -0.1440 
 24 C       -9.1740    -8.4720    -0.5510 C.ar  1 <1>  -0.1500 
 25 C       -9.4760    -6.3120     0.4460 C.ar  1 <1>  -0.1500 
 26 C      -10.3190    -8.9220     0.0800 C.ar  1 <1>  -0.1500 
 27 C      -10.6210    -6.7650     1.0760 C.ar  1 <1>  -0.1500 
 28 C      -11.0420    -8.0700     0.8950 C.ar  1 <1>  -0.1500 
 29 H       -1.6820    -1.8780    -2.3830 H     1 <1>   0.0800 
 30 H       -2.3500    -1.4540    -0.8400 H     1 <1>   0.0800 
 31 H        1.9020     0.0380    -0.2950 H     1 <1>   0.0800 
 32 H        0.5910    -3.4140     0.8880 H     1 <1>   0.0800 
 33 H        1.8130    -3.6790    -0.3220 H     1 <1>   0.0800 
 34 H        3.8920    -0.6510    -1.0690 H     1 <1>   0.0800 
 35 H        3.0890    -2.0980    -1.6090 H     1 <1>   0.0800 
 36 H        1.4580    -1.2730     2.0320 H     1 <1>   0.0800 
 37 H        2.7980    -0.1880     1.7710 H     1 <1>   0.0800 
 38 H       -0.1830    -5.0610    -0.7180 H     1 <1>   0.0800 
 39 H        0.1690    -4.0000    -2.0460 H     1 <1>   0.0800 
 40 H        5.1090    -1.8070     0.4120 H     1 <1>   0.0800 
 41 H        4.3070    -3.2980    -0.0200 H     1 <1>   0.0800 
 42 H        2.8780    -3.1670     1.7790 H     1 <1>   0.0800 
 43 H        4.0330    -2.0420     2.4470 H     1 <1>   0.0800 
 44 H       -1.9140    -5.5850     0.6810 H     1 <1>   0.0800 
 45 H       -2.3780    -6.1020    -0.9240 H     1 <1>   0.0800 
 46 H       -4.2600    -5.3360     1.3170 H     1 <1>   0.0800 
 47 H       -4.8210    -6.4930    -1.4320 H     1 <1>   0.0800 
 48 H       -5.3640    -4.9430    -0.8560 H     1 <1>   0.0800 
 49 H       -5.1610    -7.2540     2.4520 H     1 <1>   0.0800 
 50 H       -4.6260    -8.8260     1.9090 H     1 <1>   0.0800 
 51 H       -6.7640    -5.9880     0.7350 H     1 <1>   0.4500 
 52 H       -6.9680    -8.2920     1.1390 H     1 <1>   0.0800 
 53 H       -5.8590    -8.6430    -0.1580 H     1 <1>   0.0800 
 54 H       -7.1870    -7.3600    -1.8240 H     1 <1>   0.0800 
 55 H       -7.6520    -5.7090    -1.4750 H     1 <1>   0.0800 
 56 H       -8.6320    -9.1520    -1.1870 H     1 <1>   0.1500 
 57 H       -9.1750    -5.2890     0.5950 H     1 <1>   0.1500 
 58 H      -10.6560    -9.9360    -0.0640 H     1 <1>   0.1500 
 59 H      -11.1920    -6.1030     1.7060 H     1 <1>   0.1500 
 60 H      -11.9350    -8.4210     1.3850 H     1 <1>   0.1500 
@<TRIPOS>BOND
  1   1   2  2   
  2   2   3  am  
  3   2   4  1   
  4   3   5  1   
  5   3   6  1   
  6   4   7  1   
  7   4  29  1   
  8   4  30  1   
  9   5   8  1   
 10   5   9  1   
 11   5  31  1   
 12   6  10  1   
 13   6  32  1   
 14   6  33  1   
 15   7  10  1   
 16   7  11  am  
 17   8  12  1   
 18   8  34  1   
 19   8  35  1   
 20   9  13  1   
 21   9  36  1   
 22   9  37  1   
 23  10  38  1   
 24  10  39  1   
 25  11  14  2   
 26  11  15  1   
 27  12  13  1   
 28  12  40  1   
 29  12  41  1   
 30  13  42  1   
 31  13  43  1   
 32  15  16  1   
 33  15  44  1   
 34  15  45  1   
 35  16  17  1   
 36  16  18  1   
 37  16  46  1   
 38  17  19  1   
 39  18  20  1   
 40  18  47  1   
 41  18  48  1   
 42  19  21  1   
 43  19  49  1   
 44  19  50  1   
 45  20  21  1   
 46  20  22  1   
 47  20  51  1   
 48  21  52  1   
 49  21  53  1   
 50  22  23  1   
 51  22  54  1   
 52  22  55  1   
 53  23  24  ar  
 54  23  25  ar  
 55  24  26  ar  
 56  24  56  1   
 57  25  27  ar  
 58  25  57  1   
 59  26  28  ar  
 60  26  58  1   
 61  27  28  ar  
 62  27  59  1   
 63  28  60  1   
@<TRIPOS>SUBSTRUCTURE
  1 ****  11 GROUP 4 **** **** 0

# MOE 2024.06 (io_trps.svl 2023.06)
