@<TRIPOS>MOLECULE
NONAME
50 52 1 0 0 
SMALL
USER_CHARGES


@<TRIPOS>ATOM
  1 O       -0.7670    -1.2190    -0.8030 O.co2 1 <1>  -0.9000 
  2 C       -1.8720    -1.4080    -0.2620 C.2   1 <1>   0.9790 
  3 O       -2.1690    -2.5430     0.1440 O.co2 1 <1>  -0.9000 
  4 C       -2.7880    -0.2900    -0.0920 C.ar  1 <1>  -0.1790 
  5 C       -2.5260     0.9350    -0.7010 C.ar  1 <1>  -0.1500 
  6 C       -3.9410    -0.3810     0.6860 C.ar  1 <1>  -0.1500 
  7 C       -3.3330     2.0380    -0.5080 C.ar  1 <1>  -0.1430 
  8 C       -4.7780     0.7030     0.8680 C.ar  1 <1>  -0.1500 
  9 C       -4.4780     1.9270     0.2770 C.ar  1 <1>   0.0830 
 10 C       -2.9300     3.3480    -1.1450 C.3   1 <1>   0.4870 
 11 O       -5.2500     3.0340     0.4400 O.3   1 <1>  -0.3620 
 12 N       -2.8280     4.3480    -0.0640 N.4   1 <1>  -0.8520 
 13 C       -6.5390     2.9440     1.0150 C.3   1 <1>   0.0400 
 14 C       -2.9420     5.7130    -0.5870 C.3   1 <1>   0.2960 
 15 C       -1.6370     4.1080     0.8100 C.3   1 <1>   0.5240 
 16 C       -3.7210     6.6990     0.2150 C.3   1 <1>  -0.2000 
 17 C       -4.2780     6.1670    -1.0710 C.3   1 <1>  -0.2000 
 18 C       -0.3740     4.7070     0.2110 C.2   1 <1>  -0.1810 
 19 C        0.5650     4.0500    -0.5810 C.2   1 <1>   0.1080 
 20 C        0.1090     5.9690     0.3370 C.2   1 <1>  -0.3320 
 21 N        1.5110     4.8430    -0.9630 N.2   1 <1>  -0.7070 
 22 C        0.5930     2.5860    -0.9720 C.3   1 <1>  -0.0590 
 23 N        1.2430     6.0240    -0.3960 N.pl3 1 <1>   0.3140 
 24 C       -0.4170     7.1530     1.1370 C.3   1 <1>  -0.0600 
 25 C        2.1480     7.1680    -0.5780 C.3   1 <1>   0.0160 
 26 H       -1.6580     0.9880    -1.3350 H     1 <1>   0.1500 
 27 H       -4.1650    -1.3280     1.1510 H     1 <1>   0.1500 
 28 H       -5.6500     0.5660     1.4790 H     1 <1>   0.1500 
 29 H       -3.6910     3.6400    -1.8500 H     1 <1>   0.0800 
 30 H       -1.9910     3.2550    -1.6640 H     1 <1>   0.0800 
 31 H       -3.6690     4.1470     0.4970 H     1 <1>   0.4500 
 32 H       -7.0070     3.9100     0.9520 H     1 <1>   0.0800 
 33 H       -6.4460     2.6510     2.0460 H     1 <1>   0.0800 
 34 H       -7.1190     2.2230     0.4650 H     1 <1>   0.0800 
 35 H       -2.0630     6.0500    -1.1190 H     1 <1>   0.1000 
 36 H       -1.5000     3.0510     0.9750 H     1 <1>   0.0800 
 37 H       -1.8060     4.5710     1.7670 H     1 <1>   0.0800 
 38 H       -3.4090     7.7290     0.2310 H     1 <1>   0.1000 
 39 H       -4.1850     6.3950     1.1370 H     1 <1>   0.1000 
 40 H       -5.1240     5.5030    -1.0250 H     1 <1>   0.1000 
 41 H       -4.3270     6.8400    -1.9100 H     1 <1>   0.1000 
 42 H        0.1320     1.9730    -0.2210 H     1 <1>   0.0800 
 43 H        1.6150     2.2640    -1.0730 H     1 <1>   0.0800 
 44 H        0.1070     2.4440    -1.9180 H     1 <1>   0.0800 
 45 H       -1.2670     6.8720     1.7300 H     1 <1>   0.0800 
 46 H       -0.7010     7.9540     0.4770 H     1 <1>   0.0800 
 47 H        0.3460     7.5120     1.8050 H     1 <1>   0.0800 
 48 H        1.5920     8.0050    -0.9550 H     1 <1>   0.0800 
 49 H        2.9160     6.9000    -1.2800 H     1 <1>   0.0800 
 50 H        2.5970     7.4160     0.3650 H     1 <1>   0.0800 
@<TRIPOS>BOND
  1   1   2  ar  
  2   2   3  ar  
  3   2   4  1   
  4   4   5  ar  
  5   4   6  ar  
  6   5   7  ar  
  7   5  26  1   
  8   6   8  ar  
  9   6  27  1   
 10   7   9  ar  
 11   7  10  1   
 12   8   9  ar  
 13   8  28  1   
 14   9  11  1   
 15  10  12  1   
 16  10  29  1   
 17  10  30  1   
 18  11  13  1   
 19  12  14  1   
 20  12  15  1   
 21  12  31  1   
 22  13  32  1   
 23  13  33  1   
 24  13  34  1   
 25  14  16  1   
 26  14  17  1   
 27  14  35  1   
 28  15  18  1   
 29  15  36  1   
 30  15  37  1   
 31  16  17  1   
 32  16  38  1   
 33  16  39  1   
 34  17  40  1   
 35  17  41  1   
 36  18  19  1   
 37  18  20  2   
 38  19  21  2   
 39  19  22  1   
 40  20  23  1   
 41  20  24  1   
 42  21  23  1   
 43  22  42  1   
 44  22  43  1   
 45  22  44  1   
 46  23  25  1   
 47  24  45  1   
 48  24  46  1   
 49  24  47  1   
 50  25  48  1   
 51  25  49  1   
 52  25  50  1   
@<TRIPOS>SUBSTRUCTURE
  1 ****  10 GROUP 4 **** **** 0

# MOE 2024.06 (io_trps.svl 2023.06)
