@<TRIPOS>MOLECULE
NONAME
54 58 1 0 0 
SMALL
USER_CHARGES


@<TRIPOS>ATOM
  1 O       -2.6140     0.4020     0.7920 O.2   1 <1>  -0.5700 
  2 C       -2.8040     1.2500    -0.0500 C.2   1 <1>   0.5690 
  3 N       -3.4690     0.9240    -1.1950 N.am  1 <1>  -0.6600 
  4 C       -2.3930     2.6830     0.2070 C.3   1 <1>  -0.0990 
  5 C       -4.9350     1.2100    -1.2250 C.3   1 <1>   0.1400 
  6 C       -3.1470    -0.3940    -1.8380 C.3   1 <1>   0.1400 
  7 C       -0.8720     2.8090     0.3470 C.3   1 <1>   0.0210 
  8 C       -5.7220     0.1290    -0.4290 C.3   1 <1>   0.4230 
  9 C       -4.0950    -1.5220    -1.3610 C.3   1 <1>   0.3430 
 10 C       -0.4290     4.2460     0.5660 C.2   1 <1>  -0.1810 
 11 N       -4.8740    -1.0940    -0.1480 N.4   1 <1>  -0.9590 
 12 C       -7.0340    -0.2600    -1.1470 C.3   1 <1>   0.1200 
 13 C        0.9280     4.6160     0.7100 C.ar  1 <1>   0.0000 
 14 C       -1.1700     5.3780     0.6620 C.2   1 <1>  -0.3020 
 15 C       -5.6730    -2.1540     0.5340 C.3   1 <1>   0.5180 
 16 O       -7.7120    -1.2570    -0.4340 O.3   1 <1>  -0.5600 
 17 C        0.9470     5.9950     0.8890 C.ar  1 <1>  -0.1520 
 18 C        2.1360     3.9090     0.7040 C.ar  1 <1>  -0.1500 
 19 N       -0.3460     6.4490     0.8590 N.pl3 1 <1>   0.0330 
 20 C       -4.8190    -3.4130     0.7230 C.3   1 <1>  -0.1950 
 21 C       -6.9890    -2.4420    -0.2230 C.3   1 <1>   0.1200 
 22 C        2.1500     6.6840     1.0630 C.ar  1 <1>  -0.1500 
 23 C        3.3210     4.5860     0.8740 C.ar  1 <1>  -0.1500 
 24 C       -4.8780    -4.1720     2.0130 C.3   1 <1>  -0.2000 
 25 C       -3.6330    -3.4200     1.6400 C.3   1 <1>  -0.2000 
 26 C        3.3290     5.9750     1.0540 C.ar  1 <1>  -0.1500 
 27 H       -2.7240     3.3030    -0.6060 H     1 <1>   0.0800 
 28 H       -2.8630     3.0220     1.1110 H     1 <1>   0.0800 
 29 H       -5.1330     2.1800    -0.8020 H     1 <1>   0.0800 
 30 H       -5.2640     1.2360    -2.2500 H     1 <1>   0.0800 
 31 H       -3.2020    -0.2990    -2.9090 H     1 <1>   0.0800 
 32 H       -2.1330    -0.6680    -1.5960 H     1 <1>   0.0800 
 33 H       -0.3970     2.4350    -0.5430 H     1 <1>   0.0800 
 34 H       -0.5370     2.2140     1.1790 H     1 <1>   0.0800 
 35 H       -6.0020     0.5690     0.5150 H     1 <1>   0.0800 
 36 H       -3.5010    -2.3930    -1.1360 H     1 <1>   0.0800 
 37 H       -4.7720    -1.7820    -2.1570 H     1 <1>   0.0800 
 38 H       -4.1370    -0.7760     0.5150 H     1 <1>   0.4500 
 39 H       -6.8450    -0.6210    -2.1440 H     1 <1>   0.0800 
 40 H       -7.6900     0.5920    -1.2110 H     1 <1>   0.0800 
 41 H       -2.2370     5.5000     0.6040 H     1 <1>   0.1500 
 42 H       -5.9410    -1.7940     1.5140 H     1 <1>   0.0800 
 43 H        2.1200     2.8440     0.5670 H     1 <1>   0.1500 
 44 H       -0.6270     7.4280     0.9680 H     1 <1>   0.2700 
 45 H       -4.7700    -4.0210    -0.1650 H     1 <1>   0.1000 
 46 H       -7.6080    -3.1020     0.3600 H     1 <1>   0.0800 
 47 H       -6.7980    -2.9060    -1.1750 H     1 <1>   0.0800 
 48 H        2.1450     7.7500     1.2000 H     1 <1>   0.1500 
 49 H        4.2550     4.0530     0.8710 H     1 <1>   0.1500 
 50 H       -5.4610    -3.8010     2.8400 H     1 <1>   0.1000 
 51 H       -4.8450    -5.2490     1.9920 H     1 <1>   0.1000 
 52 H       -2.7600    -3.9910     1.3710 H     1 <1>   0.1000 
 53 H       -3.3820    -2.5420     2.2130 H     1 <1>   0.1000 
 54 H        4.2690     6.4810     1.1850 H     1 <1>   0.1500 
@<TRIPOS>BOND
  1   1   2  2   
  2   2   3  am  
  3   2   4  1   
  4   3   5  1   
  5   3   6  1   
  6   4   7  1   
  7   4  27  1   
  8   4  28  1   
  9   5   8  1   
 10   5  29  1   
 11   5  30  1   
 12   6   9  1   
 13   6  31  1   
 14   6  32  1   
 15   7  10  1   
 16   7  33  1   
 17   7  34  1   
 18   8  11  1   
 19   8  12  1   
 20   8  35  1   
 21   9  11  1   
 22   9  36  1   
 23   9  37  1   
 24  10  13  1   
 25  10  14  2   
 26  11  15  1   
 27  11  38  1   
 28  12  16  1   
 29  12  39  1   
 30  12  40  1   
 31  13  17  ar  
 32  13  18  ar  
 33  14  19  1   
 34  14  41  1   
 35  15  20  1   
 36  15  21  1   
 37  15  42  1   
 38  16  21  1   
 39  17  19  1   
 40  17  22  ar  
 41  18  23  ar  
 42  18  43  1   
 43  19  44  1   
 44  20  24  1   
 45  20  25  1   
 46  20  45  1   
 47  21  46  1   
 48  21  47  1   
 49  22  26  ar  
 50  22  48  1   
 51  23  26  ar  
 52  23  49  1   
 53  24  25  1   
 54  24  50  1   
 55  24  51  1   
 56  25  52  1   
 57  25  53  1   
 58  26  54  1   
@<TRIPOS>SUBSTRUCTURE
  1 ****   2 GROUP 4 **** **** 0

# MOE 2024.06 (io_trps.svl 2023.06)
