@<TRIPOS>MOLECULE
NONAME
45 48 1 0 0 
SMALL
USER_CHARGES


@<TRIPOS>ATOM
  1 O       -0.7340    -0.1310    -1.4370 O.2   1 <1>  -0.5700 
  2 C       -1.6980     0.5950    -1.1810 C.2   1 <1>   0.5440 
  3 N       -2.9600     0.0510    -1.4430 N.am  1 <1>  -0.6600 
  4 C       -1.4820     1.9590    -0.7280 C.ar  1 <1>   0.3960 
  5 C       -4.2210     0.7010    -0.9740 C.3   1 <1>   0.1400 
  6 C       -3.1560    -1.3850    -1.8020 C.3   1 <1>   0.1400 
  7 N       -0.8380     2.8100    -1.5660 N.ar  1 <1>  -0.6200 
  8 C       -1.9410     2.4070     0.5540 C.ar  1 <1>  -0.1710 
  9 C       -4.8510    -0.1140     0.1720 C.3   1 <1>   0.1900 
 10 C       -3.8560    -2.1440    -0.6610 C.3   1 <1>   0.1100 
 11 C       -0.6310     4.0360    -1.1520 C.ar  1 <1>   0.1600 
 12 O       -2.5770     1.6890     1.3660 O.3   1 <1>  -0.8290 
 13 C       -1.6940     3.7240     0.9470 C.ar  1 <1>  -0.1500 
 14 N       -5.1390    -1.5050    -0.2860 N.3   1 <1>  -0.8100 
 15 C       -6.1220     0.5920     0.6880 C.3   1 <1>   0.1200 
 16 C       -1.0320     4.5410     0.0820 C.ar  1 <1>  -0.1500 
 17 C       -5.8200    -2.2350     0.8010 C.3   1 <1>   0.3330 
 18 O       -6.8010    -0.1760     1.6500 O.3   1 <1>  -0.5600 
 19 C       -6.2010    -3.6510     0.3650 C.ar  1 <1>  -0.1430 
 20 C       -7.0930    -1.4790     1.2280 C.3   1 <1>   0.1200 
 21 C       -6.8120    -3.8800    -0.8600 C.ar  1 <1>  -0.1500 
 22 C       -5.9440    -4.7290     1.2010 C.ar  1 <1>  -0.1500 
 23 C       -7.1640    -5.1620    -1.2440 C.ar  1 <1>  -0.1500 
 24 C       -6.2960    -6.0130     0.8190 C.ar  1 <1>  -0.1500 
 25 C       -6.9070    -6.2300    -0.4030 C.ar  1 <1>  -0.1500 
 26 H       -4.0390     1.7050    -0.6430 H     1 <1>   0.0800 
 27 H       -4.9120     0.7510    -1.7950 H     1 <1>   0.0800 
 28 H       -3.7600    -1.4430    -2.6880 H     1 <1>   0.0800 
 29 H       -2.2140    -1.8570    -2.0150 H     1 <1>   0.0800 
 30 H       -4.1440    -0.1390     0.9840 H     1 <1>   0.0800 
 31 H       -3.1960    -2.1710     0.1890 H     1 <1>   0.0800 
 32 H       -4.0300    -3.1550    -0.9840 H     1 <1>   0.0800 
 33 H       -0.1120     4.6980    -1.8210 H     1 <1>   0.1500 
 34 H       -2.0360     4.0370     1.9150 H     1 <1>   0.1500 
 35 H       -6.7960     0.7880    -0.1260 H     1 <1>   0.0800 
 36 H       -5.8470     1.5250     1.1480 H     1 <1>   0.0800 
 37 H       -0.8170     5.5590     0.3390 H     1 <1>   0.1500 
 38 H       -5.1620    -2.2910     1.6520 H     1 <1>   0.0800 
 39 H       -7.5630    -1.9890     2.0490 H     1 <1>   0.0800 
 40 H       -7.7870    -1.4260     0.4090 H     1 <1>   0.0800 
 41 H       -7.0060    -3.0490    -1.5180 H     1 <1>   0.1500 
 42 H       -5.4690    -4.5720     2.1530 H     1 <1>   0.1500 
 43 H       -7.6370    -5.3270    -2.1960 H     1 <1>   0.1500 
 44 H       -6.0940    -6.8430     1.4740 H     1 <1>   0.1500 
 45 H       -7.1800    -7.2280    -0.7000 H     1 <1>   0.1500 
@<TRIPOS>BOND
  1   1   2  2   
  2   2   3  am  
  3   2   4  1   
  4   3   5  1   
  5   3   6  1   
  6   4   7  ar  
  7   4   8  ar  
  8   5   9  1   
  9   5  26  1   
 10   5  27  1   
 11   6  10  1   
 12   6  28  1   
 13   6  29  1   
 14   7  11  ar  
 15   8  12  1   
 16   8  13  ar  
 17   9  14  1   
 18   9  15  1   
 19   9  30  1   
 20  10  14  1   
 21  10  31  1   
 22  10  32  1   
 23  11  16  ar  
 24  11  33  1   
 25  13  16  ar  
 26  13  34  1   
 27  14  17  1   
 28  15  18  1   
 29  15  35  1   
 30  15  36  1   
 31  16  37  1   
 32  17  19  1   
 33  17  20  1   
 34  17  38  1   
 35  18  20  1   
 36  19  21  ar  
 37  19  22  ar  
 38  20  39  1   
 39  20  40  1   
 40  21  23  ar  
 41  21  41  1   
 42  22  24  ar  
 43  22  42  1   
 44  23  25  ar  
 45  23  43  1   
 46  24  25  ar  
 47  24  44  1   
 48  25  45  1   
@<TRIPOS>SUBSTRUCTURE
  1 ****   9 GROUP 4 **** **** 0

# MOE 2024.06 (io_trps.svl 2023.06)
