@<TRIPOS>MOLECULE
NONAME
49 51 1 0 0 
SMALL
USER_CHARGES


@<TRIPOS>ATOM
  1 O        2.9340    -4.6210    -1.8280 O.2   1 <1>  -0.5700 
  2 C        2.8490    -4.3880    -0.6380 C.2   1 <1>   0.5440 
  3 N        3.8390    -3.6870    -0.0100 N.am  1 <1>  -0.7300 
  4 C        1.7060    -4.8820     0.0960 C.ar  1 <1>   0.0860 
  5 C        5.0580    -3.1450    -0.6640 C.3   1 <1>   0.0600 
  6 C        1.8550    -5.6260     1.2650 C.ar  1 <1>  -0.1500 
  7 C        0.4150    -4.6760    -0.3820 C.ar  1 <1>  -0.1500 
  8 C        0.7630    -6.1910     1.8980 C.ar  1 <1>  -0.1500 
  9 C       -0.6820    -5.2320     0.2470 C.ar  1 <1>  -0.1500 
 10 C       -0.5110    -6.0150     1.3780 C.ar  1 <1>  -0.1430 
 11 C       -1.6930    -6.7340     1.9870 C.3   1 <1>   0.4860 
 12 N       -1.8320    -7.9560     1.1750 N.4   1 <1>  -0.9590 
 13 C       -3.0350    -8.0710     0.3100 C.3   1 <1>   0.3430 
 14 C       -1.6110    -9.2640     1.8220 C.3   1 <1>   0.3430 
 15 C       -3.1710    -9.5680    -0.0010 C.3   1 <1>   0.2000 
 16 C       -2.0430   -10.2800     0.7620 C.3   1 <1>  -0.0800 
 17 O       -4.3960   -10.0260     0.4670 O.3   1 <1>  -0.6800 
 18 C       -0.8800   -10.7130    -0.1640 C.3   1 <1>   0.0210 
 19 C        0.0740    -9.6140    -0.6220 C.2   1 <1>   0.1080 
 20 N       -0.2950    -8.4810    -1.1420 N.2   1 <1>  -0.7070 
 21 C        1.4580    -9.7220    -0.5420 C.2   1 <1>  -0.1500 
 22 N        0.8660    -7.8430    -1.4370 N.pl3 1 <1>   0.3000 
 23 C        1.9340    -8.5760    -1.0690 C.2   1 <1>  -0.3320 
 24 C        3.3710    -8.1260    -1.2700 C.3   1 <1>  -0.0600 
 25 H        3.7130    -3.4270     0.9710 H     1 <1>   0.3700 
 26 H        5.1110    -3.4690    -1.6910 H     1 <1>   0.0800 
 27 H        5.9350    -3.4930    -0.1470 H     1 <1>   0.0800 
 28 H        5.0360    -2.0700    -0.6420 H     1 <1>   0.0800 
 29 H        2.8420    -5.7850     1.6640 H     1 <1>   0.1500 
 30 H        0.2830    -4.0810    -1.2720 H     1 <1>   0.1500 
 31 H        0.9210    -6.7810     2.7850 H     1 <1>   0.1500 
 32 H       -1.6620    -5.0630    -0.1660 H     1 <1>   0.1500 
 33 H       -2.5790    -6.1240     1.9230 H     1 <1>   0.0800 
 34 H       -1.4970    -6.9760     3.0190 H     1 <1>   0.0800 
 35 H       -1.0570    -7.8950     0.4720 H     1 <1>   0.4500 
 36 H       -3.9170    -7.7200     0.8200 H     1 <1>   0.0800 
 37 H       -2.8890    -7.5130    -0.6010 H     1 <1>   0.0800 
 38 H       -0.5770    -9.3970     2.1000 H     1 <1>   0.0800 
 39 H       -2.2380    -9.3520     2.6940 H     1 <1>   0.0800 
 40 H       -3.1380    -9.7470    -1.0630 H     1 <1>   0.0800 
 41 H       -2.4160   -11.1700     1.2380 H     1 <1>   0.0800 
 42 H       -4.4470   -10.0670     1.4420 H     1 <1>   0.4000 
 43 H       -1.2780   -11.1990    -1.0380 H     1 <1>   0.0800 
 44 H       -0.2960   -11.4520     0.3560 H     1 <1>   0.0800 
 45 H        2.0170   -10.5570    -0.1540 H     1 <1>   0.1500 
 46 H        0.9120    -6.9170    -1.8880 H     1 <1>   0.2700 
 47 H        4.0510    -8.9040    -0.9740 H     1 <1>   0.0800 
 48 H        3.5780    -7.2490    -0.6850 H     1 <1>   0.0800 
 49 H        3.5470    -7.8960    -2.3070 H     1 <1>   0.0800 
@<TRIPOS>BOND
  1   1   2  2   
  2   2   3  am  
  3   2   4  1   
  4   3   5  1   
  5   3  25  1   
  6   4   6  ar  
  7   4   7  ar  
  8   5  26  1   
  9   5  27  1   
 10   5  28  1   
 11   6   8  ar  
 12   6  29  1   
 13   7   9  ar  
 14   7  30  1   
 15   8  10  ar  
 16   8  31  1   
 17   9  10  ar  
 18   9  32  1   
 19  10  11  1   
 20  11  12  1   
 21  11  33  1   
 22  11  34  1   
 23  12  13  1   
 24  12  14  1   
 25  12  35  1   
 26  13  15  1   
 27  13  36  1   
 28  13  37  1   
 29  14  16  1   
 30  14  38  1   
 31  14  39  1   
 32  15  16  1   
 33  15  17  1   
 34  15  40  1   
 35  16  18  1   
 36  16  41  1   
 37  17  42  1   
 38  18  19  1   
 39  18  43  1   
 40  18  44  1   
 41  19  20  2   
 42  19  21  1   
 43  20  22  1   
 44  21  23  2   
 45  21  45  1   
 46  22  23  1   
 47  22  46  1   
 48  23  24  1   
 49  24  47  1   
 50  24  48  1   
 51  24  49  1   
@<TRIPOS>SUBSTRUCTURE
  1 ****  22 GROUP 4 **** **** 0

# MOE 2024.06 (io_trps.svl 2023.06)
