@<TRIPOS>MOLECULE
NONAME
57 61 1 0 0 
SMALL
USER_CHARGES


@<TRIPOS>ATOM
  1 O        0.3560     1.0200    -0.5310 O.2   1 <1>  -0.5700 
  2 C       -0.4460     1.7920    -0.0620 C.2   1 <1>   0.5690 
  3 N       -1.7980     1.6160    -0.2240 N.am  1 <1>  -0.6600 
  4 C        0.0780     2.9980     0.7050 C.3   1 <1>  -0.0990 
  5 C       -2.8620     2.5420     0.2840 C.3   1 <1>   0.1400 
  6 C       -2.3410     0.4380    -0.9610 C.3   1 <1>   0.1400 
  7 C        1.5980     2.9930     0.9180 C.3   1 <1>   0.0200 
  8 C       -3.7380     3.0640    -0.8710 C.3   1 <1>   0.1440 
  9 C       -3.2190     0.9090    -2.1280 C.3   1 <1>  -0.1600 
 10 C        2.0240     4.2840     1.6000 C.2   1 <1>  -0.3320 
 11 C       -4.8130     3.9590    -0.2850 C.ar  1 <1>   0.1670 
 12 C       -4.3240     1.8720    -1.6600 C.3   1 <1>  -0.1600 
 13 C       -2.9570     4.0420    -1.7910 C.3   1 <1>  -0.1600 
 14 N        2.2970     5.4470     0.9650 N.pl3 1 <1>   0.3140 
 15 C        2.2030     4.5110     2.9190 C.2   1 <1>  -0.1500 
 16 N       -5.8530     3.5490     0.4000 N.ar  1 <1>  -0.6200 
 17 C       -4.5630     5.2730    -0.5330 C.ar  1 <1>  -0.1440 
 18 C       -3.2910     5.4680    -1.3190 C.3   1 <1>  -0.0170 
 19 N        2.6300     6.4130     1.8360 N.2   1 <1>  -0.7070 
 20 C        2.2880     5.7050    -0.4810 C.3   1 <1>   0.0160 
 21 C        2.5760     5.8460     3.0010 C.2   1 <1>   0.1390 
 22 C       -6.6840     4.5070     0.8340 C.ar  1 <1>   0.6200 
 23 C       -5.4560     6.1940    -0.0510 C.ar  1 <1>   0.1600 
 24 N       -6.5150     5.8220     0.6300 N.ar  1 <1>  -0.6200 
 25 C       -7.8580     4.0860     1.5890 C.ar  1 <1>   0.0000 
 26 C       -7.8740     2.8940     2.3200 C.ar  1 <1>  -0.1500 
 27 C       -9.0260     4.8550     1.6180 C.ar  1 <1>  -0.1500 
 28 C       -8.9870     2.4920     3.0360 C.ar  1 <1>  -0.1500 
 29 C      -10.1420     4.4600     2.3330 C.ar  1 <1>  -0.1500 
 30 C      -10.1260     3.2760     3.0450 C.ar  1 <1>  -0.1500 
 31 H       -0.3920     3.0240     1.6700 H     1 <1>   0.0800 
 32 H       -0.1990     3.8840     0.1670 H     1 <1>   0.0800 
 33 H       -2.4420     3.3770     0.8130 H     1 <1>   0.0800 
 34 H       -3.4840     2.0010     0.9770 H     1 <1>   0.0800 
 35 H       -2.9270    -0.1580    -0.2820 H     1 <1>   0.0800 
 36 H       -1.5440    -0.1800    -1.3380 H     1 <1>   0.0800 
 37 H        2.1130     2.8830    -0.0200 H     1 <1>   0.0800 
 38 H        1.8650     2.1540     1.5370 H     1 <1>   0.0800 
 39 H       -3.6670     0.0510    -2.5980 H     1 <1>   0.0800 
 40 H       -2.5930     1.3870    -2.8610 H     1 <1>   0.0800 
 41 H       -4.8910     2.2260    -2.5030 H     1 <1>   0.0800 
 42 H       -5.0030     1.3330    -1.0220 H     1 <1>   0.0800 
 43 H       -3.3100     3.9380    -2.8020 H     1 <1>   0.0800 
 44 H       -1.8970     3.8570    -1.7890 H     1 <1>   0.0800 
 45 H        2.0880     3.8350     3.7460 H     1 <1>   0.1500 
 46 H       -3.4340     6.1360    -2.1500 H     1 <1>   0.0800 
 47 H       -2.5190     5.8470    -0.6710 H     1 <1>   0.0800 
 48 H        1.3150     5.4870    -0.8760 H     1 <1>   0.0800 
 49 H        3.0260     5.0840    -0.9530 H     1 <1>   0.0800 
 50 H        2.5250     6.7380    -0.6550 H     1 <1>   0.0800 
 51 H        2.7980     6.3620     3.9210 H     1 <1>   0.1500 
 52 H       -5.3010     7.2460    -0.2220 H     1 <1>   0.1500 
 53 H       -6.9980     2.2690     2.3270 H     1 <1>   0.1500 
 54 H       -9.0600     5.7810     1.0700 H     1 <1>   0.1500 
 55 H       -8.9670     1.5680     3.5880 H     1 <1>   0.1500 
 56 H      -11.0250     5.0760     2.3350 H     1 <1>   0.1500 
 57 H      -10.9930     2.9660     3.6020 H     1 <1>   0.1500 
@<TRIPOS>BOND
  1   1   2  2   
  2   2   3  am  
  3   2   4  1   
  4   3   5  1   
  5   3   6  1   
  6   4   7  1   
  7   4  31  1   
  8   4  32  1   
  9   5   8  1   
 10   5  33  1   
 11   5  34  1   
 12   6   9  1   
 13   6  35  1   
 14   6  36  1   
 15   7  10  1   
 16   7  37  1   
 17   7  38  1   
 18   8  11  1   
 19   8  12  1   
 20   8  13  1   
 21   9  12  1   
 22   9  39  1   
 23   9  40  1   
 24  10  14  1   
 25  10  15  2   
 26  11  16  ar  
 27  11  17  ar  
 28  12  41  1   
 29  12  42  1   
 30  13  18  1   
 31  13  43  1   
 32  13  44  1   
 33  14  19  1   
 34  14  20  1   
 35  15  21  1   
 36  15  45  1   
 37  16  22  ar  
 38  17  18  1   
 39  17  23  ar  
 40  18  46  1   
 41  18  47  1   
 42  19  21  2   
 43  20  48  1   
 44  20  49  1   
 45  20  50  1   
 46  21  51  1   
 47  22  24  ar  
 48  22  25  1   
 49  23  24  ar  
 50  23  52  1   
 51  25  26  ar  
 52  25  27  ar  
 53  26  28  ar  
 54  26  53  1   
 55  27  29  ar  
 56  27  54  1   
 57  28  30  ar  
 58  28  55  1   
 59  29  30  ar  
 60  29  56  1   
 61  30  57  1   
@<TRIPOS>SUBSTRUCTURE
  1 ****   5 GROUP 4 **** **** 0

# MOE 2024.06 (io_trps.svl 2023.06)
