@<TRIPOS>MOLECULE
NONAME
51 54 1 0 0 
SMALL
USER_CHARGES


@<TRIPOS>ATOM
  1 S        0.1040     0.2310    -2.6950 S.3   1 <1>  -0.0800 
  2 C        0.9550    -0.1630    -1.2040 C.2   1 <1>   0.3250 
  3 C       -0.2010    -1.4450    -2.9770 C.2   1 <1>  -0.1100 
  4 N        0.9760    -1.4410    -1.0000 N.2   1 <1>  -0.5650 
  5 C        1.5070     0.9250    -0.4050 C.ar  1 <1>   0.6730 
  6 C        0.3240    -2.1930    -1.9830 C.2   1 <1>   0.1410 
  7 N        2.1170     0.6080     0.7490 N.ar  1 <1>  -0.6200 
  8 N        1.3740     2.1810    -0.8600 N.ar  1 <1>  -0.6200 
  9 C        0.2320    -3.6550    -1.9360 C.2   1 <1>   0.7160 
 10 C        2.6110     1.5920     1.4610 C.ar  1 <1>   0.1600 
 11 C        1.8760     3.1450    -0.1280 C.ar  1 <1>   0.1600 
 12 O       -0.1980    -4.2410    -2.9190 O.2   1 <1>  -0.5700 
 13 N        0.5730    -4.4320    -0.8380 N.am  1 <1>  -0.6600 
 14 C        2.5160     2.9000     1.0600 C.ar  1 <1>  -0.1500 
 15 C        0.6760    -5.9150    -0.9390 C.3   1 <1>   0.1400 
 16 C        0.6990    -3.9030     0.5560 C.3   1 <1>   0.1400 
 17 C       -0.5200    -6.5820    -0.2170 C.3   1 <1>   0.0000 
 18 C        0.4610    -5.0000     1.6070 C.3   1 <1>  -0.1600 
 19 C       -0.7060    -5.9010     1.1840 C.3   1 <1>   0.2000 
 20 C       -1.8240    -6.2990    -1.0090 C.3   1 <1>   0.1200 
 21 C       -0.3180    -8.1310    -0.1930 C.3   1 <1>  -0.0160 
 22 O       -0.9110    -6.8150     2.1920 O.3   1 <1>  -0.6800 
 23 O       -1.6850    -6.6000    -2.3560 O.3   1 <1>  -0.6800 
 24 C        0.8780    -8.6750     0.5940 C.ar  1 <1>  -0.1430 
 25 C        2.1600    -8.6350     0.0630 C.ar  1 <1>  -0.1500 
 26 C        0.6910    -9.2600     1.8400 C.ar  1 <1>  -0.1500 
 27 C        3.2380    -9.1220     0.7820 C.ar  1 <1>  -0.1500 
 28 C        1.7670    -9.7480     2.5610 C.ar  1 <1>  -0.1500 
 29 C        3.0430    -9.6740     2.0350 C.ar  1 <1>  -0.1500 
 30 H       -0.7450    -1.7250    -3.8620 H     1 <1>   0.1500 
 31 H        3.1050     1.3470     2.3870 H     1 <1>   0.1500 
 32 H        1.7750     4.1570    -0.4860 H     1 <1>   0.1500 
 33 H        2.9240     3.6980     1.6510 H     1 <1>   0.1500 
 34 H        0.7390    -6.2340    -1.9650 H     1 <1>   0.0800 
 35 H        1.6000    -6.2010    -0.4740 H     1 <1>   0.0800 
 36 H        1.6770    -3.4720     0.6910 H     1 <1>   0.0800 
 37 H       -0.0320    -3.1250     0.7000 H     1 <1>   0.0800 
 38 H        0.2390    -4.5330     2.5500 H     1 <1>   0.0800 
 39 H        1.3570    -5.5820     1.7260 H     1 <1>   0.0800 
 40 H       -1.5880    -5.2820     1.1690 H     1 <1>   0.0800 
 41 H       -2.0980    -5.2590    -0.9460 H     1 <1>   0.0800 
 42 H       -2.6370    -6.8880    -0.6200 H     1 <1>   0.0800 
 43 H       -1.2130    -8.5880     0.1930 H     1 <1>   0.0800 
 44 H       -0.2260    -8.4830    -1.2060 H     1 <1>   0.0800 
 45 H       -0.1380    -7.4190     2.2270 H     1 <1>   0.4000 
 46 H       -1.1800    -5.8720    -2.7990 H     1 <1>   0.4000 
 47 H        2.3310    -8.2330    -0.9190 H     1 <1>   0.1500 
 48 H       -0.2980    -9.3530     2.2580 H     1 <1>   0.1500 
 49 H        4.2280    -9.0760     0.3630 H     1 <1>   0.1500 
 50 H        1.6090   -10.1910     3.5290 H     1 <1>   0.1500 
 51 H        3.8810   -10.0520     2.5950 H     1 <1>   0.1500 
@<TRIPOS>BOND
  1   1   2  1   
  2   1   3  1   
  3   2   4  2   
  4   2   5  1   
  5   3   6  2   
  6   3  30  1   
  7   4   6  1   
  8   5   7  ar  
  9   5   8  ar  
 10   6   9  1   
 11   7  10  ar  
 12   8  11  ar  
 13   9  12  2   
 14   9  13  am  
 15  10  14  ar  
 16  10  31  1   
 17  11  14  ar  
 18  11  32  1   
 19  13  15  1   
 20  13  16  1   
 21  14  33  1   
 22  15  17  1   
 23  15  34  1   
 24  15  35  1   
 25  16  18  1   
 26  16  36  1   
 27  16  37  1   
 28  17  19  1   
 29  17  20  1   
 30  17  21  1   
 31  18  19  1   
 32  18  38  1   
 33  18  39  1   
 34  19  22  1   
 35  19  40  1   
 36  20  23  1   
 37  20  41  1   
 38  20  42  1   
 39  21  24  1   
 40  21  43  1   
 41  21  44  1   
 42  22  45  1   
 43  23  46  1   
 44  24  25  ar  
 45  24  26  ar  
 46  25  27  ar  
 47  25  47  1   
 48  26  28  ar  
 49  26  48  1   
 50  27  29  ar  
 51  27  49  1   
 52  28  29  ar  
 53  28  50  1   
 54  29  51  1   
@<TRIPOS>SUBSTRUCTURE
  1 ****  16 GROUP 4 **** **** 0

# MOE 2024.06 (io_trps.svl 2023.06)
