@<TRIPOS>MOLECULE
NONAME
37 40 1 0 0 
SMALL
USER_CHARGES


@<TRIPOS>ATOM
  1 O        0.4150    -0.0720     0.2450 O.3   1 <1>  -0.6800 
  2 C        1.6090    -0.1940    -0.4550 C.3   1 <1>   0.2000 
  3 C        2.4050    -1.3950     0.0500 C.3   1 <1>  -0.0800 
  4 C        2.5310     1.0020    -0.2200 C.3   1 <1>   0.2090 
  5 C        3.8530    -1.0480    -0.3070 C.3   1 <1>   0.2090 
  6 C        1.9280    -2.7380    -0.5250 C.3   1 <1>  -0.0170 
  7 N        3.9030     0.4360    -0.2980 N.pl3 1 <1>  -0.8380 
  8 C        2.7970    -3.8880    -0.0440 C.ar  1 <1>   0.1660 
  9 C        5.0570     1.1670    -0.0470 C.ar  1 <1>   0.4100 
 10 N        3.7830    -4.2580    -0.8450 N.ar  1 <1>  -0.6200 
 11 C        2.5380    -4.4900     1.1860 C.ar  1 <1>   0.1600 
 12 N        6.1890     0.4870    -0.0190 N.ar  1 <1>  -0.6200 
 13 C        5.0670     2.5660     0.1650 C.ar  1 <1>   0.2270 
 14 C        4.4860    -5.2580    -0.3400 C.ar  1 <1>   0.1600 
 15 N        3.2380    -5.4910     1.6920 N.ar  1 <1>  -0.6200 
 16 C        7.3090     1.1790     0.2180 C.ar  1 <1>   0.4700 
 17 N        4.0980     3.5470     0.1980 N.2   1 <1>  -0.5650 
 18 C        6.2940     3.1330     0.3970 C.ar  1 <1>   0.1050 
 19 C        4.2210    -5.8550     0.8870 C.ar  1 <1>   0.1600 
 20 N        7.4490     2.4660     0.4320 N.ar  1 <1>  -0.5670 
 21 C        4.7500     4.6310     0.4400 C.2   1 <1>   0.0360 
 22 N        6.0880     4.4500     0.5720 N.pl3 1 <1>   0.0330 
 23 H       -0.2080    -0.7770    -0.0090 H     1 <1>   0.4000 
 24 H        1.3930    -0.2740    -1.5070 H     1 <1>   0.0800 
 25 H        2.3470    -1.4200     1.1250 H     1 <1>   0.0800 
 26 H        2.3710     1.4170     0.7600 H     1 <1>   0.0800 
 27 H        2.3890     1.7560    -0.9740 H     1 <1>   0.0800 
 28 H        4.1050    -1.3990    -1.2930 H     1 <1>   0.0800 
 29 H        4.5410    -1.4700     0.4070 H     1 <1>   0.0800 
 30 H        1.9510    -2.7050    -1.6010 H     1 <1>   0.0800 
 31 H        0.9110    -2.9160    -0.2260 H     1 <1>   0.0800 
 32 H        1.7170    -4.1250     1.7780 H     1 <1>   0.1500 
 33 H        5.3110    -5.6240    -0.9240 H     1 <1>   0.1500 
 34 H        8.2110     0.5910     0.2330 H     1 <1>   0.1500 
 35 H        4.8490    -6.6650     1.2140 H     1 <1>   0.1500 
 36 H        4.2980     5.6050     0.5340 H     1 <1>   0.1500 
 37 H        6.8140     5.1420     0.7640 H     1 <1>   0.2700 
@<TRIPOS>BOND
  1   1   2  1   
  2   1  23  1   
  3   2   3  1   
  4   2   4  1   
  5   2  24  1   
  6   3   5  1   
  7   3   6  1   
  8   3  25  1   
  9   4   7  1   
 10   4  26  1   
 11   4  27  1   
 12   5   7  1   
 13   5  28  1   
 14   5  29  1   
 15   6   8  1   
 16   6  30  1   
 17   6  31  1   
 18   7   9  1   
 19   8  10  ar  
 20   8  11  ar  
 21   9  12  ar  
 22   9  13  ar  
 23  10  14  ar  
 24  11  15  ar  
 25  11  32  1   
 26  12  16  ar  
 27  13  17  1   
 28  13  18  ar  
 29  14  19  ar  
 30  14  33  1   
 31  15  19  ar  
 32  16  20  ar  
 33  16  34  1   
 34  17  21  2   
 35  18  20  ar  
 36  18  22  1   
 37  19  35  1   
 38  21  22  1   
 39  21  36  1   
 40  22  37  1   
@<TRIPOS>SUBSTRUCTURE
  1 ****   5 GROUP 4 **** **** 0

# MOE 2024.06 (io_trps.svl 2023.06)
