@<TRIPOS>MOLECULE
NONAME
47 50 1 0 0 
SMALL
USER_CHARGES


@<TRIPOS>ATOM
  1 S       -0.7530     0.1610     0.7920 S.o2  1 <1>   1.5010 
  2 O       -1.2000     1.2460     1.6310 O.2   1 <1>  -0.6500 
  3 O       -0.9620    -1.1930     1.2640 O.2   1 <1>  -0.6500 
  4 N       -1.6940     0.2670    -0.6240 N.am  1 <1>  -0.8490 
  5 C        0.9230     0.4270     0.2120 C.2   1 <1>  -0.0630 
  6 C       -3.0790     0.7350    -0.3880 C.3   1 <1>   0.1960 
  7 C       -1.6900    -0.9570    -1.4650 C.3   1 <1>   0.1960 
  8 C        2.0360    -0.3250     0.2740 C.2   1 <1>  -0.0400 
  9 C        1.3750     1.5460    -0.4580 C.2   1 <1>   0.1080 
 10 C       -3.9830    -0.3110     0.3330 C.3   1 <1>   0.4230 
 11 C       -2.8170    -1.9760    -1.1270 C.3   1 <1>   0.3430 
 12 O        3.0550     0.2600    -0.3160 O.3   1 <1>  -0.0190 
 13 C        2.2960    -1.6860     0.8940 C.3   1 <1>  -0.0600 
 14 N        2.6120     1.4140    -0.7570 N.2   1 <1>  -0.4100 
 15 C        0.5690     2.7820    -0.8080 C.3   1 <1>  -0.0590 
 16 N       -3.4310    -1.7210     0.2230 N.4   1 <1>  -0.9590 
 17 C       -5.4250    -0.2190    -0.2190 C.3   1 <1>   0.1200 
 18 C       -4.4090    -2.7460     0.7140 C.3   1 <1>   0.5180 
 19 O       -6.2400    -1.2130     0.3280 O.3   1 <1>  -0.5600 
 20 C       -3.8280    -4.1580     0.4990 C.3   1 <1>  -0.1950 
 21 C       -5.8080    -2.5240     0.0940 C.3   1 <1>   0.1200 
 22 C       -3.9850    -4.9680    -0.7560 C.3   1 <1>  -0.2000 
 23 C       -4.6710    -5.3980     0.5100 C.3   1 <1>  -0.2000 
 24 H       -3.0790     1.6550     0.1730 H     1 <1>   0.0800 
 25 H       -3.5120     0.9750    -1.3440 H     1 <1>   0.0800 
 26 H       -1.8000    -0.6670    -2.4970 H     1 <1>   0.0800 
 27 H       -0.7330    -1.4470    -1.3910 H     1 <1>   0.0800 
 28 H       -4.0230    -0.0410     1.3760 H     1 <1>   0.0800 
 29 H       -2.3990    -2.9690    -1.1660 H     1 <1>   0.0800 
 30 H       -3.5800    -1.9190    -1.8850 H     1 <1>   0.0800 
 31 H        1.4250    -2.0720     1.3880 H     1 <1>   0.0800 
 32 H        3.0880    -1.6040     1.6170 H     1 <1>   0.0800 
 33 H        2.6020    -2.3810     0.1320 H     1 <1>   0.0800 
 34 H        0.1040     3.1830     0.0740 H     1 <1>   0.0800 
 35 H       -0.1850     2.5400    -1.5330 H     1 <1>   0.0800 
 36 H        1.2160     3.5340    -1.2240 H     1 <1>   0.0800 
 37 H       -2.6270    -1.7590     0.8800 H     1 <1>   0.4500 
 38 H       -5.4430    -0.3200    -1.2900 H     1 <1>   0.0800 
 39 H       -5.8600     0.7320     0.0400 H     1 <1>   0.0800 
 40 H       -4.5270    -2.6150     1.7770 H     1 <1>   0.0800 
 41 H       -2.8970    -4.2600     1.0320 H     1 <1>   0.1000 
 42 H       -6.5240    -3.1820     0.5550 H     1 <1>   0.0800 
 43 H       -5.8060    -2.7070    -0.9650 H     1 <1>   0.0800 
 44 H       -4.6180    -4.6460    -1.5660 H     1 <1>   0.1000 
 45 H       -3.1620    -5.5700    -1.1040 H     1 <1>   0.1000 
 46 H       -4.2980    -6.2730     1.0170 H     1 <1>   0.1000 
 47 H       -5.7460    -5.3500     0.5390 H     1 <1>   0.1000 
@<TRIPOS>BOND
  1   1   2  2   
  2   1   3  2   
  3   1   4  am  
  4   1   5  1   
  5   4   6  1   
  6   4   7  1   
  7   5   8  2   
  8   5   9  1   
  9   6  10  1   
 10   6  24  1   
 11   6  25  1   
 12   7  11  1   
 13   7  26  1   
 14   7  27  1   
 15   8  12  1   
 16   8  13  1   
 17   9  14  2   
 18   9  15  1   
 19  10  16  1   
 20  10  17  1   
 21  10  28  1   
 22  11  16  1   
 23  11  29  1   
 24  11  30  1   
 25  12  14  1   
 26  13  31  1   
 27  13  32  1   
 28  13  33  1   
 29  15  34  1   
 30  15  35  1   
 31  15  36  1   
 32  16  18  1   
 33  16  37  1   
 34  17  19  1   
 35  17  38  1   
 36  17  39  1   
 37  18  20  1   
 38  18  21  1   
 39  18  40  1   
 40  19  21  1   
 41  20  22  1   
 42  20  23  1   
 43  20  41  1   
 44  21  42  1   
 45  21  43  1   
 46  22  23  1   
 47  22  44  1   
 48  22  45  1   
 49  23  46  1   
 50  23  47  1   
@<TRIPOS>SUBSTRUCTURE
  1 ****   4 GROUP 4 **** **** 0

# MOE 2024.06 (io_trps.svl 2023.06)
