@<TRIPOS>MOLECULE
NONAME
37 38 1 0 0 
SMALL
USER_CHARGES


@<TRIPOS>ATOM
  1 CL      -0.5780     0.2540    -2.6190 Cl    1 <1>  -0.1770 
  2 C       -1.5130    -0.3880    -1.2920 C.ar  1 <1>   0.1770 
  3 C       -2.3420     0.4510    -0.5530 C.ar  1 <1>   0.0860 
  4 C       -1.3830    -1.7360    -1.0050 C.ar  1 <1>  -0.1500 
  5 C       -3.0300    -0.1320     0.5080 C.ar  1 <1>   0.1770 
  6 C       -2.4860     1.8460    -0.8690 C.2   1 <1>   0.5440 
  7 C       -2.0880    -2.2860     0.0520 C.ar  1 <1>  -0.1500 
  8 CL      -4.0780     0.8430     1.5090 Cl    1 <1>  -0.1770 
  9 C       -2.9140    -1.4770     0.8130 C.ar  1 <1>  -0.1500 
 10 O       -3.1540     2.1960    -1.8190 O.2   1 <1>  -0.5700 
 11 N       -1.8860     2.7970    -0.1010 N.am  1 <1>  -0.7300 
 12 C       -1.9610     4.2530    -0.3610 C.3   1 <1>   0.4000 
 13 C       -0.6130     4.9270    -0.1010 C.2   1 <1>   0.2980 
 14 C       -3.0580     4.8320     0.5310 C.3   1 <1>  -0.2400 
 15 O       -0.0230     4.7190     1.0510 O.3   1 <1>  -0.0190 
 16 N        0.0180     5.6920    -0.9040 N.2   1 <1>  -0.5650 
 17 N        1.0760     5.4030     0.9710 N.2   1 <1>  -0.4100 
 18 C        1.0890     5.9650    -0.1730 C.2   1 <1>   0.3350 
 19 C        2.1790     6.8670    -0.7200 C.3   1 <1>   0.0210 
 20 C        3.3390     7.0330     0.2610 C.3   1 <1>   0.1200 
 21 O        4.2860     7.8720    -0.3190 O.3   1 <1>  -0.5600 
 22 C        5.3990     8.1030     0.4820 C.3   1 <1>   0.0400 
 23 H       -0.7330    -2.3470    -1.6070 H     1 <1>   0.1500 
 24 H       -1.9930    -3.3360     0.2810 H     1 <1>   0.1500 
 25 H       -3.4680    -1.8850     1.6400 H     1 <1>   0.1500 
 26 H       -1.3350     2.5350     0.7170 H     1 <1>   0.3700 
 27 H       -2.2230     4.4220    -1.3930 H     1 <1>   0.0800 
 28 H       -2.8290     4.6730     1.5690 H     1 <1>   0.0800 
 29 H       -4.0000     4.3690     0.2970 H     1 <1>   0.0800 
 30 H       -3.1450     5.8890     0.3560 H     1 <1>   0.0800 
 31 H        1.7520     7.8300    -0.9310 H     1 <1>   0.0800 
 32 H        2.5470     6.4420    -1.6350 H     1 <1>   0.0800 
 33 H        3.7970     6.0800     0.4650 H     1 <1>   0.0800 
 34 H        2.9950     7.4790     1.1790 H     1 <1>   0.0800 
 35 H        6.0660     8.7570    -0.0520 H     1 <1>   0.0800 
 36 H        5.8930     7.1680     0.6840 H     1 <1>   0.0800 
 37 H        5.0870     8.5730     1.3990 H     1 <1>   0.0800 
@<TRIPOS>BOND
  1   1   2  1   
  2   2   3  ar  
  3   2   4  ar  
  4   3   5  ar  
  5   3   6  1   
  6   4   7  ar  
  7   4  23  1   
  8   5   8  1   
  9   5   9  ar  
 10   6  10  2   
 11   6  11  am  
 12   7   9  ar  
 13   7  24  1   
 14   9  25  1   
 15  11  12  1   
 16  11  26  1   
 17  12  13  1   
 18  12  14  1   
 19  12  27  1   
 20  13  15  1   
 21  13  16  2   
 22  14  28  1   
 23  14  29  1   
 24  14  30  1   
 25  15  17  1   
 26  16  18  1   
 27  17  18  2   
 28  18  19  1   
 29  19  20  1   
 30  19  31  1   
 31  19  32  1   
 32  20  21  1   
 33  20  33  1   
 34  20  34  1   
 35  21  22  1   
 36  22  35  1   
 37  22  36  1   
 38  22  37  1   
@<TRIPOS>SUBSTRUCTURE
  1 ****  11 GROUP 4 **** **** 0

# MOE 2024.06 (io_trps.svl 2023.06)
