@<TRIPOS>MOLECULE
NONAME
43 45 1 0 0 
SMALL
USER_CHARGES


@<TRIPOS>ATOM
  1 O       -0.4980     0.3890     0.5060 O.2   1 <1>  -0.5700 
  2 C       -1.5200     1.0370     0.3810 C.2   1 <1>   0.5440 
  3 N       -2.7300     0.3820     0.4380 N.am  1 <1>  -0.6600 
  4 C       -1.4360     2.4600     0.1510 C.ar  1 <1>   0.0860 
  5 C       -3.9440     0.8140    -0.3080 C.3   1 <1>   0.1400 
  6 C       -2.8570    -1.0530     0.7890 C.3   1 <1>   0.1400 
  7 C       -0.4740     2.9790    -0.7130 C.ar  1 <1>   0.1600 
  8 C       -2.2820     3.3780     0.7690 C.ar  1 <1>  -0.1500 
  9 C       -4.8470    -0.4250    -0.4070 C.3   1 <1>   0.2000 
 10 C       -3.8910    -1.6020    -0.1930 C.3   1 <1>  -0.0800 
 11 N       -0.3100     4.2550    -1.0220 N.ar  1 <1>  -0.6200 
 12 C       -2.1250     4.7080     0.4660 C.ar  1 <1>  -0.1500 
 13 O       -5.7840    -0.4100     0.6330 O.3   1 <1>  -0.5600 
 14 C       -4.5660    -2.9010     0.2850 C.3   1 <1>   0.0200 
 15 C       -1.1360     5.0970    -0.4320 C.ar  1 <1>   0.4100 
 16 C       -6.9620     0.2830     0.3620 C.3   1 <1>   0.0400 
 17 C       -3.6210    -4.0910     0.3180 C.2   1 <1>  -0.0400 
 18 N       -0.9420     6.3940    -0.7580 N.pl3 1 <1>  -0.9000 
 19 O       -4.0620    -5.2290     0.7850 O.3   1 <1>  -0.0190 
 20 C       -2.3420    -4.2710    -0.0510 C.2   1 <1>  -0.1500 
 21 N       -3.1490    -6.1570     0.7520 N.2   1 <1>  -0.4100 
 22 C       -2.1010    -5.6070     0.2540 C.2   1 <1>   0.1080 
 23 C       -0.7880    -6.3230     0.0320 C.3   1 <1>  -0.0590 
 24 H       -4.4430     1.6180     0.2020 H     1 <1>   0.0800 
 25 H       -3.6530     1.1330    -1.2940 H     1 <1>   0.0800 
 26 H       -1.9160    -1.5700     0.7100 H     1 <1>   0.0800 
 27 H       -3.2200    -1.1300     1.8000 H     1 <1>   0.0800 
 28 H        0.2010     2.2800    -1.1780 H     1 <1>   0.1500 
 29 H       -3.0300     3.0450     1.4680 H     1 <1>   0.1500 
 30 H       -5.3620    -0.4930    -1.3500 H     1 <1>   0.0800 
 31 H       -3.3910    -1.7920    -1.1250 H     1 <1>   0.0800 
 32 H       -2.7530     5.4570     0.9100 H     1 <1>   0.1500 
 33 H       -5.3840    -3.1380    -0.3720 H     1 <1>   0.0800 
 34 H       -4.9730    -2.7600     1.2710 H     1 <1>   0.0800 
 35 H       -7.5850     0.2370     1.2380 H     1 <1>   0.0800 
 36 H       -7.4680    -0.1870    -0.4640 H     1 <1>   0.0800 
 37 H       -6.7350     1.3090     0.1340 H     1 <1>   0.0800 
 38 H       -0.1080     6.5590    -1.3250 H     1 <1>   0.4000 
 39 H       -1.1310     7.1200    -0.0690 H     1 <1>   0.4000 
 40 H       -1.6360    -3.5860    -0.4810 H     1 <1>   0.1500 
 41 H       -0.0100    -5.8370     0.5910 H     1 <1>   0.0800 
 42 H       -0.5380    -6.3110    -1.0120 H     1 <1>   0.0800 
 43 H       -0.8670    -7.3440     0.3600 H     1 <1>   0.0800 
@<TRIPOS>BOND
  1   1   2  2   
  2   2   3  am  
  3   2   4  1   
  4   3   5  1   
  5   3   6  1   
  6   4   7  ar  
  7   4   8  ar  
  8   5   9  1   
  9   5  24  1   
 10   5  25  1   
 11   6  10  1   
 12   6  26  1   
 13   6  27  1   
 14   7  11  ar  
 15   7  28  1   
 16   8  12  ar  
 17   8  29  1   
 18   9  10  1   
 19   9  13  1   
 20   9  30  1   
 21  10  14  1   
 22  10  31  1   
 23  11  15  ar  
 24  12  15  ar  
 25  12  32  1   
 26  13  16  1   
 27  14  17  1   
 28  14  33  1   
 29  14  34  1   
 30  15  18  1   
 31  16  35  1   
 32  16  36  1   
 33  16  37  1   
 34  17  19  1   
 35  17  20  2   
 36  18  38  1   
 37  18  39  1   
 38  19  21  1   
 39  20  22  1   
 40  20  40  1   
 41  21  22  2   
 42  22  23  1   
 43  23  41  1   
 44  23  42  1   
 45  23  43  1   
@<TRIPOS>SUBSTRUCTURE
  1 ****   3 GROUP 4 **** **** 0

# MOE 2024.06 (io_trps.svl 2023.06)
