@<TRIPOS>MOLECULE
NONAME
52 54 1 0 0 
SMALL
USER_CHARGES


@<TRIPOS>ATOM
  1 O        0.5240    -1.5410    -1.4750 O.2   1 <1>  -0.5700 
  2 C        1.0990    -2.0670    -0.5520 C.2   1 <1>   0.5690 
  3 N        0.4560    -2.8910     0.3380 N.am  1 <1>  -0.6600 
  4 C        2.5900    -1.8010    -0.4220 C.3   1 <1>  -0.0990 
  5 C        1.1020    -3.4570     1.5550 C.3   1 <1>   0.1400 
  6 C       -0.9980    -3.1640     0.2040 C.3   1 <1>   0.1400 
  7 C        3.1530    -2.1080     0.9720 C.3   1 <1>  -0.1600 
  8 C        2.6290    -3.4660     1.4440 C.3   1 <1>  -0.1600 
  9 C       -1.2020    -4.4770    -0.5550 C.3   1 <1>  -0.1600 
 10 C       -2.6960    -4.8160    -0.6940 C.3   1 <1>  -0.0990 
 11 C       -2.9320    -6.1060    -1.4540 C.2   1 <1>   0.5690 
 12 O       -3.5520    -6.0820    -2.4880 O.2   1 <1>  -0.5700 
 13 N       -2.4550    -7.2630    -0.9370 N.am  1 <1>  -0.7300 
 14 C       -2.5480    -8.5880    -1.5910 C.3   1 <1>   0.2200 
 15 C       -3.5770    -9.4740    -0.9040 C.3   1 <1>  -0.0800 
 16 C       -1.2730    -9.3650    -1.3000 C.3   1 <1>   0.1200 
 17 C       -2.7860   -10.0920     0.2560 C.3   1 <1>   0.1200 
 18 C       -4.8870    -8.7820    -0.4830 C.3   1 <1>  -0.0170 
 19 O       -1.4330    -9.8400     0.0010 O.3   1 <1>  -0.5600 
 20 C       -5.8690    -9.7870     0.0990 C.ar  1 <1>  -0.1440 
 21 C       -6.0220    -9.9620     1.4600 C.ar  1 <1>  -0.1500 
 22 C       -6.6580   -10.5790    -0.7100 C.ar  1 <1>  -0.1500 
 23 C       -6.9270   -10.8990     1.9310 C.ar  1 <1>   0.1600 
 24 C       -7.5330   -11.4870    -0.1360 C.ar  1 <1>   0.1600 
 25 N       -7.6850   -11.6670     1.1660 N.ar  1 <1>  -0.6200 
 26 H        3.0890    -2.4130    -1.1510 H     1 <1>   0.0800 
 27 H        2.7810    -0.7730    -0.6700 H     1 <1>   0.0800 
 28 H        0.8090    -2.8610     2.4030 H     1 <1>   0.0800 
 29 H        0.7540    -4.4630     1.7150 H     1 <1>   0.0800 
 30 H       -1.4470    -3.2180     1.1800 H     1 <1>   0.0800 
 31 H       -1.4720    -2.3580    -0.3330 H     1 <1>   0.0800 
 32 H        4.2290    -2.1120     0.9400 H     1 <1>   0.0800 
 33 H        2.8390    -1.3420     1.6620 H     1 <1>   0.0800 
 34 H        3.0510    -3.7060     2.4040 H     1 <1>   0.0800 
 35 H        2.9300    -4.2350     0.7530 H     1 <1>   0.0800 
 36 H       -0.7720    -4.3800    -1.5380 H     1 <1>   0.0800 
 37 H       -0.6950    -5.2720    -0.0390 H     1 <1>   0.0800 
 38 H       -3.1950    -4.0190    -1.2180 H     1 <1>   0.0800 
 39 H       -3.1470    -4.9070     0.2770 H     1 <1>   0.0800 
 40 H       -1.9440    -7.2740    -0.0520 H     1 <1>   0.3700 
 41 H       -2.7300    -8.4790    -2.6480 H     1 <1>   0.0800 
 42 H       -3.8250   -10.2720    -1.5810 H     1 <1>   0.0800 
 43 H       -0.3870    -8.7570    -1.3620 H     1 <1>   0.0800 
 44 H       -1.1830   -10.2140    -1.9550 H     1 <1>   0.0800 
 45 H       -2.9390   -11.1550     0.3200 H     1 <1>   0.0800 
 46 H       -3.0300    -9.6320     1.1980 H     1 <1>   0.0800 
 47 H       -5.3300    -8.3060    -1.3410 H     1 <1>   0.0800 
 48 H       -4.6910    -8.0140     0.2450 H     1 <1>   0.0800 
 49 H       -5.4490    -9.3810     2.1580 H     1 <1>   0.1500 
 50 H       -6.6010   -10.4990    -1.7800 H     1 <1>   0.1500 
 51 H       -7.0330   -11.0220     2.9960 H     1 <1>   0.1500 
 52 H       -8.1410   -12.0960    -0.7830 H     1 <1>   0.1500 
@<TRIPOS>BOND
  1   1   2  2   
  2   2   3  am  
  3   2   4  1   
  4   3   5  1   
  5   3   6  1   
  6   4   7  1   
  7   4  26  1   
  8   4  27  1   
  9   5   8  1   
 10   5  28  1   
 11   5  29  1   
 12   6   9  1   
 13   6  30  1   
 14   6  31  1   
 15   7   8  1   
 16   7  32  1   
 17   7  33  1   
 18   8  34  1   
 19   8  35  1   
 20   9  10  1   
 21   9  36  1   
 22   9  37  1   
 23  10  11  1   
 24  10  38  1   
 25  10  39  1   
 26  11  12  2   
 27  11  13  am  
 28  13  14  1   
 29  13  40  1   
 30  14  15  1   
 31  14  16  1   
 32  14  41  1   
 33  15  17  1   
 34  15  18  1   
 35  15  42  1   
 36  16  19  1   
 37  16  43  1   
 38  16  44  1   
 39  17  19  1   
 40  17  45  1   
 41  17  46  1   
 42  18  20  1   
 43  18  47  1   
 44  18  48  1   
 45  20  21  ar  
 46  20  22  ar  
 47  21  23  ar  
 48  21  49  1   
 49  22  24  ar  
 50  22  50  1   
 51  23  25  ar  
 52  23  51  1   
 53  24  25  ar  
 54  24  52  1   
@<TRIPOS>SUBSTRUCTURE
  1 ****  13 GROUP 4 **** **** 0

# MOE 2024.06 (io_trps.svl 2023.06)
