@<TRIPOS>MOLECULE
NONAME
61 64 1 0 0 
SMALL
USER_CHARGES


@<TRIPOS>ATOM
  1 O        1.3730    -0.9350    -2.2730 O.2   1 <1>  -0.5700 
  2 C        1.7990    -1.5210    -1.3040 C.2   1 <1>   0.5690 
  3 N        2.3820    -0.8450    -0.2630 N.am  1 <1>  -0.6600 
  4 C        1.7070    -3.0430    -1.3010 C.3   1 <1>   0.1810 
  5 C        2.9120    -1.4420     0.9830 C.3   1 <1>   0.1400 
  6 C        2.5150     0.6260    -0.2500 C.3   1 <1>   0.1400 
  7 O        0.9100    -3.5180    -0.2240 O.3   1 <1>  -0.3620 
  8 C        3.2190    -0.2500     1.8850 C.3   1 <1>  -0.1600 
  9 C        3.4360     0.9190     0.9280 C.3   1 <1>  -0.1600 
 10 C        0.7210    -4.8410    -0.0120 C.ar  1 <1>   0.0820 
 11 C        1.1960    -5.8390    -0.8580 C.ar  1 <1>  -0.1500 
 12 C        0.0120    -5.1910     1.1240 C.ar  1 <1>  -0.1500 
 13 C        0.9500    -7.1680    -0.5650 C.ar  1 <1>  -0.1500 
 14 C       -0.2320    -6.5200     1.4190 C.ar  1 <1>  -0.1500 
 15 C        0.2290    -7.5160     0.5700 C.ar  1 <1>  -0.1440 
 16 C       -0.0560    -8.9730     0.8630 C.3   1 <1>   0.4860 
 17 N       -1.2080    -9.3780     0.0180 N.4   1 <1>  -0.9590 
 18 C       -1.2890   -10.8700    -0.1050 C.3   1 <1>   0.5660 
 19 C       -2.5000    -8.7860     0.4970 C.3   1 <1>   0.3430 
 20 C       -0.0570   -11.3380    -0.8680 C.ar  1 <1>  -0.1440 
 21 C       -2.5950   -11.3660    -0.7850 C.3   1 <1>   0.2000 
 22 C       -3.6970    -9.3200    -0.3090 C.3   1 <1>   0.1200 
 23 C        0.8150   -12.2270    -0.2570 C.ar  1 <1>  -0.1500 
 24 C        0.2190   -10.8900    -2.1550 C.ar  1 <1>  -0.1500 
 25 O       -3.7250   -10.7150    -0.2550 O.3   1 <1>  -0.5600 
 26 C       -2.7630   -12.8800    -0.5820 C.3   1 <1>   0.1200 
 27 C        1.9550   -12.6520    -0.9160 C.ar  1 <1>  -0.1500 
 28 C        1.3600   -11.3170    -2.8120 C.ar  1 <1>  -0.1500 
 29 O       -2.5360   -13.2150     0.7520 O.3   1 <1>  -0.6800 
 30 C        2.2280   -12.1960    -2.1920 C.ar  1 <1>  -0.1500 
 31 H        2.6930    -3.4590    -1.2060 H     1 <1>   0.0800 
 32 H        1.2580    -3.3690    -2.2200 H     1 <1>   0.0800 
 33 H        2.1910    -2.0970     1.4410 H     1 <1>   0.0800 
 34 H        3.8140    -1.9860     0.7600 H     1 <1>   0.0800 
 35 H        2.9250     0.9830    -1.1800 H     1 <1>   0.0800 
 36 H        1.5440     1.0620    -0.0930 H     1 <1>   0.0800 
 37 H        2.3620    -0.0570     2.5070 H     1 <1>   0.0800 
 38 H        4.0730    -0.4330     2.5130 H     1 <1>   0.0800 
 39 H        4.4550     0.9250     0.5810 H     1 <1>   0.0800 
 40 H        3.2140     1.8690     1.3810 H     1 <1>   0.0800 
 41 H        1.7550    -5.6000    -1.7440 H     1 <1>   0.1500 
 42 H       -0.3440    -4.4110     1.7740 H     1 <1>   0.1500 
 43 H        1.3330    -7.9260    -1.2290 H     1 <1>   0.1500 
 44 H       -0.7800    -6.7590     2.3150 H     1 <1>   0.1500 
 45 H       -0.2800    -9.1150     1.9070 H     1 <1>   0.0800 
 46 H        0.8180    -9.5560     0.6160 H     1 <1>   0.0800 
 47 H       -1.0090    -9.0140    -0.9170 H     1 <1>   0.4500 
 48 H       -1.2640   -11.2990     0.8840 H     1 <1>   0.0800 
 49 H       -2.6540    -9.0340     1.5350 H     1 <1>   0.0800 
 50 H       -2.4640    -7.7120     0.4130 H     1 <1>   0.0800 
 51 H       -2.5710   -11.1600    -1.8400 H     1 <1>   0.0800 
 52 H       -3.6490    -9.0080    -1.3380 H     1 <1>   0.0800 
 53 H       -4.6180    -8.9590     0.1170 H     1 <1>   0.0800 
 54 H        0.6180   -12.6040     0.7340 H     1 <1>   0.1500 
 55 H       -0.4400   -10.2130    -2.6710 H     1 <1>   0.1500 
 56 H       -2.0540   -13.4250    -1.1820 H     1 <1>   0.0800 
 57 H       -3.7610   -13.1820    -0.8520 H     1 <1>   0.0800 
 58 H        2.6310   -13.3430    -0.4390 H     1 <1>   0.1500 
 59 H        1.5750   -10.9710    -3.8100 H     1 <1>   0.1500 
 60 H       -2.8720   -14.1170     0.9420 H     1 <1>   0.4000 
 61 H        3.1160   -12.5290    -2.7040 H     1 <1>   0.1500 
@<TRIPOS>BOND
  1   1   2  2   
  2   2   3  am  
  3   2   4  1   
  4   3   5  1   
  5   3   6  1   
  6   4   7  1   
  7   4  31  1   
  8   4  32  1   
  9   5   8  1   
 10   5  33  1   
 11   5  34  1   
 12   6   9  1   
 13   6  35  1   
 14   6  36  1   
 15   7  10  1   
 16   8   9  1   
 17   8  37  1   
 18   8  38  1   
 19   9  39  1   
 20   9  40  1   
 21  10  11  ar  
 22  10  12  ar  
 23  11  13  ar  
 24  11  41  1   
 25  12  14  ar  
 26  12  42  1   
 27  13  15  ar  
 28  13  43  1   
 29  14  15  ar  
 30  14  44  1   
 31  15  16  1   
 32  16  17  1   
 33  16  45  1   
 34  16  46  1   
 35  17  18  1   
 36  17  19  1   
 37  17  47  1   
 38  18  20  1   
 39  18  21  1   
 40  18  48  1   
 41  19  22  1   
 42  19  49  1   
 43  19  50  1   
 44  20  23  ar  
 45  20  24  ar  
 46  21  25  1   
 47  21  26  1   
 48  21  51  1   
 49  22  25  1   
 50  22  52  1   
 51  22  53  1   
 52  23  27  ar  
 53  23  54  1   
 54  24  28  ar  
 55  24  55  1   
 56  26  29  1   
 57  26  56  1   
 58  26  57  1   
 59  27  30  ar  
 60  27  58  1   
 61  28  30  ar  
 62  28  59  1   
 63  29  60  1   
 64  30  61  1   
@<TRIPOS>SUBSTRUCTURE
  1 ****  13 GROUP 4 **** **** 0

# MOE 2024.06 (io_trps.svl 2023.06)
