@<TRIPOS>MOLECULE
NONAME
49 51 1 0 0 
SMALL
USER_CHARGES


@<TRIPOS>ATOM
  1 S       -0.5240     0.2880     1.2540 S.o2  1 <1>   1.4470 
  2 O       -1.0720     1.4290     1.9500 O.2   1 <1>  -0.6500 
  3 O       -0.5900    -0.9870     1.9300 O.2   1 <1>  -0.6500 
  4 N       -1.5460     0.1400    -0.0750 N.am  1 <1>  -0.9140 
  5 C        1.1320     0.6920     0.5640 C.ar  1 <1>  -0.0090 
  6 C       -1.6450    -1.1250    -0.8130 C.3   1 <1>   0.2760 
  7 C        1.2940     1.7430    -0.3530 C.ar  1 <1>  -0.1430 
  8 C        2.2830    -0.0260     0.9240 C.ar  1 <1>  -0.1430 
  9 C       -2.4360    -2.2150    -0.0820 C.3   1 <1>  -0.0800 
 10 C       -0.3240    -1.8030    -1.2020 C.3   1 <1>   0.1200 
 11 C        2.5340     2.0200    -0.9080 C.ar  1 <1>  -0.1500 
 12 C        0.1460     2.6460    -0.7970 C.3   1 <1>  -0.0970 
 13 C        3.5130     0.2690     0.3570 C.ar  1 <1>  -0.1500 
 14 C        2.2750    -1.1570     1.9490 C.3   1 <1>  -0.0970 
 15 C       -1.4450    -3.3830    -0.0470 C.3   1 <1>   0.1200 
 16 C       -3.7280    -2.5760    -0.8390 C.3   1 <1>  -0.0170 
 17 O       -0.5850    -3.1660    -1.1160 O.3   1 <1>  -0.5600 
 18 C        3.6470     1.2850    -0.5650 C.ar  1 <1>  -0.1430 
 19 C       -4.5130    -3.6700    -0.1310 C.ar  1 <1>  -0.1430 
 20 C        5.0000     1.5960    -1.1800 C.3   1 <1>  -0.0970 
 21 C       -4.5880    -4.9540    -0.6300 C.ar  1 <1>  -0.1500 
 22 C       -5.1920    -3.4350     1.0480 C.ar  1 <1>  -0.1500 
 23 C       -5.3160    -5.9140     0.0530 C.ar  1 <1>   0.1600 
 24 C       -5.8910    -4.4660     1.6530 C.ar  1 <1>   0.1600 
 25 N       -5.9690    -5.7010     1.1840 N.ar  1 <1>  -0.6200 
 26 H       -2.4600     0.3680     0.3070 H     1 <1>   0.4200 
 27 H       -2.1500    -0.9010    -1.7380 H     1 <1>   0.0800 
 28 H       -2.6890    -1.9340     0.9230 H     1 <1>   0.0800 
 29 H        0.4770    -1.5930    -0.5210 H     1 <1>   0.0800 
 30 H       -0.0290    -1.5690    -2.2090 H     1 <1>   0.0800 
 31 H        2.6400     2.8230    -1.6170 H     1 <1>   0.1500 
 32 H        0.5160     3.5270    -1.2900 H     1 <1>   0.0800 
 33 H       -0.4350     2.9770     0.0440 H     1 <1>   0.0800 
 34 H       -0.4920     2.1260    -1.4880 H     1 <1>   0.0800 
 35 H        4.3860    -0.2950     0.6350 H     1 <1>   0.1500 
 36 H        3.2740    -1.4740     2.1910 H     1 <1>   0.0800 
 37 H        1.7450    -2.0090     1.5630 H     1 <1>   0.0800 
 38 H        1.8120    -0.8330     2.8630 H     1 <1>   0.0800 
 39 H       -1.9070    -4.3480    -0.1530 H     1 <1>   0.0800 
 40 H       -0.8610    -3.3630     0.8580 H     1 <1>   0.0800 
 41 H       -3.4840    -2.8960    -1.8380 H     1 <1>   0.0800 
 42 H       -4.3520    -1.7030    -0.9200 H     1 <1>   0.0800 
 43 H        4.8800     2.0160    -2.1620 H     1 <1>   0.0800 
 44 H        5.5890     0.7000    -1.2650 H     1 <1>   0.0800 
 45 H        5.5260     2.3010    -0.5620 H     1 <1>   0.0800 
 46 H       -4.0870    -5.2200    -1.5440 H     1 <1>   0.1500 
 47 H       -5.1860    -2.4620     1.5030 H     1 <1>   0.1500 
 48 H       -5.3630    -6.9110    -0.3520 H     1 <1>   0.1500 
 49 H       -6.4140    -4.2650     2.5720 H     1 <1>   0.1500 
@<TRIPOS>BOND
  1   1   2  2   
  2   1   3  2   
  3   1   4  am  
  4   1   5  1   
  5   4   6  1   
  6   4  26  1   
  7   5   7  ar  
  8   5   8  ar  
  9   6   9  1   
 10   6  10  1   
 11   6  27  1   
 12   7  11  ar  
 13   7  12  1   
 14   8  13  ar  
 15   8  14  1   
 16   9  15  1   
 17   9  16  1   
 18   9  28  1   
 19  10  17  1   
 20  10  29  1   
 21  10  30  1   
 22  11  18  ar  
 23  11  31  1   
 24  12  32  1   
 25  12  33  1   
 26  12  34  1   
 27  13  18  ar  
 28  13  35  1   
 29  14  36  1   
 30  14  37  1   
 31  14  38  1   
 32  15  17  1   
 33  15  39  1   
 34  15  40  1   
 35  16  19  1   
 36  16  41  1   
 37  16  42  1   
 38  18  20  1   
 39  19  21  ar  
 40  19  22  ar  
 41  20  43  1   
 42  20  44  1   
 43  20  45  1   
 44  21  23  ar  
 45  21  46  1   
 46  22  24  ar  
 47  22  47  1   
 48  23  25  ar  
 49  23  48  1   
 50  24  25  ar  
 51  24  49  1   
@<TRIPOS>SUBSTRUCTURE
  1 ****   6 GROUP 4 **** **** 0

# MOE 2024.06 (io_trps.svl 2023.06)
