@<TRIPOS>MOLECULE
NONAME
45 47 1 0 0 
SMALL
USER_CHARGES


@<TRIPOS>ATOM
  1 O       -0.4810     0.4250     0.9100 O.2   1 <1>  -0.5700 
  2 C       -1.4340     0.8970     0.3380 C.2   1 <1>   0.5690 
  3 N       -2.5110     0.1210     0.0120 N.am  1 <1>  -0.6600 
  4 C       -1.4400     2.3790    -0.0220 C.3   1 <1>  -0.0990 
  5 C       -3.7760     0.5600    -0.6290 C.3   1 <1>   0.1400 
  6 C       -2.5720    -1.3250     0.3380 C.3   1 <1>   0.1400 
  7 C       -0.0970     3.0920     0.2280 C.3   1 <1>  -0.1600 
  8 C       -4.7780    -0.5340    -0.2660 C.3   1 <1>   0.2000 
  9 C       -3.9220    -1.8050    -0.2120 C.3   1 <1>  -0.0800 
 10 C       -0.1490     4.5760    -0.1620 C.3   1 <1>   0.0210 
 11 O       -5.2770    -0.2560     0.9970 O.3   1 <1>  -0.6800 
 12 C       -4.5420    -2.9710     0.5820 C.3   1 <1>   0.0200 
 13 C        1.1740     5.2820     0.0860 C.2   1 <1>  -0.1810 
 14 C       -3.7350    -4.2550     0.4870 C.2   1 <1>  -0.0400 
 15 C        1.4380     6.6210    -0.1890 C.2   1 <1>   0.1390 
 16 C        2.3310     4.8100     0.5990 C.2   1 <1>  -0.3020 
 17 O       -4.0970    -5.2770     1.2180 O.3   1 <1>  -0.0190 
 18 C       -2.6560    -4.6260    -0.2230 C.2   1 <1>  -0.1500 
 19 N        2.6520     6.9620     0.1220 N.2   1 <1>  -0.7070 
 20 N        3.2030     5.8350     0.6110 N.pl3 1 <1>   0.3000 
 21 N       -3.3200    -6.3060     1.0380 N.2   1 <1>  -0.4100 
 22 C       -2.4420    -5.9420     0.1750 C.2   1 <1>   0.1080 
 23 C       -1.3290    -6.8320    -0.3320 C.3   1 <1>  -0.0590 
 24 H       -1.6940     2.4710    -1.0620 H     1 <1>   0.0800 
 25 H       -2.2050     2.8580     0.5600 H     1 <1>   0.0800 
 26 H       -4.1000     1.5250    -0.2770 H     1 <1>   0.0800 
 27 H       -3.6360     0.5890    -1.6950 H     1 <1>   0.0800 
 28 H       -1.7460    -1.8470    -0.1140 H     1 <1>   0.0800 
 29 H       -2.5230    -1.4460     1.4070 H     1 <1>   0.0800 
 30 H        0.1580     3.0090     1.2710 H     1 <1>   0.0800 
 31 H        0.6750     2.6030    -0.3410 H     1 <1>   0.0800 
 32 H       -5.6040    -0.6000    -0.9540 H     1 <1>   0.0800 
 33 H       -3.7660    -2.1300    -1.2250 H     1 <1>   0.0800 
 34 H       -0.9150     5.0710     0.4090 H     1 <1>   0.0800 
 35 H       -0.3960     4.6660    -1.2050 H     1 <1>   0.0800 
 36 H       -4.5280    -0.0720     1.6000 H     1 <1>   0.4000 
 37 H       -5.5330    -3.1670     0.2120 H     1 <1>   0.0800 
 38 H       -4.6310    -2.7040     1.6200 H     1 <1>   0.0800 
 39 H        0.7250     7.3090    -0.6120 H     1 <1>   0.1500 
 40 H        2.5800     3.8240     0.9490 H     1 <1>   0.1500 
 41 H       -2.0680    -4.0820    -0.9370 H     1 <1>   0.1500 
 42 H        4.1740     5.8000     0.9440 H     1 <1>   0.2700 
 43 H       -0.3770    -6.3870    -0.1110 H     1 <1>   0.0800 
 44 H       -1.4230    -6.9640    -1.3940 H     1 <1>   0.0800 
 45 H       -1.3830    -7.7940     0.1450 H     1 <1>   0.0800 
@<TRIPOS>BOND
  1   1   2  2   
  2   2   3  am  
  3   2   4  1   
  4   3   5  1   
  5   3   6  1   
  6   4   7  1   
  7   4  24  1   
  8   4  25  1   
  9   5   8  1   
 10   5  26  1   
 11   5  27  1   
 12   6   9  1   
 13   6  28  1   
 14   6  29  1   
 15   7  10  1   
 16   7  30  1   
 17   7  31  1   
 18   8   9  1   
 19   8  11  1   
 20   8  32  1   
 21   9  12  1   
 22   9  33  1   
 23  10  13  1   
 24  10  34  1   
 25  10  35  1   
 26  11  36  1   
 27  12  14  1   
 28  12  37  1   
 29  12  38  1   
 30  13  15  1   
 31  13  16  2   
 32  14  17  1   
 33  14  18  2   
 34  15  19  2   
 35  15  39  1   
 36  16  20  1   
 37  16  40  1   
 38  17  21  1   
 39  18  22  1   
 40  18  41  1   
 41  19  20  1   
 42  20  42  1   
 43  21  22  2   
 44  22  23  1   
 45  23  43  1   
 46  23  44  1   
 47  23  45  1   
@<TRIPOS>SUBSTRUCTURE
  1 ****   2 GROUP 4 **** **** 0

# MOE 2024.06 (io_trps.svl 2023.06)
