@<TRIPOS>MOLECULE
NONAME
49 51 1 0 0 
SMALL
USER_CHARGES


@<TRIPOS>ATOM
  1 S       -0.7540    -0.4810    -2.3010 S.o2  1 <1>   1.5010 
  2 O       -1.4600    -1.6910    -2.6780 O.2   1 <1>  -0.6500 
  3 O        0.0520     0.1750    -3.3120 O.2   1 <1>  -0.6500 
  4 N       -1.9480     0.6410    -1.8480 N.am  1 <1>  -0.8490 
  5 C        0.2170    -0.8160    -0.7710 C.2   1 <1>   0.1640 
  6 C       -1.4350     2.0010    -1.7150 C.3   1 <1>   0.1960 
  7 C       -3.1160     0.6030    -2.7350 C.3   1 <1>   0.1960 
  8 N        0.5810     0.1270     0.1510 N.2   1 <1>  -0.5650 
  9 C        0.7110    -2.0180    -0.3710 C.2   1 <1>  -0.3020 
 10 C       -2.4340     2.8420    -0.9090 C.3   1 <1>  -0.1600 
 11 C       -4.0650     1.7890    -2.4890 C.3   1 <1>  -0.1600 
 12 C        1.2560    -0.5150     1.0460 C.2   1 <1>   0.0070 
 13 N        1.3700    -1.8310     0.7830 N.pl3 1 <1>   0.0330 
 14 C       -3.9070     2.3940    -1.0860 C.3   1 <1>   0.2800 
 15 C        1.8630     0.1350     2.2760 C.3   1 <1>   0.0200 
 16 O       -4.7120     3.5330    -1.0920 O.3   1 <1>  -0.5600 
 17 C       -4.3910     1.3800    -0.0070 C.3   1 <1>  -0.1600 
 18 C        3.3940     0.1450     2.2040 C.3   1 <1>  -0.2400 
 19 C       -4.9060     4.2700     0.0930 C.3   1 <1>   0.1200 
 20 C       -5.3610     1.9470     1.0440 C.3   1 <1>   0.2800 
 21 C       -4.9960     3.4120     1.3720 C.3   1 <1>   0.2000 
 22 O       -6.6380     1.9240     0.5120 O.3   1 <1>  -0.6800 
 23 C       -5.4250     1.0500     2.2840 C.3   1 <1>  -0.2400 
 24 O       -3.7720     3.4750     2.0430 O.3   1 <1>  -0.6800 
 25 H       -0.4830     2.0070    -1.2130 H     1 <1>   0.0800 
 26 H       -1.2910     2.4270    -2.6950 H     1 <1>   0.0800 
 27 H       -2.7970     0.6110    -3.7660 H     1 <1>   0.0800 
 28 H       -3.6460    -0.3190    -2.5610 H     1 <1>   0.0800 
 29 H        0.6190    -2.9740    -0.8550 H     1 <1>   0.1500 
 30 H       -2.3220     3.8630    -1.2280 H     1 <1>   0.0800 
 31 H       -2.1410     2.7920     0.1200 H     1 <1>   0.0800 
 32 H       -5.0810     1.4750    -2.6480 H     1 <1>   0.0800 
 33 H       -3.8480     2.5490    -3.2180 H     1 <1>   0.0800 
 34 H        1.8620    -2.5300     1.3480 H     1 <1>   0.2700 
 35 H        1.5060     1.1480     2.3450 H     1 <1>   0.0800 
 36 H        1.5380    -0.3890     3.1570 H     1 <1>   0.0800 
 37 H       -4.8410     0.5210    -0.4680 H     1 <1>   0.0800 
 38 H       -3.5210     0.9990     0.4960 H     1 <1>   0.0800 
 39 H        3.7140     0.6670     1.3180 H     1 <1>   0.0800 
 40 H        3.7810    -0.8570     2.1750 H     1 <1>   0.0800 
 41 H        3.7990     0.6470     3.0640 H     1 <1>   0.0800 
 42 H       -4.1230     5.0030     0.1770 H     1 <1>   0.0800 
 43 H       -5.8390     4.7890    -0.0340 H     1 <1>   0.0800 
 44 H       -5.7280     3.8310     2.0400 H     1 <1>   0.0800 
 45 H       -6.8520     1.0220     0.2160 H     1 <1>   0.4000 
 46 H       -4.4650     1.0090     2.7650 H     1 <1>   0.0800 
 47 H       -5.7090     0.0480     2.0180 H     1 <1>   0.0800 
 48 H       -6.1330     1.4470     2.9900 H     1 <1>   0.0800 
 49 H       -3.0810     3.0600     1.4950 H     1 <1>   0.4000 
@<TRIPOS>BOND
  1   1   2  2   
  2   1   3  2   
  3   1   4  am  
  4   1   5  1   
  5   4   6  1   
  6   4   7  1   
  7   5   8  1   
  8   5   9  2   
  9   6  10  1   
 10   6  25  1   
 11   6  26  1   
 12   7  11  1   
 13   7  27  1   
 14   7  28  1   
 15   8  12  2   
 16   9  13  1   
 17   9  29  1   
 18  10  14  1   
 19  10  30  1   
 20  10  31  1   
 21  11  14  1   
 22  11  32  1   
 23  11  33  1   
 24  12  13  1   
 25  12  15  1   
 26  13  34  1   
 27  14  16  1   
 28  14  17  1   
 29  15  18  1   
 30  15  35  1   
 31  15  36  1   
 32  16  19  1   
 33  17  20  1   
 34  17  37  1   
 35  17  38  1   
 36  18  39  1   
 37  18  40  1   
 38  18  41  1   
 39  19  21  1   
 40  19  42  1   
 41  19  43  1   
 42  20  21  1   
 43  20  22  1   
 44  20  23  1   
 45  21  24  1   
 46  21  44  1   
 47  22  45  1   
 48  23  46  1   
 49  23  47  1   
 50  23  48  1   
 51  24  49  1   
@<TRIPOS>SUBSTRUCTURE
  1 ****   4 GROUP 4 **** **** 0

# MOE 2024.06 (io_trps.svl 2023.06)
