@<TRIPOS>MOLECULE
NONAME
53 55 1 0 0 
SMALL
USER_CHARGES


@<TRIPOS>ATOM
  1 CL       1.9200     0.5070    -1.3170 Cl    1 <1>  -0.1770 
  2 C        0.8640     1.6180    -0.4730 C.ar  1 <1>   0.1770 
  3 C        1.2780     2.2970     0.6700 C.ar  1 <1>  -0.1440 
  4 C       -0.4020     1.7980    -1.0020 C.ar  1 <1>  -0.1500 
  5 C        0.3820     3.1770     1.2650 C.ar  1 <1>  -0.1500 
  6 C        2.6610     2.1290     1.2980 C.3   1 <1>   0.3640 
  7 C       -1.2820     2.6740    -0.3920 C.ar  1 <1>  -0.1500 
  8 C       -0.8870     3.3630     0.7400 C.ar  1 <1>  -0.1500 
  9 N        2.8590     0.7070     1.6640 N.am  1 <1>  -0.7300 
 10 C        3.7950     2.6770     0.3850 C.3   1 <1>   0.2610 
 11 C        4.0030     0.0300     1.4300 C.2   1 <1>   0.5690 
 12 O        5.0600     2.1400     0.7550 O.3   1 <1>  -0.5600 
 13 C        3.8370     4.2170     0.3870 C.2   1 <1>   0.5690 
 14 O        4.1300    -1.1130     1.7890 O.2   1 <1>  -0.5700 
 15 C        5.1390     0.7310     0.6800 C.3   1 <1>   0.1810 
 16 O        3.2070     4.8160     1.2320 O.2   1 <1>  -0.5700 
 17 N        4.5880     4.9080    -0.5410 N.am  1 <1>  -0.6600 
 18 C        4.7050     6.3840    -0.4820 C.3   1 <1>   0.1400 
 19 C        5.5780     4.2900    -1.4570 C.3   1 <1>   0.1400 
 20 C        6.0730     6.7250     0.1190 C.3   1 <1>  -0.1600 
 21 C        6.9730     4.5620    -0.8880 C.3   1 <1>  -0.1600 
 22 C        7.2380     6.0670    -0.6600 C.3   1 <1>  -0.0800 
 23 C        8.5840     6.2210     0.0710 C.3   1 <1>   0.3430 
 24 N        8.8900     7.6440     0.4120 N.4   1 <1>  -0.9590 
 25 C        9.1780     8.4720    -0.8020 C.3   1 <1>   0.2630 
 26 C       10.0310     7.7150     1.3760 C.3   1 <1>   0.2630 
 27 H       -0.6930     1.2570    -1.8840 H     1 <1>   0.1500 
 28 H        0.6670     3.7330     2.1430 H     1 <1>   0.1500 
 29 H        2.6870     2.6830     2.2210 H     1 <1>   0.0800 
 30 H       -2.2690     2.8200    -0.7970 H     1 <1>   0.1500 
 31 H       -1.5660     4.0500     1.2150 H     1 <1>   0.1500 
 32 H        2.0960     0.2290     2.1440 H     1 <1>   0.3700 
 33 H        3.6050     2.3710    -0.6240 H     1 <1>   0.0800 
 34 H        5.1130     0.4420    -0.3550 H     1 <1>   0.0800 
 35 H        6.0800     0.4320     1.1030 H     1 <1>   0.0800 
 36 H        4.6150     6.7890    -1.4750 H     1 <1>   0.0800 
 37 H        3.9190     6.8080     0.1210 H     1 <1>   0.0800 
 38 H        5.4210     3.2310    -1.5550 H     1 <1>   0.0800 
 39 H        5.4790     4.7300    -2.4350 H     1 <1>   0.0800 
 40 H        6.1730     7.7950     0.1220 H     1 <1>   0.0800 
 41 H        6.0730     6.3870     1.1420 H     1 <1>   0.0800 
 42 H        7.0580     4.0260     0.0430 H     1 <1>   0.0800 
 43 H        7.7060     4.1570    -1.5640 H     1 <1>   0.0800 
 44 H        7.3050     6.5280    -1.6300 H     1 <1>   0.0800 
 45 H        9.3730     5.8120    -0.5380 H     1 <1>   0.0800 
 46 H        8.5370     5.6440     0.9810 H     1 <1>   0.0800 
 47 H        8.0550     8.0290     0.8800 H     1 <1>   0.4500 
 48 H       10.0320     8.0780    -1.3300 H     1 <1>   0.0800 
 49 H        9.3880     9.4900    -0.5190 H     1 <1>   0.0800 
 50 H        8.3300     8.4720    -1.4680 H     1 <1>   0.0800 
 51 H       10.9250     7.3100     0.9300 H     1 <1>   0.0800 
 52 H        9.8040     7.1510     2.2670 H     1 <1>   0.0800 
 53 H       10.2190     8.7380     1.6580 H     1 <1>   0.0800 
@<TRIPOS>BOND
  1   1   2  1   
  2   2   3  ar  
  3   2   4  ar  
  4   3   5  ar  
  5   3   6  1   
  6   4   7  ar  
  7   4  27  1   
  8   5   8  ar  
  9   5  28  1   
 10   6   9  1   
 11   6  10  1   
 12   6  29  1   
 13   7   8  ar  
 14   7  30  1   
 15   8  31  1   
 16   9  11  am  
 17   9  32  1   
 18  10  12  1   
 19  10  13  1   
 20  10  33  1   
 21  11  14  2   
 22  11  15  1   
 23  12  15  1   
 24  13  16  2   
 25  13  17  am  
 26  15  34  1   
 27  15  35  1   
 28  17  18  1   
 29  17  19  1   
 30  18  20  1   
 31  18  36  1   
 32  18  37  1   
 33  19  21  1   
 34  19  38  1   
 35  19  39  1   
 36  20  22  1   
 37  20  40  1   
 38  20  41  1   
 39  21  22  1   
 40  21  42  1   
 41  21  43  1   
 42  22  23  1   
 43  22  44  1   
 44  23  24  1   
 45  23  45  1   
 46  23  46  1   
 47  24  25  1   
 48  24  26  1   
 49  24  47  1   
 50  25  48  1   
 51  25  49  1   
 52  25  50  1   
 53  26  51  1   
 54  26  52  1   
 55  26  53  1   
@<TRIPOS>SUBSTRUCTURE
  1 ****  13 GROUP 4 **** **** 0

# MOE 2024.06 (io_trps.svl 2023.06)
