@<TRIPOS>MOLECULE
NONAME
38 40 1 0 0 
SMALL
USER_CHARGES


@<TRIPOS>ATOM
  1 F       -0.7060     0.5570    -0.3480 F     1 <1>  -0.3400 
  2 C       -1.8910    -0.0170    -0.1450 C.3   1 <1>   1.1640 
  3 F       -2.6870     0.4600    -1.0970 F     1 <1>  -0.3400 
  4 F       -2.3390     0.4840     1.0020 F     1 <1>  -0.3400 
  5 C       -1.8160    -1.5690    -0.1400 C.ar  1 <1>   0.1660 
  6 N       -2.9220    -2.2790     0.0320 N.ar  1 <1>  -0.6200 
  7 C       -0.6060    -2.2140    -0.3130 C.ar  1 <1>  -0.1500 
  8 C       -2.8070    -3.6030     0.0320 C.ar  1 <1>   0.7200 
  9 C       -0.5940    -3.5870    -0.3020 C.ar  1 <1>   0.1600 
 10 N       -1.6830    -4.2910    -0.1330 N.ar  1 <1>  -0.6200 
 11 N       -3.9580    -4.3240     0.2210 N.pl3 1 <1>  -0.8380 
 12 C       -5.3170    -3.7340     0.1420 C.3   1 <1>   0.2090 
 13 C       -4.0130    -5.8020     0.1480 C.3   1 <1>   0.2090 
 14 C       -6.2410    -4.9190    -0.1450 C.3   1 <1>   0.2000 
 15 C       -5.4880    -6.1550     0.3440 C.3   1 <1>  -0.0800 
 16 O       -7.4550    -4.8100     0.5190 O.3   1 <1>  -0.6800 
 17 C       -5.9160    -7.4400    -0.3810 C.3   1 <1>   0.0200 
 18 C       -5.0920    -8.6280     0.0750 C.2   1 <1>  -0.0400 
 19 O       -5.1520    -9.0280     1.3180 O.3   1 <1>  -0.0190 
 20 C       -4.2340    -9.4280    -0.5750 C.2   1 <1>  -0.1500 
 21 N       -4.3770   -10.0520     1.5340 N.2   1 <1>  -0.4100 
 22 C       -3.8120   -10.3160     0.4110 C.2   1 <1>   0.1080 
 23 C       -2.8220   -11.4390     0.2000 C.3   1 <1>  -0.0590 
 24 H        0.3150    -1.6770    -0.4540 H     1 <1>   0.1500 
 25 H        0.3330    -4.1180    -0.4340 H     1 <1>   0.1500 
 26 H       -5.5550    -3.2730     1.0840 H     1 <1>   0.0800 
 27 H       -5.3720    -3.0070    -0.6500 H     1 <1>   0.0800 
 28 H       -3.6640    -6.1190    -0.8210 H     1 <1>   0.0800 
 29 H       -3.3970    -6.2470     0.9120 H     1 <1>   0.0800 
 30 H       -6.4370    -4.9720    -1.2020 H     1 <1>   0.0800 
 31 H       -5.6430    -6.2730     1.4020 H     1 <1>   0.0800 
 32 H       -7.3080    -4.7800     1.4850 H     1 <1>   0.4000 
 33 H       -5.8000    -7.3180    -1.4430 H     1 <1>   0.0800 
 34 H       -6.9550    -7.6370    -0.1800 H     1 <1>   0.0800 
 35 H       -3.9220    -9.4170    -1.6030 H     1 <1>   0.1500 
 36 H       -3.1770   -12.1000    -0.5690 H     1 <1>   0.0800 
 37 H       -2.7030   -11.9980     1.1110 H     1 <1>   0.0800 
 38 H       -1.8690   -11.0360    -0.0880 H     1 <1>   0.0800 
@<TRIPOS>BOND
  1   1   2  1   
  2   2   3  1   
  3   2   4  1   
  4   2   5  1   
  5   5   6  ar  
  6   5   7  ar  
  7   6   8  ar  
  8   7   9  ar  
  9   7  24  1   
 10   8  10  ar  
 11   8  11  1   
 12   9  10  ar  
 13   9  25  1   
 14  11  12  1   
 15  11  13  1   
 16  12  14  1   
 17  12  26  1   
 18  12  27  1   
 19  13  15  1   
 20  13  28  1   
 21  13  29  1   
 22  14  15  1   
 23  14  16  1   
 24  14  30  1   
 25  15  17  1   
 26  15  31  1   
 27  16  32  1   
 28  17  18  1   
 29  17  33  1   
 30  17  34  1   
 31  18  19  1   
 32  18  20  2   
 33  19  21  1   
 34  20  22  1   
 35  20  35  1   
 36  21  22  2   
 37  22  23  1   
 38  23  36  1   
 39  23  37  1   
 40  23  38  1   
@<TRIPOS>SUBSTRUCTURE
  1 ****  11 GROUP 4 **** **** 0

# MOE 2024.06 (io_trps.svl 2023.06)
