@<TRIPOS>MOLECULE
NONAME
43 45 1 0 0 
SMALL
USER_CHARGES


@<TRIPOS>ATOM
  1 O        0.8210    -1.4590     0.9880 O.3   1 <1>  -0.6800 
  2 C        1.4070    -1.4370    -0.2580 C.3   1 <1>   0.2000 
  3 C        1.9400    -2.8210    -0.5960 C.3   1 <1>  -0.1600 
  4 C        2.6350    -0.5420    -0.2190 C.3   1 <1>  -0.1600 
  5 C        3.1620    -2.5780    -1.4950 C.3   1 <1>  -0.0800 
  6 C        3.5900    -1.1200    -1.2720 C.3   1 <1>  -0.0800 
  7 C        4.3730    -3.4380    -1.1170 C.3   1 <1>  -0.1600 
  8 C        5.0450    -1.1690    -0.7950 C.3   1 <1>  -0.1600 
  9 C        5.2130    -2.5600    -0.1890 C.3   1 <1>   0.4230 
 10 N        6.6370    -3.0120    -0.1320 N.4   1 <1>  -0.9590 
 11 C        7.4980    -2.2230     0.8110 C.3   1 <1>   0.4860 
 12 C        6.7480    -4.4630     0.2210 C.3   1 <1>   0.2630 
 13 C        7.9330    -0.8600     0.2690 C.ar  1 <1>  -0.1430 
 14 C        8.6130    -0.7180    -0.9460 C.ar  1 <1>   0.0730 
 15 C        7.6640     0.2640     1.0380 C.ar  1 <1>  -0.1500 
 16 C        8.8860    -1.8580    -1.7690 C.1   1 <1>   0.4840 
 17 C        9.0030     0.5510    -1.3590 C.ar  1 <1>  -0.1500 
 18 C        8.0560     1.5200     0.6110 C.ar  1 <1>  -0.1500 
 19 N        8.9140    -2.8630    -2.3050 N.1   1 <1>  -0.5570 
 20 C        8.7270     1.6640    -0.5880 C.ar  1 <1>  -0.1500 
 21 H       -0.0150    -1.9630     0.9620 H     1 <1>   0.4000 
 22 H        0.6960    -1.0910    -0.9910 H     1 <1>   0.0800 
 23 H        2.2340    -3.3190     0.3130 H     1 <1>   0.0800 
 24 H        1.1970    -3.4110    -1.1020 H     1 <1>   0.0800 
 25 H        2.3750     0.4780    -0.4420 H     1 <1>   0.0800 
 26 H        3.0740    -0.5890     0.7630 H     1 <1>   0.0800 
 27 H        2.8890    -2.7320    -2.5270 H     1 <1>   0.0800 
 28 H        3.5020    -0.5580    -2.1880 H     1 <1>   0.0800 
 29 H        4.9260    -3.6540    -2.0160 H     1 <1>   0.0800 
 30 H        4.0720    -4.3600    -0.6520 H     1 <1>   0.0800 
 31 H        5.2440    -0.3820    -0.0910 H     1 <1>   0.0800 
 32 H        5.6870    -1.0570    -1.6520 H     1 <1>   0.0800 
 33 H        4.7700    -2.5700     0.7940 H     1 <1>   0.0800 
 34 H        7.0290    -2.9160    -1.0820 H     1 <1>   0.4500 
 35 H        6.9740    -2.0860     1.7430 H     1 <1>   0.0800 
 36 H        8.3920    -2.7860     1.0250 H     1 <1>   0.0800 
 37 H        6.3190    -4.6500     1.1930 H     1 <1>   0.0800 
 38 H        7.7830    -4.7670     0.2320 H     1 <1>   0.0800 
 39 H        6.2320    -5.0690    -0.5060 H     1 <1>   0.0800 
 40 H        7.1490     0.1830     1.9810 H     1 <1>   0.1500 
 41 H        9.5280     0.6770    -2.2930 H     1 <1>   0.1500 
 42 H        7.8420     2.3890     1.2120 H     1 <1>   0.1500 
 43 H        9.0340     2.6430    -0.9190 H     1 <1>   0.1500 
@<TRIPOS>BOND
  1   1   2  1   
  2   1  21  1   
  3   2   3  1   
  4   2   4  1   
  5   2  22  1   
  6   3   5  1   
  7   3  23  1   
  8   3  24  1   
  9   4   6  1   
 10   4  25  1   
 11   4  26  1   
 12   5   6  1   
 13   5   7  1   
 14   5  27  1   
 15   6   8  1   
 16   6  28  1   
 17   7   9  1   
 18   7  29  1   
 19   7  30  1   
 20   8   9  1   
 21   8  31  1   
 22   8  32  1   
 23   9  10  1   
 24   9  33  1   
 25  10  11  1   
 26  10  12  1   
 27  10  34  1   
 28  11  13  1   
 29  11  35  1   
 30  11  36  1   
 31  12  37  1   
 32  12  38  1   
 33  12  39  1   
 34  13  14  ar  
 35  13  15  ar  
 36  14  16  1   
 37  14  17  ar  
 38  15  18  ar  
 39  15  40  1   
 40  16  19  3   
 41  17  20  ar  
 42  17  41  1   
 43  18  20  ar  
 44  18  42  1   
 45  20  43  1   
@<TRIPOS>SUBSTRUCTURE
  1 ****   8 GROUP 4 **** **** 0

# MOE 2024.06 (io_trps.svl 2023.06)
