@<TRIPOS>MOLECULE
NONAME
47 49 1 0 0 
SMALL
USER_CHARGES


@<TRIPOS>ATOM
  1 O       -0.7620     0.1140     1.9330 O.2   1 <1>  -0.5700 
  2 C       -1.3130     0.6040     0.9780 C.2   1 <1>   0.5690 
  3 N       -2.0430    -0.1430     0.1130 N.am  1 <1>  -0.7300 
  4 C       -1.2030     2.1090     0.7460 C.3   1 <1>  -0.0190 
  5 C       -2.3370    -1.5780     0.2720 C.3   1 <1>   0.2350 
  6 C       -2.5890     2.7840     0.7100 C.3   1 <1>  -0.1600 
  7 C       -0.3800     2.4390    -0.5230 C.3   1 <1>  -0.1600 
  8 C       -3.7770    -1.9160    -0.1700 C.3   1 <1>  -0.1900 
  9 C       -2.4890     4.3200     0.6230 C.3   1 <1>   0.2000 
 10 C       -0.6810     3.8310    -1.1140 C.3   1 <1>  -0.1600 
 11 C       -4.8780    -0.9080     0.0020 C.3   1 <1>  -0.2000 
 12 C       -4.3650    -1.2440    -1.3770 C.3   1 <1>  -0.2000 
 13 C       -4.0440    -3.4220     0.0830 C.3   1 <1>   0.1910 
 14 O       -3.5830     4.7800    -0.1320 O.3   1 <1>  -0.5600 
 15 C       -1.1710     4.8050    -0.0390 C.3   1 <1>   0.2000 
 16 N       -5.3820    -3.9070    -0.3330 N.pl3 1 <1>   0.3140 
 17 C       -4.7770     4.9100     0.5760 C.3   1 <1>   0.0400 
 18 O       -1.3890     6.0280    -0.6390 O.3   1 <1>  -0.6800 
 19 N       -5.5880    -4.5040    -1.5240 N.2   1 <1>  -0.7070 
 20 C       -6.5140    -3.8930     0.4020 C.2   1 <1>  -0.3020 
 21 C       -6.8430    -4.8360    -1.5210 C.2   1 <1>   0.1390 
 22 C       -7.4780    -4.4790    -0.3380 C.2   1 <1>  -0.1500 
 23 H       -2.5180     0.3040    -0.6700 H     1 <1>   0.3700 
 24 H       -0.6750     2.5120     1.5930 H     1 <1>   0.0800 
 25 H       -1.6350    -2.1400    -0.3200 H     1 <1>   0.0800 
 26 H       -2.2000    -1.8540     1.3050 H     1 <1>   0.0800 
 27 H       -3.1380     2.5160     1.5950 H     1 <1>   0.0800 
 28 H       -3.1280     2.4170    -0.1470 H     1 <1>   0.0800 
 29 H        0.6650     2.3780    -0.2700 H     1 <1>   0.0800 
 30 H       -0.5610     1.7050    -1.2890 H     1 <1>   0.0800 
 31 H       -2.5370     4.7530     1.6080 H     1 <1>   0.0800 
 32 H       -1.4490     3.7360    -1.8620 H     1 <1>   0.0800 
 33 H        0.2040     4.2220    -1.5850 H     1 <1>   0.0800 
 34 H       -5.8790    -1.2190     0.2430 H     1 <1>   0.1000 
 35 H       -4.6580     0.0620     0.4130 H     1 <1>   0.1000 
 36 H       -3.8040    -0.5010    -1.9160 H     1 <1>   0.1000 
 37 H       -5.0090    -1.8030    -2.0360 H     1 <1>   0.1000 
 38 H       -3.9320    -3.6340     1.1290 H     1 <1>   0.0800 
 39 H       -3.3160    -4.0030    -0.4530 H     1 <1>   0.0800 
 40 H       -0.4030     4.9330     0.7040 H     1 <1>   0.0800 
 41 H       -5.5290     5.2740    -0.1020 H     1 <1>   0.0800 
 42 H       -4.6400     5.6180     1.3760 H     1 <1>   0.0800 
 43 H       -5.0740     3.9520     0.9630 H     1 <1>   0.0800 
 44 H       -2.3330     6.0250    -0.9170 H     1 <1>   0.4000 
 45 H       -6.5680    -3.4740     1.3900 H     1 <1>   0.1500 
 46 H       -7.3260    -5.3330    -2.3450 H     1 <1>   0.1500 
 47 H       -8.5110    -4.6500    -0.0960 H     1 <1>   0.1500 
@<TRIPOS>BOND
  1   1   2  2   
  2   2   3  am  
  3   2   4  1   
  4   3   5  1   
  5   3  23  1   
  6   4   6  1   
  7   4   7  1   
  8   4  24  1   
  9   5   8  1   
 10   5  25  1   
 11   5  26  1   
 12   6   9  1   
 13   6  27  1   
 14   6  28  1   
 15   7  10  1   
 16   7  29  1   
 17   7  30  1   
 18   8  11  1   
 19   8  12  1   
 20   8  13  1   
 21   9  14  1   
 22   9  15  1   
 23   9  31  1   
 24  10  15  1   
 25  10  32  1   
 26  10  33  1   
 27  11  12  1   
 28  11  34  1   
 29  11  35  1   
 30  12  36  1   
 31  12  37  1   
 32  13  16  1   
 33  13  38  1   
 34  13  39  1   
 35  14  17  1   
 36  15  18  1   
 37  15  40  1   
 38  16  19  1   
 39  16  20  1   
 40  17  41  1   
 41  17  42  1   
 42  17  43  1   
 43  18  44  1   
 44  19  21  2   
 45  20  22  2   
 46  20  45  1   
 47  21  22  1   
 48  21  46  1   
 49  22  47  1   
@<TRIPOS>SUBSTRUCTURE
  1 ****   3 GROUP 4 **** **** 0

# MOE 2024.06 (io_trps.svl 2023.06)
