@<TRIPOS>MOLECULE
NONAME
40 42 1 0 0 
SMALL
USER_CHARGES


@<TRIPOS>ATOM
  1 F       -0.0500    -0.5580    -0.9040 F     1 <1>  -0.1900 
  2 C       -0.6740    -1.6710    -0.6140 C.ar  1 <1>   0.1900 
  3 C       -0.1200    -2.6310     0.2420 C.ar  1 <1>   0.0830 
  4 C       -1.9100    -1.8550    -1.2010 C.ar  1 <1>  -0.1500 
  5 O        1.0850    -2.5640     0.8800 O.3   1 <1>  -0.3630 
  6 C       -0.8580    -3.7800     0.4800 C.ar  1 <1>  -0.1500 
  7 C       -2.6160    -3.0140    -0.9430 C.ar  1 <1>  -0.1500 
  8 C        1.9130    -1.4240     0.8380 C.3   1 <1>   0.0400 
  9 C       -2.1110    -4.0030    -0.0960 C.ar  1 <1>   0.0530 
 10 C       -2.8320    -5.2260     0.1690 C.2   1 <1>   0.0870 
 11 O       -2.1520    -6.3330     0.3610 O.3   1 <1>  -0.0190 
 12 C       -4.1490    -5.5560     0.2590 C.2   1 <1>  -0.2330 
 13 N       -2.9150    -7.3740     0.5630 N.2   1 <1>  -0.4100 
 14 C       -4.1180    -6.9250     0.5130 C.2   1 <1>   0.3720 
 15 C       -5.3530    -4.7880     0.1410 C.2   1 <1>   1.0330 
 16 N       -5.2430    -7.7150     0.6810 N.pl3 1 <1>  -0.8520 
 17 O       -5.3420    -3.5510     0.2420 O.co2 1 <1>  -0.9000 
 18 O       -6.4420    -5.3510    -0.0900 O.co2 1 <1>  -0.9000 
 19 C       -5.3030    -8.8970    -0.1980 C.3   1 <1>   0.3040 
 20 C       -6.7250    -9.4990    -0.2620 C.3   1 <1>  -0.1900 
 21 C       -7.9340    -8.6120    -0.2700 C.3   1 <1>  -0.2000 
 22 C       -7.6320    -9.4700     0.9330 C.3   1 <1>  -0.2000 
 23 C       -6.7590   -10.7330    -1.1680 C.3   1 <1>   0.2150 
 24 O       -6.0230   -11.7300    -0.5610 O.3   1 <1>  -0.6800 
 25 H       -2.3190    -1.1010    -1.8500 H     1 <1>   0.1500 
 26 H       -0.4470    -4.5240     1.1370 H     1 <1>   0.1500 
 27 H       -3.5810    -3.1560    -1.3990 H     1 <1>   0.1500 
 28 H        2.7650    -1.6080     1.4670 H     1 <1>   0.0800 
 29 H        1.3630    -0.5770     1.2070 H     1 <1>   0.0800 
 30 H        2.2370    -1.2640    -0.1750 H     1 <1>   0.0800 
 31 H       -6.0570    -7.1000     0.4720 H     1 <1>   0.4000 
 32 H       -4.6110    -9.6320     0.1760 H     1 <1>   0.0800 
 33 H       -4.9890    -8.6140    -1.1880 H     1 <1>   0.0800 
 34 H       -8.7790    -8.8690    -0.8840 H     1 <1>   0.1000 
 35 H       -7.8230    -7.5440    -0.1740 H     1 <1>   0.1000 
 36 H       -7.3020    -8.9790     1.8330 H     1 <1>   0.1000 
 37 H       -8.2770   -10.3060     1.1360 H     1 <1>   0.1000 
 38 H       -6.3310   -10.5290    -2.1340 H     1 <1>   0.0800 
 39 H       -7.7660   -11.0930    -1.2930 H     1 <1>   0.0800 
 40 H       -6.2200   -11.7230     0.3960 H     1 <1>   0.4000 
@<TRIPOS>BOND
  1   1   2  1   
  2   2   3  ar  
  3   2   4  ar  
  4   3   5  1   
  5   3   6  ar  
  6   4   7  ar  
  7   4  25  1   
  8   5   8  1   
  9   6   9  ar  
 10   6  26  1   
 11   7   9  ar  
 12   7  27  1   
 13   8  28  1   
 14   8  29  1   
 15   8  30  1   
 16   9  10  1   
 17  10  11  1   
 18  10  12  2   
 19  11  13  1   
 20  12  14  1   
 21  12  15  1   
 22  13  14  2   
 23  14  16  1   
 24  15  17  ar  
 25  15  18  ar  
 26  16  19  1   
 27  16  31  1   
 28  19  20  1   
 29  19  32  1   
 30  19  33  1   
 31  20  21  1   
 32  20  22  1   
 33  20  23  1   
 34  21  22  1   
 35  21  34  1   
 36  21  35  1   
 37  22  36  1   
 38  22  37  1   
 39  23  24  1   
 40  23  38  1   
 41  23  39  1   
 42  24  40  1   
@<TRIPOS>SUBSTRUCTURE
  1 ****  12 GROUP 4 **** **** 0

# MOE 2024.06 (io_trps.svl 2023.06)
