@<TRIPOS>MOLECULE
NONAME
34 35 1 0 0 
SMALL
USER_CHARGES


@<TRIPOS>ATOM
  1 F        0.9110     0.1920    -0.1720 F     1 <1>  -0.1900 
  2 C        1.8870     1.0500    -0.2950 C.ar  1 <1>   0.1900 
  3 C        3.1820     0.5920    -0.4610 C.ar  1 <1>   0.1600 
  4 C        1.6050     2.3950    -0.2530 C.ar  1 <1>  -0.1500 
  5 N        4.2270     1.3990    -0.5970 N.ar  1 <1>  -0.6200 
  6 C        2.6820     3.2630    -0.3820 C.ar  1 <1>   0.0860 
  7 C        3.9470     2.6960    -0.5650 C.ar  1 <1>   0.1600 
  8 C        2.5070     4.6970    -0.3330 C.2   1 <1>   0.5440 
  9 O        1.5600     5.2040    -0.8970 O.2   1 <1>  -0.5700 
 10 N        3.4120     5.4690     0.3580 N.am  1 <1>  -0.4940 
 11 C        3.6070     6.8710     0.4100 C.2   1 <1>  -0.0880 
 12 N        2.6660     7.8590     0.3960 N.pl3 1 <1>   0.3140 
 13 C        4.8070     7.4950     0.5040 C.2   1 <1>  -0.1810 
 14 N        3.2360     9.0810     0.4760 N.2   1 <1>  -0.7070 
 15 C        1.2020     7.7480     0.4100 C.3   1 <1>   0.0160 
 16 C        4.5080     8.8540     0.5320 C.2   1 <1>   0.1080 
 17 C        6.1910     6.8700     0.5590 C.3   1 <1>   0.0210 
 18 C        5.5110     9.9820     0.6220 C.3   1 <1>  -0.0590 
 19 C        6.7330     6.6520    -0.8550 C.3   1 <1>  -0.2400 
 20 H        3.3590    -0.4700    -0.4840 H     1 <1>   0.1500 
 21 H        0.6000     2.7570    -0.1280 H     1 <1>   0.1500 
 22 H        4.7840     3.3610    -0.7000 H     1 <1>   0.1500 
 23 H        4.1430     4.9490     0.8420 H     1 <1>   0.3700 
 24 H        0.9140     6.8880     0.9840 H     1 <1>   0.0800 
 25 H        0.8500     7.6500    -0.5990 H     1 <1>   0.0800 
 26 H        0.7850     8.6340     0.8520 H     1 <1>   0.0800 
 27 H        6.1440     5.9290     1.0760 H     1 <1>   0.0800 
 28 H        6.8580     7.5100     1.1100 H     1 <1>   0.0800 
 29 H        6.3220     9.8110    -0.0600 H     1 <1>   0.0800 
 30 H        5.8900    10.0490     1.6240 H     1 <1>   0.0800 
 31 H        5.0350    10.9110     0.3670 H     1 <1>   0.0800 
 32 H        6.0740     6.0070    -1.4090 H     1 <1>   0.0800 
 33 H        7.7090     6.2030    -0.8150 H     1 <1>   0.0800 
 34 H        6.8040     7.5920    -1.3730 H     1 <1>   0.0800 
@<TRIPOS>BOND
  1   1   2  1   
  2   2   3  ar  
  3   2   4  ar  
  4   3   5  ar  
  5   3  20  1   
  6   4   6  ar  
  7   4  21  1   
  8   5   7  ar  
  9   6   7  ar  
 10   6   8  1   
 11   7  22  1   
 12   8   9  2   
 13   8  10  am  
 14  10  11  1   
 15  10  23  1   
 16  11  12  1   
 17  11  13  2   
 18  12  14  1   
 19  12  15  1   
 20  13  16  1   
 21  13  17  1   
 22  14  16  2   
 23  15  24  1   
 24  15  25  1   
 25  15  26  1   
 26  16  18  1   
 27  17  19  1   
 28  17  27  1   
 29  17  28  1   
 30  18  29  1   
 31  18  30  1   
 32  18  31  1   
 33  19  32  1   
 34  19  33  1   
 35  19  34  1   
@<TRIPOS>SUBSTRUCTURE
  1 ****  10 GROUP 4 **** **** 0

# MOE 2024.06 (io_trps.svl 2023.06)
