@<TRIPOS>MOLECULE
NONAME
45 46 1 0 0 
SMALL
USER_CHARGES


@<TRIPOS>ATOM
  1 O        2.1490    -1.6860     1.1940 O.co2 1 <1>  -0.9000 
  2 C        2.1060    -0.4870     1.5060 C.2   1 <1>   0.9060 
  3 O        1.9310    -0.1340     2.6770 O.co2 1 <1>  -0.9000 
  4 C        2.3210     0.5870     0.4140 C.3   1 <1>  -0.1060 
  5 C        3.3840     0.0860    -0.5990 C.3   1 <1>   0.2000 
  6 C        2.8930     1.8850     1.0540 C.3   1 <1>  -0.1600 
  7 C        0.9460     0.8710    -0.2550 C.3   1 <1>  -0.1600 
  8 O        2.9810    -1.1030    -1.1780 O.3   1 <1>  -0.6800 
  9 C        4.7560    -0.1270     0.0680 C.3   1 <1>   0.2090 
 10 C        4.2440     1.6260     1.7350 C.3   1 <1>   0.2090 
 11 C        0.9430     1.8670    -1.4300 C.3   1 <1>  -0.1600 
 12 N        5.2360     1.1570     0.7080 N.pl3 1 <1>  -0.8380 
 13 C       -0.4740     2.0490    -1.9790 C.3   1 <1>  -0.2400 
 14 C        6.4120     1.7660     0.3950 C.ar  1 <1>   0.4610 
 15 N        6.5890     3.0410     0.7770 N.ar  1 <1>  -0.1790 
 16 C        7.4710     1.1650    -0.3160 C.ar  1 <1>  -0.1500 
 17 C        7.7110     3.7650     0.5120 C.ar  1 <1>   0.2170 
 18 C        8.6220     1.8530    -0.6090 C.ar  1 <1>  -0.1430 
 19 C        8.7360     3.1830    -0.1820 C.ar  1 <1>  -0.1500 
 20 C        7.7700     5.2010     1.0010 C.3   1 <1>  -0.0970 
 21 C        9.7690     1.2140    -1.3750 C.3   1 <1>  -0.0970 
 22 H        3.5080     0.7940    -1.3970 H     1 <1>   0.0800 
 23 H        2.1980     2.2490     1.7910 H     1 <1>   0.0800 
 24 H        3.0210     2.6530     0.3160 H     1 <1>   0.0800 
 25 H        0.5470    -0.0670    -0.6060 H     1 <1>   0.0800 
 26 H        0.2710     1.2240     0.5060 H     1 <1>   0.0800 
 27 H        2.5900    -1.6420    -0.4240 H     1 <1>   0.4000 
 28 H        5.4310    -0.4700    -0.6900 H     1 <1>   0.0800 
 29 H        4.6770    -0.8920     0.8230 H     1 <1>   0.0800 
 30 H        4.1410     0.8680     2.4950 H     1 <1>   0.0800 
 31 H        4.5690     2.5170     2.2360 H     1 <1>   0.0800 
 32 H        1.3130     2.8250    -1.1140 H     1 <1>   0.0800 
 33 H        1.5710     1.5010    -2.2230 H     1 <1>   0.0800 
 34 H       -1.1280     2.4310    -1.2140 H     1 <1>   0.0800 
 35 H       -0.8620     1.1080    -2.3280 H     1 <1>   0.0800 
 36 H       -0.4660     2.7420    -2.8020 H     1 <1>   0.0800 
 37 H        5.8030     3.4510     1.2680 H     1 <1>   0.4570 
 38 H        7.3790     0.1420    -0.6220 H     1 <1>   0.1500 
 39 H        9.6370     3.7280    -0.4090 H     1 <1>   0.1500 
 40 H        8.7070     5.6550     0.7280 H     1 <1>   0.0800 
 41 H        7.6800     5.2350     2.0730 H     1 <1>   0.0800 
 42 H        6.9760     5.7800     0.5620 H     1 <1>   0.0800 
 43 H        9.9620     1.7630    -2.2800 H     1 <1>   0.0800 
 44 H        9.5380     0.1970    -1.6380 H     1 <1>   0.0800 
 45 H       10.6610     1.2150    -0.7740 H     1 <1>   0.0800 
@<TRIPOS>BOND
  1   1   2  ar  
  2   2   3  ar  
  3   2   4  1   
  4   4   5  1   
  5   4   6  1   
  6   4   7  1   
  7   5   8  1   
  8   5   9  1   
  9   5  22  1   
 10   6  10  1   
 11   6  23  1   
 12   6  24  1   
 13   7  11  1   
 14   7  25  1   
 15   7  26  1   
 16   8  27  1   
 17   9  12  1   
 18   9  28  1   
 19   9  29  1   
 20  10  12  1   
 21  10  30  1   
 22  10  31  1   
 23  11  13  1   
 24  11  32  1   
 25  11  33  1   
 26  12  14  1   
 27  13  34  1   
 28  13  35  1   
 29  13  36  1   
 30  14  15  ar  
 31  14  16  ar  
 32  15  17  ar  
 33  15  37  1   
 34  16  18  ar  
 35  16  38  1   
 36  17  19  ar  
 37  17  20  1   
 38  18  19  ar  
 39  18  21  1   
 40  19  39  1   
 41  20  40  1   
 42  20  41  1   
 43  20  42  1   
 44  21  43  1   
 45  21  44  1   
 46  21  45  1   
@<TRIPOS>SUBSTRUCTURE
  1 ****  12 GROUP 4 **** **** 0

# MOE 2024.06 (io_trps.svl 2023.06)
