@<TRIPOS>MOLECULE
NONAME
47 49 1 0 0 
SMALL
USER_CHARGES


@<TRIPOS>ATOM
  1 CL      -0.4960    -0.3290     0.9660 Cl    1 <1>  -0.1230 
  2 C       -0.4280    -1.9730     0.3580 C.2   1 <1>   0.1230 
  3 C        0.3250    -2.4260    -0.6720 C.2   1 <1>  -0.3020 
  4 C       -1.1560    -3.0340     0.8760 C.2   1 <1>  -0.1500 
  5 N        0.0900    -3.7540    -0.8180 N.pl3 1 <1>   0.0480 
  6 C       -0.8360    -4.1400     0.1260 C.2   1 <1>  -0.2370 
  7 C        0.7430    -4.6290    -1.8120 C.3   1 <1>   0.0160 
  8 C       -1.3190    -5.4900     0.2490 C.2   1 <1>   0.7150 
  9 O       -0.5150    -6.3990     0.3530 O.2   1 <1>  -0.5700 
 10 N       -2.6660    -5.7850     0.2260 N.am  1 <1>  -0.6600 
 11 C       -3.1620    -7.1890     0.4060 C.3   1 <1>   0.1400 
 12 C       -3.7020    -4.8300    -0.2650 C.3   1 <1>   0.1400 
 13 C       -3.9660    -7.3580     1.7020 C.3   1 <1>   0.1400 
 14 C       -4.4950    -4.1620     0.8700 C.3   1 <1>  -0.1600 
 15 N       -5.1150    -6.4030     1.7730 N.am  1 <1>  -0.6600 
 16 C       -4.7310    -5.0120     2.1250 C.3   1 <1>   0.1400 
 17 C       -6.3920    -6.7150     1.3560 C.2   1 <1>   0.7160 
 18 O       -7.2290    -5.8330     1.2950 O.2   1 <1>  -0.5700 
 19 C       -6.7350    -8.0560     0.9600 C.2   1 <1>  -0.0860 
 20 C       -7.0220    -8.5920    -0.2610 C.2   1 <1>  -0.3320 
 21 C       -6.8360    -9.1480     1.8220 C.2   1 <1>   0.1390 
 22 N       -7.2570    -9.9040    -0.0790 N.pl3 1 <1>   0.3140 
 23 C       -7.0870    -7.8740    -1.6000 C.3   1 <1>  -0.0600 
 24 N       -7.1310   -10.2500     1.2110 N.2   1 <1>  -0.7070 
 25 C       -7.6230   -10.8990    -1.0960 C.3   1 <1>   0.0160 
 26 H        1.0080    -1.8720    -1.2890 H     1 <1>   0.1500 
 27 H       -1.8220    -2.9690     1.7150 H     1 <1>   0.1500 
 28 H        1.3560    -4.0400    -2.4680 H     1 <1>   0.0800 
 29 H       -0.0080    -5.1420    -2.3840 H     1 <1>   0.0800 
 30 H        1.3550    -5.3490    -1.3000 H     1 <1>   0.0800 
 31 H       -2.3390    -7.8810     0.4290 H     1 <1>   0.0800 
 32 H       -3.7800    -7.4650    -0.4300 H     1 <1>   0.0800 
 33 H       -4.3940    -5.3680    -0.8910 H     1 <1>   0.0800 
 34 H       -3.2490    -4.0720    -0.8800 H     1 <1>   0.0800 
 35 H       -3.3130    -7.2000     2.5430 H     1 <1>   0.0800 
 36 H       -4.3140    -8.3730     1.7620 H     1 <1>   0.0800 
 37 H       -5.4510    -3.8650     0.4770 H     1 <1>   0.0800 
 38 H       -4.0010    -3.2560     1.1610 H     1 <1>   0.0800 
 39 H       -5.5090    -4.5640     2.7210 H     1 <1>   0.0800 
 40 H       -3.8330    -5.0280     2.7190 H     1 <1>   0.0800 
 41 H       -6.6820    -9.0840     2.8860 H     1 <1>   0.1500 
 42 H       -6.8830    -6.8250    -1.4730 H     1 <1>   0.0800 
 43 H       -8.0700    -7.9750    -2.0260 H     1 <1>   0.0800 
 44 H       -6.3640    -8.2850    -2.2810 H     1 <1>   0.0800 
 45 H       -6.8670   -10.9210    -1.8580 H     1 <1>   0.0800 
 46 H       -8.5710   -10.6320    -1.5230 H     1 <1>   0.0800 
 47 H       -7.6960   -11.8650    -0.6330 H     1 <1>   0.0800 
@<TRIPOS>BOND
  1   1   2  1   
  2   2   3  2   
  3   2   4  1   
  4   3   5  1   
  5   3  26  1   
  6   4   6  2   
  7   4  27  1   
  8   5   6  1   
  9   5   7  1   
 10   6   8  1   
 11   7  28  1   
 12   7  29  1   
 13   7  30  1   
 14   8   9  2   
 15   8  10  am  
 16  10  11  1   
 17  10  12  1   
 18  11  13  1   
 19  11  31  1   
 20  11  32  1   
 21  12  14  1   
 22  12  33  1   
 23  12  34  1   
 24  13  15  1   
 25  13  35  1   
 26  13  36  1   
 27  14  16  1   
 28  14  37  1   
 29  14  38  1   
 30  15  16  1   
 31  15  17  am  
 32  16  39  1   
 33  16  40  1   
 34  17  18  2   
 35  17  19  1   
 36  19  20  2   
 37  19  21  1   
 38  20  22  1   
 39  20  23  1   
 40  21  24  2   
 41  21  41  1   
 42  22  24  1   
 43  22  25  1   
 44  23  42  1   
 45  23  43  1   
 46  23  44  1   
 47  25  45  1   
 48  25  46  1   
 49  25  47  1   
@<TRIPOS>SUBSTRUCTURE
  1 ****  10 GROUP 4 **** **** 0

# MOE 2024.06 (io_trps.svl 2023.06)
