@<TRIPOS>MOLECULE
NONAME
51 52 1 0 0 
SMALL
USER_CHARGES


@<TRIPOS>ATOM
  1 S       -0.2090    -0.1280     0.2600 S.o2  1 <1>   1.3330 
  2 O       -0.9790     1.0890     0.1470 O.2   1 <1>  -0.6500 
  3 O       -0.0300    -0.7390     1.5580 O.2   1 <1>  -0.6500 
  4 N       -0.8970    -1.2910    -0.7680 N.am  1 <1>  -0.8490 
  5 C        1.3890     0.1650    -0.4990 C.3   1 <1>  -0.0550 
  6 C       -0.4930    -2.6640    -0.4470 C.3   1 <1>   0.1160 
  7 C       -2.3590    -1.1990    -0.8130 C.3   1 <1>   0.1160 
  8 C        2.2090     1.2710     0.1960 C.3   1 <1>  -0.0800 
  9 C        3.4370     1.6350    -0.6190 C.3   1 <1>   0.2200 
 10 C        2.8290     0.7890     1.5120 C.3   1 <1>   0.1200 
 11 N        3.8710     3.0030    -0.2560 N.am  1 <1>  -0.7300 
 12 C        4.4600     0.6240    -0.1150 C.3   1 <1>   0.1200 
 13 O        4.1290     0.3660     1.2180 O.3   1 <1>  -0.5600 
 14 C        3.9610     4.0600    -1.1160 C.2   1 <1>   0.5440 
 15 O        3.6930     3.8700    -2.2870 O.2   1 <1>  -0.5700 
 16 C        4.3820     5.3670    -0.6470 C.ar  1 <1>   0.0860 
 17 C        4.2090     5.7700     0.6800 C.ar  1 <1>  -0.1500 
 18 C        4.9820     6.2820    -1.5150 C.ar  1 <1>  -0.1500 
 19 C        4.6250     7.0130     1.1160 C.ar  1 <1>  -0.1500 
 20 C        5.4010     7.5280    -1.0870 C.ar  1 <1>  -0.1500 
 21 C        5.2260     7.9030     0.2410 C.ar  1 <1>   0.0820 
 22 O        5.6060     9.0970     0.7460 O.3   1 <1>  -0.3630 
 23 C        6.2110    10.0840    -0.0580 C.3   1 <1>   0.1200 
 24 C        6.5030    11.3030     0.8180 C.3   1 <1>  -0.1600 
 25 C        7.1650    12.4250     0.0110 C.3   1 <1>  -0.2400 
 26 H        1.9520    -0.7470    -0.5130 H     1 <1>   0.0800 
 27 H        1.2170     0.4590    -1.5170 H     1 <1>   0.0800 
 28 H       -0.8810    -3.3460    -1.1850 H     1 <1>   0.0800 
 29 H       -0.8650    -2.9490     0.5230 H     1 <1>   0.0800 
 30 H        0.5800    -2.7450    -0.4420 H     1 <1>   0.0800 
 31 H       -2.7600    -1.9390    -1.4840 H     1 <1>   0.0800 
 32 H       -2.6570    -0.2270    -1.1690 H     1 <1>   0.0800 
 33 H       -2.7740    -1.3480     0.1700 H     1 <1>   0.0800 
 34 H        1.5760     2.1300     0.3470 H     1 <1>   0.0800 
 35 H        3.2820     1.5550    -1.6830 H     1 <1>   0.0800 
 36 H        2.2970    -0.0260     1.9700 H     1 <1>   0.0800 
 37 H        2.9050     1.6000     2.2150 H     1 <1>   0.0800 
 38 H        4.2360     3.0890     0.6940 H     1 <1>   0.3700 
 39 H        5.4690     0.9910    -0.1740 H     1 <1>   0.0800 
 40 H        4.3770    -0.3020    -0.6560 H     1 <1>   0.0800 
 41 H        3.7330     5.1080     1.3810 H     1 <1>   0.1500 
 42 H        5.1200     6.0030    -2.5460 H     1 <1>   0.1500 
 43 H        4.4860     7.3090     2.1410 H     1 <1>   0.1500 
 44 H        5.8580     8.1910    -1.7980 H     1 <1>   0.1500 
 45 H        7.1230     9.6800    -0.4630 H     1 <1>   0.0800 
 46 H        5.5300    10.3400    -0.8510 H     1 <1>   0.0800 
 47 H        5.5800    11.6640     1.2380 H     1 <1>   0.0800 
 48 H        7.1560    11.0110     1.6220 H     1 <1>   0.0800 
 49 H        6.5210    12.7450    -0.7900 H     1 <1>   0.0800 
 50 H        8.0990    12.0910    -0.4050 H     1 <1>   0.0800 
 51 H        7.3590    13.2700     0.6490 H     1 <1>   0.0800 
@<TRIPOS>BOND
  1   1   2  2   
  2   1   3  2   
  3   1   4  am  
  4   1   5  1   
  5   4   6  1   
  6   4   7  1   
  7   5   8  1   
  8   5  26  1   
  9   5  27  1   
 10   6  28  1   
 11   6  29  1   
 12   6  30  1   
 13   7  31  1   
 14   7  32  1   
 15   7  33  1   
 16   8   9  1   
 17   8  10  1   
 18   8  34  1   
 19   9  11  1   
 20   9  12  1   
 21   9  35  1   
 22  10  13  1   
 23  10  36  1   
 24  10  37  1   
 25  11  14  am  
 26  11  38  1   
 27  12  13  1   
 28  12  39  1   
 29  12  40  1   
 30  14  15  2   
 31  14  16  1   
 32  16  17  ar  
 33  16  18  ar  
 34  17  19  ar  
 35  17  41  1   
 36  18  20  ar  
 37  18  42  1   
 38  19  21  ar  
 39  19  43  1   
 40  20  21  ar  
 41  20  44  1   
 42  21  22  1   
 43  22  23  1   
 44  23  24  1   
 45  23  45  1   
 46  23  46  1   
 47  24  25  1   
 48  24  47  1   
 49  24  48  1   
 50  25  49  1   
 51  25  50  1   
 52  25  51  1   
@<TRIPOS>SUBSTRUCTURE
  1 ****  11 GROUP 4 **** **** 0

# MOE 2024.06 (io_trps.svl 2023.06)
