@<TRIPOS>MOLECULE
NONAME
59 61 1 0 0 
SMALL
USER_CHARGES


@<TRIPOS>ATOM
  1 O        0.9200    -0.4950     0.2980 O.3   1 <1>  -0.3630 
  2 C        0.3080    -1.5630    -0.2730 C.ar  1 <1>   0.0830 
  3 C        0.3920     0.8090     0.2070 C.3   1 <1>   0.1200 
  4 C        0.9590    -2.7900    -0.2080 C.ar  1 <1>  -0.1440 
  5 C       -0.9290    -1.4770    -0.9080 C.ar  1 <1>  -0.1500 
  6 C        1.3580     1.7580     0.9090 C.3   1 <1>  -0.2400 
  7 C        0.3720    -3.9080    -0.7730 C.ar  1 <1>  -0.1500 
  8 C        2.3070    -2.9530     0.4780 C.3   1 <1>   0.2630 
  9 C       -1.5150    -2.6050    -1.4560 C.ar  1 <1>  -0.1500 
 10 C       -0.8720    -3.8300    -1.3800 C.ar  1 <1>  -0.1440 
 11 O        2.1200    -3.7910     1.5650 O.3   1 <1>  -0.6800 
 12 C       -1.5140    -5.0910    -1.9140 C.3   1 <1>   0.4860 
 13 N       -1.7940    -5.9520    -0.7300 N.4   1 <1>  -0.9590 
 14 C       -1.9970    -7.3960    -1.1030 C.3   1 <1>   0.3430 
 15 C       -2.9440    -5.3970     0.0440 C.3   1 <1>   0.3430 
 16 C       -2.3080    -8.3120     0.1240 C.3   1 <1>   0.4230 
 17 C       -3.1690    -6.2410     1.3030 C.3   1 <1>  -0.1600 
 18 N       -2.4660    -9.8010    -0.1870 N.4   1 <1>  -0.9590 
 19 C       -3.4500    -7.7430     1.0190 C.3   1 <1>   0.0000 
 20 C       -3.0980   -10.5890     0.9280 C.3   1 <1>   0.3430 
 21 C       -3.1900   -10.1090    -1.4670 C.3   1 <1>   0.2630 
 22 C       -3.4340    -8.5030     2.3750 C.3   1 <1>  -0.1600 
 23 C       -4.8690    -7.8900     0.3960 C.3   1 <1>   0.1200 
 24 C       -2.8500    -9.9280     2.2850 C.3   1 <1>  -0.1600 
 25 O       -4.9000    -7.4520    -0.9210 O.3   1 <1>  -0.6800 
 26 H        0.2970     1.0670    -0.8340 H     1 <1>   0.0800 
 27 H       -0.5710     0.8230     0.6870 H     1 <1>   0.0800 
 28 H       -1.4500    -0.5410    -0.9820 H     1 <1>   0.1500 
 29 H        2.3210     1.7260     0.4320 H     1 <1>   0.0800 
 30 H        1.4600     1.4830     1.9440 H     1 <1>   0.0800 
 31 H        0.9830     2.7640     0.8570 H     1 <1>   0.0800 
 32 H        0.9090    -4.8410    -0.7190 H     1 <1>   0.1500 
 33 H        2.7140    -2.0210     0.8310 H     1 <1>   0.0800 
 34 H        3.0160    -3.4170    -0.1850 H     1 <1>   0.0800 
 35 H       -2.4750    -2.5090    -1.9360 H     1 <1>   0.1500 
 36 H        1.6080    -3.3070     2.2420 H     1 <1>   0.4000 
 37 H       -0.8260    -5.5790    -2.5860 H     1 <1>   0.0800 
 38 H       -2.4230    -4.8620    -2.4480 H     1 <1>   0.0800 
 39 H       -0.9600    -5.8370    -0.1340 H     1 <1>   0.4500 
 40 H       -2.8140    -7.4590    -1.8020 H     1 <1>   0.0800 
 41 H       -1.1090    -7.7610    -1.5920 H     1 <1>   0.0800 
 42 H       -2.7370    -4.3760     0.3310 H     1 <1>   0.0800 
 43 H       -3.8360    -5.3970    -0.5630 H     1 <1>   0.0800 
 44 H       -1.4270    -8.2410     0.7400 H     1 <1>   0.0800 
 45 H       -2.2980    -6.1300     1.9270 H     1 <1>   0.0800 
 46 H       -3.9930    -5.8170     1.8510 H     1 <1>   0.0800 
 47 H       -1.5140   -10.1880    -0.2800 H     1 <1>   0.4500 
 48 H       -4.1620   -10.6550     0.7710 H     1 <1>   0.0800 
 49 H       -2.7060   -11.5940     0.9350 H     1 <1>   0.0800 
 50 H       -4.1950    -9.7230    -1.4370 H     1 <1>   0.0800 
 51 H       -3.2410   -11.1760    -1.6190 H     1 <1>   0.0800 
 52 H       -2.6800    -9.6750    -2.3110 H     1 <1>   0.0800 
 53 H       -2.8530    -7.9710     3.1110 H     1 <1>   0.0800 
 54 H       -4.4340    -8.5560     2.7750 H     1 <1>   0.0800 
 55 H       -5.5850    -7.3090     0.9560 H     1 <1>   0.0800 
 56 H       -5.2000    -8.9130     0.4050 H     1 <1>   0.0800 
 57 H       -3.2890   -10.5370     3.0570 H     1 <1>   0.0800 
 58 H       -1.7900    -9.9080     2.4750 H     1 <1>   0.0800 
 59 H       -5.8320    -7.3980    -1.2380 H     1 <1>   0.4000 
@<TRIPOS>BOND
  1   1   2  1   
  2   1   3  1   
  3   2   4  ar  
  4   2   5  ar  
  5   3   6  1   
  6   3  26  1   
  7   3  27  1   
  8   4   7  ar  
  9   4   8  1   
 10   5   9  ar  
 11   5  28  1   
 12   6  29  1   
 13   6  30  1   
 14   6  31  1   
 15   7  10  ar  
 16   7  32  1   
 17   8  11  1   
 18   8  33  1   
 19   8  34  1   
 20   9  10  ar  
 21   9  35  1   
 22  10  12  1   
 23  11  36  1   
 24  12  13  1   
 25  12  37  1   
 26  12  38  1   
 27  13  14  1   
 28  13  15  1   
 29  13  39  1   
 30  14  16  1   
 31  14  40  1   
 32  14  41  1   
 33  15  17  1   
 34  15  42  1   
 35  15  43  1   
 36  16  18  1   
 37  16  19  1   
 38  16  44  1   
 39  17  19  1   
 40  17  45  1   
 41  17  46  1   
 42  18  20  1   
 43  18  21  1   
 44  18  47  1   
 45  19  22  1   
 46  19  23  1   
 47  20  24  1   
 48  20  48  1   
 49  20  49  1   
 50  21  50  1   
 51  21  51  1   
 52  21  52  1   
 53  22  24  1   
 54  22  53  1   
 55  22  54  1   
 56  23  25  1   
 57  23  55  1   
 58  23  56  1   
 59  24  57  1   
 60  24  58  1   
 61  25  59  1   
@<TRIPOS>SUBSTRUCTURE
  1 ****  13 GROUP 4 **** **** 0

# MOE 2024.06 (io_trps.svl 2023.06)
