@<TRIPOS>MOLECULE
NONAME
50 51 1 0 0 
SMALL
USER_CHARGES


@<TRIPOS>ATOM
  1 S        0.0260     0.0110     0.9440 S.o2  1 <1>   1.3330 
  2 O       -0.8440    -1.0930     1.2630 O.2   1 <1>  -0.6500 
  3 O        0.9210     0.5640     1.9370 O.2   1 <1>  -0.6500 
  4 N        0.9690    -0.4100    -0.4030 N.am  1 <1>  -0.8490 
  5 C       -0.9440     1.3940     0.3350 C.3   1 <1>  -0.0550 
  6 C        0.2240    -1.2030    -1.3930 C.3   1 <1>   0.1160 
  7 C        2.1650    -1.1650    -0.0060 C.3   1 <1>   0.1160 
  8 C       -0.0830     2.5370    -0.2600 C.3   1 <1>  -0.0800 
  9 C       -0.8640     3.7500    -0.7590 C.3   1 <1>   0.2000 
 10 C        0.9690     3.1160     0.6990 C.3   1 <1>   0.3430 
 11 O       -1.8820     4.0690     0.1330 O.3   1 <1>  -0.6800 
 12 C        0.1840     4.8630    -0.7620 C.3   1 <1>   0.3430 
 13 N        1.0610     4.5870     0.4230 N.4   1 <1>  -0.9590 
 14 C        2.4710     5.0430     0.2540 C.3   1 <1>   0.3430 
 15 C        2.5270     6.5680     0.1970 C.3   1 <1>  -0.1600 
 16 C        3.9720     7.0590     0.1040 C.3   1 <1>   0.1200 
 17 O        3.9270     8.4610     0.0280 O.3   1 <1>  -0.3630 
 18 C        5.0610     9.1990    -0.0740 C.ar  1 <1>   0.0820 
 19 C        4.9030    10.5740    -0.1570 C.ar  1 <1>  -0.1500 
 20 C        6.3430     8.6550    -0.0980 C.ar  1 <1>  -0.1500 
 21 C        6.0060    11.4020    -0.2650 C.ar  1 <1>  -0.1500 
 22 C        7.4450     9.4860    -0.2060 C.ar  1 <1>  -0.1500 
 23 C        7.2780    10.8580    -0.2890 C.ar  1 <1>  -0.1500 
 24 H       -1.6230     1.0430    -0.4180 H     1 <1>   0.0800 
 25 H       -1.5390     1.7670     1.1460 H     1 <1>   0.0800 
 26 H        0.8430    -1.3990    -2.2520 H     1 <1>   0.0800 
 27 H       -0.6510    -0.6710    -1.7220 H     1 <1>   0.0800 
 28 H       -0.0870    -2.1450    -0.9680 H     1 <1>   0.0800 
 29 H        2.7540    -1.4180    -0.8710 H     1 <1>   0.0800 
 30 H        1.8840    -2.0730     0.5050 H     1 <1>   0.0800 
 31 H        2.7760    -0.5760     0.6560 H     1 <1>   0.0800 
 32 H        0.4570     2.1370    -1.1020 H     1 <1>   0.0800 
 33 H       -1.3050     3.6020    -1.7310 H     1 <1>   0.0800 
 34 H        1.9160     2.6230     0.5460 H     1 <1>   0.0800 
 35 H        0.6680     2.9560     1.7230 H     1 <1>   0.0800 
 36 H       -1.5890     4.1080     1.0630 H     1 <1>   0.4000 
 37 H       -0.2760     5.8370    -0.7140 H     1 <1>   0.0800 
 38 H        0.7660     4.7900    -1.6660 H     1 <1>   0.0800 
 39 H        0.6650     5.0880     1.2310 H     1 <1>   0.4500 
 40 H        3.0620     4.7010     1.0900 H     1 <1>   0.0800 
 41 H        2.8890     4.6250    -0.6480 H     1 <1>   0.0800 
 42 H        2.0860     6.9820     1.0870 H     1 <1>   0.0800 
 43 H        1.9970     6.9280    -0.6670 H     1 <1>   0.0800 
 44 H        4.4550     6.6910    -0.7850 H     1 <1>   0.0800 
 45 H        4.5360     6.7870     0.9800 H     1 <1>   0.0800 
 46 H        3.9130    10.9920    -0.1380 H     1 <1>   0.1500 
 47 H        6.5080     7.5980    -0.0350 H     1 <1>   0.1500 
 48 H        5.8740    12.4690    -0.3290 H     1 <1>   0.1500 
 49 H        8.4360     9.0670    -0.2250 H     1 <1>   0.1500 
 50 H        8.1370    11.5020    -0.3730 H     1 <1>   0.1500 
@<TRIPOS>BOND
  1   1   2  2   
  2   1   3  2   
  3   1   4  am  
  4   1   5  1   
  5   4   6  1   
  6   4   7  1   
  7   5   8  1   
  8   5  24  1   
  9   5  25  1   
 10   6  26  1   
 11   6  27  1   
 12   6  28  1   
 13   7  29  1   
 14   7  30  1   
 15   7  31  1   
 16   8   9  1   
 17   8  10  1   
 18   8  32  1   
 19   9  11  1   
 20   9  12  1   
 21   9  33  1   
 22  10  13  1   
 23  10  34  1   
 24  10  35  1   
 25  11  36  1   
 26  12  13  1   
 27  12  37  1   
 28  12  38  1   
 29  13  14  1   
 30  13  39  1   
 31  14  15  1   
 32  14  40  1   
 33  14  41  1   
 34  15  16  1   
 35  15  42  1   
 36  15  43  1   
 37  16  17  1   
 38  16  44  1   
 39  16  45  1   
 40  17  18  1   
 41  18  19  ar  
 42  18  20  ar  
 43  19  21  ar  
 44  19  46  1   
 45  20  22  ar  
 46  20  47  1   
 47  21  23  ar  
 48  21  48  1   
 49  22  23  ar  
 50  22  49  1   
 51  23  50  1   
@<TRIPOS>SUBSTRUCTURE
  1 ****  14 GROUP 4 **** **** 0

# MOE 2024.06 (io_trps.svl 2023.06)
