@<TRIPOS>MOLECULE
NONAME
46 48 1 0 0 
SMALL
USER_CHARGES


@<TRIPOS>ATOM
  1 S       -0.8690     0.0500    -0.0550 S.3   1 <1>  -0.0800 
  2 C        0.7520    -0.5050    -0.4660 C.2   1 <1>   0.3250 
  3 C       -1.3950    -1.5930     0.1060 C.2   1 <1>  -0.1100 
  4 N        0.8380    -1.7930    -0.4700 N.2   1 <1>  -0.5650 
  5 C        1.7830     0.4730    -0.7460 C.ar  1 <1>   0.3630 
  6 C       -0.3570    -2.4060    -0.1510 C.2   1 <1>   0.0460 
  7 N        1.5030     1.7840    -0.7040 N.ar  1 <1>  -0.6200 
  8 C        3.0730     0.0210    -1.0610 C.ar  1 <1>   0.1600 
  9 C       -0.3460    -3.9270    -0.1300 C.3   1 <1>   0.0210 
 10 C        2.5400     2.5520    -0.9820 C.ar  1 <1>   0.1600 
 11 N        4.1140     0.7880    -1.3400 N.ar  1 <1>  -0.6200 
 12 C       -1.7250    -4.5300     0.1480 C.3   1 <1>   0.1400 
 13 C        3.8050     2.0720    -1.2900 C.ar  1 <1>   0.1600 
 14 N       -1.6420    -6.0070     0.1570 N.am  1 <1>  -0.7300 
 15 C       -1.9050    -6.8180     1.2150 C.2   1 <1>   0.5690 
 16 O       -2.2310    -6.3800     2.2930 O.2   1 <1>  -0.5700 
 17 C       -1.7730    -8.3290     1.0250 C.3   1 <1>   0.2010 
 18 N       -2.6980    -8.8730    -0.0300 N.am  1 <1>  -0.6600 
 19 C       -2.3780    -8.7430    -1.3530 C.2   1 <1>   0.5690 
 20 C       -4.0220    -9.3390     0.4570 C.3   1 <1>   0.1400 
 21 O       -1.3610    -8.1900    -1.7050 O.2   1 <1>  -0.5700 
 22 C       -3.3140    -9.2600    -2.4300 C.3   1 <1>  -0.0990 
 23 C       -5.1420    -8.4100    -0.0230 C.3   1 <1>  -0.1600 
 24 C       -4.5930    -8.4150    -2.5520 C.3   1 <1>  -0.1600 
 25 C       -5.6250    -8.7030    -1.4530 C.3   1 <1>  -0.1600 
 26 H       -2.4200    -1.7650     0.3770 H     1 <1>   0.1500 
 27 H        3.2390    -1.0420    -1.0800 H     1 <1>   0.1500 
 28 H        0.3410    -4.2510     0.6310 H     1 <1>   0.0800 
 29 H        0.0080    -4.2780    -1.0820 H     1 <1>   0.0800 
 30 H        2.3830     3.6160    -0.9650 H     1 <1>   0.1500 
 31 H       -2.4210    -4.2220    -0.6130 H     1 <1>   0.0800 
 32 H       -2.0850    -4.1830     1.1020 H     1 <1>   0.0800 
 33 H        4.5900     2.7760    -1.5030 H     1 <1>   0.1500 
 34 H       -1.4180    -6.4740    -0.7370 H     1 <1>   0.3700 
 35 H       -1.9560    -8.8170     1.9640 H     1 <1>   0.0800 
 36 H       -0.7560    -8.5410     0.7450 H     1 <1>   0.0800 
 37 H       -4.0230    -9.3490     1.5340 H     1 <1>   0.0800 
 38 H       -4.2000   -10.3480     0.1230 H     1 <1>   0.0800 
 39 H       -3.5540   -10.2890    -2.2390 H     1 <1>   0.0800 
 40 H       -2.7880    -9.2220    -3.3660 H     1 <1>   0.0800 
 41 H       -4.8330    -7.3830     0.0720 H     1 <1>   0.0800 
 42 H       -5.9820    -8.5490     0.6350 H     1 <1>   0.0800 
 43 H       -5.0500    -8.6260    -3.5040 H     1 <1>   0.0800 
 44 H       -4.3340    -7.3700    -2.5450 H     1 <1>   0.0800 
 45 H       -6.4940    -8.0970    -1.6450 H     1 <1>   0.0800 
 46 H       -5.9390    -9.7310    -1.5190 H     1 <1>   0.0800 
@<TRIPOS>BOND
  1   1   2  1   
  2   1   3  1   
  3   2   4  2   
  4   2   5  1   
  5   3   6  2   
  6   3  26  1   
  7   4   6  1   
  8   5   7  ar  
  9   5   8  ar  
 10   6   9  1   
 11   7  10  ar  
 12   8  11  ar  
 13   8  27  1   
 14   9  12  1   
 15   9  28  1   
 16   9  29  1   
 17  10  13  ar  
 18  10  30  1   
 19  11  13  ar  
 20  12  14  1   
 21  12  31  1   
 22  12  32  1   
 23  13  33  1   
 24  14  15  am  
 25  14  34  1   
 26  15  16  2   
 27  15  17  1   
 28  17  18  1   
 29  17  35  1   
 30  17  36  1   
 31  18  19  am  
 32  18  20  1   
 33  19  21  2   
 34  19  22  1   
 35  20  23  1   
 36  20  37  1   
 37  20  38  1   
 38  22  24  1   
 39  22  39  1   
 40  22  40  1   
 41  23  25  1   
 42  23  41  1   
 43  23  42  1   
 44  24  25  1   
 45  24  43  1   
 46  24  44  1   
 47  25  45  1   
 48  25  46  1   
@<TRIPOS>SUBSTRUCTURE
  1 ****   9 GROUP 4 **** **** 0

# MOE 2024.06 (io_trps.svl 2023.06)
