@<TRIPOS>MOLECULE
NONAME
53 56 1 0 0 
SMALL
USER_CHARGES


@<TRIPOS>ATOM
  1 O       -0.0250     0.2910     0.8700 O.3   1 <1>  -0.6800 
  2 C        1.0270     0.3580    -0.0340 C.3   1 <1>   0.2000 
  3 C        1.7800    -0.9710     0.0290 C.3   1 <1>  -0.0800 
  4 C        2.0470     1.3820     0.4970 C.3   1 <1>   0.3430 
  5 C        2.5560    -0.7930     1.3360 C.3   1 <1>   0.3430 
  6 C        2.6760    -1.1580    -1.2290 C.3   1 <1>  -0.0170 
  7 N        3.0750     0.5900     1.2500 N.4   1 <1>  -0.9590 
  8 C        4.0830    -1.6680    -0.9430 C.ar  1 <1>   0.1670 
  9 C        3.4650     1.1930     2.5410 C.3   1 <1>   0.5240 
 10 N        4.9580    -0.7690    -0.5060 N.ar  1 <1>  -0.6200 
 11 C        4.3930    -3.0120    -1.1480 C.ar  1 <1>   0.1600 
 12 C        4.1550     2.5060     2.2450 C.2   1 <1>  -0.1810 
 13 C        6.1590    -1.3010    -0.3180 C.ar  1 <1>   0.1600 
 14 N        5.5830    -3.5410    -0.9310 N.ar  1 <1>  -0.6200 
 15 C        3.9600     3.6900     2.9440 C.2   1 <1>   0.1390 
 16 C        5.0540     2.8260     1.2860 C.2   1 <1>  -0.3020 
 17 C        6.4600    -2.6430    -0.5200 C.ar  1 <1>   0.1600 
 18 N        4.6620     4.6610     2.4590 N.2   1 <1>  -0.7070 
 19 N        5.3660     4.1410     1.4210 N.pl3 1 <1>   0.5930 
 20 C        6.2330     4.9000     0.5840 C.ar  1 <1>  -0.0230 
 21 C        7.3770     4.3330     0.0280 C.ar  1 <1>  -0.1500 
 22 C        5.9510     6.2290     0.2950 C.ar  1 <1>  -0.1500 
 23 C        8.2100     5.0600    -0.8070 C.ar  1 <1>  -0.1440 
 24 C        6.7760     6.9610    -0.5370 C.ar  1 <1>  -0.1500 
 25 C        7.9060     6.3850    -1.0950 C.ar  1 <1>  -0.1440 
 26 C        9.4470     4.3880    -1.3900 C.3   1 <1>  -0.0970 
 27 C        8.7880     7.2270    -2.0070 C.3   1 <1>  -0.0970 
 28 H       -0.8040    -0.1640     0.4840 H     1 <1>   0.4000 
 29 H        0.6370     0.6180    -1.0050 H     1 <1>   0.0800 
 30 H        1.1080    -1.8090     0.1090 H     1 <1>   0.0800 
 31 H        1.5520     2.0990     1.1300 H     1 <1>   0.0800 
 32 H        2.5210     1.8990    -0.3210 H     1 <1>   0.0800 
 33 H        3.3510    -1.5140     1.4440 H     1 <1>   0.0800 
 34 H        1.8750    -0.8790     2.1680 H     1 <1>   0.0800 
 35 H        2.7840    -0.2270    -1.7600 H     1 <1>   0.0800 
 36 H        2.1830    -1.8310    -1.9080 H     1 <1>   0.0800 
 37 H        3.9270     0.5270     0.6600 H     1 <1>   0.4500 
 38 H        2.5920     1.3590     3.1510 H     1 <1>   0.0800 
 39 H        4.1420     0.5410     3.0690 H     1 <1>   0.0800 
 40 H        3.6300    -3.6810    -1.5060 H     1 <1>   0.1500 
 41 H        6.9490    -0.6500     0.0140 H     1 <1>   0.1500 
 42 H        3.3040     3.8150     3.7920 H     1 <1>   0.1500 
 43 H        5.4930     2.2250     0.5120 H     1 <1>   0.1500 
 44 H        7.4640    -2.9850    -0.3360 H     1 <1>   0.1500 
 45 H        7.6230     3.3120     0.2540 H     1 <1>   0.1500 
 46 H        5.0790     6.6950     0.7240 H     1 <1>   0.1500 
 47 H        6.5310     7.9880    -0.7450 H     1 <1>   0.1500 
 48 H        9.5400     3.3760    -1.0430 H     1 <1>   0.0800 
 49 H       10.3300     4.9260    -1.0950 H     1 <1>   0.0800 
 50 H        9.3870     4.3740    -2.4630 H     1 <1>   0.0800 
 51 H        8.3850     8.2150    -2.1300 H     1 <1>   0.0800 
 52 H        8.8590     6.7690    -2.9780 H     1 <1>   0.0800 
 53 H        9.7740     7.3150    -1.5870 H     1 <1>   0.0800 
@<TRIPOS>BOND
  1   1   2  1   
  2   1  28  1   
  3   2   3  1   
  4   2   4  1   
  5   2  29  1   
  6   3   5  1   
  7   3   6  1   
  8   3  30  1   
  9   4   7  1   
 10   4  31  1   
 11   4  32  1   
 12   5   7  1   
 13   5  33  1   
 14   5  34  1   
 15   6   8  1   
 16   6  35  1   
 17   6  36  1   
 18   7   9  1   
 19   7  37  1   
 20   8  10  ar  
 21   8  11  ar  
 22   9  12  1   
 23   9  38  1   
 24   9  39  1   
 25  10  13  ar  
 26  11  14  ar  
 27  11  40  1   
 28  12  15  1   
 29  12  16  2   
 30  13  17  ar  
 31  13  41  1   
 32  14  17  ar  
 33  15  18  2   
 34  15  42  1   
 35  16  19  1   
 36  16  43  1   
 37  17  44  1   
 38  18  19  1   
 39  19  20  1   
 40  20  21  ar  
 41  20  22  ar  
 42  21  23  ar  
 43  21  45  1   
 44  22  24  ar  
 45  22  46  1   
 46  23  25  ar  
 47  23  26  1   
 48  24  25  ar  
 49  24  47  1   
 50  25  27  1   
 51  26  48  1   
 52  26  49  1   
 53  26  50  1   
 54  27  51  1   
 55  27  52  1   
 56  27  53  1   
@<TRIPOS>SUBSTRUCTURE
  1 ****  16 GROUP 4 **** **** 0

# MOE 2024.06 (io_trps.svl 2023.06)
