@<TRIPOS>MOLECULE
NONAME
22 22 1 0 0 
SMALL
USER_CHARGES


@<TRIPOS>ATOM
  1 O       -0.7180    -0.1080     0.5700 O.3   1 <1>  -0.3630 
  2 C       -0.4690    -1.3910     0.2170 C.ar  1 <1>   0.3920 
  3 C        0.3350     0.8110     0.7870 C.3   1 <1>   0.0400 
  4 N        0.8020    -1.7530     0.0610 N.ar  1 <1>  -0.6200 
  5 C       -1.5620    -2.2410     0.0350 C.ar  1 <1>  -0.1430 
  6 C        1.0000    -3.0120    -0.2870 C.ar  1 <1>   0.1600 
  7 C       -1.3200    -3.5530    -0.3310 C.ar  1 <1>  -0.1500 
  8 C       -2.9710    -1.6860     0.2380 C.3   1 <1>   0.3440 
  9 C       -0.0060    -3.9370    -0.4930 C.ar  1 <1>  -0.1500 
 10 O       -3.8540    -2.7030     0.5380 O.3   1 <1>  -0.6800 
 11 C       -3.4930    -1.0040    -1.0220 C.3   1 <1>  -0.2400 
 12 H       -0.0930     1.7580     1.0610 H     1 <1>   0.0800 
 13 H        0.9040     0.9090    -0.1210 H     1 <1>   0.0800 
 14 H        0.9590     0.4420     1.5820 H     1 <1>   0.0800 
 15 H        2.0220    -3.3240    -0.4150 H     1 <1>   0.1500 
 16 H       -2.1100    -4.2650    -0.4850 H     1 <1>   0.1500 
 17 H       -2.9880    -1.0010     1.0700 H     1 <1>   0.0800 
 18 H        0.2380    -4.9450    -0.7740 H     1 <1>   0.1500 
 19 H       -3.9220    -3.2950    -0.2300 H     1 <1>   0.4000 
 20 H       -3.4830    -1.6840    -1.8540 H     1 <1>   0.0800 
 21 H       -2.8630    -0.1670    -1.2620 H     1 <1>   0.0800 
 22 H       -4.4910    -0.6390    -0.8590 H     1 <1>   0.0800 
@<TRIPOS>BOND
  1   1   2  1   
  2   1   3  1   
  3   2   4  ar  
  4   2   5  ar  
  5   3  12  1   
  6   3  13  1   
  7   3  14  1   
  8   4   6  ar  
  9   5   7  ar  
 10   5   8  1   
 11   6   9  ar  
 12   6  15  1   
 13   7   9  ar  
 14   7  16  1   
 15   8  10  1   
 16   8  11  1   
 17   8  17  1   
 18   9  18  1   
 19  10  19  1   
 20  11  20  1   
 21  11  21  1   
 22  11  22  1   
@<TRIPOS>SUBSTRUCTURE
  1 ****   5 GROUP 4 **** **** 0

# MOE 2024.06 (io_trps.svl 2023.06)
