@<TRIPOS>MOLECULE
NONAME
44 46 1 0 0 
SMALL
USER_CHARGES


@<TRIPOS>ATOM
  1 O       -0.4010     0.7800     0.3740 O.2   1 <1>  -0.5700 
  2 C       -0.4310     1.9590     0.1130 C.2   1 <1>   0.5690 
  3 N       -1.3480     2.8120     0.6650 N.am  1 <1>  -0.6600 
  4 C        0.5830     2.5020    -0.8920 C.3   1 <1>   0.1810 
  5 C       -1.3980     4.2620     0.2800 C.3   1 <1>   0.3640 
  6 C       -2.3280     2.3720     1.7000 C.3   1 <1>   0.0600 
  7 O        0.8360     3.8730    -0.7080 O.3   1 <1>  -0.5600 
  8 C       -2.8160     4.6560    -0.1730 C.ar  1 <1>  -0.1440 
  9 C       -0.3240     4.6970    -0.7560 C.3   1 <1>   0.2610 
 10 C       -3.5580     3.9890    -1.1540 C.ar  1 <1>  -0.1440 
 11 C       -3.3820     5.7610     0.4530 C.ar  1 <1>  -0.1500 
 12 C        0.0720     6.1560    -0.5010 C.2   1 <1>   0.5690 
 13 C       -4.8340     4.4370    -1.4680 C.ar  1 <1>  -0.1500 
 14 C       -3.0520     2.7680    -1.9150 C.3   1 <1>  -0.0960 
 15 C       -4.6520     6.1990     0.1310 C.ar  1 <1>  -0.1500 
 16 O       -0.7400     7.0290    -0.6870 O.2   1 <1>  -0.5700 
 17 N        1.3360     6.4100    -0.0600 N.am  1 <1>  -0.6550 
 18 C       -5.3820     5.5340    -0.8320 C.ar  1 <1>  -0.1500 
 19 C        1.9970     7.6940     0.2780 C.3   1 <1>   0.2250 
 20 C        1.2110     8.6210     1.2440 C.3   1 <1>   0.0000 
 21 C        1.8870     8.8110    -0.7950 C.3   1 <1>   0.0000 
 22 C        1.7090     9.8090     0.3800 C.3   1 <1>   0.0000 
 23 H        0.2260     2.3470    -1.8930 H     1 <1>   0.0800 
 24 H        1.5140     1.9790    -0.7710 H     1 <1>   0.0800 
 25 H       -1.1830     4.8090     1.1810 H     1 <1>   0.0800 
 26 H       -2.2560     3.0070     2.5650 H     1 <1>   0.0800 
 27 H       -2.1340     1.3570     2.0010 H     1 <1>   0.0800 
 28 H       -3.3280     2.4270     1.3050 H     1 <1>   0.0800 
 29 H       -0.7280     4.6380    -1.7480 H     1 <1>   0.0800 
 30 H       -2.8310     6.3070     1.2000 H     1 <1>   0.1500 
 31 H       -5.4190     3.9310    -2.2160 H     1 <1>   0.1500 
 32 H       -3.6920     2.5430    -2.7500 H     1 <1>   0.0800 
 33 H       -3.0410     1.9090    -1.2690 H     1 <1>   0.0800 
 34 H       -2.0670     2.9360    -2.3010 H     1 <1>   0.0800 
 35 H       -5.0680     7.0590     0.6260 H     1 <1>   0.1500 
 36 H        1.9500     5.5910    -0.0040 H     1 <1>   0.3700 
 37 H       -6.3710     5.8690    -1.0880 H     1 <1>   0.1500 
 38 H        3.0120     7.5420     0.6010 H     1 <1>   0.0000 
 39 H        0.1420     8.5130     1.2030 H     1 <1>   0.0000 
 40 H        1.6050     8.6370     2.2440 H     1 <1>   0.0000 
 41 H        2.7960     8.9710    -1.3470 H     1 <1>   0.0000 
 42 H        1.0100     8.7560    -1.4150 H     1 <1>   0.0000 
 43 H        2.6470    10.2080     0.7280 H     1 <1>   0.0000 
 44 H        0.9610    10.5610     0.2010 H     1 <1>   0.0000 
@<TRIPOS>BOND
  1   1   2  2   
  2   2   3  am  
  3   2   4  1   
  4   3   5  1   
  5   3   6  1   
  6   4   7  1   
  7   4  23  1   
  8   4  24  1   
  9   5   8  1   
 10   5   9  1   
 11   5  25  1   
 12   6  26  1   
 13   6  27  1   
 14   6  28  1   
 15   7   9  1   
 16   8  10  ar  
 17   8  11  ar  
 18   9  12  1   
 19   9  29  1   
 20  10  13  ar  
 21  10  14  1   
 22  11  15  ar  
 23  11  30  1   
 24  12  16  2   
 25  12  17  am  
 26  13  18  ar  
 27  13  31  1   
 28  14  32  1   
 29  14  33  1   
 30  14  34  1   
 31  15  18  ar  
 32  15  35  1   
 33  17  19  1   
 34  17  36  1   
 35  18  37  1   
 36  19  20  1   
 37  19  21  1   
 38  19  38  1   
 39  20  22  1   
 40  20  39  1   
 41  20  40  1   
 42  21  22  1   
 43  21  41  1   
 44  21  42  1   
 45  22  43  1   
 46  22  44  1   
@<TRIPOS>SUBSTRUCTURE
  1 ****   5 GROUP 4 **** **** 0

# MOE 2024.06 (io_trps.svl 2023.06)
