@<TRIPOS>MOLECULE
NONAME
43 45 1 0 0 
SMALL
USER_CHARGES


@<TRIPOS>ATOM
  1 F        2.4210    -2.1300    -2.2970 F     1 <1>  -0.1900 
  2 C        2.3370    -2.0580    -0.9950 C.ar  1 <1>   0.1900 
  3 C        1.1430    -2.3810    -0.3660 C.ar  1 <1>  -0.1440 
  4 C        3.4650    -1.6470    -0.3050 C.ar  1 <1>  -0.1500 
  5 C        1.1370    -2.2620     1.0160 C.ar  1 <1>   0.1900 
  6 C       -0.0900    -2.8490    -1.1420 C.3   1 <1>   0.0440 
  7 C        3.4180    -1.5450     1.0770 C.ar  1 <1>  -0.1500 
  8 F        0.0450    -2.5370     1.6790 F     1 <1>  -0.1900 
  9 C        2.2430    -1.8550     1.7440 C.ar  1 <1>  -0.1500 
 10 C       -0.2140    -4.3680    -1.1440 C.2   1 <1>   0.5690 
 11 O        0.6070    -4.9950    -1.7700 O.2   1 <1>  -0.5700 
 12 N       -1.2270    -5.0100    -0.4800 N.am  1 <1>  -0.6600 
 13 C       -2.3590    -4.4000     0.2660 C.3   1 <1>   0.1400 
 14 C       -1.3030    -6.4900    -0.4170 C.3   1 <1>   0.1400 
 15 C       -3.2760    -5.5720     0.6110 C.3   1 <1>   0.2000 
 16 C       -2.3680    -6.7970     0.6370 C.3   1 <1>  -0.0800 
 17 O       -3.8880    -5.3980     1.8410 O.3   1 <1>  -0.6800 
 18 C       -3.1160    -8.1150     0.3920 C.3   1 <1>   0.0210 
 19 C       -2.1500    -9.2810     0.3150 C.2   1 <1>   0.1080 
 20 N       -1.3840    -9.6240     1.3040 N.2   1 <1>  -0.7070 
 21 C       -1.9640   -10.0900    -0.8000 C.2   1 <1>  -0.1500 
 22 N       -0.6810   -10.6750     0.8400 N.pl3 1 <1>   0.3000 
 23 C       -1.0140   -10.9760    -0.4330 C.2   1 <1>  -0.3320 
 24 C       -0.3930   -12.1060    -1.2320 C.3   1 <1>  -0.0600 
 25 H        4.3650    -1.4120    -0.8450 H     1 <1>   0.1500 
 26 H       -0.0280    -2.5270    -2.1640 H     1 <1>   0.0800 
 27 H       -0.9670    -2.3930    -0.7280 H     1 <1>   0.0800 
 28 H        4.2880    -1.2280     1.6270 H     1 <1>   0.1500 
 29 H        2.1820    -1.7830     2.8150 H     1 <1>   0.1500 
 30 H       -1.9860    -3.9370     1.1620 H     1 <1>   0.0800 
 31 H       -2.8770    -3.6820    -0.3440 H     1 <1>   0.0800 
 32 H       -1.5930    -6.8660    -1.3840 H     1 <1>   0.0800 
 33 H       -0.3500    -6.9140    -0.1450 H     1 <1>   0.0800 
 34 H       -4.0430    -5.6650    -0.1400 H     1 <1>   0.0800 
 35 H       -1.8620    -6.8520     1.5850 H     1 <1>   0.0800 
 36 H       -3.2270    -5.4620     2.5580 H     1 <1>   0.4000 
 37 H       -3.6780    -8.0580    -0.5230 H     1 <1>   0.0800 
 38 H       -3.8050    -8.2920     1.1980 H     1 <1>   0.0800 
 39 H       -2.4780   -10.0060    -1.7410 H     1 <1>   0.1500 
 40 H        0.0170   -11.1610     1.4150 H     1 <1>   0.2700 
 41 H       -0.8230   -12.1420    -2.2170 H     1 <1>   0.0800 
 42 H       -0.5720   -13.0480    -0.7460 H     1 <1>   0.0800 
 43 H        0.6680   -11.9550    -1.3280 H     1 <1>   0.0800 
@<TRIPOS>BOND
  1   1   2  1   
  2   2   3  ar  
  3   2   4  ar  
  4   3   5  ar  
  5   3   6  1   
  6   4   7  ar  
  7   4  25  1   
  8   5   8  1   
  9   5   9  ar  
 10   6  10  1   
 11   6  26  1   
 12   6  27  1   
 13   7   9  ar  
 14   7  28  1   
 15   9  29  1   
 16  10  11  2   
 17  10  12  am  
 18  12  13  1   
 19  12  14  1   
 20  13  15  1   
 21  13  30  1   
 22  13  31  1   
 23  14  16  1   
 24  14  32  1   
 25  14  33  1   
 26  15  16  1   
 27  15  17  1   
 28  15  34  1   
 29  16  18  1   
 30  16  35  1   
 31  17  36  1   
 32  18  19  1   
 33  18  37  1   
 34  18  38  1   
 35  19  20  2   
 36  19  21  1   
 37  20  22  1   
 38  21  23  2   
 39  21  39  1   
 40  22  23  1   
 41  22  40  1   
 42  23  24  1   
 43  24  41  1   
 44  24  42  1   
 45  24  43  1   
@<TRIPOS>SUBSTRUCTURE
  1 ****  12 GROUP 4 **** **** 0

# MOE 2024.06 (io_trps.svl 2023.06)
