@<TRIPOS>MOLECULE
NONAME
52 56 1 0 0 
SMALL
USER_CHARGES


@<TRIPOS>ATOM
  1 O       -1.0030     0.5750     1.1930 O.2   1 <1>  -0.5700 
  2 C       -1.9090     1.2270     0.6950 C.2   1 <1>   0.7160 
  3 N       -3.2030     0.7650     0.8470 N.am  1 <1>  -0.6600 
  4 C       -1.6260     2.4270    -0.0260 C.2   1 <1>  -0.0860 
  5 C       -4.2340     0.8910    -0.2200 C.3   1 <1>   0.1400 
  6 C       -3.5620    -0.2000     1.9230 C.3   1 <1>   0.1400 
  7 C       -0.5420     2.7640    -0.7970 C.2   1 <1>  -0.0680 
  8 C       -2.4250     3.5780    -0.1020 C.2   1 <1>   0.1390 
  9 C       -4.4740    -0.4830    -0.8500 C.3   1 <1>  -0.1600 
 10 C       -3.7990    -1.5810     1.3110 C.3   1 <1>  -0.1600 
 11 N       -0.7520     4.0040    -1.2650 N.pl3 1 <1>   0.6010 
 12 N        0.6700     2.2950    -1.2600 N.pl3 1 <1>  -0.5530 
 13 N       -1.9300     4.5250    -0.8420 N.2   1 <1>  -0.7070 
 14 C       -4.8570    -1.5420     0.1980 C.3   1 <1>   0.4240 
 15 C        0.3380     4.3510    -2.0410 C.2   1 <1>  -0.1810 
 16 C        1.2030     3.3140    -2.0340 C.2   1 <1>  -0.0500 
 17 C        1.3110     1.0190    -0.8740 C.3   1 <1>   0.1290 
 18 O       -6.0430    -1.1180     0.8300 O.3   1 <1>  -0.5600 
 19 C       -5.0140    -2.9360    -0.4460 C.ar  1 <1>  -0.1430 
 20 C       -7.2510    -1.4200     0.2030 C.3   1 <1>   0.1200 
 21 C       -6.2380    -3.5970    -0.4450 C.ar  1 <1>  -0.1430 
 22 C       -3.9260    -3.5580    -1.0510 C.ar  1 <1>  -0.1500 
 23 C       -7.4400    -2.9330     0.1970 C.3   1 <1>  -0.0170 
 24 C       -6.3680    -4.8490    -1.0230 C.ar  1 <1>  -0.1500 
 25 C       -4.0550    -4.8070    -1.6310 C.ar  1 <1>  -0.1500 
 26 C       -5.2730    -5.4630    -1.6220 C.ar  1 <1>   0.0830 
 27 O       -5.3150    -6.6840    -2.2100 O.3   1 <1>  -0.3620 
 28 C       -6.5010    -7.4450    -2.2370 C.3   1 <1>   0.0400 
 29 H       -3.9170     1.5760    -0.9850 H     1 <1>   0.0800 
 30 H       -5.1480     1.2630     0.2130 H     1 <1>   0.0800 
 31 H       -4.4560     0.1410     2.4190 H     1 <1>   0.0800 
 32 H       -2.7770    -0.2550     2.6580 H     1 <1>   0.0800 
 33 H       -3.3680     3.6730     0.4110 H     1 <1>   0.1500 
 34 H       -3.5710    -0.7830    -1.3490 H     1 <1>   0.0800 
 35 H       -5.2370    -0.4160    -1.6020 H     1 <1>   0.0800 
 36 H       -4.1150    -2.2700     2.0730 H     1 <1>   0.0800 
 37 H       -2.8630    -1.9370     0.9240 H     1 <1>   0.0800 
 38 H        0.3800     5.3110    -2.5140 H     1 <1>   0.1500 
 39 H        2.1610     3.2210    -2.5180 H     1 <1>   0.1500 
 40 H        0.6340     0.2050    -1.0650 H     1 <1>   0.0800 
 41 H        1.5430     1.0400     0.1770 H     1 <1>   0.0800 
 42 H        2.2140     0.8740    -1.4380 H     1 <1>   0.0800 
 43 H       -7.2390    -1.0270    -0.7990 H     1 <1>   0.0800 
 44 H       -8.0390    -0.9440     0.7590 H     1 <1>   0.0800 
 45 H       -2.9650    -3.0770    -1.0760 H     1 <1>   0.1500 
 46 H       -8.3350    -3.1760    -0.3460 H     1 <1>   0.0800 
 47 H       -7.5510    -3.2840     1.2080 H     1 <1>   0.0800 
 48 H       -7.3240    -5.3350    -1.0010 H     1 <1>   0.1500 
 49 H       -3.2100    -5.2810    -2.0950 H     1 <1>   0.1500 
 50 H       -6.2930    -8.3710    -2.7420 H     1 <1>   0.0800 
 51 H       -7.2550    -6.8970    -2.7730 H     1 <1>   0.0800 
 52 H       -6.8120    -7.6420    -1.2260 H     1 <1>   0.0800 
@<TRIPOS>BOND
  1   1   2  2   
  2   2   3  am  
  3   2   4  1   
  4   3   5  1   
  5   3   6  1   
  6   4   7  2   
  7   4   8  1   
  8   5   9  1   
  9   5  29  1   
 10   5  30  1   
 11   6  10  1   
 12   6  31  1   
 13   6  32  1   
 14   7  11  1   
 15   7  12  1   
 16   8  13  2   
 17   8  33  1   
 18   9  14  1   
 19   9  34  1   
 20   9  35  1   
 21  10  14  1   
 22  10  36  1   
 23  10  37  1   
 24  11  13  1   
 25  11  15  1   
 26  12  16  1   
 27  12  17  1   
 28  14  18  1   
 29  14  19  1   
 30  15  16  2   
 31  15  38  1   
 32  16  39  1   
 33  17  40  1   
 34  17  41  1   
 35  17  42  1   
 36  18  20  1   
 37  19  21  ar  
 38  19  22  ar  
 39  20  23  1   
 40  20  43  1   
 41  20  44  1   
 42  21  23  1   
 43  21  24  ar  
 44  22  25  ar  
 45  22  45  1   
 46  23  46  1   
 47  23  47  1   
 48  24  26  ar  
 49  24  48  1   
 50  25  26  ar  
 51  25  49  1   
 52  26  27  1   
 53  27  28  1   
 54  28  50  1   
 55  28  51  1   
 56  28  52  1   
@<TRIPOS>SUBSTRUCTURE
  1 ****   9 GROUP 4 **** **** 0

# MOE 2024.06 (io_trps.svl 2023.06)
