@<TRIPOS>MOLECULE
NONAME
55 59 1 0 0 
SMALL
USER_CHARGES


@<TRIPOS>ATOM
  1 O       -1.8380     0.2490     1.7250 O.2   1 <1>  -0.5700 
  2 C       -1.6740     0.6480     0.5860 C.2   1 <1>   0.7160 
  3 N       -1.6250    -0.2260    -0.4620 N.am  1 <1>  -0.5790 
  4 C       -1.5080     2.0360     0.3240 C.2   1 <1>  -0.0860 
  5 C       -1.9380    -1.6660    -0.4450 C.3   1 <1>   0.0540 
  6 C       -2.5430     2.9410     0.0930 C.2   1 <1>   0.3720 
  7 C       -0.3850     2.7830     0.1780 C.2   1 <1>   0.0870 
  8 C       -3.4110    -1.9230    -0.8410 C.3   1 <1>   0.0150 
  9 C       -1.1660    -2.5120     0.5160 C.3   1 <1>  -0.2000 
 10 C       -0.8470    -2.5520    -0.9510 C.3   1 <1>  -0.2000 
 11 N       -2.0800     4.1100    -0.1840 N.2   1 <1>  -0.4100 
 12 N       -3.9040     2.6180     0.1410 N.pl3 1 <1>  -0.8210 
 13 O       -0.7780     3.9960    -0.1230 O.3   1 <1>  -0.0190 
 14 C        1.0160     2.4590     0.2790 C.ar  1 <1>   0.0530 
 15 C       -4.4180    -1.2530     0.0950 C.3   1 <1>  -0.1600 
 16 C       -3.8820    -3.3790    -0.8780 C.3   1 <1>  -0.1600 
 17 C       -4.4270     2.4550     1.5340 C.3   1 <1>   0.2090 
 18 C       -4.8040     3.5200    -0.6430 C.3   1 <1>   0.2090 
 19 C        1.9700     3.1800    -0.4410 C.ar  1 <1>  -0.1500 
 20 C        1.4750     1.4190     1.0880 C.ar  1 <1>  -0.1500 
 21 C       -5.7370    -2.0120    -0.0800 C.3   1 <1>  -0.1600 
 22 C       -5.4060    -3.2800    -0.8750 C.3   1 <1>  -0.1600 
 23 C       -5.9130     2.0500     1.5330 C.3   1 <1>   0.1200 
 24 C       -6.2640     3.0440    -0.5620 C.3   1 <1>   0.1200 
 25 C        3.3160     2.8720    -0.3670 C.ar  1 <1>  -0.1500 
 26 C        2.8190     1.1040     1.1650 C.ar  1 <1>  -0.1500 
 27 O       -6.6810     2.9410     0.7720 O.3   1 <1>  -0.5600 
 28 C        3.7430     1.8300     0.4360 C.ar  1 <1>  -0.1500 
 29 H       -1.5500     0.1770    -1.3940 H     1 <1>   0.3700 
 30 H       -3.5600    -1.5200    -1.8280 H     1 <1>   0.0800 
 31 H       -1.6220    -3.3750     0.9640 H     1 <1>   0.1000 
 32 H       -0.4760    -2.0290     1.1860 H     1 <1>   0.1000 
 33 H        0.0760    -2.1110    -1.2820 H     1 <1>   0.1000 
 34 H       -1.0850    -3.4560    -1.4820 H     1 <1>   0.1000 
 35 H       -4.5240    -0.2080    -0.1370 H     1 <1>   0.0800 
 36 H       -4.0800    -1.3530     1.1130 H     1 <1>   0.0800 
 37 H       -3.5720    -3.8970     0.0100 H     1 <1>   0.0800 
 38 H       -3.5160    -3.9020    -1.7440 H     1 <1>   0.0800 
 39 H       -4.3140     3.3820     2.0710 H     1 <1>   0.0800 
 40 H       -3.8630     1.7020     2.0530 H     1 <1>   0.0800 
 41 H       -4.4870     3.5330    -1.6710 H     1 <1>   0.0800 
 42 H       -4.7390     4.5250    -0.2610 H     1 <1>   0.0800 
 43 H        1.6520     3.9930    -1.0700 H     1 <1>   0.1500 
 44 H        0.7780     0.8480     1.6760 H     1 <1>   0.1500 
 45 H       -6.4540    -1.4140    -0.6170 H     1 <1>   0.0800 
 46 H       -6.1470    -2.2640     0.8830 H     1 <1>   0.0800 
 47 H       -5.8600    -4.1550    -0.4420 H     1 <1>   0.0800 
 48 H       -5.7590    -3.1680    -1.8870 H     1 <1>   0.0800 
 49 H       -6.2980     2.0600     2.5360 H     1 <1>   0.0800 
 50 H       -6.0340     1.0610     1.1290 H     1 <1>   0.0800 
 51 H       -6.3720     2.0820    -1.0320 H     1 <1>   0.0800 
 52 H       -6.9120     3.7470    -1.0540 H     1 <1>   0.0800 
 53 H        4.0320     3.4420    -0.9330 H     1 <1>   0.1500 
 54 H        3.1470     0.2960     1.7960 H     1 <1>   0.1500 
 55 H        4.7900     1.5860     0.4960 H     1 <1>   0.1500 
@<TRIPOS>BOND
  1   1   2  2   
  2   2   3  am  
  3   2   4  1   
  4   3   5  1   
  5   3  29  1   
  6   4   6  1   
  7   4   7  2   
  8   5   8  1   
  9   5   9  1   
 10   5  10  1   
 11   6  11  2   
 12   6  12  1   
 13   7  13  1   
 14   7  14  1   
 15   8  15  1   
 16   8  16  1   
 17   8  30  1   
 18   9  10  1   
 19   9  31  1   
 20   9  32  1   
 21  10  33  1   
 22  10  34  1   
 23  11  13  1   
 24  12  17  1   
 25  12  18  1   
 26  14  19  ar  
 27  14  20  ar  
 28  15  21  1   
 29  15  35  1   
 30  15  36  1   
 31  16  22  1   
 32  16  37  1   
 33  16  38  1   
 34  17  23  1   
 35  17  39  1   
 36  17  40  1   
 37  18  24  1   
 38  18  41  1   
 39  18  42  1   
 40  19  25  ar  
 41  19  43  1   
 42  20  26  ar  
 43  20  44  1   
 44  21  22  1   
 45  21  45  1   
 46  21  46  1   
 47  22  47  1   
 48  22  48  1   
 49  23  27  1   
 50  23  49  1   
 51  23  50  1   
 52  24  27  1   
 53  24  51  1   
 54  24  52  1   
 55  25  28  ar  
 56  25  53  1   
 57  26  28  ar  
 58  26  54  1   
 59  28  55  1   
@<TRIPOS>SUBSTRUCTURE
  1 ****   2 GROUP 4 **** **** 0

# MOE 2024.06 (io_trps.svl 2023.06)
