@<TRIPOS>MOLECULE
NONAME
48 50 1 0 0 
SMALL
USER_CHARGES


@<TRIPOS>ATOM
  1 CL      -0.2750    -0.0920    -1.1180 Cl    1 <1>  -0.1770 
  2 C        0.5310    -1.5420    -0.5700 C.ar  1 <1>   0.1770 
  3 C        0.0540    -2.7710    -0.9650 C.ar  1 <1>  -0.1500 
  4 C        1.6320    -1.4330     0.2570 C.ar  1 <1>  -0.1500 
  5 C        0.6720    -3.9420    -0.5300 C.ar  1 <1>   0.0860 
  6 C        2.2660    -2.5840     0.6820 C.ar  1 <1>  -0.1500 
  7 C        1.8140    -3.8440     0.2860 C.ar  1 <1>   0.1000 
  8 C        0.1360    -5.2270    -0.9110 C.2   1 <1>   0.5440 
  9 N        2.4770    -4.9960     0.6980 N.pl3 1 <1>  -0.8690 
 10 O        0.7530    -5.9270    -1.6950 O.2   1 <1>  -0.5700 
 11 N       -1.0620    -5.6910    -0.4050 N.am  1 <1>  -0.6600 
 12 C        3.9440    -5.0180     0.9230 C.3   1 <1>   0.1290 
 13 C       -1.6550    -6.9950    -0.8420 C.3   1 <1>   0.1400 
 14 C       -1.7340    -5.0840     0.7800 C.3   1 <1>   0.1400 
 15 C       -2.9700    -6.8110    -1.6160 C.3   1 <1>   0.1400 
 16 C       -2.8690    -4.1300     0.3830 C.3   1 <1>  -0.1600 
 17 N       -3.9690    -5.9830    -0.8670 N.am  1 <1>  -0.6600 
 18 C       -3.6620    -4.5280    -0.8680 C.3   1 <1>   0.1400 
 19 C       -5.0900    -6.4620    -0.2320 C.2   1 <1>   0.5770 
 20 O       -5.8660    -5.7110     0.3130 O.2   1 <1>  -0.5700 
 21 C       -5.3850    -7.9630    -0.1990 C.3   1 <1>   0.0530 
 22 C       -6.5250    -8.4310     0.7520 C.3   1 <1>   0.0000 
 23 C       -4.4220    -8.7930     0.6930 C.3   1 <1>   0.0000 
 24 C       -5.6450    -9.6680     1.0670 C.3   1 <1>   0.0000 
 25 H       -0.8020    -2.8290    -1.6120 H     1 <1>   0.1500 
 26 H        1.9810    -0.4610     0.5590 H     1 <1>   0.1500 
 27 H        3.1180    -2.5060     1.3300 H     1 <1>   0.1500 
 28 H        2.1610    -5.8410     0.1920 H     1 <1>   0.4000 
 29 H        4.4430    -4.4420     0.1620 H     1 <1>   0.0800 
 30 H        4.3010    -6.0320     0.8840 H     1 <1>   0.0800 
 31 H        4.1700    -4.6060     1.8910 H     1 <1>   0.0800 
 32 H       -1.8310    -7.6110     0.0210 H     1 <1>   0.0800 
 33 H       -0.9640    -7.5290    -1.4710 H     1 <1>   0.0800 
 34 H       -1.0160    -4.5640     1.3910 H     1 <1>   0.0800 
 35 H       -2.1450    -5.8740     1.3850 H     1 <1>   0.0800 
 36 H       -3.3770    -7.7790    -1.8450 H     1 <1>   0.0800 
 37 H       -2.7510    -6.3370    -2.5570 H     1 <1>   0.0800 
 38 H       -2.4690    -3.1450     0.2350 H     1 <1>   0.0800 
 39 H       -3.5530    -4.0590     1.2100 H     1 <1>   0.0800 
 40 H       -3.0900    -4.2830    -1.7470 H     1 <1>   0.0800 
 41 H       -4.5770    -3.9610    -0.9090 H     1 <1>   0.0800 
 42 H       -5.4980    -8.3900    -1.1810 H     1 <1>   0.0000 
 43 H       -7.4440    -8.6700     0.2470 H     1 <1>   0.0000 
 44 H       -6.6600    -7.8050     1.6180 H     1 <1>   0.0000 
 45 H       -4.0380    -8.2370     1.5310 H     1 <1>   0.0000 
 46 H       -3.6640    -9.3240     0.1440 H     1 <1>   0.0000 
 47 H       -5.8040   -10.4790     0.3760 H     1 <1>   0.0000 
 48 H       -5.6670    -9.9680     2.0990 H     1 <1>   0.0000 
@<TRIPOS>BOND
  1   1   2  1   
  2   2   3  ar  
  3   2   4  ar  
  4   3   5  ar  
  5   3  25  1   
  6   4   6  ar  
  7   4  26  1   
  8   5   7  ar  
  9   5   8  1   
 10   6   7  ar  
 11   6  27  1   
 12   7   9  1   
 13   8  10  2   
 14   8  11  am  
 15   9  12  1   
 16   9  28  1   
 17  11  13  1   
 18  11  14  1   
 19  12  29  1   
 20  12  30  1   
 21  12  31  1   
 22  13  15  1   
 23  13  32  1   
 24  13  33  1   
 25  14  16  1   
 26  14  34  1   
 27  14  35  1   
 28  15  17  1   
 29  15  36  1   
 30  15  37  1   
 31  16  18  1   
 32  16  38  1   
 33  16  39  1   
 34  17  18  1   
 35  17  19  am  
 36  18  40  1   
 37  18  41  1   
 38  19  20  2   
 39  19  21  1   
 40  21  22  1   
 41  21  23  1   
 42  21  42  1   
 43  22  24  1   
 44  22  43  1   
 45  22  44  1   
 46  23  24  1   
 47  23  45  1   
 48  23  46  1   
 49  24  47  1   
 50  24  48  1   
@<TRIPOS>SUBSTRUCTURE
  1 ****  11 GROUP 4 **** **** 0

# MOE 2024.06 (io_trps.svl 2023.06)
