@<TRIPOS>MOLECULE
NONAME
37 38 1 0 0 
SMALL
USER_CHARGES


@<TRIPOS>ATOM
  1 S       -1.1730    -0.7880     0.2880 S.3   1 <1>  -0.0800 
  2 C       -1.5880    -1.3640    -1.2930 C.2   1 <1>   0.4420 
  3 C       -0.6500     0.6810    -0.4660 C.2   1 <1>   0.1980 
  4 N       -1.3420    -0.4970    -2.2070 N.2   1 <1>  -0.3380 
  5 N       -2.1120    -2.6330    -1.3680 N.am  1 <1>  -0.4940 
  6 N       -0.8060     0.6670    -1.7280 N.2   1 <1>  -0.3380 
  7 C       -0.1020     1.7940     0.4100 C.3   1 <1>   0.3000 
  8 C       -2.5940    -3.3410    -2.4280 C.2   1 <1>   0.5690 
  9 O        0.8760     1.2990     1.2800 O.3   1 <1>  -0.5600 
 10 O       -2.6780    -2.9180    -3.5530 O.2   1 <1>  -0.5700 
 11 C       -3.0560    -4.7670    -2.1270 C.3   1 <1>   0.1710 
 12 C        1.4750     2.2690     2.0770 C.3   1 <1>   0.0400 
 13 N       -3.3960    -4.9920    -0.6870 N.3   1 <1>  -0.8100 
 14 C       -3.3800    -6.4340    -0.3680 C.3   1 <1>   0.1100 
 15 C       -4.7090    -4.3990    -0.3640 C.3   1 <1>   0.1100 
 16 C       -3.6210    -6.6650     1.1320 C.3   1 <1>   0.1200 
 17 C       -4.9890    -4.5400     1.1360 C.3   1 <1>  -0.1600 
 18 C       -3.6180    -8.1280     1.4190 C.1   1 <1>   0.3570 
 19 C       -4.9410    -6.0110     1.5770 C.3   1 <1>  -0.1600 
 20 N       -3.6140    -9.2470     1.6190 N.1   1 <1>  -0.5570 
 21 H       -2.1950    -3.1510    -0.4920 H     1 <1>   0.3700 
 22 H       -0.8970     2.2210     0.9940 H     1 <1>   0.0800 
 23 H        0.3410     2.5530    -0.2120 H     1 <1>   0.0800 
 24 H       -2.2490    -5.4190    -2.4120 H     1 <1>   0.0800 
 25 H       -3.9020    -5.0000    -2.7510 H     1 <1>   0.0800 
 26 H        2.2010     1.7830     2.7060 H     1 <1>   0.0800 
 27 H        0.7270     2.7430     2.6890 H     1 <1>   0.0800 
 28 H        1.9690     2.9920     1.4500 H     1 <1>   0.0800 
 29 H       -2.4210    -6.8490    -0.6340 H     1 <1>   0.0800 
 30 H       -4.1380    -6.9420    -0.9420 H     1 <1>   0.0800 
 31 H       -5.4850    -4.8910    -0.9280 H     1 <1>   0.0800 
 32 H       -4.7190    -3.3530    -0.6250 H     1 <1>   0.0800 
 33 H       -2.8050    -6.2240     1.6760 H     1 <1>   0.0800 
 34 H       -5.9580    -4.1290     1.3560 H     1 <1>   0.0800 
 35 H       -4.2600    -3.9680     1.6830 H     1 <1>   0.0800 
 36 H       -5.0410    -6.0750     2.6480 H     1 <1>   0.0800 
 37 H       -5.7690    -6.5380     1.1340 H     1 <1>   0.0800 
@<TRIPOS>BOND
  1   1   2  1   
  2   1   3  1   
  3   2   4  2   
  4   2   5  1   
  5   3   6  2   
  6   3   7  1   
  7   4   6  1   
  8   5   8  am  
  9   5  21  1   
 10   7   9  1   
 11   7  22  1   
 12   7  23  1   
 13   8  10  2   
 14   8  11  1   
 15   9  12  1   
 16  11  13  1   
 17  11  24  1   
 18  11  25  1   
 19  12  26  1   
 20  12  27  1   
 21  12  28  1   
 22  13  14  1   
 23  13  15  1   
 24  14  16  1   
 25  14  29  1   
 26  14  30  1   
 27  15  17  1   
 28  15  31  1   
 29  15  32  1   
 30  16  18  1   
 31  16  19  1   
 32  16  33  1   
 33  17  19  1   
 34  17  34  1   
 35  17  35  1   
 36  18  20  3   
 37  19  36  1   
 38  19  37  1   
@<TRIPOS>SUBSTRUCTURE
  1 ****   5 GROUP 4 **** **** 0

# MOE 2024.06 (io_trps.svl 2023.06)
