@<TRIPOS>MOLECULE
NONAME
46 47 1 0 0 
SMALL
USER_CHARGES


@<TRIPOS>ATOM
  1 S        0.5500    -0.3380    -0.2580 S.3   1 <1>  -0.4600 
  2 C       -1.2270    -0.6650    -0.0970 C.3   1 <1>   0.2140 
  3 C        0.6140     1.4410    -0.5950 C.3   1 <1>   0.0700 
  4 C       -1.4210    -2.1480     0.1680 C.ar  1 <1>  -0.1430 
  5 C        2.0830     1.8350    -0.7580 C.3   1 <1>  -0.0990 
  6 C       -1.7130    -3.0150    -0.8730 C.ar  1 <1>  -0.1500 
  7 C       -1.3110    -2.6470     1.4570 C.ar  1 <1>  -0.1500 
  8 C        2.2670     3.3110    -1.0710 C.2   1 <1>   0.5690 
  9 C       -1.9020    -4.3650    -0.6280 C.ar  1 <1>  -0.1500 
 10 C       -1.4990    -3.9960     1.7040 C.ar  1 <1>  -0.1500 
 11 O        1.3000     4.0350    -1.0130 O.2   1 <1>  -0.5700 
 12 N        3.5060     3.7960    -1.4080 N.am  1 <1>  -0.6600 
 13 C       -1.7960    -4.8560     0.6610 C.ar  1 <1>  -0.1500 
 14 C        3.6680     5.2280    -1.8220 C.3   1 <1>   0.1400 
 15 C        4.7560     2.9850    -1.4710 C.3   1 <1>   0.0600 
 16 C        3.5730     6.2100    -0.6420 C.3   1 <1>   0.2000 
 17 O        3.8640     7.4870    -1.1360 O.3   1 <1>  -0.5600 
 18 C        4.5500     5.8970     0.5060 C.3   1 <1>  -0.1600 
 19 C        3.6660     8.5250    -0.2260 C.3   1 <1>   0.1200 
 20 C        4.4910     6.9800     1.5910 C.3   1 <1>  -0.1600 
 21 C        4.6390     8.3630     0.9480 C.3   1 <1>  -0.1600 
 22 H       -1.6960    -0.3620    -1.0160 H     1 <1>   0.0800 
 23 H       -1.5930    -0.0680     0.7190 H     1 <1>   0.0800 
 24 H        0.1580     1.9510     0.2360 H     1 <1>   0.0800 
 25 H        0.0550     1.6260    -1.4960 H     1 <1>   0.0800 
 26 H        2.5060     1.2560    -1.5580 H     1 <1>   0.0800 
 27 H        2.6070     1.6090     0.1520 H     1 <1>   0.0800 
 28 H       -1.7920    -2.6440    -1.8800 H     1 <1>   0.1500 
 29 H       -1.0730    -1.9860     2.2720 H     1 <1>   0.1500 
 30 H       -2.1280    -5.0320    -1.4410 H     1 <1>   0.1500 
 31 H       -1.4110    -4.3770     2.7070 H     1 <1>   0.1500 
 32 H       -1.9410    -5.9040     0.8520 H     1 <1>   0.1500 
 33 H        2.8950     5.4730    -2.5290 H     1 <1>   0.0800 
 34 H        4.6190     5.3580    -2.3090 H     1 <1>   0.0800 
 35 H        4.6580     2.0670    -0.9210 H     1 <1>   0.0800 
 36 H        5.5740     3.5420    -1.0480 H     1 <1>   0.0800 
 37 H        4.9850     2.7570    -2.4980 H     1 <1>   0.0800 
 38 H        2.5590     6.2190    -0.2790 H     1 <1>   0.0800 
 39 H        5.5470     5.8330     0.1090 H     1 <1>   0.0800 
 40 H        4.3030     4.9450     0.9410 H     1 <1>   0.0800 
 41 H        2.6420     8.5010     0.1070 H     1 <1>   0.0800 
 42 H        3.8460     9.4530    -0.7410 H     1 <1>   0.0800 
 43 H        5.2680     6.8210     2.3180 H     1 <1>   0.0800 
 44 H        3.5410     6.9220     2.0950 H     1 <1>   0.0800 
 45 H        4.4520     9.1290     1.6800 H     1 <1>   0.0800 
 46 H        5.6430     8.4920     0.5840 H     1 <1>   0.0800 
@<TRIPOS>BOND
  1   1   2  1   
  2   1   3  1   
  3   2   4  1   
  4   2  22  1   
  5   2  23  1   
  6   3   5  1   
  7   3  24  1   
  8   3  25  1   
  9   4   6  ar  
 10   4   7  ar  
 11   5   8  1   
 12   5  26  1   
 13   5  27  1   
 14   6   9  ar  
 15   6  28  1   
 16   7  10  ar  
 17   7  29  1   
 18   8  11  2   
 19   8  12  am  
 20   9  13  ar  
 21   9  30  1   
 22  10  13  ar  
 23  10  31  1   
 24  12  14  1   
 25  12  15  1   
 26  13  32  1   
 27  14  16  1   
 28  14  33  1   
 29  14  34  1   
 30  15  35  1   
 31  15  36  1   
 32  15  37  1   
 33  16  17  1   
 34  16  18  1   
 35  16  38  1   
 36  17  19  1   
 37  18  20  1   
 38  18  39  1   
 39  18  40  1   
 40  19  21  1   
 41  19  41  1   
 42  19  42  1   
 43  20  21  1   
 44  20  43  1   
 45  20  44  1   
 46  21  45  1   
 47  21  46  1   
@<TRIPOS>SUBSTRUCTURE
  1 ****   5 GROUP 4 **** **** 0

# MOE 2024.06 (io_trps.svl 2023.06)
