@<TRIPOS>MOLECULE
NONAME
52 55 1 0 0 
SMALL
USER_CHARGES


@<TRIPOS>ATOM
  1 O       -2.4110     0.1380    -2.0170 O.2   1 <1>  -0.5700 
  2 C       -2.2080     0.2130    -0.8290 C.2   1 <1>   0.5690 
  3 N       -2.0100    -0.8970    -0.0760 N.am  1 <1>  -0.7300 
  4 C       -2.2180     1.5740    -0.1350 C.3   1 <1>  -0.0190 
  5 C       -2.0210    -2.2880    -0.5880 C.3   1 <1>   0.2200 
  6 C       -3.6610     2.0920     0.0220 C.3   1 <1>  -0.1600 
  7 C       -1.3440     2.6060    -0.8790 C.3   1 <1>  -0.1600 
  8 C       -3.3590    -2.9690    -0.3180 C.3   1 <1>  -0.0800 
  9 C       -1.1040    -3.1290     0.2860 C.3   1 <1>   0.1200 
 10 C       -3.6990     3.4680     0.7060 C.3   1 <1>  -0.1600 
 11 C       -1.3800     3.9800    -0.1910 C.3   1 <1>  -0.1600 
 12 C       -3.2110    -3.4260     1.1400 C.3   1 <1>   0.1200 
 13 C       -4.6040    -2.0990    -0.5960 C.3   1 <1>  -0.0170 
 14 O       -1.8450    -3.3810     1.4410 O.3   1 <1>  -0.5600 
 15 C       -2.8210     4.4750    -0.0410 C.3   1 <1>   0.2000 
 16 C       -5.9710    -2.7720    -0.4300 C.ar  1 <1>  -0.1440 
 17 O       -2.8040     5.6490     0.6750 O.3   1 <1>  -0.6800 
 18 C       -7.1460    -1.9820    -0.4840 C.ar  1 <1>   0.0000 
 19 C       -6.1370    -4.1150    -0.2350 C.ar  1 <1>  -0.1500 
 20 C       -8.3920    -2.6280    -0.2930 C.ar  1 <1>   0.3100 
 21 C       -7.1590    -0.5860    -0.7240 C.ar  1 <1>  -0.1500 
 22 C       -7.4180    -4.6560    -0.0690 C.ar  1 <1>   0.1600 
 23 N       -8.5100    -3.9630    -0.0860 N.ar  1 <1>  -0.6200 
 24 C       -9.5690    -1.8630    -0.3210 C.ar  1 <1>  -0.1500 
 25 C       -8.3250     0.1300    -0.7490 C.ar  1 <1>  -0.1500 
 26 C       -9.5470    -0.5130    -0.5420 C.ar  1 <1>  -0.1500 
 27 H       -1.8920    -0.8340     0.9370 H     1 <1>   0.3700 
 28 H       -1.8020     1.4440     0.8480 H     1 <1>   0.0800 
 29 H       -1.7400    -2.3130    -1.6280 H     1 <1>   0.0800 
 30 H       -4.1150     2.1690    -0.9520 H     1 <1>   0.0800 
 31 H       -4.2380     1.3900     0.5980 H     1 <1>   0.0800 
 32 H       -0.3280     2.2520    -0.9250 H     1 <1>   0.0800 
 33 H       -1.6990     2.7090    -1.8910 H     1 <1>   0.0800 
 34 H       -3.4030    -3.8420    -0.9440 H     1 <1>   0.0800 
 35 H       -0.1890    -2.6240     0.5410 H     1 <1>   0.0800 
 36 H       -0.8860    -4.0730    -0.1820 H     1 <1>   0.0800 
 37 H       -3.3520     3.3640     1.7190 H     1 <1>   0.0800 
 38 H       -4.7140     3.8280     0.7260 H     1 <1>   0.0800 
 39 H       -0.8210     4.6860    -0.7800 H     1 <1>   0.0800 
 40 H       -0.9190     3.8980     0.7780 H     1 <1>   0.0800 
 41 H       -3.5630    -4.4310     1.2880 H     1 <1>   0.0800 
 42 H       -3.7170    -2.7600     1.8180 H     1 <1>   0.0800 
 43 H       -4.5360    -1.7220    -1.6030 H     1 <1>   0.0800 
 44 H       -4.5770    -1.2560     0.0690 H     1 <1>   0.0800 
 45 H       -3.2430     4.6870    -1.0110 H     1 <1>   0.0800 
 46 H       -2.4100     5.4980     1.5530 H     1 <1>   0.4000 
 47 H       -5.3160    -4.8040    -0.2010 H     1 <1>   0.1500 
 48 H       -6.2350    -0.0680    -0.8980 H     1 <1>   0.1500 
 49 H       -7.4980    -5.7180     0.0850 H     1 <1>   0.1500 
 50 H      -10.4970    -2.3810    -0.1640 H     1 <1>   0.1500 
 51 H       -8.3170     1.1910    -0.9310 H     1 <1>   0.1500 
 52 H      -10.4580     0.0600    -0.5620 H     1 <1>   0.1500 
@<TRIPOS>BOND
  1   1   2  2   
  2   2   3  am  
  3   2   4  1   
  4   3   5  1   
  5   3  27  1   
  6   4   6  1   
  7   4   7  1   
  8   4  28  1   
  9   5   8  1   
 10   5   9  1   
 11   5  29  1   
 12   6  10  1   
 13   6  30  1   
 14   6  31  1   
 15   7  11  1   
 16   7  32  1   
 17   7  33  1   
 18   8  12  1   
 19   8  13  1   
 20   8  34  1   
 21   9  14  1   
 22   9  35  1   
 23   9  36  1   
 24  10  15  1   
 25  10  37  1   
 26  10  38  1   
 27  11  15  1   
 28  11  39  1   
 29  11  40  1   
 30  12  14  1   
 31  12  41  1   
 32  12  42  1   
 33  13  16  1   
 34  13  43  1   
 35  13  44  1   
 36  15  17  1   
 37  15  45  1   
 38  16  18  ar  
 39  16  19  ar  
 40  17  46  1   
 41  18  20  ar  
 42  18  21  ar  
 43  19  22  ar  
 44  19  47  1   
 45  20  23  ar  
 46  20  24  ar  
 47  21  25  ar  
 48  21  48  1   
 49  22  23  ar  
 50  22  49  1   
 51  24  26  ar  
 52  24  50  1   
 53  25  26  ar  
 54  25  51  1   
 55  26  52  1   
@<TRIPOS>SUBSTRUCTURE
  1 ****  13 GROUP 4 **** **** 0

# MOE 2024.06 (io_trps.svl 2023.06)
