@<TRIPOS>MOLECULE
NONAME
42 44 1 0 0 
SMALL
USER_CHARGES


@<TRIPOS>ATOM
  1 F       -0.1510     0.6250    -1.0110 F     1 <1>  -0.1900 
  2 C       -0.7550     1.7290    -0.6520 C.ar  1 <1>   0.1900 
  3 C       -0.1950     2.9350    -0.9860 C.ar  1 <1>  -0.1500 
  4 C       -1.9530     1.6180     0.0590 C.ar  1 <1>  -0.1500 
  5 C       -0.8630     4.0990    -0.5870 C.ar  1 <1>   0.0000 
  6 C       -2.6080     2.7630     0.4500 C.ar  1 <1>  -0.1500 
  7 C       -2.0570     4.0120     0.1250 C.ar  1 <1>  -0.1520 
  8 C       -0.5960     5.4660    -0.7500 C.2   1 <1>  -0.1500 
  9 N       -2.4950     5.2900     0.3880 N.pl3 1 <1>   0.0480 
 10 C       -1.5920     6.1880    -0.1530 C.2   1 <1>  -0.2370 
 11 C       -3.7130     5.6250     1.1600 C.3   1 <1>   0.0160 
 12 C       -1.7200     7.6220    -0.0780 C.2   1 <1>   0.7150 
 13 O       -2.7950     8.1580     0.1110 O.2   1 <1>  -0.5700 
 14 N       -0.5840     8.3730    -0.2140 N.am  1 <1>  -0.4940 
 15 C       -0.3610     9.7710    -0.1790 C.2   1 <1>  -0.0880 
 16 N       -1.1680    10.7550    -0.6690 N.pl3 1 <1>   0.3140 
 17 C        0.7280    10.3960     0.3310 C.2   1 <1>  -0.1810 
 18 N       -0.6220    11.9760    -0.4880 N.2   1 <1>  -0.7070 
 19 C       -2.4330    10.6290    -1.4060 C.3   1 <1>   0.0160 
 20 C        0.5040    11.7530     0.1110 C.2   1 <1>   0.1080 
 21 C        1.9430     9.7840     1.0070 C.3   1 <1>  -0.0590 
 22 C        1.4380    12.8840     0.5040 C.3   1 <1>   0.0210 
 23 C        2.4520    13.1770    -0.6070 C.3   1 <1>  -0.2400 
 24 H        0.7260     2.9940    -1.5350 H     1 <1>   0.1500 
 25 H       -2.3380     0.6410     0.2860 H     1 <1>   0.1500 
 26 H       -3.5330     2.6990     0.9950 H     1 <1>   0.1500 
 27 H        0.2640     5.8340    -1.2810 H     1 <1>   0.1500 
 28 H       -4.0980     4.7520     1.6500 H     1 <1>   0.0800 
 29 H       -4.4550     6.0210     0.4920 H     1 <1>   0.0800 
 30 H       -3.4720     6.3650     1.9020 H     1 <1>   0.0800 
 31 H        0.2620     7.8090    -0.1970 H     1 <1>   0.3700 
 32 H       -2.4090     9.7430    -2.0100 H     1 <1>   0.0800 
 33 H       -2.5620    11.4910    -2.0330 H     1 <1>   0.0800 
 34 H       -3.2410    10.5720    -0.7020 H     1 <1>   0.0800 
 35 H        1.8520     8.7160     1.0660 H     1 <1>   0.0800 
 36 H        2.0380    10.1730     2.0040 H     1 <1>   0.0800 
 37 H        2.8310    10.0260     0.4510 H     1 <1>   0.0800 
 38 H        1.9510    12.6320     1.4130 H     1 <1>   0.0800 
 39 H        0.8490    13.7650     0.6910 H     1 <1>   0.0800 
 40 H        3.0540    12.3080    -0.8010 H     1 <1>   0.0800 
 41 H        3.0920    13.9920    -0.3210 H     1 <1>   0.0800 
 42 H        1.9310    13.4430    -1.5100 H     1 <1>   0.0800 
@<TRIPOS>BOND
  1   1   2  1   
  2   2   3  ar  
  3   2   4  ar  
  4   3   5  ar  
  5   3  24  1   
  6   4   6  ar  
  7   4  25  1   
  8   5   7  ar  
  9   5   8  1   
 10   6   7  ar  
 11   6  26  1   
 12   7   9  1   
 13   8  10  2   
 14   8  27  1   
 15   9  10  1   
 16   9  11  1   
 17  10  12  1   
 18  11  28  1   
 19  11  29  1   
 20  11  30  1   
 21  12  13  2   
 22  12  14  am  
 23  14  15  1   
 24  14  31  1   
 25  15  16  1   
 26  15  17  2   
 27  16  18  1   
 28  16  19  1   
 29  17  20  1   
 30  17  21  1   
 31  18  20  2   
 32  19  32  1   
 33  19  33  1   
 34  19  34  1   
 35  20  22  1   
 36  21  35  1   
 37  21  36  1   
 38  21  37  1   
 39  22  23  1   
 40  22  38  1   
 41  22  39  1   
 42  23  40  1   
 43  23  41  1   
 44  23  42  1   
@<TRIPOS>SUBSTRUCTURE
  1 ****  12 GROUP 4 **** **** 0

# MOE 2024.06 (io_trps.svl 2023.06)
