@<TRIPOS>MOLECULE
NONAME
47 49 1 0 0 
SMALL
USER_CHARGES


@<TRIPOS>ATOM
  1 O       -2.7660    -0.1080    -2.6320 O.2   1 <1>  -0.5700 
  2 C       -2.6160    -0.6360    -1.5590 C.2   1 <1>   0.5690 
  3 N       -2.2760     0.0700    -0.4400 N.am  1 <1>  -0.6600 
  4 C       -2.8610    -2.1200    -1.4780 C.3   1 <1>  -0.0190 
  5 C       -2.1410    -0.5600     0.9040 C.3   1 <1>   0.2200 
  6 C       -1.9650     1.5320    -0.5100 C.3   1 <1>   0.0600 
  7 C       -1.6070    -2.8960    -1.0200 C.3   1 <1>   0.1200 
  8 C       -4.1560    -2.3650    -0.6960 C.3   1 <1>   0.3430 
  9 C       -1.0110    -1.6180     0.9080 C.3   1 <1>   0.1200 
 10 C       -3.5120    -1.0890     1.4100 C.3   1 <1>   0.3430 
 11 O       -1.4080    -2.8500     0.3660 O.3   1 <1>  -0.5600 
 12 N       -3.9730    -2.3800     0.7920 N.4   1 <1>  -0.9590 
 13 C       -5.1570    -2.9540     1.4830 C.3   1 <1>   0.4860 
 14 C       -5.3110    -4.4030     1.0690 C.ar  1 <1>  -0.1440 
 15 C       -6.2680    -4.7490     0.1230 C.ar  1 <1>   0.0820 
 16 C       -4.5030    -5.3820     1.6260 C.ar  1 <1>  -0.1500 
 17 O       -7.0170    -3.7420    -0.3970 O.3   1 <1>  -0.3620 
 18 C       -6.4090    -6.0800    -0.2580 C.ar  1 <1>  -0.1500 
 19 C       -4.6480    -6.7020     1.2390 C.ar  1 <1>  -0.1500 
 20 C       -8.1280    -4.0110    -1.2290 C.3   1 <1>   0.0400 
 21 C       -5.5990    -7.0570     0.2970 C.ar  1 <1>  -0.1440 
 22 C       -5.7530    -8.5110    -0.1140 C.3   1 <1>  -0.0970 
 23 H       -3.0550    -2.4370    -2.4870 H     1 <1>   0.0800 
 24 H       -1.8380     0.2160     1.5860 H     1 <1>   0.0800 
 25 H       -2.6440     2.0850     0.1150 H     1 <1>   0.0800 
 26 H       -2.0590     1.9000    -1.5180 H     1 <1>   0.0800 
 27 H       -0.9550     1.7090    -0.1810 H     1 <1>   0.0800 
 28 H       -0.7230    -2.5220    -1.5110 H     1 <1>   0.0800 
 29 H       -1.7170    -3.9350    -1.2820 H     1 <1>   0.0800 
 30 H       -4.5410    -3.3220    -1.0080 H     1 <1>   0.0800 
 31 H       -4.8870    -1.6210    -0.9710 H     1 <1>   0.0800 
 32 H       -0.7150    -1.8130     1.9250 H     1 <1>   0.0800 
 33 H       -0.1460    -1.2590     0.3760 H     1 <1>   0.0800 
 34 H       -4.2540    -0.3240     1.2500 H     1 <1>   0.0800 
 35 H       -3.4250    -1.2380     2.4730 H     1 <1>   0.0800 
 36 H       -3.1860    -3.0450     0.9280 H     1 <1>   0.4500 
 37 H       -5.0230    -2.9090     2.5510 H     1 <1>   0.0800 
 38 H       -6.0450    -2.3990     1.2280 H     1 <1>   0.0800 
 39 H       -3.7580    -5.1370     2.3630 H     1 <1>   0.1500 
 40 H       -7.1410    -6.3750    -0.9850 H     1 <1>   0.1500 
 41 H       -4.0190    -7.4590     1.6780 H     1 <1>   0.1500 
 42 H       -8.6120    -3.0790    -1.4590 H     1 <1>   0.0800 
 43 H       -8.8110    -4.6560    -0.7040 H     1 <1>   0.0800 
 44 H       -7.7840    -4.4760    -2.1370 H     1 <1>   0.0800 
 45 H       -4.7980    -9.0050    -0.1130 H     1 <1>   0.0800 
 46 H       -6.1710    -8.5860    -1.1020 H     1 <1>   0.0800 
 47 H       -6.4040    -9.0170     0.5760 H     1 <1>   0.0800 
@<TRIPOS>BOND
  1   1   2  2   
  2   2   3  am  
  3   2   4  1   
  4   3   5  1   
  5   3   6  1   
  6   4   7  1   
  7   4   8  1   
  8   4  23  1   
  9   5   9  1   
 10   5  10  1   
 11   5  24  1   
 12   6  25  1   
 13   6  26  1   
 14   6  27  1   
 15   7  11  1   
 16   7  28  1   
 17   7  29  1   
 18   8  12  1   
 19   8  30  1   
 20   8  31  1   
 21   9  11  1   
 22   9  32  1   
 23   9  33  1   
 24  10  12  1   
 25  10  34  1   
 26  10  35  1   
 27  12  13  1   
 28  12  36  1   
 29  13  14  1   
 30  13  37  1   
 31  13  38  1   
 32  14  15  ar  
 33  14  16  ar  
 34  15  17  1   
 35  15  18  ar  
 36  16  19  ar  
 37  16  39  1   
 38  17  20  1   
 39  18  21  ar  
 40  18  40  1   
 41  19  21  ar  
 42  19  41  1   
 43  20  42  1   
 44  20  43  1   
 45  20  44  1   
 46  21  22  1   
 47  22  45  1   
 48  22  46  1   
 49  22  47  1   
@<TRIPOS>SUBSTRUCTURE
  1 ****   8 GROUP 4 **** **** 0

# MOE 2024.06 (io_trps.svl 2023.06)
