@<TRIPOS>MOLECULE
NONAME
52 55 1 0 0 
SMALL
USER_CHARGES


@<TRIPOS>ATOM
  1 F       -0.1410    -3.0760    -0.8670 F     1 <1>  -0.1900 
  2 C       -1.2230    -2.3840    -0.6100 C.ar  1 <1>   0.1900 
  3 C       -2.2860    -2.9270     0.1220 C.ar  1 <1>   0.0830 
  4 C       -1.2470    -1.0990    -1.1140 C.ar  1 <1>  -0.1500 
  5 O       -2.3150    -4.1800     0.6600 O.3   1 <1>  -0.3630 
  6 C       -3.4180    -2.1280     0.3300 C.ar  1 <1>   0.0860 
  7 C       -2.3620    -0.3120    -0.8930 C.ar  1 <1>  -0.1500 
  8 C       -1.1970    -5.0340     0.7560 C.3   1 <1>   0.0400 
  9 C       -4.5740    -2.6040     1.0600 C.2   1 <1>   0.5440 
 10 C       -3.4280    -0.8270    -0.1790 C.ar  1 <1>  -0.1500 
 11 O       -4.8020    -2.1350     2.1600 O.2   1 <1>  -0.5700 
 12 N       -5.4510    -3.5300     0.5290 N.am  1 <1>  -0.6600 
 13 C       -6.5680    -4.1090     1.3230 C.3   1 <1>   0.1400 
 14 C       -5.3450    -4.0940    -0.8440 C.3   1 <1>   0.1400 
 15 C       -6.3520    -5.6170     1.4520 C.3   1 <1>  -0.1600 
 16 C       -5.1270    -5.6060    -0.7530 C.3   1 <1>  -0.1600 
 17 C       -6.2180    -6.2980     0.0770 C.3   1 <1>   0.4240 
 18 O       -7.4140    -6.0830    -0.6370 O.3   1 <1>  -0.5600 
 19 C       -5.9020    -7.8020     0.2280 C.ar  1 <1>  -0.1430 
 20 C       -8.4730    -6.9550    -0.3940 C.3   1 <1>   0.1200 
 21 C       -6.7840    -8.7740    -0.2310 C.ar  1 <1>  -0.1430 
 22 C       -4.7210    -8.2140     0.8380 C.ar  1 <1>  -0.1500 
 23 C       -8.0850    -8.3480    -0.8810 C.3   1 <1>  -0.0170 
 24 C       -6.4870   -10.1210    -0.0970 C.ar  1 <1>  -0.1500 
 25 C       -4.4240    -9.5570     0.9750 C.ar  1 <1>  -0.1500 
 26 C       -5.3000   -10.5210     0.5090 C.ar  1 <1>   0.0830 
 27 O       -4.9340   -11.8160     0.6790 O.3   1 <1>  -0.3630 
 28 C       -5.7470   -12.8740     0.2240 C.3   1 <1>   0.0400 
 29 H       -0.4070    -0.7210    -1.6700 H     1 <1>   0.1500 
 30 H       -2.3990     0.6960    -1.2730 H     1 <1>   0.1500 
 31 H       -1.4820    -5.8900     1.3410 H     1 <1>   0.0800 
 32 H       -0.3950    -4.5100     1.2440 H     1 <1>   0.0800 
 33 H       -0.9100    -5.3490    -0.2320 H     1 <1>   0.0800 
 34 H       -4.2960    -0.2150     0.0000 H     1 <1>   0.1500 
 35 H       -7.4990    -3.9070     0.8220 H     1 <1>   0.0800 
 36 H       -6.6130    -3.6660     2.3030 H     1 <1>   0.0800 
 37 H       -4.5350    -3.6430    -1.3890 H     1 <1>   0.0800 
 38 H       -6.2580    -3.8890    -1.3770 H     1 <1>   0.0800 
 39 H       -7.1550    -6.0590     2.0090 H     1 <1>   0.0800 
 40 H       -5.4530    -5.7720     2.0190 H     1 <1>   0.0800 
 41 H       -4.1650    -5.7800    -0.3150 H     1 <1>   0.0800 
 42 H       -5.1130    -6.0330    -1.7390 H     1 <1>   0.0800 
 43 H       -9.3300    -6.5920    -0.9330 H     1 <1>   0.0800 
 44 H       -8.6950    -6.9600     0.6590 H     1 <1>   0.0800 
 45 H       -4.0200    -7.4900     1.2130 H     1 <1>   0.1500 
 46 H       -7.9700    -8.3330    -1.9500 H     1 <1>   0.0800 
 47 H       -8.8700    -9.0400    -0.6340 H     1 <1>   0.0800 
 48 H       -7.1850   -10.8470    -0.4670 H     1 <1>   0.1500 
 49 H       -3.5100    -9.8690     1.4470 H     1 <1>   0.1500 
 50 H       -5.2530   -13.7990     0.4600 H     1 <1>   0.0800 
 51 H       -5.8690   -12.7860    -0.8410 H     1 <1>   0.0800 
 52 H       -6.6950   -12.8270     0.7280 H     1 <1>   0.0800 
@<TRIPOS>BOND
  1   1   2  1   
  2   2   3  ar  
  3   2   4  ar  
  4   3   5  1   
  5   3   6  ar  
  6   4   7  ar  
  7   4  29  1   
  8   5   8  1   
  9   6   9  1   
 10   6  10  ar  
 11   7  10  ar  
 12   7  30  1   
 13   8  31  1   
 14   8  32  1   
 15   8  33  1   
 16   9  11  2   
 17   9  12  am  
 18  10  34  1   
 19  12  13  1   
 20  12  14  1   
 21  13  15  1   
 22  13  35  1   
 23  13  36  1   
 24  14  16  1   
 25  14  37  1   
 26  14  38  1   
 27  15  17  1   
 28  15  39  1   
 29  15  40  1   
 30  16  17  1   
 31  16  41  1   
 32  16  42  1   
 33  17  18  1   
 34  17  19  1   
 35  18  20  1   
 36  19  21  ar  
 37  19  22  ar  
 38  20  23  1   
 39  20  43  1   
 40  20  44  1   
 41  21  23  1   
 42  21  24  ar  
 43  22  25  ar  
 44  22  45  1   
 45  23  46  1   
 46  23  47  1   
 47  24  26  ar  
 48  24  48  1   
 49  25  26  ar  
 50  25  49  1   
 51  26  27  1   
 52  27  28  1   
 53  28  50  1   
 54  28  51  1   
 55  28  52  1   
@<TRIPOS>SUBSTRUCTURE
  1 ****  16 GROUP 4 **** **** 0

# MOE 2024.06 (io_trps.svl 2023.06)
