@<TRIPOS>MOLECULE
NONAME
44 45 1 0 0 
SMALL
USER_CHARGES


@<TRIPOS>ATOM
  1 CL      -1.5950    -0.9060     1.4120 Cl    1 <1>  -0.1770 
  2 C       -2.6160     0.2060     0.5210 C.ar  1 <1>   0.1770 
  3 C       -3.3470    -0.2440    -0.5830 C.ar  1 <1>   0.0860 
  4 C       -2.6540     1.5290     0.9460 C.ar  1 <1>  -0.1440 
  5 C       -3.3530    -1.6180    -1.0420 C.2   1 <1>   0.5440 
  6 C       -4.1100     0.7060    -1.2630 C.ar  1 <1>  -0.1500 
  7 C       -3.4340     2.4370     0.2490 C.ar  1 <1>  -0.1500 
  8 C       -1.8540     1.9980     2.1540 C.3   1 <1>  -0.0960 
  9 O       -3.3500    -1.8700    -2.2310 O.2   1 <1>  -0.5700 
 10 N       -3.4270    -2.6660    -0.1720 N.am  1 <1>  -0.7300 
 11 C       -4.1580     2.0260    -0.8560 C.ar  1 <1>  -0.1500 
 12 C       -3.3190    -4.0980    -0.5370 C.3   1 <1>   0.2200 
 13 C       -4.6810    -4.7710    -0.4940 C.3   1 <1>  -0.0800 
 14 C       -2.6040    -4.8370     0.5850 C.3   1 <1>   0.1200 
 15 C       -4.8440    -5.1070     0.9940 C.3   1 <1>   0.1200 
 16 C       -5.8280    -3.9430    -1.1120 C.3   1 <1>  -0.0550 
 17 O       -3.5730    -5.0210     1.5710 O.3   1 <1>  -0.5600 
 18 S       -7.3820    -4.8280    -1.2590 S.o2  1 <1>   1.3330 
 19 O       -8.3630    -3.9710    -1.8850 O.2   1 <1>  -0.6500 
 20 O       -7.1050    -6.1290    -1.8250 O.2   1 <1>  -0.6500 
 21 N       -7.8770    -5.0600     0.3510 N.am  1 <1>  -0.8490 
 22 C       -8.5210    -3.8780     0.9350 C.3   1 <1>   0.1160 
 23 C       -8.7560    -6.2240     0.4940 C.3   1 <1>   0.1160 
 24 H       -4.6740     0.3980    -2.1280 H     1 <1>   0.1500 
 25 H       -3.4810     3.4680     0.5560 H     1 <1>   0.1500 
 26 H       -2.0130     3.0450     2.3420 H     1 <1>   0.0800 
 27 H       -0.8030     1.8410     1.9840 H     1 <1>   0.0800 
 28 H       -2.1490     1.4490     3.0300 H     1 <1>   0.0800 
 29 H       -3.3860    -2.4950     0.8370 H     1 <1>   0.3700 
 30 H       -4.7580     2.7360    -1.3990 H     1 <1>   0.1500 
 31 H       -2.8230    -4.2150    -1.4870 H     1 <1>   0.0800 
 32 H       -4.6050    -5.7010    -1.0310 H     1 <1>   0.0800 
 33 H       -1.7730    -4.2850     0.9870 H     1 <1>   0.0800 
 34 H       -2.2780    -5.8080     0.2560 H     1 <1>   0.0800 
 35 H       -5.2310    -6.1010     1.1400 H     1 <1>   0.0800 
 36 H       -5.4750    -4.3950     1.4970 H     1 <1>   0.0800 
 37 H       -5.5220    -3.6400    -2.0950 H     1 <1>   0.0800 
 38 H       -5.9820    -3.0510    -0.5400 H     1 <1>   0.0800 
 39 H       -8.7340    -4.0510     1.9770 H     1 <1>   0.0800 
 40 H       -9.4430    -3.6590     0.4220 H     1 <1>   0.0800 
 41 H       -7.8720    -3.0230     0.8590 H     1 <1>   0.0800 
 42 H       -9.0420    -6.3520     1.5240 H     1 <1>   0.0800 
 43 H       -8.2420    -7.1160     0.1760 H     1 <1>   0.0800 
 44 H       -9.6400    -6.1020    -0.1090 H     1 <1>   0.0800 
@<TRIPOS>BOND
  1   1   2  1   
  2   2   3  ar  
  3   2   4  ar  
  4   3   5  1   
  5   3   6  ar  
  6   4   7  ar  
  7   4   8  1   
  8   5   9  2   
  9   5  10  am  
 10   6  11  ar  
 11   6  24  1   
 12   7  11  ar  
 13   7  25  1   
 14   8  26  1   
 15   8  27  1   
 16   8  28  1   
 17  10  12  1   
 18  10  29  1   
 19  11  30  1   
 20  12  13  1   
 21  12  14  1   
 22  12  31  1   
 23  13  15  1   
 24  13  16  1   
 25  13  32  1   
 26  14  17  1   
 27  14  33  1   
 28  14  34  1   
 29  15  17  1   
 30  15  35  1   
 31  15  36  1   
 32  16  18  1   
 33  16  37  1   
 34  16  38  1   
 35  18  19  2   
 36  18  20  2   
 37  18  21  am  
 38  21  22  1   
 39  21  23  1   
 40  22  39  1   
 41  22  40  1   
 42  22  41  1   
 43  23  42  1   
 44  23  43  1   
 45  23  44  1   
@<TRIPOS>SUBSTRUCTURE
  1 ****  10 GROUP 4 **** **** 0

# MOE 2024.06 (io_trps.svl 2023.06)
