@<TRIPOS>MOLECULE
NONAME
59 62 1 0 0 
SMALL
USER_CHARGES


@<TRIPOS>ATOM
  1 O        0.0450     1.7530    -1.2250 O.2   1 <1>  -0.5700 
  2 C       -0.5440     1.8910    -0.1680 C.2   1 <1>   0.7150 
  3 N        0.1240     2.4900     0.8650 N.am  1 <1>  -0.7300 
  4 C       -1.9130     1.4570     0.0160 C.2   1 <1>   0.0550 
  5 C        1.5350     2.9700     0.8120 C.3   1 <1>   0.1400 
  6 O       -2.6110     0.9320    -0.9880 O.3   1 <1>  -0.2800 
  7 C       -2.7150     1.4820     1.1200 C.2   1 <1>  -0.1500 
  8 C        1.7020     4.1810    -0.1190 C.3   1 <1>   0.2000 
  9 C       -3.8150     0.6270    -0.5620 C.2   1 <1>  -0.0100 
 10 C       -3.9460     0.9450     0.7420 C.2   1 <1>  -0.1500 
 11 O        2.9700     4.7280     0.0680 O.3   1 <1>  -0.5600 
 12 C        0.7400     5.3330     0.1360 C.3   1 <1>  -0.1600 
 13 C        2.9870     6.1090    -0.1380 C.3   1 <1>   0.2800 
 14 C        1.5280     6.5070    -0.4050 C.3   1 <1>  -0.1600 
 15 C        3.5310     6.7200     1.1680 C.3   1 <1>  -0.1600 
 16 C        3.8910     6.3930    -1.3490 C.3   1 <1>  -0.1600 
 17 C        4.2900     8.0230     0.9180 C.3   1 <1>   0.2090 
 18 C        5.3370     6.6060    -0.9160 C.3   1 <1>   0.2090 
 19 N        5.4070     7.8170    -0.0480 N.pl3 1 <1>  -0.8380 
 20 C        6.6540     8.2850     0.3070 C.ar  1 <1>   0.4100 
 21 N        7.5200     7.3870     0.7300 N.ar  1 <1>  -0.6200 
 22 C        6.9830     9.6360     0.2400 C.ar  1 <1>  -0.1430 
 23 C        8.6960     7.8440     1.0990 C.ar  1 <1>   0.4770 
 24 C        8.2460     9.9770     0.6590 C.ar  1 <1>   0.1600 
 25 C        5.9690    10.6590    -0.2840 C.3   1 <1>  -0.0170 
 26 N        9.1200     9.0920     1.0950 N.ar  1 <1>  -0.6200 
 27 C        9.6880     6.8150     1.5840 C.3   1 <1>  -0.0970 
 28 C        6.5670    12.0080    -0.7120 C.3   1 <1>  -0.1600 
 29 C        5.5020    12.9190    -1.3310 C.3   1 <1>  -0.2400 
 30 H       -0.3630     2.6260     1.7490 H     1 <1>   0.3700 
 31 H        2.1640     2.1720     0.4570 H     1 <1>   0.0800 
 32 H        1.8490     3.2420     1.8040 H     1 <1>   0.0800 
 33 H       -2.4810     1.8380     2.1070 H     1 <1>   0.1500 
 34 H        1.6400     3.8660    -1.1480 H     1 <1>   0.0800 
 35 H       -4.5160     0.1890    -1.2510 H     1 <1>   0.1500 
 36 H       -4.8040     0.8200     1.3790 H     1 <1>   0.1500 
 37 H        0.5690     5.4440     1.1920 H     1 <1>   0.0800 
 38 H       -0.1970     5.1900    -0.3720 H     1 <1>   0.0800 
 39 H        1.2570     7.4390     0.0580 H     1 <1>   0.0800 
 40 H        1.3560     6.5910    -1.4640 H     1 <1>   0.0800 
 41 H        4.2190     6.0330     1.6300 H     1 <1>   0.0800 
 42 H        2.7330     6.8970     1.8640 H     1 <1>   0.0800 
 43 H        3.5720     7.2890    -1.8500 H     1 <1>   0.0800 
 44 H        3.8290     5.5820    -2.0520 H     1 <1>   0.0800 
 45 H        4.6840     8.3940     1.8490 H     1 <1>   0.0800 
 46 H        3.6180     8.7620     0.5170 H     1 <1>   0.0800 
 47 H        5.9680     6.7490    -1.7760 H     1 <1>   0.0800 
 48 H        5.6920     5.7450    -0.3720 H     1 <1>   0.0800 
 49 H        8.5740    11.0000     0.6460 H     1 <1>   0.1500 
 50 H        5.2290    10.8270     0.4780 H     1 <1>   0.0800 
 51 H        5.4680    10.2300    -1.1340 H     1 <1>   0.0800 
 52 H        9.1830     5.9030     1.8460 H     1 <1>   0.0800 
 53 H       10.2050     7.1880     2.4480 H     1 <1>   0.0800 
 54 H       10.3980     6.6140     0.8060 H     1 <1>   0.0800 
 55 H        7.3480    11.8400    -1.4350 H     1 <1>   0.0800 
 56 H        6.9920    12.5070     0.1410 H     1 <1>   0.0800 
 57 H        5.0750    12.4600    -2.2060 H     1 <1>   0.0800 
 58 H        5.9420    13.8580    -1.6190 H     1 <1>   0.0800 
 59 H        4.7150    13.1140    -0.6230 H     1 <1>   0.0800 
@<TRIPOS>BOND
  1   1   2  2   
  2   2   3  am  
  3   2   4  1   
  4   3   5  1   
  5   3  30  1   
  6   4   6  1   
  7   4   7  2   
  8   5   8  1   
  9   5  31  1   
 10   5  32  1   
 11   6   9  1   
 12   7  10  1   
 13   7  33  1   
 14   8  11  1   
 15   8  12  1   
 16   8  34  1   
 17   9  10  2   
 18   9  35  1   
 19  10  36  1   
 20  11  13  1   
 21  12  14  1   
 22  12  37  1   
 23  12  38  1   
 24  13  14  1   
 25  13  15  1   
 26  13  16  1   
 27  14  39  1   
 28  14  40  1   
 29  15  17  1   
 30  15  41  1   
 31  15  42  1   
 32  16  18  1   
 33  16  43  1   
 34  16  44  1   
 35  17  19  1   
 36  17  45  1   
 37  17  46  1   
 38  18  19  1   
 39  18  47  1   
 40  18  48  1   
 41  19  20  1   
 42  20  21  ar  
 43  20  22  ar  
 44  21  23  ar  
 45  22  24  ar  
 46  22  25  1   
 47  23  26  ar  
 48  23  27  1   
 49  24  26  ar  
 50  24  49  1   
 51  25  28  1   
 52  25  50  1   
 53  25  51  1   
 54  27  52  1   
 55  27  53  1   
 56  27  54  1   
 57  28  29  1   
 58  28  55  1   
 59  28  56  1   
 60  29  57  1   
 61  29  58  1   
 62  29  59  1   
@<TRIPOS>SUBSTRUCTURE
  1 ****  13 GROUP 4 **** **** 0

# MOE 2024.06 (io_trps.svl 2023.06)
