@<TRIPOS>MOLECULE
NONAME
59 61 1 0 0 
SMALL
USER_CHARGES


@<TRIPOS>ATOM
  1 O       -3.8270    -0.0650     1.3310 O.2   1 <1>  -0.5700 
  2 C       -3.3680     0.6390     0.4590 C.2   1 <1>   0.5690 
  3 N       -3.7820     0.4960    -0.8370 N.am  1 <1>  -0.6600 
  4 C       -2.3390     1.7080     0.8290 C.3   1 <1>  -0.0190 
  5 C       -3.4830    -0.7620    -1.5510 C.3   1 <1>   0.1400 
  6 C       -5.0770     1.0770    -1.2420 C.3   1 <1>   0.1400 
  7 C       -2.8960     3.1340     0.6560 C.3   1 <1>  -0.1600 
  8 C       -1.0050     1.5340     0.0610 C.3   1 <1>  -0.1600 
  9 C       -4.5000    -1.8230    -1.1290 C.3   1 <1>  -0.1600 
 10 C       -6.1880     0.1420    -0.7650 C.3   1 <1>  -0.1600 
 11 C       -1.9280     4.2030     1.2040 C.3   1 <1>   0.2000 
 12 C       -0.1490     2.8160     0.0050 C.3   1 <1>  -0.1600 
 13 C       -5.9560    -1.3220    -1.2010 C.3   1 <1>   0.4230 
 14 O       -2.0700     5.3580     0.4140 O.3   1 <1>  -0.5600 
 15 C       -0.4440     3.7470     1.1830 C.3   1 <1>   0.2000 
 16 N       -6.8200    -2.2610    -0.4250 N.4   1 <1>  -0.9590 
 17 C       -3.1290     6.1920     0.7700 C.3   1 <1>   0.0400 
 18 O        0.3700     4.8550     1.0660 O.3   1 <1>  -0.6800 
 19 C       -6.6270    -2.1860     1.0600 C.3   1 <1>   0.4860 
 20 C       -8.2670    -2.1440    -0.7840 C.3   1 <1>   0.2630 
 21 C       -7.1260    -3.4880     1.6520 C.ar  1 <1>  -0.1440 
 22 C       -8.3630    -3.5490     2.2770 C.ar  1 <1>  -0.1500 
 23 C       -6.3460    -4.6330     1.5670 C.ar  1 <1>  -0.1500 
 24 C       -8.8220    -4.7460     2.7970 C.ar  1 <1>  -0.1500 
 25 C       -6.8070    -5.8290     2.0870 C.ar  1 <1>  -0.1500 
 26 C       -8.0450    -5.8870     2.7000 C.ar  1 <1>  -0.1500 
 27 H       -2.1280     1.5760     1.8760 H     1 <1>   0.0800 
 28 H       -3.5270    -0.5900    -2.6140 H     1 <1>   0.0800 
 29 H       -2.4860    -1.0900    -1.3050 H     1 <1>   0.0800 
 30 H       -5.1970     2.0510    -0.7970 H     1 <1>   0.0800 
 31 H       -5.1020     1.1920    -2.3130 H     1 <1>   0.0800 
 32 H       -3.8370     3.2170     1.1690 H     1 <1>   0.0800 
 33 H       -3.0590     3.3080    -0.3940 H     1 <1>   0.0800 
 34 H       -0.4410     0.7490     0.5350 H     1 <1>   0.0800 
 35 H       -1.1940     1.2240    -0.9520 H     1 <1>   0.0800 
 36 H       -4.2350    -2.1320    -0.1370 H     1 <1>   0.0800 
 37 H       -4.3860    -2.6770    -1.7720 H     1 <1>   0.0800 
 38 H       -7.1210     0.4940    -1.1640 H     1 <1>   0.0800 
 39 H       -6.2320     0.2370     0.3030 H     1 <1>   0.0800 
 40 H       -2.1790     4.4440     2.2230 H     1 <1>   0.0800 
 41 H       -0.3720     3.3430    -0.9070 H     1 <1>   0.0800 
 42 H        0.8950     2.5540    -0.0030 H     1 <1>   0.0800 
 43 H       -6.2380    -1.3780    -2.2400 H     1 <1>   0.0800 
 44 H       -0.1920     3.2490     2.1030 H     1 <1>   0.0800 
 45 H       -6.5290    -3.2170    -0.6670 H     1 <1>   0.4500 
 46 H       -3.1340     7.0310     0.0960 H     1 <1>   0.0800 
 47 H       -2.9830     6.5400     1.7780 H     1 <1>   0.0800 
 48 H       -4.0560     5.6540     0.6840 H     1 <1>   0.0800 
 49 H       -0.1490     5.5120     0.5470 H     1 <1>   0.4000 
 50 H       -5.5870    -2.0560     1.3110 H     1 <1>   0.0800 
 51 H       -7.1750    -1.3550     1.4720 H     1 <1>   0.0800 
 52 H       -8.6510    -1.1810    -0.4890 H     1 <1>   0.0800 
 53 H       -8.8380    -2.9100    -0.2830 H     1 <1>   0.0800 
 54 H       -8.4000    -2.2610    -1.8470 H     1 <1>   0.0800 
 55 H       -8.9810    -2.6720     2.3720 H     1 <1>   0.1500 
 56 H       -5.3730    -4.6100     1.1050 H     1 <1>   0.1500 
 57 H       -9.7830    -4.7940     3.2830 H     1 <1>   0.1500 
 58 H       -6.2020    -6.7180     2.0220 H     1 <1>   0.1500 
 59 H       -8.4030    -6.8180     3.1060 H     1 <1>   0.1500 
@<TRIPOS>BOND
  1   1   2  2   
  2   2   3  am  
  3   2   4  1   
  4   3   5  1   
  5   3   6  1   
  6   4   7  1   
  7   4   8  1   
  8   4  27  1   
  9   5   9  1   
 10   5  28  1   
 11   5  29  1   
 12   6  10  1   
 13   6  30  1   
 14   6  31  1   
 15   7  11  1   
 16   7  32  1   
 17   7  33  1   
 18   8  12  1   
 19   8  34  1   
 20   8  35  1   
 21   9  13  1   
 22   9  36  1   
 23   9  37  1   
 24  10  13  1   
 25  10  38  1   
 26  10  39  1   
 27  11  14  1   
 28  11  15  1   
 29  11  40  1   
 30  12  15  1   
 31  12  41  1   
 32  12  42  1   
 33  13  16  1   
 34  13  43  1   
 35  14  17  1   
 36  15  18  1   
 37  15  44  1   
 38  16  19  1   
 39  16  20  1   
 40  16  45  1   
 41  17  46  1   
 42  17  47  1   
 43  17  48  1   
 44  18  49  1   
 45  19  21  1   
 46  19  50  1   
 47  19  51  1   
 48  20  52  1   
 49  20  53  1   
 50  20  54  1   
 51  21  22  ar  
 52  21  23  ar  
 53  22  24  ar  
 54  22  55  1   
 55  23  25  ar  
 56  23  56  1   
 57  24  26  ar  
 58  24  57  1   
 59  25  26  ar  
 60  25  58  1   
 61  26  59  1   
@<TRIPOS>SUBSTRUCTURE
  1 ****   1 GROUP 4 **** **** 0

# MOE 2024.06 (io_trps.svl 2023.06)
