@<TRIPOS>MOLECULE
NONAME
49 51 1 0 0 
SMALL
USER_CHARGES


@<TRIPOS>ATOM
  1 O       -1.4640     0.9160    -0.4290 O.2   1 <1>  -0.5700 
  2 C       -0.9990     1.9620    -0.0430 C.2   1 <1>   0.5690 
  3 N       -1.7670     3.0830     0.1330 N.am  1 <1>  -0.6600 
  4 C        0.5080     2.0200     0.2230 C.3   1 <1>   0.1810 
  5 C       -1.1540     4.3730     0.5880 C.3   1 <1>   0.3640 
  6 C       -3.2570     3.0510     0.0560 C.3   1 <1>   0.0600 
  7 O        0.8950     3.1030     1.0360 O.3   1 <1>  -0.5600 
  8 C       -1.6690     5.5660    -0.2400 C.ar  1 <1>  -0.1430 
  9 C        0.3960     4.3530     0.6010 C.3   1 <1>   0.2610 
 10 C       -1.6740     5.6310    -1.6380 C.ar  1 <1>  -0.1430 
 11 C       -2.1570     6.6510     0.4790 C.ar  1 <1>  -0.1500 
 12 C        0.9740     5.5050     1.4400 C.2   1 <1>   0.5690 
 13 C       -2.1560     6.7710    -2.2650 C.ar  1 <1>  -0.1500 
 14 C       -1.1980     4.4990    -2.5460 C.3   1 <1>  -0.0960 
 15 C       -2.6370     7.7800    -0.1560 C.ar  1 <1>  -0.1500 
 16 O        0.3120     5.9680     2.3440 O.2   1 <1>  -0.5700 
 17 N        2.2050     6.0330     1.1370 N.am  1 <1>  -0.6600 
 18 C       -2.6350     7.8410    -1.5340 C.ar  1 <1>  -0.1500 
 19 C        2.5830     7.3880     1.6370 C.3   1 <1>   0.3210 
 20 C        3.1730     5.4380     0.1720 C.3   1 <1>   0.0600 
 21 C        2.3490     8.4150     0.5420 C.2   1 <1>   0.1080 
 22 N        3.2740     9.0980    -0.0360 N.2   1 <1>  -0.4100 
 23 C        1.1000     8.7290     0.0110 C.2   1 <1>  -0.1500 
 24 O        2.6730     9.8430    -0.9200 O.3   1 <1>  -0.0190 
 25 C        1.3810     9.6480    -0.9220 C.2   1 <1>  -0.0400 
 26 C        0.4960    10.4110    -1.8830 C.3   1 <1>  -0.0600 
 27 H        1.0330     2.0920    -0.7120 H     1 <1>   0.0800 
 28 H        0.8120     1.1170     0.7200 H     1 <1>   0.0800 
 29 H       -1.4770     4.5070     1.6050 H     1 <1>   0.0800 
 30 H       -3.6010     3.7080    -0.7230 H     1 <1>   0.0800 
 31 H       -3.6770     3.3700     0.9940 H     1 <1>   0.0800 
 32 H       -3.6060     2.0550    -0.1560 H     1 <1>   0.0800 
 33 H        0.7420     4.4990    -0.4020 H     1 <1>   0.0800 
 34 H       -2.1640     6.6300     1.5570 H     1 <1>   0.1500 
 35 H       -2.1690     6.8340    -3.3390 H     1 <1>   0.1500 
 36 H       -1.0580     4.8480    -3.5530 H     1 <1>   0.0800 
 37 H       -1.9330     3.7150    -2.5670 H     1 <1>   0.0800 
 38 H       -0.2660     4.0870    -2.2170 H     1 <1>   0.0800 
 39 H       -3.0100     8.6070     0.4220 H     1 <1>   0.1500 
 40 H       -3.0090     8.7150    -2.0380 H     1 <1>   0.1500 
 41 H        2.0020     7.6540     2.5020 H     1 <1>   0.0800 
 42 H        3.6200     7.3920     1.9230 H     1 <1>   0.0800 
 43 H        4.1800     5.5990     0.5180 H     1 <1>   0.0800 
 44 H        3.0600     5.9050    -0.7920 H     1 <1>   0.0800 
 45 H        3.0190     4.3780     0.0780 H     1 <1>   0.0800 
 46 H        0.1580     8.3050     0.3050 H     1 <1>   0.1500 
 47 H       -0.5300    10.1240    -1.7480 H     1 <1>   0.0800 
 48 H        0.7890    10.1980    -2.8950 H     1 <1>   0.0800 
 49 H        0.5910    11.4670    -1.7050 H     1 <1>   0.0800 
@<TRIPOS>BOND
  1   1   2  2   
  2   2   3  am  
  3   2   4  1   
  4   3   5  1   
  5   3   6  1   
  6   4   7  1   
  7   4  27  1   
  8   4  28  1   
  9   5   8  1   
 10   5   9  1   
 11   5  29  1   
 12   6  30  1   
 13   6  31  1   
 14   6  32  1   
 15   7   9  1   
 16   8  10  ar  
 17   8  11  ar  
 18   9  12  1   
 19   9  33  1   
 20  10  13  ar  
 21  10  14  1   
 22  11  15  ar  
 23  11  34  1   
 24  12  16  2   
 25  12  17  am  
 26  13  18  ar  
 27  13  35  1   
 28  14  36  1   
 29  14  37  1   
 30  14  38  1   
 31  15  18  ar  
 32  15  39  1   
 33  17  19  1   
 34  17  20  1   
 35  18  40  1   
 36  19  21  1   
 37  19  41  1   
 38  19  42  1   
 39  20  43  1   
 40  20  44  1   
 41  20  45  1   
 42  21  22  2   
 43  21  23  1   
 44  22  24  1   
 45  23  25  2   
 46  23  46  1   
 47  24  25  1   
 48  25  26  1   
 49  26  47  1   
 50  26  48  1   
 51  26  49  1   
@<TRIPOS>SUBSTRUCTURE
  1 ****   8 GROUP 4 **** **** 0

# MOE 2024.06 (io_trps.svl 2023.06)
