@<TRIPOS>MOLECULE
NONAME
41 43 1 0 0 
SMALL
USER_CHARGES


@<TRIPOS>ATOM
  1 O       -0.3940    -2.3390    -0.8770 O.2   1 <1>  -0.5700 
  2 C        0.6750    -2.8910    -0.6800 C.2   1 <1>   0.8410 
  3 N        1.5620    -2.9980    -1.7180 N.2   1 <1>  -0.6610 
  4 N        0.9740    -3.4160     0.5680 N.am  1 <1>  -0.4690 
  5 C        2.6760    -3.5940    -1.4960 C.2   1 <1>   0.3760 
  6 C        2.1670    -4.0570     0.7820 C.2   1 <1>  -0.0410 
  7 C       -0.0210    -3.3350     1.6830 C.3   1 <1>   0.2010 
  8 C        3.0360    -4.1520    -0.2500 C.2   1 <1>  -0.1360 
  9 C       -0.6490    -4.6930     1.9890 C.2   1 <1>   0.5690 
 10 O       -0.1320    -5.3660     2.8510 O.2   1 <1>  -0.5700 
 11 N       -1.7510    -5.1390     1.3090 N.am  1 <1>  -0.6600 
 12 C       -2.4230    -4.4640     0.1640 C.3   1 <1>   0.1400 
 13 C       -2.2950    -6.5090     1.4830 C.3   1 <1>   0.1400 
 14 C       -3.5980    -5.3770    -0.1910 C.3   1 <1>   0.2000 
 15 C       -3.1240    -6.7730     0.2180 C.3   1 <1>  -0.0800 
 16 O       -4.6810    -5.0390     0.6050 O.3   1 <1>  -0.6800 
 17 C       -2.2770    -7.4100    -0.9030 C.3   1 <1>  -0.0170 
 18 C       -1.7730    -8.7920    -0.5170 C.ar  1 <1>  -0.1430 
 19 C       -0.4740    -9.0040    -0.1020 C.ar  1 <1>  -0.1500 
 20 C       -2.5880    -9.9040    -0.5620 C.ar  1 <1>  -0.1500 
 21 C       -0.0650   -10.2820     0.2420 C.ar  1 <1>   0.1600 
 22 C       -2.0800   -11.1400    -0.1980 C.ar  1 <1>   0.1600 
 23 N       -0.8380   -11.3550     0.2040 N.ar  1 <1>  -0.6200 
 24 H        3.3860    -3.6830    -2.2990 H     1 <1>   0.0600 
 25 H        2.3670    -4.4670     1.7620 H     1 <1>   0.1500 
 26 H        0.4820    -2.9900     2.5670 H     1 <1>   0.0800 
 27 H       -0.7950    -2.6240     1.4590 H     1 <1>   0.0800 
 28 H        3.9900    -4.6380    -0.1580 H     1 <1>   0.1500 
 29 H       -2.7500    -3.4680     0.4110 H     1 <1>   0.0800 
 30 H       -1.7450    -4.4240    -0.6690 H     1 <1>   0.0800 
 31 H       -1.5040    -7.2250     1.6240 H     1 <1>   0.0800 
 32 H       -2.9290    -6.5230     2.3530 H     1 <1>   0.0800 
 33 H       -3.8990    -5.2990    -1.2220 H     1 <1>   0.0800 
 34 H       -3.9570    -7.4200     0.4310 H     1 <1>   0.0800 
 35 H       -4.3840    -4.9680     1.5340 H     1 <1>   0.4000 
 36 H       -1.4370    -6.7810    -1.1400 H     1 <1>   0.0800 
 37 H       -2.8740    -7.4980    -1.7940 H     1 <1>   0.0800 
 38 H        0.2250    -8.1890    -0.0380 H     1 <1>   0.1500 
 39 H       -3.6130    -9.8220    -0.8760 H     1 <1>   0.1500 
 40 H        0.9510   -10.4280     0.5660 H     1 <1>   0.1500 
 41 H       -2.7300   -11.9970    -0.2390 H     1 <1>   0.1500 
@<TRIPOS>BOND
  1   1   2  2   
  2   2   3  1   
  3   2   4  am  
  4   3   5  2   
  5   4   6  1   
  6   4   7  1   
  7   5   8  1   
  8   5  24  1   
  9   6   8  2   
 10   6  25  1   
 11   7   9  1   
 12   7  26  1   
 13   7  27  1   
 14   8  28  1   
 15   9  10  2   
 16   9  11  am  
 17  11  12  1   
 18  11  13  1   
 19  12  14  1   
 20  12  29  1   
 21  12  30  1   
 22  13  15  1   
 23  13  31  1   
 24  13  32  1   
 25  14  15  1   
 26  14  16  1   
 27  14  33  1   
 28  15  17  1   
 29  15  34  1   
 30  16  35  1   
 31  17  18  1   
 32  17  36  1   
 33  17  37  1   
 34  18  19  ar  
 35  18  20  ar  
 36  19  21  ar  
 37  19  38  1   
 38  20  22  ar  
 39  20  39  1   
 40  21  23  ar  
 41  21  40  1   
 42  22  23  ar  
 43  22  41  1   
@<TRIPOS>SUBSTRUCTURE
  1 ****  11 GROUP 4 **** **** 0

# MOE 2024.06 (io_trps.svl 2023.06)
