@<TRIPOS>MOLECULE
NONAME
51 55 1 0 0 
SMALL
USER_CHARGES


@<TRIPOS>ATOM
  1 O       -2.2460    -0.2290    -1.7180 O.2   1 <1>  -0.5700 
  2 C       -2.4800     0.5300    -0.7920 C.2   1 <1>   0.7670 
  3 N       -2.3440     1.8730    -1.0470 N.2   1 <1>  -0.6610 
  4 C       -2.8810     0.0600     0.4960 C.2   1 <1>   0.0290 
  5 C       -2.5340     2.7010    -0.0910 C.2   1 <1>   0.5000 
  6 C       -3.0610    -1.3400     0.7370 C.2   1 <1>   0.6160 
  7 C       -3.0540     0.9920     1.4770 C.2   1 <1>  -0.0500 
  8 N       -2.8790     2.3060     1.1700 N.pl3 1 <1>  -0.5500 
  9 C       -2.3790     4.1960    -0.3420 C.3   1 <1>  -0.1000 
 10 O       -2.4950    -1.8460     1.6880 O.2   1 <1>  -0.5700 
 11 N       -3.9120    -2.1360     0.0020 N.am  1 <1>  -0.6600 
 12 C       -1.8020     5.1240     0.6880 C.3   1 <1>  -0.2000 
 13 C       -3.2550     5.2170     0.3270 C.3   1 <1>  -0.2000 
 14 C       -4.8440    -1.6970    -1.0690 C.3   1 <1>   0.1400 
 15 C       -4.0320    -3.6010     0.2150 C.3   1 <1>   0.1400 
 16 C       -5.8710    -2.8220    -1.1510 C.3   1 <1>   0.2000 
 17 C       -5.0510    -4.0790    -0.8310 C.3   1 <1>  -0.0800 
 18 O       -6.8160    -2.6150    -0.1560 O.3   1 <1>  -0.6800 
 19 C       -5.8930    -5.2950    -0.3890 C.3   1 <1>  -0.0160 
 20 C       -5.1500    -6.6270    -0.2190 C.ar  1 <1>  -0.1430 
 21 C       -5.8280    -7.7380     0.3440 C.ar  1 <1>   0.0000 
 22 C       -3.8500    -6.8240    -0.5940 C.ar  1 <1>  -0.1500 
 23 C       -5.1100    -8.9500     0.4950 C.ar  1 <1>   0.3100 
 24 C       -7.1810    -7.7210     0.7600 C.ar  1 <1>  -0.1500 
 25 C       -3.2340    -8.0670    -0.4040 C.ar  1 <1>   0.1600 
 26 N       -3.8160    -9.0980     0.1180 N.ar  1 <1>  -0.6200 
 27 C       -5.7580   -10.0620     1.0570 C.ar  1 <1>  -0.1500 
 28 C       -7.7840    -8.8230     1.3020 C.ar  1 <1>  -0.1500 
 29 C       -7.0650   -10.0100     1.4560 C.ar  1 <1>  -0.1500 
 30 H       -3.3230     0.7170     2.4860 H     1 <1>   0.1500 
 31 H       -2.9890     3.0460     1.8700 H     1 <1>   0.4000 
 32 H       -2.1110     4.3890    -1.3660 H     1 <1>   0.1000 
 33 H       -1.5230     4.7390     1.6530 H     1 <1>   0.1000 
 34 H       -1.1340     5.9000     0.3530 H     1 <1>   0.1000 
 35 H       -3.5900     6.0570    -0.2570 H     1 <1>   0.1000 
 36 H       -3.9940     4.8980     1.0400 H     1 <1>   0.1000 
 37 H       -5.3030    -0.7480    -0.8490 H     1 <1>   0.0800 
 38 H       -4.3080    -1.6350    -2.0000 H     1 <1>   0.0800 
 39 H       -3.0740    -4.0760     0.0910 H     1 <1>   0.0800 
 40 H       -4.3890    -3.7840     1.2140 H     1 <1>   0.0800 
 41 H       -6.3750    -2.8670    -2.1020 H     1 <1>   0.0800 
 42 H       -4.5160    -4.3340    -1.7290 H     1 <1>   0.0800 
 43 H       -6.3500    -2.4450     0.6870 H     1 <1>   0.4000 
 44 H       -6.6760    -5.4430    -1.1110 H     1 <1>   0.0800 
 45 H       -6.3610    -5.0530     0.5490 H     1 <1>   0.0800 
 46 H       -3.2510    -6.0570    -1.0450 H     1 <1>   0.1500 
 47 H       -7.7600    -6.8230     0.6490 H     1 <1>   0.1500 
 48 H       -2.2080    -8.1710    -0.7120 H     1 <1>   0.1500 
 49 H       -5.1850   -10.9650     1.1630 H     1 <1>   0.1500 
 50 H       -8.8140    -8.7910     1.6150 H     1 <1>   0.1500 
 51 H       -7.5490   -10.8710     1.8840 H     1 <1>   0.1500 
@<TRIPOS>BOND
  1   1   2  2   
  2   2   3  1   
  3   2   4  1   
  4   3   5  2   
  5   4   6  1   
  6   4   7  2   
  7   5   8  1   
  8   5   9  1   
  9   6  10  2   
 10   6  11  am  
 11   7   8  1   
 12   7  30  1   
 13   8  31  1   
 14   9  12  1   
 15   9  13  1   
 16   9  32  1   
 17  11  14  1   
 18  11  15  1   
 19  12  13  1   
 20  12  33  1   
 21  12  34  1   
 22  13  35  1   
 23  13  36  1   
 24  14  16  1   
 25  14  37  1   
 26  14  38  1   
 27  15  17  1   
 28  15  39  1   
 29  15  40  1   
 30  16  17  1   
 31  16  18  1   
 32  16  41  1   
 33  17  19  1   
 34  17  42  1   
 35  18  43  1   
 36  19  20  1   
 37  19  44  1   
 38  19  45  1   
 39  20  21  ar  
 40  20  22  ar  
 41  21  23  ar  
 42  21  24  ar  
 43  22  25  ar  
 44  22  46  1   
 45  23  26  ar  
 46  23  27  ar  
 47  24  28  ar  
 48  24  47  1   
 49  25  26  ar  
 50  25  48  1   
 51  27  29  ar  
 52  27  49  1   
 53  28  29  ar  
 54  28  50  1   
 55  29  51  1   
@<TRIPOS>SUBSTRUCTURE
  1 ****  15 GROUP 4 **** **** 0

# MOE 2024.06 (io_trps.svl 2023.06)
