@<TRIPOS>MOLECULE
NONAME
43 45 1 0 0 
SMALL
USER_CHARGES


@<TRIPOS>ATOM
  1 S        0.2740     0.1210    -0.7440 S.o2  1 <1>   1.3330 
  2 O       -0.0810     0.6760    -2.0300 O.2   1 <1>  -0.6500 
  3 O        0.2840    -1.3140    -0.5680 O.2   1 <1>  -0.6500 
  4 N       -0.7770     0.7730     0.4190 N.am  1 <1>  -0.8490 
  5 C        1.8580     0.8250    -0.2860 C.3   1 <1>  -0.0550 
  6 C       -0.7400     0.0570     1.6990 C.3   1 <1>   0.1160 
  7 C       -2.1580     0.8480    -0.0680 C.3   1 <1>   0.1160 
  8 C        3.0090     0.4480    -1.2510 C.3   1 <1>  -0.0800 
  9 C        4.3120     1.2060    -1.0040 C.3   1 <1>   0.2200 
 10 C        3.4790    -0.9800    -0.9820 C.3   1 <1>   0.1200 
 11 N        4.1120     2.6120    -0.5800 N.am  1 <1>  -0.7300 
 12 C        5.0190     0.3520     0.0540 C.3   1 <1>   0.1200 
 13 O        4.3370    -0.8670     0.1050 O.3   1 <1>  -0.5600 
 14 C        5.0970     3.5070    -0.2750 C.2   1 <1>   0.7160 
 15 O        6.2510     3.1190    -0.2420 O.2   1 <1>  -0.5700 
 16 C        4.7330     4.8910    -0.0120 C.2   1 <1>   0.2030 
 17 N        3.4920     5.3660    -0.0660 N.2   1 <1>  -0.7070 
 18 C        5.6380     5.8960     0.3290 C.2   1 <1>  -0.1500 
 19 N        3.6090     6.6690     0.2410 N.pl3 1 <1>   0.6010 
 20 C        4.9130     7.0260     0.4890 C.2   1 <1>  -0.0260 
 21 C        2.6190     7.6260     0.3280 C.2   1 <1>  -0.1810 
 22 N        5.2990     8.3080     0.8260 N.2   1 <1>  -0.5760 
 23 C        2.9840     8.8920     0.6590 C.2   1 <1>  -0.1360 
 24 C        4.3560     9.1890     0.9020 C.2   1 <1>   0.3760 
 25 H        1.7310     1.8880    -0.2770 H     1 <1>   0.0800 
 26 H        2.1170     0.5240     0.7110 H     1 <1>   0.0800 
 27 H       -1.3570     0.5610     2.4220 H     1 <1>   0.0800 
 28 H        0.2670     0.0230     2.0780 H     1 <1>   0.0800 
 29 H       -1.0970    -0.9530     1.5760 H     1 <1>   0.0800 
 30 H       -2.7970     1.2780     0.6840 H     1 <1>   0.0800 
 31 H       -2.5190    -0.1350    -0.3220 H     1 <1>   0.0800 
 32 H       -2.2060     1.4710    -0.9450 H     1 <1>   0.0800 
 33 H        2.6910     0.5590    -2.2730 H     1 <1>   0.0800 
 34 H        4.9120     1.1970    -1.8990 H     1 <1>   0.0800 
 35 H        4.0470    -1.3640    -1.8130 H     1 <1>   0.0800 
 36 H        2.6920    -1.6710    -0.7390 H     1 <1>   0.0800 
 37 H        3.1860     3.0250    -0.7160 H     1 <1>   0.3700 
 38 H        4.9690     0.8010     1.0300 H     1 <1>   0.0800 
 39 H        6.0440     0.1650    -0.2170 H     1 <1>   0.0800 
 40 H        6.7020     5.7810     0.4400 H     1 <1>   0.1500 
 41 H        1.6170     7.2980     0.1260 H     1 <1>   0.1500 
 42 H        2.2720     9.6930     0.7460 H     1 <1>   0.1500 
 43 H        4.6080    10.2030     1.1610 H     1 <1>   0.0600 
@<TRIPOS>BOND
  1   1   2  2   
  2   1   3  2   
  3   1   4  am  
  4   1   5  1   
  5   4   6  1   
  6   4   7  1   
  7   5   8  1   
  8   5  25  1   
  9   5  26  1   
 10   6  27  1   
 11   6  28  1   
 12   6  29  1   
 13   7  30  1   
 14   7  31  1   
 15   7  32  1   
 16   8   9  1   
 17   8  10  1   
 18   8  33  1   
 19   9  11  1   
 20   9  12  1   
 21   9  34  1   
 22  10  13  1   
 23  10  35  1   
 24  10  36  1   
 25  11  14  am  
 26  11  37  1   
 27  12  13  1   
 28  12  38  1   
 29  12  39  1   
 30  14  15  2   
 31  14  16  1   
 32  16  17  2   
 33  16  18  1   
 34  17  19  1   
 35  18  20  2   
 36  18  40  1   
 37  19  20  1   
 38  19  21  1   
 39  20  22  1   
 40  21  23  2   
 41  21  41  1   
 42  22  24  2   
 43  23  24  1   
 44  23  42  1   
 45  24  43  1   
@<TRIPOS>SUBSTRUCTURE
  1 ****  11 GROUP 4 **** **** 0

# MOE 2024.06 (io_trps.svl 2023.06)
