@<TRIPOS>MOLECULE
NONAME
43 44 1 0 0 
SMALL
USER_CHARGES


@<TRIPOS>ATOM
  1 O       -0.4630     0.1120    -0.5130 O.2   1 <1>  -0.5700 
  2 C       -1.4390     0.7020    -0.1140 C.2   1 <1>   0.5690 
  3 N       -2.5740     0.0310     0.2600 N.am  1 <1>  -0.6600 
  4 C       -1.3870     2.2200    -0.0510 C.3   1 <1>  -0.0990 
  5 C       -2.6120    -1.4670     0.3130 C.3   1 <1>   0.1400 
  6 C       -3.8980     0.6530     0.5750 C.3   1 <1>   0.1400 
  7 C        0.0450     2.7560    -0.0720 C.3   1 <1>   0.1200 
  8 C       -3.8120    -2.0230    -0.4710 C.3   1 <1>   0.3440 
  9 C       -5.0380    -0.0200    -0.2240 C.3   1 <1>   0.2000 
 10 O       -0.0010     4.1390    -0.0080 O.3   1 <1>  -0.6800 
 11 O       -4.9940    -1.4070    -0.0330 O.3   1 <1>  -0.5600 
 12 C       -3.9220    -3.5340    -0.2880 C.ar  1 <1>  -0.1440 
 13 C       -6.4460     0.4760     0.1850 C.3   1 <1>  -0.0800 
 14 C       -4.6470    -4.0870     0.7600 C.ar  1 <1>  -0.1500 
 15 C       -3.2750    -4.3800    -1.1780 C.ar  1 <1>  -0.1500 
 16 C       -7.5490    -0.2440    -0.6110 C.3   1 <1>  -0.2400 
 17 C       -6.6120     1.9930    -0.0100 C.3   1 <1>  -0.2400 
 18 C       -4.7220    -5.4610     0.9160 C.ar  1 <1>  -0.1500 
 19 C       -3.3490    -5.7540    -1.0230 C.ar  1 <1>  -0.1500 
 20 C       -4.0720    -6.2950     0.0240 C.ar  1 <1>  -0.1500 
 21 H       -1.9300     2.6080    -0.8920 H     1 <1>   0.0800 
 22 H       -1.8510     2.5450     0.8610 H     1 <1>   0.0800 
 23 H       -1.7080    -1.8880    -0.0900 H     1 <1>   0.0800 
 24 H       -2.6880    -1.7830     1.3380 H     1 <1>   0.0800 
 25 H       -4.0950     0.5470     1.6280 H     1 <1>   0.0800 
 26 H       -3.8840     1.7010     0.3430 H     1 <1>   0.0800 
 27 H        0.5640     2.4690    -0.9720 H     1 <1>   0.0800 
 28 H        0.5950     2.3990     0.7830 H     1 <1>   0.0800 
 29 H       -3.6920    -1.8020    -1.5180 H     1 <1>   0.0800 
 30 H       -4.8960     0.1730    -1.2740 H     1 <1>   0.0800 
 31 H       -0.3040     4.5160    -0.8560 H     1 <1>   0.4000 
 32 H       -6.5870     0.2550     1.2290 H     1 <1>   0.0800 
 33 H       -5.1580    -3.4460     1.4570 H     1 <1>   0.1500 
 34 H       -2.7070    -3.9750    -1.9970 H     1 <1>   0.1500 
 35 H       -7.4320    -0.0690    -1.6660 H     1 <1>   0.0800 
 36 H       -8.5210     0.1030    -0.3080 H     1 <1>   0.0800 
 37 H       -7.5080    -1.3050    -0.4370 H     1 <1>   0.0800 
 38 H       -6.4120     2.2690    -1.0300 H     1 <1>   0.0800 
 39 H       -5.9530     2.5430     0.6370 H     1 <1>   0.0800 
 40 H       -7.6190     2.2880     0.2300 H     1 <1>   0.0800 
 41 H       -5.2880    -5.8770     1.7300 H     1 <1>   0.1500 
 42 H       -2.8430    -6.4020    -1.7180 H     1 <1>   0.1500 
 43 H       -4.1310    -7.3630     0.1450 H     1 <1>   0.1500 
@<TRIPOS>BOND
  1   1   2  2   
  2   2   3  am  
  3   2   4  1   
  4   3   5  1   
  5   3   6  1   
  6   4   7  1   
  7   4  21  1   
  8   4  22  1   
  9   5   8  1   
 10   5  23  1   
 11   5  24  1   
 12   6   9  1   
 13   6  25  1   
 14   6  26  1   
 15   7  10  1   
 16   7  27  1   
 17   7  28  1   
 18   8  11  1   
 19   8  12  1   
 20   8  29  1   
 21   9  11  1   
 22   9  13  1   
 23   9  30  1   
 24  10  31  1   
 25  12  14  ar  
 26  12  15  ar  
 27  13  16  1   
 28  13  17  1   
 29  13  32  1   
 30  14  18  ar  
 31  14  33  1   
 32  15  19  ar  
 33  15  34  1   
 34  16  35  1   
 35  16  36  1   
 36  16  37  1   
 37  17  38  1   
 38  17  39  1   
 39  17  40  1   
 40  18  20  ar  
 41  18  41  1   
 42  19  20  ar  
 43  19  42  1   
 44  20  43  1   
@<TRIPOS>SUBSTRUCTURE
  1 ****   8 GROUP 4 **** **** 0

# MOE 2024.06 (io_trps.svl 2023.06)
