@<TRIPOS>MOLECULE
NONAME
50 53 1 0 0 
SMALL
USER_CHARGES


@<TRIPOS>ATOM
  1 S        1.9110    -0.2570     2.6800 S.3   1 <1>  -0.0800 
  2 C        1.4630    -0.5370     1.0150 C.2   1 <1>   0.1980 
  3 C        1.4320    -1.8810     3.0490 C.2   1 <1>  -0.1100 
  4 N        1.0140    -1.7040     0.7860 N.2   1 <1>  -0.5650 
  5 C        1.6550     0.6050     0.0360 C.3   1 <1>   0.0200 
  6 C        0.9780    -2.5100     1.9410 C.2   1 <1>   0.1410 
  7 C        0.5920     1.6970     0.2250 C.3   1 <1>  -0.1600 
  8 C        0.5090    -3.8970     1.9340 C.2   1 <1>   0.7160 
  9 C        0.7690     2.8380    -0.7830 C.3   1 <1>  -0.2400 
 10 O        0.7430    -4.6000     2.9030 O.2   1 <1>  -0.5700 
 11 N       -0.1980    -4.4790     0.8980 N.am  1 <1>  -0.6600 
 12 C       -0.7450    -3.7960    -0.3030 C.3   1 <1>   0.1400 
 13 C       -0.5160    -5.9280     0.8530 C.3   1 <1>   0.1400 
 14 C       -1.7430    -4.7930    -0.8890 C.3   1 <1>   0.2000 
 15 C       -1.1440    -6.1580    -0.5280 C.3   1 <1>  -0.0800 
 16 O       -2.9550    -4.6260    -0.2350 O.3   1 <1>  -0.6800 
 17 C       -2.1430    -7.3330    -0.5780 C.3   1 <1>  -0.0170 
 18 C       -1.5640    -8.7370    -0.3600 C.ar  1 <1>  -0.1440 
 19 C       -2.4410    -9.8360    -0.1780 C.ar  1 <1>   0.0000 
 20 C       -0.2240    -9.0070    -0.3390 C.ar  1 <1>  -0.1500 
 21 C       -1.8700   -11.1150     0.0380 C.ar  1 <1>   0.3100 
 22 C       -3.8530    -9.7450    -0.2060 C.ar  1 <1>  -0.1500 
 23 C        0.2370   -10.3110    -0.1220 C.ar  1 <1>   0.1600 
 24 N       -0.5320   -11.3340     0.0640 N.ar  1 <1>  -0.6200 
 25 C       -2.7170   -12.2180     0.2300 C.ar  1 <1>  -0.1500 
 26 C       -4.6510   -10.8400    -0.0170 C.ar  1 <1>  -0.1500 
 27 C       -4.0790   -12.0940     0.2060 C.ar  1 <1>  -0.1500 
 28 H        1.5340    -2.2250     4.0620 H     1 <1>   0.1500 
 29 H        2.6380     1.0190     0.1680 H     1 <1>   0.0800 
 30 H        1.5910     0.2120    -0.9630 H     1 <1>   0.0800 
 31 H       -0.3860     1.2630     0.1030 H     1 <1>   0.0800 
 32 H        0.6550     2.0940     1.2240 H     1 <1>   0.0800 
 33 H        0.6830     2.4700    -1.7900 H     1 <1>   0.0800 
 34 H        1.7330     3.3020    -0.6640 H     1 <1>   0.0800 
 35 H        0.0110     3.5860    -0.6280 H     1 <1>   0.0800 
 36 H       -1.2170    -2.8600    -0.0550 H     1 <1>   0.0800 
 37 H        0.0560    -3.6210    -1.0000 H     1 <1>   0.0800 
 38 H        0.3760    -6.5140     0.9950 H     1 <1>   0.0800 
 39 H       -1.2160    -6.1580     1.6380 H     1 <1>   0.0800 
 40 H       -1.9020    -4.6590    -1.9460 H     1 <1>   0.0800 
 41 H       -0.3530    -6.3430    -1.2320 H     1 <1>   0.0800 
 42 H       -2.7860    -4.5510     0.7260 H     1 <1>   0.4000 
 43 H       -2.6370    -7.3200    -1.5340 H     1 <1>   0.0800 
 44 H       -2.8940    -7.1610     0.1730 H     1 <1>   0.0800 
 45 H        0.5260    -8.2540    -0.4850 H     1 <1>   0.1500 
 46 H       -4.3210    -8.7950    -0.3820 H     1 <1>   0.1500 
 47 H        1.3010   -10.4710    -0.1090 H     1 <1>   0.1500 
 48 H       -2.2530   -13.1730     0.3970 H     1 <1>   0.1500 
 49 H       -5.7240   -10.7520    -0.0400 H     1 <1>   0.1500 
 50 H       -4.7160   -12.9490     0.3540 H     1 <1>   0.1500 
@<TRIPOS>BOND
  1   1   2  1   
  2   1   3  1   
  3   2   4  2   
  4   2   5  1   
  5   3   6  2   
  6   3  28  1   
  7   4   6  1   
  8   5   7  1   
  9   5  29  1   
 10   5  30  1   
 11   6   8  1   
 12   7   9  1   
 13   7  31  1   
 14   7  32  1   
 15   8  10  2   
 16   8  11  am  
 17   9  33  1   
 18   9  34  1   
 19   9  35  1   
 20  11  12  1   
 21  11  13  1   
 22  12  14  1   
 23  12  36  1   
 24  12  37  1   
 25  13  15  1   
 26  13  38  1   
 27  13  39  1   
 28  14  15  1   
 29  14  16  1   
 30  14  40  1   
 31  15  17  1   
 32  15  41  1   
 33  16  42  1   
 34  17  18  1   
 35  17  43  1   
 36  17  44  1   
 37  18  19  ar  
 38  18  20  ar  
 39  19  21  ar  
 40  19  22  ar  
 41  20  23  ar  
 42  20  45  1   
 43  21  24  ar  
 44  21  25  ar  
 45  22  26  ar  
 46  22  46  1   
 47  23  24  ar  
 48  23  47  1   
 49  25  27  ar  
 50  25  48  1   
 51  26  27  ar  
 52  26  49  1   
 53  27  50  1   
@<TRIPOS>SUBSTRUCTURE
  1 ****  13 GROUP 4 **** **** 0

# MOE 2024.06 (io_trps.svl 2023.06)
