@<TRIPOS>MOLECULE
NONAME
47 50 1 0 0 
SMALL
USER_CHARGES


@<TRIPOS>ATOM
  1 O        1.0370     0.6730     1.5420 O.3   1 <1>  -0.6800 
  2 C        1.2150    -0.5430     0.8970 C.3   1 <1>   0.2000 
  3 C        1.7750    -1.5250     1.9280 C.3   1 <1>  -0.0800 
  4 C        2.3350    -0.3480    -0.1380 C.3   1 <1>   0.3430 
  5 C        3.2710    -1.1880     1.8940 C.3   1 <1>   0.3430 
  6 C        1.4610    -3.0180     1.6360 C.3   1 <1>  -0.0170 
  7 N        3.5870    -0.9120     0.4650 N.4   1 <1>  -0.9590 
  8 C        2.3700    -3.6390     0.5770 C.ar  1 <1>  -0.1440 
  9 C        4.7650    -0.0420     0.2510 C.3   1 <1>   0.5230 
 10 C        2.1280    -3.5290    -0.8140 C.ar  1 <1>   0.0000 
 11 C        3.5030    -4.2910     0.9710 C.ar  1 <1>  -0.1500 
 12 C        4.9210     0.1700    -1.2350 C.2   1 <1>  -0.3320 
 13 C        3.1590    -3.9450    -1.6900 C.ar  1 <1>   0.3100 
 14 C        0.9380    -3.0220    -1.3870 C.ar  1 <1>  -0.1500 
 15 C        4.4280    -4.7330     0.0200 C.ar  1 <1>   0.1600 
 16 N        5.5140    -0.6920    -2.0940 N.pl3 1 <1>   0.3140 
 17 C        4.5190     1.2360    -1.9660 C.2   1 <1>  -0.1500 
 18 N        4.3020    -4.5280    -1.2520 N.ar  1 <1>  -0.6200 
 19 C        3.0050    -3.7380    -3.0690 C.ar  1 <1>  -0.1500 
 20 C        0.8130    -2.8460    -2.7380 C.ar  1 <1>  -0.1500 
 21 N        5.4780    -0.2200    -3.3460 N.2   1 <1>  -0.7070 
 22 C        6.1970    -1.9670    -1.8250 C.3   1 <1>   0.0160 
 23 C        4.8900     0.9320    -3.2680 C.2   1 <1>   0.1390 
 24 C        1.8640    -3.1930    -3.5890 C.ar  1 <1>  -0.1500 
 25 H        0.2010     0.6900     2.0560 H     1 <1>   0.4000 
 26 H        0.2790    -0.8330     0.4530 H     1 <1>   0.0800 
 27 H        1.3740    -1.3030     2.9020 H     1 <1>   0.0800 
 28 H        2.4420     0.7020    -0.3540 H     1 <1>   0.0800 
 29 H        2.1070    -0.8680    -1.0530 H     1 <1>   0.0800 
 30 H        3.8730    -1.9880     2.2920 H     1 <1>   0.0800 
 31 H        3.4340    -0.2940     2.4760 H     1 <1>   0.0800 
 32 H        0.4240    -3.1470     1.3810 H     1 <1>   0.0800 
 33 H        1.6010    -3.5670     2.5520 H     1 <1>   0.0800 
 34 H        3.7530    -1.8100    -0.0120 H     1 <1>   0.4500 
 35 H        4.6070     0.9090     0.7350 H     1 <1>   0.0800 
 36 H        5.6540    -0.4940     0.6600 H     1 <1>   0.0800 
 37 H        3.7280    -4.4710     2.0080 H     1 <1>   0.1500 
 38 H        0.1020    -2.7790    -0.7600 H     1 <1>   0.1500 
 39 H        5.3060    -5.2550     0.3660 H     1 <1>   0.1500 
 40 H        4.0210     2.1400    -1.6610 H     1 <1>   0.1500 
 41 H        3.8150    -4.0300    -3.7130 H     1 <1>   0.1500 
 42 H       -0.0930    -2.4520    -3.1680 H     1 <1>   0.1500 
 43 H        5.9490    -2.3310    -0.8480 H     1 <1>   0.0800 
 44 H        7.2580    -1.8150    -1.9010 H     1 <1>   0.0800 
 45 H        5.8940    -2.6860    -2.5640 H     1 <1>   0.0800 
 46 H        4.7190     1.5680    -4.1220 H     1 <1>   0.1500 
 47 H        1.7600    -3.0400    -4.6510 H     1 <1>   0.1500 
@<TRIPOS>BOND
  1   1   2  1   
  2   1  25  1   
  3   2   3  1   
  4   2   4  1   
  5   2  26  1   
  6   3   5  1   
  7   3   6  1   
  8   3  27  1   
  9   4   7  1   
 10   4  28  1   
 11   4  29  1   
 12   5   7  1   
 13   5  30  1   
 14   5  31  1   
 15   6   8  1   
 16   6  32  1   
 17   6  33  1   
 18   7   9  1   
 19   7  34  1   
 20   8  10  ar  
 21   8  11  ar  
 22   9  12  1   
 23   9  35  1   
 24   9  36  1   
 25  10  13  ar  
 26  10  14  ar  
 27  11  15  ar  
 28  11  37  1   
 29  12  16  1   
 30  12  17  2   
 31  13  18  ar  
 32  13  19  ar  
 33  14  20  ar  
 34  14  38  1   
 35  15  18  ar  
 36  15  39  1   
 37  16  21  1   
 38  16  22  1   
 39  17  23  1   
 40  17  40  1   
 41  19  24  ar  
 42  19  41  1   
 43  20  24  ar  
 44  20  42  1   
 45  21  23  2   
 46  22  43  1   
 47  22  44  1   
 48  22  45  1   
 49  23  46  1   
 50  24  47  1   
@<TRIPOS>SUBSTRUCTURE
  1 ****   7 GROUP 4 **** **** 0

# MOE 2024.06 (io_trps.svl 2023.06)
