@<TRIPOS>MOLECULE
NONAME
58 60 1 0 0 
SMALL
USER_CHARGES


@<TRIPOS>ATOM
  1 O        0.2280     3.2410    -1.6610 O.2   1 <1>  -0.5700 
  2 C       -0.3920     2.7360    -0.7420 C.2   1 <1>   0.5440 
  3 N        0.2620     2.4820     0.4230 N.am  1 <1>  -0.7300 
  4 C       -1.7940     2.4000    -0.8600 C.ar  1 <1>   0.0860 
  5 C        1.7090     2.6840     0.6570 C.3   1 <1>   0.2810 
  6 C       -2.7240     2.6900     0.1490 C.ar  1 <1>   0.0830 
  7 C       -2.2640     1.7340    -1.9920 C.ar  1 <1>  -0.1500 
  8 C        2.1440     4.1640     0.6100 C.2   1 <1>   0.5690 
  9 C        2.0490     2.0380     2.0000 C.3   1 <1>  -0.2400 
 10 O       -2.3810     3.4080     1.2390 O.3   1 <1>  -0.3630 
 11 C       -4.0420     2.2730     0.0470 C.ar  1 <1>  -0.1500 
 12 C       -3.5840     1.3370    -2.1010 C.ar  1 <1>  -0.1500 
 13 O        1.4740     5.0180     1.1490 O.2   1 <1>  -0.5700 
 14 N        3.3020     4.4940    -0.0360 N.am  1 <1>  -0.7300 
 15 C       -2.2370     4.7900     1.0150 C.3   1 <1>   0.1200 
 16 C       -4.4800     1.5960    -1.0770 C.ar  1 <1>  -0.1440 
 17 C        3.9900     5.7970     0.0840 C.3   1 <1>   0.1400 
 18 C       -1.9940     5.5260     2.3350 C.3   1 <1>  -0.1600 
 19 C       -5.9230     1.1400    -1.2030 C.3   1 <1>  -0.0970 
 20 C        3.6000     6.7180    -1.0720 C.3   1 <1>  -0.1600 
 21 C       -2.2380     7.0450     2.2150 C.3   1 <1>   0.0960 
 22 C        2.0830     6.8860    -1.1370 C.3   1 <1>   0.3430 
 23 N       -1.3610     7.7070     1.2170 N.pl3 1 <1>   0.3140 
 24 N        1.7480     8.1430    -1.8610 N.4   1 <1>  -0.9060 
 25 N       -0.4100     8.5860     1.5570 N.2   1 <1>  -0.4180 
 26 C       -1.3350     7.5340    -0.1080 C.2   1 <1>  -0.3020 
 27 C        0.2770     8.3870    -1.9290 C.3   1 <1>   0.5240 
 28 N        0.2220     8.9470     0.4960 N.2   1 <1>  -0.2270 
 29 C       -0.3140     8.2890    -0.5350 C.2   1 <1>   0.0460 
 30 H       -0.3090     2.3530     1.2630 H     1 <1>   0.3700 
 31 H        2.2380     2.1600    -0.1200 H     1 <1>   0.0800 
 32 H       -1.5760     1.5190    -2.7910 H     1 <1>   0.1500 
 33 H        1.5330     2.5420     2.7980 H     1 <1>   0.0800 
 34 H        3.1060     2.1120     2.1830 H     1 <1>   0.0800 
 35 H        1.7770     0.9970     1.9960 H     1 <1>   0.0800 
 36 H       -4.7200     2.4910     0.8520 H     1 <1>   0.1500 
 37 H       -3.9140     0.8180    -2.9850 H     1 <1>   0.1500 
 38 H        3.8190     3.7620    -0.5310 H     1 <1>   0.3700 
 39 H       -1.4040     4.9350     0.3500 H     1 <1>   0.0800 
 40 H       -3.1430     5.1380     0.5500 H     1 <1>   0.0800 
 41 H        3.7190     6.2560     1.0220 H     1 <1>   0.0800 
 42 H        5.0560     5.6380     0.0920 H     1 <1>   0.0800 
 43 H       -2.6650     5.1360     3.0790 H     1 <1>   0.0800 
 44 H       -0.9840     5.3490     2.6650 H     1 <1>   0.0800 
 45 H       -6.3820     1.6060    -2.0560 H     1 <1>   0.0800 
 46 H       -6.4880     1.4000    -0.3260 H     1 <1>   0.0800 
 47 H       -5.9600     0.0730    -1.3280 H     1 <1>   0.0800 
 48 H        3.9690     6.3110    -1.9970 H     1 <1>   0.0800 
 49 H        4.0730     7.6680    -0.8980 H     1 <1>   0.0800 
 50 H       -2.0620     7.5080     3.1690 H     1 <1>   0.0800 
 51 H       -3.2600     7.2330     1.9400 H     1 <1>   0.0800 
 52 H        1.6990     6.9380    -0.1290 H     1 <1>   0.0800 
 53 H        1.6370     6.0260    -1.6150 H     1 <1>   0.0800 
 54 H        2.1680     8.1520    -2.7950 H     1 <1>   0.4500 
 55 H        2.1380     8.9170    -1.3090 H     1 <1>   0.4500 
 56 H       -2.0030     6.8890    -0.6470 H     1 <1>   0.1500 
 57 H        0.0830     9.3690    -2.3280 H     1 <1>   0.0800 
 58 H       -0.1920     7.6550    -2.5650 H     1 <1>   0.0800 
@<TRIPOS>BOND
  1   1   2  2   
  2   2   3  am  
  3   2   4  1   
  4   3   5  1   
  5   3  30  1   
  6   4   6  ar  
  7   4   7  ar  
  8   5   8  1   
  9   5   9  1   
 10   5  31  1   
 11   6  10  1   
 12   6  11  ar  
 13   7  12  ar  
 14   7  32  1   
 15   8  13  2   
 16   8  14  am  
 17   9  33  1   
 18   9  34  1   
 19   9  35  1   
 20  10  15  1   
 21  11  16  ar  
 22  11  36  1   
 23  12  16  ar  
 24  12  37  1   
 25  14  17  1   
 26  14  38  1   
 27  15  18  1   
 28  15  39  1   
 29  15  40  1   
 30  16  19  1   
 31  17  20  1   
 32  17  41  1   
 33  17  42  1   
 34  18  21  1   
 35  18  43  1   
 36  18  44  1   
 37  19  45  1   
 38  19  46  1   
 39  19  47  1   
 40  20  22  1   
 41  20  48  1   
 42  20  49  1   
 43  21  23  1   
 44  21  50  1   
 45  21  51  1   
 46  22  24  1   
 47  22  52  1   
 48  22  53  1   
 49  23  25  1   
 50  23  26  1   
 51  24  27  1   
 52  24  54  1   
 53  24  55  1   
 54  25  28  2   
 55  26  29  2   
 56  26  56  1   
 57  27  29  1   
 58  27  57  1   
 59  27  58  1   
 60  28  29  1   
@<TRIPOS>SUBSTRUCTURE
  1 ****  15 GROUP 4 **** **** 0

# MOE 2024.06 (io_trps.svl 2023.06)
