@<TRIPOS>MOLECULE
NONAME
45 46 1 0 0 
SMALL
USER_CHARGES


@<TRIPOS>ATOM
  1 S        0.8700     0.3860    -0.6120 S.o2  1 <1>   1.3330 
  2 O        1.7370     0.2220     0.5330 O.2   1 <1>  -0.6500 
  3 O        1.4390     0.4160    -1.9410 O.2   1 <1>  -0.6500 
  4 N       -0.2970    -0.8460    -0.5620 N.am  1 <1>  -0.8490 
  5 C       -0.1030     1.8750    -0.4070 C.3   1 <1>  -0.0550 
  6 C       -0.6950    -1.2140     0.8010 C.3   1 <1>   0.1160 
  7 C        0.1310    -2.0410    -1.2940 C.3   1 <1>   0.1160 
  8 C        0.7310     3.1660    -0.5210 C.3   1 <1>  -0.0800 
  9 C       -0.0990     4.4510    -0.5000 C.3   1 <1>   0.2000 
 10 C        1.7560     3.3580     0.6070 C.3   1 <1>   0.1400 
 11 O       -1.0250     4.3680     0.5310 O.3   1 <1>  -0.6800 
 12 C        0.9240     5.5240    -0.1400 C.3   1 <1>   0.1400 
 13 N        1.8650     4.8270     0.7810 N.am  1 <1>  -0.6600 
 14 C        2.7840     5.4110     1.6090 C.2   1 <1>   0.5690 
 15 O        3.5030     4.7530     2.3220 O.2   1 <1>  -0.5700 
 16 C        2.9370     6.9180     1.6420 C.3   1 <1>  -0.0990 
 17 C        3.7710     7.4220     0.4520 C.3   1 <1>  -0.0170 
 18 C        3.1340     8.6470    -0.1760 C.ar  1 <1>   0.1670 
 19 N        2.0680     8.4210    -0.9360 N.ar  1 <1>  -0.3100 
 20 C        3.6530     9.9090     0.0590 C.ar  1 <1>  -0.1500 
 21 N        1.4450     9.4250    -1.5000 N.ar  1 <1>  -0.3100 
 22 C        3.0130    10.9620    -0.5280 C.ar  1 <1>  -0.1500 
 23 C        1.8940    10.6890    -1.3110 C.ar  1 <1>   0.1390 
 24 O        1.2880    11.6400    -1.8530 O.3   1 <1>  -0.8290 
 25 H       -0.8630     1.8930    -1.1640 H     1 <1>   0.0800 
 26 H       -0.5950     1.8480     0.5450 H     1 <1>   0.0800 
 27 H       -1.4920    -1.9360     0.7710 H     1 <1>   0.0800 
 28 H       -1.0450    -0.3460     1.3340 H     1 <1>   0.0800 
 29 H        0.1400    -1.6350     1.3380 H     1 <1>   0.0800 
 30 H       -0.6360    -2.7960    -1.2580 H     1 <1>   0.0800 
 31 H        1.0390    -2.4360    -0.8700 H     1 <1>   0.0800 
 32 H        0.3110    -1.7950    -2.3280 H     1 <1>   0.0800 
 33 H        1.2730     3.1420    -1.4510 H     1 <1>   0.0800 
 34 H       -0.6190     4.6510    -1.4220 H     1 <1>   0.0800 
 35 H        2.7130     2.9330     0.3530 H     1 <1>   0.0800 
 36 H        1.4110     2.9210     1.5290 H     1 <1>   0.0800 
 37 H       -0.5470     4.4820     1.3780 H     1 <1>   0.4000 
 38 H        0.4560     6.3840     0.3090 H     1 <1>   0.0800 
 39 H        1.4560     5.8290    -1.0250 H     1 <1>   0.0800 
 40 H        1.9620     7.3690     1.6450 H     1 <1>   0.0800 
 41 H        3.4160     7.2030     2.5600 H     1 <1>   0.0800 
 42 H        3.8440     6.6610    -0.3060 H     1 <1>   0.0800 
 43 H        4.7710     7.6450     0.7780 H     1 <1>   0.0800 
 44 H        4.5160    10.0580     0.6760 H     1 <1>   0.1500 
 45 H        3.3180    11.9840    -0.4210 H     1 <1>   0.1500 
@<TRIPOS>BOND
  1   1   2  2   
  2   1   3  2   
  3   1   4  am  
  4   1   5  1   
  5   4   6  1   
  6   4   7  1   
  7   5   8  1   
  8   5  25  1   
  9   5  26  1   
 10   6  27  1   
 11   6  28  1   
 12   6  29  1   
 13   7  30  1   
 14   7  31  1   
 15   7  32  1   
 16   8   9  1   
 17   8  10  1   
 18   8  33  1   
 19   9  11  1   
 20   9  12  1   
 21   9  34  1   
 22  10  13  1   
 23  10  35  1   
 24  10  36  1   
 25  11  37  1   
 26  12  13  1   
 27  12  38  1   
 28  12  39  1   
 29  13  14  am  
 30  14  15  2   
 31  14  16  1   
 32  16  17  1   
 33  16  40  1   
 34  16  41  1   
 35  17  18  1   
 36  17  42  1   
 37  17  43  1   
 38  18  19  ar  
 39  18  20  ar  
 40  19  21  ar  
 41  20  22  ar  
 42  20  44  1   
 43  21  23  ar  
 44  22  23  ar  
 45  22  45  1   
 46  23  24  1   
@<TRIPOS>SUBSTRUCTURE
  1 ****  12 GROUP 4 **** **** 0

# MOE 2024.06 (io_trps.svl 2023.06)
