@<TRIPOS>MOLECULE
NONAME
41 43 1 0 0 
SMALL
USER_CHARGES


@<TRIPOS>ATOM
  1 S        0.9770    -0.8290    -1.4660 S.3   1 <1>  -0.0800 
  2 C        1.3000    -1.8170    -0.0640 C.2   1 <1>  -0.1400 
  3 C        1.9920     0.4210    -0.7850 C.2   1 <1>   0.2280 
  4 C        2.1220    -1.1400     0.7560 C.2   1 <1>   0.0460 
  5 C        0.6720    -3.1890     0.0120 C.3   1 <1>   0.5230 
  6 N        2.4970     0.1240     0.3440 N.2   1 <1>  -0.5650 
  7 C        2.6930    -1.5940     2.0850 C.3   1 <1>  -0.0590 
  8 N       -0.7540    -3.0450     0.4310 N.4   1 <1>  -0.9590 
  9 C       -1.6490    -2.6390    -0.7050 C.3   1 <1>   0.3430 
 10 C       -1.2740    -4.3420     0.9580 C.3   1 <1>   0.3430 
 11 C       -2.7670    -3.6890    -0.7810 C.3   1 <1>   0.2000 
 12 C       -2.1530    -4.9330    -0.1480 C.3   1 <1>  -0.0800 
 13 O       -3.8530    -3.2790    -0.0180 O.3   1 <1>  -0.6800 
 14 C       -1.3510    -5.7370    -1.1970 C.3   1 <1>   0.0210 
 15 C       -0.3030    -6.6360    -0.5730 C.2   1 <1>   0.1080 
 16 N        0.8630    -6.2000    -0.1980 N.2   1 <1>  -0.7070 
 17 C       -0.4580    -7.9970    -0.3440 C.2   1 <1>  -0.1500 
 18 N        1.4990    -7.3010     0.2640 N.pl3 1 <1>   0.3000 
 19 C        0.7130    -8.3940     0.1950 C.2   1 <1>  -0.3320 
 20 C        1.1390    -9.7810     0.6440 C.3   1 <1>  -0.0600 
 21 H        2.1120     1.3290    -1.3530 H     1 <1>   0.1500 
 22 H        1.2050    -3.7750     0.7430 H     1 <1>   0.0800 
 23 H        0.7490    -3.6980    -0.9350 H     1 <1>   0.0800 
 24 H        2.3620    -2.5830     2.3390 H     1 <1>   0.0800 
 25 H        2.3910    -0.9120     2.8590 H     1 <1>   0.0800 
 26 H        3.7670    -1.5900     2.0310 H     1 <1>   0.0800 
 27 H       -0.7710    -2.3240     1.1640 H     1 <1>   0.4500 
 28 H       -2.0590    -1.6530    -0.5630 H     1 <1>   0.0800 
 29 H       -1.0930    -2.6560    -1.6280 H     1 <1>   0.0800 
 30 H       -0.4830    -5.0080     1.2590 H     1 <1>   0.0800 
 31 H       -1.8920    -4.1500     1.8210 H     1 <1>   0.0800 
 32 H       -3.1170    -3.8450    -1.7890 H     1 <1>   0.0800 
 33 H       -2.9020    -5.5810     0.2750 H     1 <1>   0.0800 
 34 H       -3.6460    -3.1630     0.9290 H     1 <1>   0.4000 
 35 H       -0.8430    -5.0820    -1.8820 H     1 <1>   0.0800 
 36 H       -2.0280    -6.3370    -1.7800 H     1 <1>   0.0800 
 37 H       -1.3300    -8.5900    -0.5630 H     1 <1>   0.1500 
 38 H        2.4680    -7.2880     0.6100 H     1 <1>   0.2700 
 39 H        0.3410   -10.4850     0.4820 H     1 <1>   0.0800 
 40 H        1.3830    -9.7780     1.6910 H     1 <1>   0.0800 
 41 H        1.9980   -10.1080     0.0850 H     1 <1>   0.0800 
@<TRIPOS>BOND
  1   1   2  1   
  2   1   3  1   
  3   2   4  2   
  4   2   5  1   
  5   3   6  2   
  6   3  21  1   
  7   4   6  1   
  8   4   7  1   
  9   5   8  1   
 10   5  22  1   
 11   5  23  1   
 12   7  24  1   
 13   7  25  1   
 14   7  26  1   
 15   8   9  1   
 16   8  10  1   
 17   8  27  1   
 18   9  11  1   
 19   9  28  1   
 20   9  29  1   
 21  10  12  1   
 22  10  30  1   
 23  10  31  1   
 24  11  12  1   
 25  11  13  1   
 26  11  32  1   
 27  12  14  1   
 28  12  33  1   
 29  13  34  1   
 30  14  15  1   
 31  14  35  1   
 32  14  36  1   
 33  15  16  2   
 34  15  17  1   
 35  16  18  1   
 36  17  19  2   
 37  17  37  1   
 38  18  19  1   
 39  18  38  1   
 40  19  20  1   
 41  20  39  1   
 42  20  40  1   
 43  20  41  1   
@<TRIPOS>SUBSTRUCTURE
  1 ****   5 GROUP 4 **** **** 0

# MOE 2024.06 (io_trps.svl 2023.06)
