@<TRIPOS>MOLECULE
NONAME
51 53 1 0 0 
SMALL
USER_CHARGES


@<TRIPOS>ATOM
  1 F        0.8450    -1.6310     1.2260 F     1 <1>  -0.3400 
  2 C       -0.0620    -1.6090     0.2560 C.3   1 <1>   1.1640 
  3 F        0.3420    -2.4960    -0.6450 F     1 <1>  -0.3400 
  4 F        0.0360    -0.4180    -0.3190 F     1 <1>  -0.3400 
  5 C       -1.4850    -1.8850     0.7700 C.ar  1 <1>  -0.1440 
  6 C       -2.4320    -2.4930    -0.0470 C.ar  1 <1>  -0.1500 
  7 C       -1.8590    -1.5210     2.0590 C.ar  1 <1>  -0.1500 
  8 C       -3.7320    -2.7560     0.3840 C.ar  1 <1>   0.0860 
  9 C       -3.1430    -1.7630     2.5120 C.ar  1 <1>  -0.1500 
 10 C       -4.6950    -3.3990    -0.4970 C.2   1 <1>   0.5440 
 11 C       -4.0660    -2.3710     1.6820 C.ar  1 <1>  -0.1500 
 12 O       -4.6630    -3.1540    -1.6880 O.2   1 <1>  -0.5700 
 13 N       -5.6330    -4.2970    -0.0200 N.am  1 <1>  -0.6600 
 14 C       -6.8400    -4.6350    -0.8390 C.3   1 <1>   0.2200 
 15 C       -5.2130    -5.3100     0.9970 C.3   1 <1>   0.0600 
 16 C       -7.6020    -3.3890    -1.2900 C.3   1 <1>  -0.1600 
 17 C       -7.9090    -5.4040    -0.0590 C.3   1 <1>  -0.1600 
 18 C       -9.0190    -3.8740    -1.6210 C.3   1 <1>  -0.0800 
 19 C       -9.2230    -5.1650    -0.8160 C.3   1 <1>  -0.0800 
 20 C      -10.1150    -2.8980    -1.1770 C.3   1 <1>  -0.1600 
 21 C      -10.4270    -4.9200     0.1020 C.3   1 <1>  -0.1600 
 22 C      -10.5200    -3.4000     0.2080 C.3   1 <1>   0.4230 
 23 N      -11.8570    -2.9240     0.6790 N.4   1 <1>  -0.9590 
 24 C      -13.0070    -3.2360    -0.2330 C.3   1 <1>   0.2630 
 25 C      -11.8160    -1.4570     0.9690 C.3   1 <1>   0.2630 
 26 H       -2.1730    -2.7750    -1.0550 H     1 <1>   0.1500 
 27 H       -1.1540    -1.0430     2.7210 H     1 <1>   0.1500 
 28 H       -3.4240    -1.4740     3.5110 H     1 <1>   0.1500 
 29 H       -5.0650    -2.5470     2.0400 H     1 <1>   0.1500 
 30 H       -6.5390    -5.2040    -1.7040 H     1 <1>   0.0800 
 31 H       -5.8130    -5.2120     1.8840 H     1 <1>   0.0800 
 32 H       -4.1790    -5.1820     1.2640 H     1 <1>   0.0800 
 33 H       -5.3290    -6.3030     0.5960 H     1 <1>   0.0800 
 34 H       -7.6160    -2.6780    -0.4840 H     1 <1>   0.0800 
 35 H       -7.1450    -2.9390    -2.1540 H     1 <1>   0.0800 
 36 H       -7.6800    -6.4540    -0.0080 H     1 <1>   0.0800 
 37 H       -7.9790    -4.9990     0.9350 H     1 <1>   0.0800 
 38 H       -9.0880    -4.0770    -2.6780 H     1 <1>   0.0800 
 39 H       -9.4100    -5.9920    -1.4830 H     1 <1>   0.0800 
 40 H      -10.9270    -2.9770    -1.8750 H     1 <1>   0.0800 
 41 H       -9.7580    -1.8840    -1.1550 H     1 <1>   0.0800 
 42 H      -10.3020    -5.3840     1.0640 H     1 <1>   0.0800 
 43 H      -11.2970    -5.3290    -0.3790 H     1 <1>   0.0800 
 44 H       -9.7620    -3.0800     0.9050 H     1 <1>   0.0800 
 45 H      -12.0320    -3.4110     1.5700 H     1 <1>   0.4500 
 46 H      -12.8870    -2.7300    -1.1780 H     1 <1>   0.0800 
 47 H      -13.9330    -2.9100     0.2120 H     1 <1>   0.0800 
 48 H      -13.0730    -4.2950    -0.4140 H     1 <1>   0.0800 
 49 H      -11.6370    -0.9010     0.0620 H     1 <1>   0.0800 
 50 H      -11.0270    -1.2350     1.6700 H     1 <1>   0.0800 
 51 H      -12.7530    -1.1320     1.3920 H     1 <1>   0.0800 
@<TRIPOS>BOND
  1   1   2  1   
  2   2   3  1   
  3   2   4  1   
  4   2   5  1   
  5   5   6  ar  
  6   5   7  ar  
  7   6   8  ar  
  8   6  26  1   
  9   7   9  ar  
 10   7  27  1   
 11   8  10  1   
 12   8  11  ar  
 13   9  11  ar  
 14   9  28  1   
 15  10  12  2   
 16  10  13  am  
 17  11  29  1   
 18  13  14  1   
 19  13  15  1   
 20  14  16  1   
 21  14  17  1   
 22  14  30  1   
 23  15  31  1   
 24  15  32  1   
 25  15  33  1   
 26  16  18  1   
 27  16  34  1   
 28  16  35  1   
 29  17  19  1   
 30  17  36  1   
 31  17  37  1   
 32  18  19  1   
 33  18  20  1   
 34  18  38  1   
 35  19  21  1   
 36  19  39  1   
 37  20  22  1   
 38  20  40  1   
 39  20  41  1   
 40  21  22  1   
 41  21  42  1   
 42  21  43  1   
 43  22  23  1   
 44  22  44  1   
 45  23  24  1   
 46  23  25  1   
 47  23  45  1   
 48  24  46  1   
 49  24  47  1   
 50  24  48  1   
 51  25  49  1   
 52  25  50  1   
 53  25  51  1   
@<TRIPOS>SUBSTRUCTURE
  1 ****  13 GROUP 4 **** **** 0

# MOE 2024.06 (io_trps.svl 2023.06)
