@<TRIPOS>MOLECULE
NONAME
46 46 1 0 0 
SMALL
USER_CHARGES


@<TRIPOS>ATOM
  1 O        1.0510    -0.7280     1.2940 O.2   1 <1>  -0.5700 
  2 C        1.2940    -0.7740     0.1110 C.2   1 <1>   0.5690 
  3 N        1.9210     0.2440    -0.5420 N.am  1 <1>  -0.7300 
  4 C        0.8470    -2.0400    -0.6400 C.3   1 <1>   0.4040 
  5 C        2.4120     1.4870     0.1060 C.3   1 <1>   0.1400 
  6 N       -0.2660    -2.7750     0.0780 N.4   1 <1>  -0.9590 
  7 C        3.9160     1.6710    -0.1520 C.3   1 <1>  -0.0800 
  8 C       -0.3300    -4.2160    -0.3200 C.3   1 <1>   0.3430 
  9 C       -1.5680    -2.0480    -0.0650 C.3   1 <1>   0.2630 
 10 C        4.4190     2.9220     0.5800 C.3   1 <1>  -0.2400 
 11 C        4.2450     1.7890    -1.6500 C.3   1 <1>  -0.2400 
 12 C       -1.2180    -5.0420     0.6120 C.3   1 <1>   0.0210 
 13 C       -1.0920    -6.4940     0.2060 C.2   1 <1>  -0.1810 
 14 C       -0.1260    -7.3960     0.6510 C.2   1 <1>   0.1080 
 15 C       -1.8540    -7.2010    -0.6590 C.2   1 <1>  -0.3320 
 16 N       -0.2610    -8.5600     0.1070 N.2   1 <1>  -0.7070 
 17 C        0.9720    -7.1210     1.6550 C.3   1 <1>  -0.0590 
 18 N       -1.3330    -8.4470    -0.6950 N.pl3 1 <1>   0.3000 
 19 C       -3.0710    -6.8060    -1.4790 C.3   1 <1>  -0.0600 
 20 H        2.1460     0.1980    -1.5390 H     1 <1>   0.3700 
 21 H        1.7060    -2.6840    -0.7210 H     1 <1>   0.0800 
 22 H        0.5320    -1.7720    -1.6330 H     1 <1>   0.0800 
 23 H        2.2330     1.4430     1.1680 H     1 <1>   0.0800 
 24 H        1.8680     2.3300    -0.2860 H     1 <1>   0.0800 
 25 H        0.0030    -2.7030     1.0780 H     1 <1>   0.4500 
 26 H        4.4370     0.8210     0.2560 H     1 <1>   0.0800 
 27 H        0.6610    -4.6400    -0.2940 H     1 <1>   0.0800 
 28 H       -0.6990    -4.3080    -1.3280 H     1 <1>   0.0800 
 29 H       -1.8900    -2.0480    -1.0940 H     1 <1>   0.0800 
 30 H       -1.4610    -1.0270     0.2660 H     1 <1>   0.0800 
 31 H       -2.3290    -2.5180     0.5360 H     1 <1>   0.0800 
 32 H        3.9310     3.8050     0.2070 H     1 <1>   0.0800 
 33 H        5.4800     3.0340     0.4430 H     1 <1>   0.0800 
 34 H        4.2260     2.8420     1.6360 H     1 <1>   0.0800 
 35 H        3.7020     2.6060    -2.0940 H     1 <1>   0.0800 
 36 H        4.0020     0.8830    -2.1730 H     1 <1>   0.0800 
 37 H        5.2970     1.9710    -1.7830 H     1 <1>   0.0800 
 38 H       -2.2460    -4.7410     0.5280 H     1 <1>   0.0800 
 39 H       -0.9050    -4.9300     1.6340 H     1 <1>   0.0800 
 40 H        1.5540    -6.2720     1.3520 H     1 <1>   0.0800 
 41 H        1.6210    -7.9750     1.7250 H     1 <1>   0.0800 
 42 H        0.5430    -6.9400     2.6230 H     1 <1>   0.0800 
 43 H       -1.6810    -9.2390    -1.2500 H     1 <1>   0.2700 
 44 H       -3.3270    -5.7750    -1.3210 H     1 <1>   0.0800 
 45 H       -3.9160    -7.4110    -1.1970 H     1 <1>   0.0800 
 46 H       -2.8770    -6.9530    -2.5270 H     1 <1>   0.0800 
@<TRIPOS>BOND
  1   1   2  2   
  2   2   3  am  
  3   2   4  1   
  4   3   5  1   
  5   3  20  1   
  6   4   6  1   
  7   4  21  1   
  8   4  22  1   
  9   5   7  1   
 10   5  23  1   
 11   5  24  1   
 12   6   8  1   
 13   6   9  1   
 14   6  25  1   
 15   7  10  1   
 16   7  11  1   
 17   7  26  1   
 18   8  12  1   
 19   8  27  1   
 20   8  28  1   
 21   9  29  1   
 22   9  30  1   
 23   9  31  1   
 24  10  32  1   
 25  10  33  1   
 26  10  34  1   
 27  11  35  1   
 28  11  36  1   
 29  11  37  1   
 30  12  13  1   
 31  12  38  1   
 32  12  39  1   
 33  13  14  1   
 34  13  15  2   
 35  14  16  2   
 36  14  17  1   
 37  15  18  1   
 38  15  19  1   
 39  16  18  1   
 40  17  40  1   
 41  17  41  1   
 42  17  42  1   
 43  18  43  1   
 44  19  44  1   
 45  19  45  1   
 46  19  46  1   
@<TRIPOS>SUBSTRUCTURE
  1 ****   6 GROUP 4 **** **** 0

# MOE 2024.06 (io_trps.svl 2023.06)
