@<TRIPOS>MOLECULE
NONAME
48 50 1 0 0 
SMALL
USER_CHARGES


@<TRIPOS>ATOM
  1 O       -1.1040     0.5650    -0.7180 O.2   1 <1>  -0.5700 
  2 C       -1.3400     0.7940     0.4540 C.2   1 <1>   0.7150 
  3 N       -1.8550    -0.2210     1.2080 N.am  1 <1>  -0.7300 
  4 C       -1.1120     2.0910     1.0540 C.2   1 <1>   0.0550 
  5 C       -2.1910    -1.5670     0.6960 C.3   1 <1>   0.2200 
  6 O       -0.7470     3.1370     0.3170 O.3   1 <1>  -0.2800 
  7 C       -1.2080     2.5000     2.3510 C.2   1 <1>  -0.1500 
  8 C       -3.6470    -1.5830     0.2600 C.3   1 <1>  -0.0800 
  9 C       -2.2060    -2.5600     1.8500 C.3   1 <1>   0.1200 
 10 C       -0.6070     4.1960     1.0890 C.2   1 <1>   0.1600 
 11 C       -0.8830     3.8540     2.3700 C.2   1 <1>  -0.1500 
 12 C       -4.3880    -1.8970     1.5680 C.3   1 <1>   0.1200 
 13 C       -3.9000    -2.6440    -0.8260 C.3   1 <1>  -0.0160 
 14 O       -3.4390    -2.3820     2.4760 O.3   1 <1>  -0.5600 
 15 C       -0.2190     5.4480     0.5240 C.1   1 <1>  -0.0200 
 16 C       -5.3460    -2.6200    -1.2960 C.ar  1 <1>  -0.1440 
 17 C        0.1040     6.4930     0.0530 C.1   1 <1>  -0.2000 
 18 C       -5.8230    -1.6120    -2.1090 C.ar  1 <1>  -0.1500 
 19 C       -6.2540    -3.5970    -0.9400 C.ar  1 <1>  -0.1500 
 20 C        0.5100     7.7890    -0.5530 C.3   1 <1>   0.4800 
 21 C       -7.1490    -1.6250    -2.5090 C.ar  1 <1>   0.1600 
 22 C       -7.5590    -3.5170    -1.3960 C.ar  1 <1>   0.1600 
 23 O        0.5540     8.7210     0.4490 O.3   1 <1>  -0.6800 
 24 C        1.9090     7.7010    -1.1520 C.3   1 <1>  -0.2400 
 25 C       -0.5190     8.2660    -1.5710 C.3   1 <1>  -0.2400 
 26 N       -8.0290    -2.5530    -2.1700 N.ar  1 <1>  -0.6200 
 27 H       -2.1950    -0.0330     2.1510 H     1 <1>   0.3700 
 28 H       -1.5060    -1.8540    -0.0850 H     1 <1>   0.0800 
 29 H       -1.4760     1.9190     3.2150 H     1 <1>   0.1500 
 30 H       -3.9450    -0.6240    -0.1260 H     1 <1>   0.0800 
 31 H       -1.4110    -2.3930     2.5560 H     1 <1>   0.0800 
 32 H       -2.1650    -3.5720     1.4870 H     1 <1>   0.0800 
 33 H       -0.8580     4.4920     3.2350 H     1 <1>   0.1500 
 34 H       -5.1570    -2.6390     1.4450 H     1 <1>   0.0800 
 35 H       -4.8170    -1.0050     1.9900 H     1 <1>   0.0800 
 36 H       -3.6530    -3.6250    -0.4580 H     1 <1>   0.0800 
 37 H       -3.2630    -2.4450    -1.6720 H     1 <1>   0.0800 
 38 H       -5.1770    -0.8170    -2.4350 H     1 <1>   0.1500 
 39 H       -5.9620    -4.4200    -0.3130 H     1 <1>   0.1500 
 40 H       -7.5030    -0.8300    -3.1430 H     1 <1>   0.1500 
 41 H       -8.2540    -4.2870    -1.1070 H     1 <1>   0.1500 
 42 H        0.8180     9.5770     0.0720 H     1 <1>   0.4000 
 43 H        1.9210     6.9600    -1.9310 H     1 <1>   0.0800 
 44 H        2.6150     7.4040    -0.3970 H     1 <1>   0.0800 
 45 H        2.2070     8.6430    -1.5730 H     1 <1>   0.0800 
 46 H       -0.5990     7.5470    -2.3660 H     1 <1>   0.0800 
 47 H       -0.2330     9.2110    -1.9940 H     1 <1>   0.0800 
 48 H       -1.4830     8.3570    -1.1040 H     1 <1>   0.0800 
@<TRIPOS>BOND
  1   1   2  2   
  2   2   3  am  
  3   2   4  1   
  4   3   5  1   
  5   3  27  1   
  6   4   6  1   
  7   4   7  2   
  8   5   8  1   
  9   5   9  1   
 10   5  28  1   
 11   6  10  1   
 12   7  11  1   
 13   7  29  1   
 14   8  12  1   
 15   8  13  1   
 16   8  30  1   
 17   9  14  1   
 18   9  31  1   
 19   9  32  1   
 20  10  11  2   
 21  10  15  1   
 22  11  33  1   
 23  12  14  1   
 24  12  34  1   
 25  12  35  1   
 26  13  16  1   
 27  13  36  1   
 28  13  37  1   
 29  15  17  3   
 30  16  18  ar  
 31  16  19  ar  
 32  17  20  1   
 33  18  21  ar  
 34  18  38  1   
 35  19  22  ar  
 36  19  39  1   
 37  20  23  1   
 38  20  24  1   
 39  20  25  1   
 40  21  26  ar  
 41  21  40  1   
 42  22  26  ar  
 43  22  41  1   
 44  23  42  1   
 45  24  43  1   
 46  24  44  1   
 47  24  45  1   
 48  25  46  1   
 49  25  47  1   
 50  25  48  1   
@<TRIPOS>SUBSTRUCTURE
  1 ****   2 GROUP 4 **** **** 0

# MOE 2024.06 (io_trps.svl 2023.06)
