@<TRIPOS>MOLECULE
NONAME
49 51 1 0 0 
SMALL
USER_CHARGES


@<TRIPOS>ATOM
  1 O       -0.9870    -0.4310    -0.5640 O.co2 1 <1>  -0.9000 
  2 C       -1.6380    -1.3120     0.0070 C.2   1 <1>   0.9060 
  3 O       -1.4530    -1.6440     1.1810 O.co2 1 <1>  -0.9000 
  4 C       -2.8310    -1.9180    -0.7420 C.3   1 <1>   0.2370 
  5 N       -4.1210    -1.1230    -0.6200 N.4   1 <1>  -0.9590 
  6 C       -4.6180    -1.1760     0.7870 C.3   1 <1>   0.3430 
  7 C       -3.9030     0.2860    -1.0620 C.3   1 <1>   0.3430 
  8 C       -6.1170    -0.7860     0.8400 C.3   1 <1>   0.1900 
  9 C       -5.1930     1.1350    -1.1260 C.3   1 <1>  -0.0800 
 10 N       -6.7230    -0.8130    -0.5370 N.3   1 <1>  -0.8100 
 11 C       -6.3100     0.5530     1.5760 C.3   1 <1>   0.1200 
 12 C       -5.3220     2.0980     0.0660 C.3   1 <1>   0.1200 
 13 C       -6.5120     0.3750    -1.3850 C.3   1 <1>   0.1100 
 14 C       -8.1100    -1.2970    -0.5580 C.3   1 <1>   0.2900 
 15 O       -5.2730     1.4440     1.2900 O.3   1 <1>  -0.5600 
 16 C       -8.1380    -2.7840    -0.2390 C.2   1 <1>  -0.3320 
 17 N       -9.2590    -3.4360     0.1820 N.pl3 1 <1>   0.0480 
 18 C       -7.1210    -3.6800    -0.3260 C.2   1 <1>  -0.1500 
 19 C       -8.9240    -4.7330     0.3650 C.2   1 <1>  -0.3020 
 20 C      -10.6000    -2.8630     0.3930 C.3   1 <1>   0.0160 
 21 C       -7.6010    -4.9420     0.0640 C.2   1 <1>  -0.0860 
 22 C       -6.8060    -6.1400     0.1070 C.2   1 <1>   0.5950 
 23 O       -5.6310    -6.1680    -0.1640 O.2   1 <1>  -0.5700 
 24 C       -7.4660    -7.4380     0.5140 C.3   1 <1>  -0.1790 
 25 H       -2.9780    -2.9120    -0.3610 H     1 <1>   0.0800 
 26 H       -2.5480    -1.9890    -1.7750 H     1 <1>   0.0800 
 27 H       -4.9050    -1.5100    -1.1690 H     1 <1>   0.4500 
 28 H       -4.5150    -2.1800     1.1630 H     1 <1>   0.0800 
 29 H       -4.0280    -0.5330     1.4210 H     1 <1>   0.0800 
 30 H       -3.1910     0.7620    -0.4050 H     1 <1>   0.0800 
 31 H       -3.4590     0.2640    -2.0430 H     1 <1>   0.0800 
 32 H       -6.6040    -1.5350     1.4410 H     1 <1>   0.0800 
 33 H       -5.0640     1.7850    -1.9720 H     1 <1>   0.0800 
 34 H       -6.2660     0.3740     2.6360 H     1 <1>   0.0800 
 35 H       -7.2580     1.0060     1.3490 H     1 <1>   0.0800 
 36 H       -6.2360     2.6650     0.0180 H     1 <1>   0.0800 
 37 H       -4.4990     2.7930     0.0580 H     1 <1>   0.0800 
 38 H       -6.5300     0.0530    -2.4130 H     1 <1>   0.0800 
 39 H       -7.3350     1.0580    -1.2530 H     1 <1>   0.0800 
 40 H       -8.6960    -0.7430     0.1560 H     1 <1>   0.0800 
 41 H       -8.5360    -1.1520    -1.5360 H     1 <1>   0.0800 
 42 H       -6.1070    -3.5060    -0.6390 H     1 <1>   0.1500 
 43 H       -9.6390    -5.4640     0.7000 H     1 <1>   0.1500 
 44 H      -11.2880    -3.6440     0.6620 H     1 <1>   0.0800 
 45 H      -10.9340    -2.3940    -0.5150 H     1 <1>   0.0800 
 46 H      -10.5590    -2.1380     1.1840 H     1 <1>   0.0800 
 47 H       -8.2780    -7.6550    -0.1540 H     1 <1>   0.0800 
 48 H       -7.8390    -7.3540     1.5180 H     1 <1>   0.0800 
 49 H       -6.7540    -8.2410     0.4710 H     1 <1>   0.0800 
@<TRIPOS>BOND
  1   1   2  ar  
  2   2   3  ar  
  3   2   4  1   
  4   4   5  1   
  5   4  25  1   
  6   4  26  1   
  7   5   6  1   
  8   5   7  1   
  9   5  27  1   
 10   6   8  1   
 11   6  28  1   
 12   6  29  1   
 13   7   9  1   
 14   7  30  1   
 15   7  31  1   
 16   8  10  1   
 17   8  11  1   
 18   8  32  1   
 19   9  12  1   
 20   9  13  1   
 21   9  33  1   
 22  10  13  1   
 23  10  14  1   
 24  11  15  1   
 25  11  34  1   
 26  11  35  1   
 27  12  15  1   
 28  12  36  1   
 29  12  37  1   
 30  13  38  1   
 31  13  39  1   
 32  14  16  1   
 33  14  40  1   
 34  14  41  1   
 35  16  17  1   
 36  16  18  2   
 37  17  19  1   
 38  17  20  1   
 39  18  21  1   
 40  18  42  1   
 41  19  21  2   
 42  19  43  1   
 43  20  44  1   
 44  20  45  1   
 45  20  46  1   
 46  21  22  1   
 47  22  23  2   
 48  22  24  1   
 49  24  47  1   
 50  24  48  1   
 51  24  49  1   
@<TRIPOS>SUBSTRUCTURE
  1 ****   8 GROUP 4 **** **** 0

# MOE 2024.06 (io_trps.svl 2023.06)
