@<TRIPOS>MOLECULE
NONAME
57 60 1 0 0 
SMALL
USER_CHARGES


@<TRIPOS>ATOM
  1 O       -2.1480     0.8840     0.2410 O.3   1 <1>  -0.5600 
  2 C       -1.3160     1.9790     0.5130 C.3   1 <1>   0.1200 
  3 C       -2.5370     0.1450     1.3700 C.3   1 <1>   0.1200 
  4 C        0.1500     1.5440     0.5540 C.3   1 <1>   0.1200 
  5 C       -3.4490    -1.0090     0.9180 C.3   1 <1>   0.3430 
  6 O        0.9100     2.6570     0.8940 O.3   1 <1>  -0.5600 
  7 N       -4.2630    -0.5710    -0.2520 N.4   1 <1>  -0.9590 
  8 C        2.2820     2.4250     0.9200 C.3   1 <1>   0.0400 
  9 C       -5.3810     0.3470     0.1460 C.3   1 <1>   0.3430 
 10 C       -4.7410    -1.7030    -1.0920 C.3   1 <1>   0.3430 
 11 C       -6.0760     0.9570    -1.0820 C.3   1 <1>   0.1430 
 12 C       -5.4150    -1.1600    -2.3560 C.3   1 <1>  -0.1600 
 13 C       -7.2540     1.7750    -0.6100 C.ar  1 <1>   0.1670 
 14 C       -6.5450    -0.1620    -2.0370 C.3   1 <1>  -0.1600 
 15 C       -5.1990     2.0160    -1.8050 C.3   1 <1>  -0.1600 
 16 N       -8.1410     1.3640     0.2610 N.ar  1 <1>  -0.6200 
 17 C       -7.2790     3.0070    -1.1840 C.ar  1 <1>  -0.1440 
 18 C       -6.1240     3.2060    -2.1330 C.3   1 <1>  -0.0170 
 19 C       -9.1110     2.2430     0.5540 C.ar  1 <1>   0.6200 
 20 C       -8.3000     3.8500    -0.8290 C.ar  1 <1>   0.1600 
 21 N       -9.2140     3.4760     0.0380 N.ar  1 <1>  -0.6200 
 22 C      -10.1240     1.8280     1.5130 C.ar  1 <1>   0.0000 
 23 C      -10.7170     2.7400     2.3910 C.ar  1 <1>  -0.1500 
 24 C      -10.5490     0.5000     1.6010 C.ar  1 <1>  -0.1500 
 25 C      -11.6770     2.3500     3.3070 C.ar  1 <1>  -0.1500 
 26 C      -11.5080     0.1010     2.5150 C.ar  1 <1>  -0.1500 
 27 C      -12.0740     1.0270     3.3720 C.ar  1 <1>  -0.1500 
 28 H       -1.6060     2.4350     1.4450 H     1 <1>   0.0800 
 29 H       -1.4470     2.6920    -0.2820 H     1 <1>   0.0800 
 30 H       -3.0700     0.7970     2.0410 H     1 <1>   0.0800 
 31 H       -1.6650    -0.2400     1.8700 H     1 <1>   0.0800 
 32 H        0.4640     1.1950    -0.4140 H     1 <1>   0.0800 
 33 H        0.3100     0.7880     1.3020 H     1 <1>   0.0800 
 34 H       -4.0780    -1.3370     1.7290 H     1 <1>   0.0800 
 35 H       -2.8210    -1.8350     0.6280 H     1 <1>   0.0800 
 36 H       -3.5930     0.0010    -0.7990 H     1 <1>   0.4500 
 37 H        2.7710     3.3430     1.1940 H     1 <1>   0.0800 
 38 H        2.6100     2.1190    -0.0580 H     1 <1>   0.0800 
 39 H        2.5030     1.6660     1.6500 H     1 <1>   0.0800 
 40 H       -5.0050     1.1460     0.7630 H     1 <1>   0.0800 
 41 H       -6.1130    -0.1990     0.7190 H     1 <1>   0.0800 
 42 H       -5.4490    -2.2950    -0.5340 H     1 <1>   0.0800 
 43 H       -3.9120    -2.3350    -1.3690 H     1 <1>   0.0800 
 44 H       -5.8230    -1.9860    -2.9130 H     1 <1>   0.0800 
 45 H       -4.6710    -0.6970    -2.9810 H     1 <1>   0.0800 
 46 H       -6.9290     0.2660    -2.9480 H     1 <1>   0.0800 
 47 H       -7.3560    -0.6970    -1.5710 H     1 <1>   0.0800 
 48 H       -4.7280     1.6390    -2.6950 H     1 <1>   0.0800 
 49 H       -4.4300     2.3680    -1.1380 H     1 <1>   0.0800 
 50 H       -6.4770     3.1490    -3.1480 H     1 <1>   0.0800 
 51 H       -5.6320     4.1500    -1.9710 H     1 <1>   0.0800 
 52 H       -8.3720     4.8370    -1.2540 H     1 <1>   0.1500 
 53 H      -10.4220     3.7750     2.3520 H     1 <1>   0.1500 
 54 H      -10.1240    -0.2330     0.9390 H     1 <1>   0.1500 
 55 H      -12.1150     3.0760     3.9690 H     1 <1>   0.1500 
 56 H      -11.8160    -0.9290     2.5600 H     1 <1>   0.1500 
 57 H      -12.8210     0.7210     4.0840 H     1 <1>   0.1500 
@<TRIPOS>BOND
  1   1   2  1   
  2   1   3  1   
  3   2   4  1   
  4   2  28  1   
  5   2  29  1   
  6   3   5  1   
  7   3  30  1   
  8   3  31  1   
  9   4   6  1   
 10   4  32  1   
 11   4  33  1   
 12   5   7  1   
 13   5  34  1   
 14   5  35  1   
 15   6   8  1   
 16   7   9  1   
 17   7  10  1   
 18   7  36  1   
 19   8  37  1   
 20   8  38  1   
 21   8  39  1   
 22   9  11  1   
 23   9  40  1   
 24   9  41  1   
 25  10  12  1   
 26  10  42  1   
 27  10  43  1   
 28  11  13  1   
 29  11  14  1   
 30  11  15  1   
 31  12  14  1   
 32  12  44  1   
 33  12  45  1   
 34  13  16  ar  
 35  13  17  ar  
 36  14  46  1   
 37  14  47  1   
 38  15  18  1   
 39  15  48  1   
 40  15  49  1   
 41  16  19  ar  
 42  17  18  1   
 43  17  20  ar  
 44  18  50  1   
 45  18  51  1   
 46  19  21  ar  
 47  19  22  1   
 48  20  21  ar  
 49  20  52  1   
 50  22  23  ar  
 51  22  24  ar  
 52  23  25  ar  
 53  23  53  1   
 54  24  26  ar  
 55  24  54  1   
 56  25  27  ar  
 57  25  55  1   
 58  26  27  ar  
 59  26  56  1   
 60  27  57  1   
@<TRIPOS>SUBSTRUCTURE
  1 ****   9 GROUP 4 **** **** 0

# MOE 2024.06 (io_trps.svl 2023.06)
