@<TRIPOS>MOLECULE
NONAME
51 54 1 0 0 
SMALL
USER_CHARGES


@<TRIPOS>ATOM
  1 O        0.7590     0.8290     1.0090 O.3   1 <1>  -0.0190 
  2 N        1.8010     0.0720     1.1990 N.2   1 <1>  -0.4100 
  3 C        1.0380     1.8710     0.2710 C.2   1 <1>  -0.0400 
  4 C        2.7690     0.6340     0.5700 C.2   1 <1>   0.1080 
  5 C        2.3400     1.8030    -0.0520 C.2   1 <1>  -0.1500 
  6 C       -0.0710     2.8590    -0.0480 C.3   1 <1>   0.0200 
  7 C        4.1790     0.0900     0.5210 C.3   1 <1>  -0.0590 
  8 C        0.4490     4.1450    -0.7150 C.3   1 <1>  -0.0800 
  9 C       -0.6330     5.1180    -1.1800 C.3   1 <1>   0.2000 
 10 C        1.3370     5.0010     0.1940 C.3   1 <1>   0.2090 
 11 O       -1.5680     5.2870    -0.1680 O.3   1 <1>  -0.6800 
 12 C        0.1320     6.4290    -1.3450 C.3   1 <1>   0.2090 
 13 N        1.1860     6.4030    -0.2900 N.pl3 1 <1>  -0.8380 
 14 C        2.3380     7.1050    -0.5650 C.ar  1 <1>   0.4100 
 15 N        3.1440     6.5810    -1.4670 N.ar  1 <1>  -0.6200 
 16 C        2.6250     8.3050     0.0650 C.ar  1 <1>  -0.1440 
 17 C        4.2330     7.2730    -1.7270 C.ar  1 <1>   0.4700 
 18 C        3.8000     8.9270    -0.2990 C.ar  1 <1>   0.3930 
 19 C        1.6620     8.8820     1.1050 C.3   1 <1>  -0.0970 
 20 N        4.6210     8.4150    -1.2030 N.ar  1 <1>  -0.6200 
 21 O        4.1210    10.1120     0.2730 O.3   1 <1>  -0.1650 
 22 C        5.3630    10.6690     0.2630 C.ar  1 <1>   0.0820 
 23 C        5.5290    12.0170    -0.0620 C.ar  1 <1>   0.1670 
 24 C        6.4720     9.9200     0.6140 C.ar  1 <1>  -0.1500 
 25 N        6.6980    12.6420    -0.0570 N.ar  1 <1>  -0.6200 
 26 C        4.3480    12.8890    -0.4530 C.3   1 <1>  -0.0970 
 27 C        7.6900    10.5640     0.6130 C.ar  1 <1>  -0.1500 
 28 C        7.7450    11.9050     0.2760 C.ar  1 <1>   0.1600 
 29 H        2.9470     2.4610    -0.6460 H     1 <1>   0.1500 
 30 H       -0.7790     2.3780    -0.6990 H     1 <1>   0.0800 
 31 H       -0.5850     3.1010     0.8660 H     1 <1>   0.0800 
 32 H        4.5180     0.0410    -0.4980 H     1 <1>   0.0800 
 33 H        4.2060    -0.8970     0.9450 H     1 <1>   0.0800 
 34 H        4.8350     0.7290     1.0830 H     1 <1>   0.0800 
 35 H        1.0320     3.8750    -1.5780 H     1 <1>   0.0800 
 36 H       -1.1420     4.8040    -2.0750 H     1 <1>   0.0800 
 37 H        2.3630     4.6780     0.1570 H     1 <1>   0.0800 
 38 H        0.9950     4.9490     1.2140 H     1 <1>   0.0800 
 39 H       -1.1390     5.7820     0.5600 H     1 <1>   0.4000 
 40 H       -0.5140     7.2830    -1.2350 H     1 <1>   0.0800 
 41 H        0.5950     6.4580    -2.3170 H     1 <1>   0.0800 
 42 H        4.8930     6.8500    -2.4660 H     1 <1>   0.1500 
 43 H        1.4400     8.1350     1.8470 H     1 <1>   0.0800 
 44 H        0.7440     9.1700     0.6260 H     1 <1>   0.0800 
 45 H        2.0700     9.7400     1.6080 H     1 <1>   0.0800 
 46 H        6.3850     8.8800     0.8740 H     1 <1>   0.1500 
 47 H        3.4730    12.3090    -0.6750 H     1 <1>   0.0800 
 48 H        4.6020    13.4620    -1.3260 H     1 <1>   0.0800 
 49 H        4.1260    13.5670     0.3500 H     1 <1>   0.0800 
 50 H        8.5880    10.0340     0.8720 H     1 <1>   0.1500 
 51 H        8.7030    12.3980     0.2790 H     1 <1>   0.1500 
@<TRIPOS>BOND
  1   1   2  1   
  2   1   3  1   
  3   2   4  2   
  4   3   5  2   
  5   3   6  1   
  6   4   5  1   
  7   4   7  1   
  8   5  29  1   
  9   6   8  1   
 10   6  30  1   
 11   6  31  1   
 12   7  32  1   
 13   7  33  1   
 14   7  34  1   
 15   8   9  1   
 16   8  10  1   
 17   8  35  1   
 18   9  11  1   
 19   9  12  1   
 20   9  36  1   
 21  10  13  1   
 22  10  37  1   
 23  10  38  1   
 24  11  39  1   
 25  12  13  1   
 26  12  40  1   
 27  12  41  1   
 28  13  14  1   
 29  14  15  ar  
 30  14  16  ar  
 31  15  17  ar  
 32  16  18  ar  
 33  16  19  1   
 34  17  20  ar  
 35  17  42  1   
 36  18  20  ar  
 37  18  21  1   
 38  19  43  1   
 39  19  44  1   
 40  19  45  1   
 41  21  22  1   
 42  22  23  ar  
 43  22  24  ar  
 44  23  25  ar  
 45  23  26  1   
 46  24  27  ar  
 47  24  46  1   
 48  25  28  ar  
 49  26  47  1   
 50  26  48  1   
 51  26  49  1   
 52  27  28  ar  
 53  27  50  1   
 54  28  51  1   
@<TRIPOS>SUBSTRUCTURE
  1 ****  14 GROUP 4 **** **** 0

# MOE 2024.06 (io_trps.svl 2023.06)
