@<TRIPOS>MOLECULE
NONAME
47 49 1 0 0 
SMALL
USER_CHARGES


@<TRIPOS>ATOM
  1 S        1.9630     0.1830     0.8840 S.o2  1 <1>   1.3330 
  2 O        1.3410    -1.0300     0.4060 O.2   1 <1>  -0.6500 
  3 O        3.0120     0.1030     1.8780 O.2   1 <1>  -0.6500 
  4 N        0.7520     1.1950     1.5080 N.am  1 <1>  -0.8490 
  5 C        2.5520     1.1000    -0.5360 C.3   1 <1>  -0.0550 
  6 C       -0.2090     0.4580     2.3310 C.3   1 <1>   0.1160 
  7 C        1.2780     2.3430     2.2560 C.3   1 <1>   0.1160 
  8 C        3.6230     0.3620    -1.3680 C.3   1 <1>  -0.0800 
  9 C        4.2260     1.1750    -2.5070 C.3   1 <1>   0.2200 
 10 C        4.8660    -0.0700    -0.5800 C.3   1 <1>   0.1200 
 11 N        4.5550     2.5390    -2.0370 N.am  1 <1>  -0.7300 
 12 C        5.5240     0.4130    -2.7310 C.3   1 <1>   0.1200 
 13 O        5.9490     0.0170    -1.4600 O.3   1 <1>  -0.5600 
 14 C        3.8050     3.6590    -2.2320 C.2   1 <1>   0.5440 
 15 O        2.9560     3.6410    -3.1020 O.2   1 <1>  -0.5700 
 16 C        3.9910     4.8240    -1.3950 C.ar  1 <1>   0.0860 
 17 C        4.4140     4.7110    -0.0630 C.ar  1 <1>   0.1400 
 18 C        3.7440     6.1160    -1.8490 C.ar  1 <1>  -0.1500 
 19 O        4.6940     3.5920     0.6100 O.3   1 <1>  -0.2800 
 20 C        4.5840     5.8070     0.7650 C.ar  1 <1>   0.0000 
 21 C        3.9190     7.2320    -1.0300 C.ar  1 <1>  -0.1500 
 22 C        5.0380     3.9340     1.8430 C.2   1 <1>  -0.0400 
 23 C        4.3390     7.0880     0.2760 C.ar  1 <1>  -0.1500 
 24 C        4.9950     5.2700     2.0030 C.2   1 <1>  -0.1500 
 25 C        5.4020     2.8230     2.8050 C.3   1 <1>  -0.0600 
 26 H        1.7200     1.3260    -1.1760 H     1 <1>   0.0800 
 27 H        2.9420     2.0290    -0.1840 H     1 <1>   0.0800 
 28 H       -0.9780     1.1200     2.6900 H     1 <1>   0.0800 
 29 H        0.2890     0.0010     3.1710 H     1 <1>   0.0800 
 30 H       -0.6780    -0.3160     1.7450 H     1 <1>   0.0800 
 31 H        0.4700     2.9880     2.5570 H     1 <1>   0.0800 
 32 H        1.9530     2.9150     1.6430 H     1 <1>   0.0800 
 33 H        1.8070     2.0110     3.1350 H     1 <1>   0.0800 
 34 H        3.1760    -0.5270    -1.7800 H     1 <1>   0.0800 
 35 H        3.6040     1.2080    -3.3860 H     1 <1>   0.0800 
 36 H        4.7860    -1.0810    -0.2180 H     1 <1>   0.0800 
 37 H        5.0650     0.5950     0.2430 H     1 <1>   0.0800 
 38 H        5.2520     2.5490    -1.2840 H     1 <1>   0.3700 
 39 H        6.2840     1.0150    -3.1990 H     1 <1>   0.0800 
 40 H        5.3490    -0.4760    -3.3120 H     1 <1>   0.0800 
 41 H        3.4080     6.2540    -2.8630 H     1 <1>   0.1500 
 42 H        3.7190     8.2140    -1.4270 H     1 <1>   0.1500 
 43 H        4.4760     7.9420     0.9170 H     1 <1>   0.1500 
 44 H        5.2170     5.8560     2.8750 H     1 <1>   0.1500 
 45 H        5.6580     3.2290     3.7660 H     1 <1>   0.0800 
 46 H        6.2430     2.2720     2.4230 H     1 <1>   0.0800 
 47 H        4.5720     2.1490     2.9190 H     1 <1>   0.0800 
@<TRIPOS>BOND
  1   1   2  2   
  2   1   3  2   
  3   1   4  am  
  4   1   5  1   
  5   4   6  1   
  6   4   7  1   
  7   5   8  1   
  8   5  26  1   
  9   5  27  1   
 10   6  28  1   
 11   6  29  1   
 12   6  30  1   
 13   7  31  1   
 14   7  32  1   
 15   7  33  1   
 16   8   9  1   
 17   8  10  1   
 18   8  34  1   
 19   9  11  1   
 20   9  12  1   
 21   9  35  1   
 22  10  13  1   
 23  10  36  1   
 24  10  37  1   
 25  11  14  am  
 26  11  38  1   
 27  12  13  1   
 28  12  39  1   
 29  12  40  1   
 30  14  15  2   
 31  14  16  1   
 32  16  17  ar  
 33  16  18  ar  
 34  17  19  1   
 35  17  20  ar  
 36  18  21  ar  
 37  18  41  1   
 38  19  22  1   
 39  20  23  ar  
 40  20  24  1   
 41  21  23  ar  
 42  21  42  1   
 43  22  24  2   
 44  22  25  1   
 45  23  43  1   
 46  24  44  1   
 47  25  45  1   
 48  25  46  1   
 49  25  47  1   
@<TRIPOS>SUBSTRUCTURE
  1 ****  19 GROUP 4 **** **** 0

# MOE 2024.06 (io_trps.svl 2023.06)
