@<TRIPOS>MOLECULE
NONAME
42 44 1 0 0 
SMALL
USER_CHARGES


@<TRIPOS>ATOM
  1 CL      -2.4980     1.5010     2.1510 Cl    1 <1>  -0.1770 
  2 C       -1.2850     2.1780     1.0880 C.ar  1 <1>   0.1770 
  3 C       -1.5280     2.2950    -0.2740 C.ar  1 <1>  -0.1440 
  4 C       -0.0920     2.5930     1.6580 C.ar  1 <1>  -0.1500 
  5 C       -0.5120     2.8540    -1.0380 C.ar  1 <1>   0.1900 
  6 C       -2.8420     1.8190    -0.8970 C.3   1 <1>   0.0440 
  7 C        0.9020     3.1440     0.8650 C.ar  1 <1>  -0.1500 
  8 F       -0.6770     3.0030    -2.3260 F     1 <1>  -0.1900 
  9 C        0.6900     3.2760    -0.4970 C.ar  1 <1>  -0.1500 
 10 C       -2.9020     0.2990    -1.0080 C.2   1 <1>   0.5690 
 11 O       -2.0060    -0.2600    -1.5940 O.2   1 <1>  -0.5700 
 12 N       -3.9460    -0.4170    -0.4810 N.am  1 <1>  -0.6600 
 13 C       -5.1650     0.1100     0.1850 C.3   1 <1>   0.1400 
 14 C       -3.9570    -1.8990    -0.4920 C.3   1 <1>   0.1400 
 15 C       -6.0290    -1.1210     0.4560 C.3   1 <1>   0.2000 
 16 C       -5.0600    -2.3010     0.4870 C.3   1 <1>  -0.0800 
 17 O       -6.6970    -1.0200     1.6650 O.3   1 <1>  -0.6800 
 18 C       -5.7310    -3.6390     0.1440 C.3   1 <1>   0.0200 
 19 C       -4.7150    -4.7640     0.1120 C.2   1 <1>  -0.0400 
 20 O       -4.0750    -5.0960     1.2010 O.3   1 <1>  -0.0190 
 21 C       -4.2870    -5.5600    -0.8780 C.2   1 <1>  -0.1500 
 22 N       -3.2380    -6.0710     0.9910 N.2   1 <1>  -0.4100 
 23 C       -3.3440    -6.3710    -0.2530 C.2   1 <1>   0.1080 
 24 C       -2.5460    -7.4590    -0.9360 C.3   1 <1>  -0.0590 
 25 H        0.0560     2.4820     2.7180 H     1 <1>   0.1500 
 26 H       -2.9580     2.2180    -1.8870 H     1 <1>   0.0800 
 27 H       -3.6580     2.1950    -0.3140 H     1 <1>   0.0800 
 28 H        1.8310     3.4660     1.3030 H     1 <1>   0.1500 
 29 H        1.4440     3.7000    -1.1370 H     1 <1>   0.1500 
 30 H       -4.8900     0.5900     1.1080 H     1 <1>   0.0800 
 31 H       -5.6800     0.8000    -0.4590 H     1 <1>   0.0800 
 32 H       -4.1790    -2.2370    -1.4900 H     1 <1>   0.0800 
 33 H       -3.0000    -2.2930    -0.1900 H     1 <1>   0.0800 
 34 H       -6.7590    -1.2310    -0.3280 H     1 <1>   0.0800 
 35 H       -4.6070    -2.3680     1.4610 H     1 <1>   0.0800 
 36 H       -6.0590    -0.9860     2.4050 H     1 <1>   0.4000 
 37 H       -6.2140    -3.5730    -0.8150 H     1 <1>   0.0800 
 38 H       -6.4820    -3.8650     0.8810 H     1 <1>   0.0800 
 39 H       -4.5740    -5.5930    -1.9130 H     1 <1>   0.1500 
 40 H       -3.2110    -8.1830    -1.3690 H     1 <1>   0.0800 
 41 H       -1.9110    -7.9510    -0.2220 H     1 <1>   0.0800 
 42 H       -1.9340    -7.0300    -1.7080 H     1 <1>   0.0800 
@<TRIPOS>BOND
  1   1   2  1   
  2   2   3  ar  
  3   2   4  ar  
  4   3   5  ar  
  5   3   6  1   
  6   4   7  ar  
  7   4  25  1   
  8   5   8  1   
  9   5   9  ar  
 10   6  10  1   
 11   6  26  1   
 12   6  27  1   
 13   7   9  ar  
 14   7  28  1   
 15   9  29  1   
 16  10  11  2   
 17  10  12  am  
 18  12  13  1   
 19  12  14  1   
 20  13  15  1   
 21  13  30  1   
 22  13  31  1   
 23  14  16  1   
 24  14  32  1   
 25  14  33  1   
 26  15  16  1   
 27  15  17  1   
 28  15  34  1   
 29  16  18  1   
 30  16  35  1   
 31  17  36  1   
 32  18  19  1   
 33  18  37  1   
 34  18  38  1   
 35  19  20  1   
 36  19  21  2   
 37  20  22  1   
 38  21  23  1   
 39  21  39  1   
 40  22  23  2   
 41  23  24  1   
 42  24  40  1   
 43  24  41  1   
 44  24  42  1   
@<TRIPOS>SUBSTRUCTURE
  1 ****  12 GROUP 4 **** **** 0

# MOE 2024.06 (io_trps.svl 2023.06)
