@<TRIPOS>MOLECULE
NONAME
51 53 1 0 0 
SMALL
USER_CHARGES


@<TRIPOS>ATOM
  1 O       -0.9370     0.7060     1.3840 O.2   1 <1>  -0.5700 
  2 C       -1.7600     1.1160     0.5970 C.2   1 <1>   0.5690 
  3 N       -2.6280     0.2700    -0.0350 N.am  1 <1>  -0.6600 
  4 C       -1.7770     2.6330     0.3360 C.3   1 <1>   0.4040 
  5 C       -3.7610     0.6350    -0.9290 C.3   1 <1>   0.1400 
  6 C       -2.6610    -1.1920     0.2480 C.3   1 <1>   0.1400 
  7 N       -0.4760     3.3120     0.7070 N.4   1 <1>  -0.9590 
  8 C       -4.7540    -0.5140    -0.7700 C.3   1 <1>   0.2000 
  9 C       -3.8590    -1.7380    -0.5430 C.3   1 <1>  -0.0800 
 10 C       -0.6560     4.7670     0.9900 C.3   1 <1>   0.4230 
 11 C        0.6160     2.9650    -0.2610 C.3   1 <1>   0.2630 
 12 O       -5.5150    -0.2680     0.3630 O.3   1 <1>  -0.6800 
 13 C       -4.5580    -2.9380     0.1270 C.3   1 <1>   0.0200 
 14 C       -0.9790     5.5730    -0.2790 C.3   1 <1>  -0.1600 
 15 C        0.6250     5.3790     1.5600 C.3   1 <1>  -0.1600 
 16 C       -3.6750    -4.1710     0.2120 C.2   1 <1>  -0.0400 
 17 C        0.1650     6.5740    -0.4890 C.3   1 <1>  -0.1600 
 18 C        1.3110     6.1070     0.4040 C.3   1 <1>  -0.1600 
 19 O       -4.0850    -5.1830     0.9300 O.3   1 <1>  -0.0190 
 20 C       -2.4840    -4.5030    -0.3150 C.2   1 <1>  -0.1500 
 21 N       -3.2350    -6.1680     0.9160 N.2   1 <1>  -0.4100 
 22 C       -2.2600    -5.7870     0.1730 C.2   1 <1>   0.1080 
 23 C       -1.0380    -6.6280    -0.1220 C.3   1 <1>  -0.0590 
 24 H       -2.5770     3.0500     0.9220 H     1 <1>   0.0800 
 25 H       -1.9960     2.8070    -0.7030 H     1 <1>   0.0800 
 26 H       -4.2130     1.5770    -0.6670 H     1 <1>   0.0800 
 27 H       -3.4120     0.6680    -1.9470 H     1 <1>   0.0800 
 28 H       -1.7400    -1.6580    -0.0590 H     1 <1>   0.0800 
 29 H       -2.7950    -1.3460     1.3060 H     1 <1>   0.0800 
 30 H       -0.2070     2.8560     1.5970 H     1 <1>   0.4500 
 31 H       -5.4190    -0.6170    -1.6110 H     1 <1>   0.0800 
 32 H       -3.4990    -2.0540    -1.5060 H     1 <1>   0.0800 
 33 H       -1.4500     4.8910     1.7100 H     1 <1>   0.0800 
 34 H        0.4200     3.3990    -1.2280 H     1 <1>   0.0800 
 35 H        0.6930     1.8950    -0.3680 H     1 <1>   0.0800 
 36 H        1.5630     3.3350     0.0960 H     1 <1>   0.0800 
 37 H       -4.9360    -0.2160     1.1490 H     1 <1>   0.4000 
 38 H       -5.4440    -3.1930    -0.4280 H     1 <1>   0.0800 
 39 H       -4.8670    -2.6770     1.1240 H     1 <1>   0.0800 
 40 H       -1.0860     4.9490    -1.1470 H     1 <1>   0.0800 
 41 H       -1.8980     6.1160    -0.1390 H     1 <1>   0.0800 
 42 H        0.3410     6.1150     2.2930 H     1 <1>   0.0800 
 43 H        1.2690     4.6620     2.0380 H     1 <1>   0.0800 
 44 H        0.4660     6.6370    -1.5220 H     1 <1>   0.0800 
 45 H       -0.1540     7.5530    -0.1680 H     1 <1>   0.0800 
 46 H        1.9070     6.9360     0.7500 H     1 <1>   0.0800 
 47 H        1.9480     5.4350    -0.1430 H     1 <1>   0.0800 
 48 H       -1.8270    -3.9540    -0.9620 H     1 <1>   0.1500 
 49 H       -0.9060    -6.7200    -1.1840 H     1 <1>   0.0800 
 50 H       -1.1590    -7.6090     0.3000 H     1 <1>   0.0800 
 51 H       -0.1670    -6.1690     0.3070 H     1 <1>   0.0800 
@<TRIPOS>BOND
  1   1   2  2   
  2   2   3  am  
  3   2   4  1   
  4   3   5  1   
  5   3   6  1   
  6   4   7  1   
  7   4  24  1   
  8   4  25  1   
  9   5   8  1   
 10   5  26  1   
 11   5  27  1   
 12   6   9  1   
 13   6  28  1   
 14   6  29  1   
 15   7  10  1   
 16   7  11  1   
 17   7  30  1   
 18   8   9  1   
 19   8  12  1   
 20   8  31  1   
 21   9  13  1   
 22   9  32  1   
 23  10  14  1   
 24  10  15  1   
 25  10  33  1   
 26  11  34  1   
 27  11  35  1   
 28  11  36  1   
 29  12  37  1   
 30  13  16  1   
 31  13  38  1   
 32  13  39  1   
 33  14  17  1   
 34  14  40  1   
 35  14  41  1   
 36  15  18  1   
 37  15  42  1   
 38  15  43  1   
 39  16  19  1   
 40  16  20  2   
 41  17  18  1   
 42  17  44  1   
 43  17  45  1   
 44  18  46  1   
 45  18  47  1   
 46  19  21  1   
 47  20  22  1   
 48  20  48  1   
 49  21  22  2   
 50  22  23  1   
 51  23  49  1   
 52  23  50  1   
 53  23  51  1   
@<TRIPOS>SUBSTRUCTURE
  1 ****   3 GROUP 4 **** **** 0

# MOE 2024.06 (io_trps.svl 2023.06)
