@<TRIPOS>MOLECULE
NONAME
56 59 1 0 0 
SMALL
USER_CHARGES


@<TRIPOS>ATOM
  1 O       -0.2290     0.5380    -1.6010 O.2   1 <1>  -0.5700 
  2 C        0.8090     0.6560    -0.9680 C.2   1 <1>   0.5440 
  3 N        0.7930     1.3880     0.1960 N.am  1 <1>  -0.6600 
  4 C        2.0000    -0.0120    -1.4230 C.ar  1 <1>   0.0860 
  5 C       -0.3730     2.1970     0.6160 C.3   1 <1>   0.1400 
  6 C        2.0090     1.7860     0.9480 C.3   1 <1>   0.1400 
  7 C        2.5260    -1.1020    -0.7060 C.ar  1 <1>   0.4100 
  8 C        2.6360     0.3650    -2.5960 C.ar  1 <1>  -0.1500 
  9 C        0.0970     2.9460     1.8580 C.3   1 <1>  -0.1600 
 10 C        1.6090     3.0550     1.6920 C.3   1 <1>  -0.1600 
 11 N        3.5870    -1.8010    -1.0930 N.ar  1 <1>  -0.6200 
 12 N        1.9440    -1.5300     0.4630 N.pl3 1 <1>  -0.8690 
 13 C        3.7440    -0.3510    -2.9890 C.ar  1 <1>  -0.1500 
 14 C        4.1710    -1.4120    -2.2100 C.ar  1 <1>   0.1600 
 15 C        1.6910    -2.9810     0.7160 C.3   1 <1>   0.2890 
 16 C        0.2700    -3.2540     1.2260 C.3   1 <1>   0.1900 
 17 C        2.5820    -3.5430     1.8250 C.3   1 <1>   0.1200 
 18 N       -0.7730    -3.4580     0.1690 N.3   1 <1>  -0.8100 
 19 C        0.5090    -4.4850     2.0960 C.3   1 <1>   0.1200 
 20 O        1.7600    -4.2920     2.6770 O.3   1 <1>  -0.5600 
 21 C       -0.8100    -2.3040    -0.7610 C.3   1 <1>   0.1100 
 22 C       -2.1100    -3.6890     0.7630 C.3   1 <1>   0.1100 
 23 C       -1.9070    -2.4000    -1.8330 C.3   1 <1>   0.3430 
 24 C       -3.2100    -3.8270    -0.3110 C.3   1 <1>   0.3430 
 25 N       -3.2570    -2.6310    -1.2190 N.4   1 <1>  -0.9590 
 26 C       -4.3050    -2.7690    -2.2720 C.3   1 <1>   0.2630 
 27 H       -0.6230     2.8900    -0.1700 H     1 <1>   0.0800 
 28 H       -1.2210     1.5690     0.8260 H     1 <1>   0.0800 
 29 H        2.2660     1.0100     1.6490 H     1 <1>   0.0800 
 30 H        2.8420     1.9670     0.2890 H     1 <1>   0.0800 
 31 H        2.2640     1.1910    -3.1790 H     1 <1>   0.1500 
 32 H       -0.3760     3.9080     1.9470 H     1 <1>   0.0800 
 33 H       -0.1350     2.3600     2.7300 H     1 <1>   0.0800 
 34 H        2.1210     3.1450     2.6340 H     1 <1>   0.0800 
 35 H        1.8490     3.9080     1.0810 H     1 <1>   0.0800 
 36 H        1.2620    -0.8980     0.8930 H     1 <1>   0.4000 
 37 H        4.2730    -0.0960    -3.8900 H     1 <1>   0.1500 
 38 H        5.0370    -1.9690    -2.5260 H     1 <1>   0.1500 
 39 H        1.8690    -3.5550    -0.1780 H     1 <1>   0.0800 
 40 H       -0.0240    -2.4490     1.8770 H     1 <1>   0.0800 
 41 H        3.0370    -2.7580     2.4020 H     1 <1>   0.0800 
 42 H        3.3390    -4.1900     1.4190 H     1 <1>   0.0800 
 43 H        0.5580    -5.3780     1.4970 H     1 <1>   0.0800 
 44 H       -0.2200    -4.5880     2.8780 H     1 <1>   0.0800 
 45 H       -0.9490    -1.3960    -0.2000 H     1 <1>   0.0800 
 46 H        0.1270    -2.2360    -1.2840 H     1 <1>   0.0800 
 47 H       -2.0900    -4.5970     1.3420 H     1 <1>   0.0800 
 48 H       -2.3610    -2.8800     1.4280 H     1 <1>   0.0800 
 49 H       -1.6620    -3.2120    -2.4980 H     1 <1>   0.0800 
 50 H       -1.9100    -1.4870    -2.4060 H     1 <1>   0.0800 
 51 H       -4.1630    -3.9560     0.1740 H     1 <1>   0.0800 
 52 H       -3.0090    -4.7140    -0.8900 H     1 <1>   0.0800 
 53 H       -3.4600    -1.8030    -0.6430 H     1 <1>   0.4500 
 54 H       -4.0980    -3.6240    -2.8950 H     1 <1>   0.0800 
 55 H       -4.3280    -1.8880    -2.8930 H     1 <1>   0.0800 
 56 H       -5.2750    -2.8970    -1.8200 H     1 <1>   0.0800 
@<TRIPOS>BOND
  1   1   2  2   
  2   2   3  am  
  3   2   4  1   
  4   3   5  1   
  5   3   6  1   
  6   4   7  ar  
  7   4   8  ar  
  8   5   9  1   
  9   5  27  1   
 10   5  28  1   
 11   6  10  1   
 12   6  29  1   
 13   6  30  1   
 14   7  11  ar  
 15   7  12  1   
 16   8  13  ar  
 17   8  31  1   
 18   9  10  1   
 19   9  32  1   
 20   9  33  1   
 21  10  34  1   
 22  10  35  1   
 23  11  14  ar  
 24  12  15  1   
 25  12  36  1   
 26  13  14  ar  
 27  13  37  1   
 28  14  38  1   
 29  15  16  1   
 30  15  17  1   
 31  15  39  1   
 32  16  18  1   
 33  16  19  1   
 34  16  40  1   
 35  17  20  1   
 36  17  41  1   
 37  17  42  1   
 38  18  21  1   
 39  18  22  1   
 40  19  20  1   
 41  19  43  1   
 42  19  44  1   
 43  21  23  1   
 44  21  45  1   
 45  21  46  1   
 46  22  24  1   
 47  22  47  1   
 48  22  48  1   
 49  23  25  1   
 50  23  49  1   
 51  23  50  1   
 52  24  25  1   
 53  24  51  1   
 54  24  52  1   
 55  25  26  1   
 56  25  53  1   
 57  26  54  1   
 58  26  55  1   
 59  26  56  1   
@<TRIPOS>SUBSTRUCTURE
  1 ****  12 GROUP 4 **** **** 0

# MOE 2024.06 (io_trps.svl 2023.06)
