@<TRIPOS>MOLECULE
NONAME
47 50 1 0 0 
SMALL
USER_CHARGES


@<TRIPOS>ATOM
  1 S       -0.4990     0.1910     0.1370 S.o2  1 <1>   1.2040 
  2 O       -1.6500     0.6310    -0.6180 O.2   1 <1>  -0.6500 
  3 O       -0.3100     0.6380     1.4990 O.2   1 <1>  -0.6500 
  4 C       -0.3970    -1.6160     0.0770 C.ar  1 <1>  -0.0090 
  5 C        0.9500     0.6750    -0.7810 C.3   1 <1>  -0.1350 
  6 C        0.3270    -2.3290     1.0250 C.ar  1 <1>  -0.1500 
  7 C       -1.0110    -2.3400    -0.9380 C.ar  1 <1>  -0.1500 
  8 C        0.4330    -3.7070     0.9610 C.ar  1 <1>  -0.1500 
  9 C       -0.9060    -3.7180    -1.0030 C.ar  1 <1>  -0.1500 
 10 C       -0.1850    -4.4360    -0.0510 C.ar  1 <1>   0.0860 
 11 C       -0.0660    -5.8820    -0.1070 C.2   1 <1>   0.5440 
 12 O        1.0410    -6.3840    -0.0570 O.2   1 <1>  -0.5700 
 13 N       -1.1700    -6.7030    -0.2060 N.am  1 <1>  -0.6600 
 14 C       -0.9960    -8.1640    -0.4730 C.3   1 <1>   0.1400 
 15 C       -2.5510    -6.2280     0.1090 C.3   1 <1>   0.1400 
 16 C       -2.2380    -8.7330    -1.1600 C.3   1 <1>  -0.1600 
 17 C       -3.3830    -7.3740     0.6820 C.3   1 <1>  -0.1600 
 18 C       -3.5270    -8.5100    -0.3460 C.3   1 <1>   0.4600 
 19 O       -4.5080    -8.1280    -1.2910 O.3   1 <1>  -0.5600 
 20 C       -3.9750    -9.8040     0.3260 C.2   1 <1>  -0.1400 
 21 C       -5.8670    -8.3400    -0.9790 C.3   1 <1>   0.1200 
 22 S       -2.9590   -10.6850     1.4570 S.3   1 <1>  -0.0800 
 23 C       -5.1460   -10.4300     0.1540 C.2   1 <1>  -0.1810 
 24 C       -6.1780    -9.8360    -0.7760 C.3   1 <1>   0.0210 
 25 C       -4.1950   -11.9210     1.6540 C.2   1 <1>  -0.1100 
 26 C       -5.2790   -11.6420     0.9040 C.2   1 <1>  -0.1500 
 27 H        1.0140     1.7450    -0.8250 H     1 <1>   0.0800 
 28 H        0.9020     0.2950    -1.7830 H     1 <1>   0.0800 
 29 H        1.8360     0.2990    -0.3080 H     1 <1>   0.0800 
 30 H        0.8150    -1.7980     1.8270 H     1 <1>   0.1500 
 31 H       -1.5820    -1.8170    -1.6890 H     1 <1>   0.1500 
 32 H        1.0060    -4.2380     1.7030 H     1 <1>   0.1500 
 33 H       -1.3850    -4.2540    -1.8050 H     1 <1>   0.1500 
 34 H       -0.8200    -8.6730     0.4590 H     1 <1>   0.0800 
 35 H       -0.1350    -8.3170    -1.1030 H     1 <1>   0.0800 
 36 H       -3.0150    -5.8620    -0.7920 H     1 <1>   0.0800 
 37 H       -2.5080    -5.4260     0.8260 H     1 <1>   0.0800 
 38 H       -2.0930    -9.7840    -1.3320 H     1 <1>   0.0800 
 39 H       -2.3250    -8.2600    -2.1220 H     1 <1>   0.0800 
 40 H       -4.3460    -7.0160     0.9880 H     1 <1>   0.0800 
 41 H       -2.8880    -7.7390     1.5630 H     1 <1>   0.0800 
 42 H       -6.4530    -7.9480    -1.7910 H     1 <1>   0.0800 
 43 H       -6.1040    -7.7890    -0.0870 H     1 <1>   0.0800 
 44 H       -6.1530   -10.3470    -1.7220 H     1 <1>   0.0800 
 45 H       -7.1610    -9.9420    -0.3560 H     1 <1>   0.0800 
 46 H       -3.9760   -12.7360     2.3190 H     1 <1>   0.1500 
 47 H       -6.1720   -12.2400     0.8450 H     1 <1>   0.1500 
@<TRIPOS>BOND
  1   1   2  2   
  2   1   3  2   
  3   1   4  1   
  4   1   5  1   
  5   4   6  ar  
  6   4   7  ar  
  7   5  27  1   
  8   5  28  1   
  9   5  29  1   
 10   6   8  ar  
 11   6  30  1   
 12   7   9  ar  
 13   7  31  1   
 14   8  10  ar  
 15   8  32  1   
 16   9  10  ar  
 17   9  33  1   
 18  10  11  1   
 19  11  12  2   
 20  11  13  am  
 21  13  14  1   
 22  13  15  1   
 23  14  16  1   
 24  14  34  1   
 25  14  35  1   
 26  15  17  1   
 27  15  36  1   
 28  15  37  1   
 29  16  18  1   
 30  16  38  1   
 31  16  39  1   
 32  17  18  1   
 33  17  40  1   
 34  17  41  1   
 35  18  19  1   
 36  18  20  1   
 37  19  21  1   
 38  20  22  1   
 39  20  23  2   
 40  21  24  1   
 41  21  42  1   
 42  21  43  1   
 43  22  25  1   
 44  23  24  1   
 45  23  26  1   
 46  24  44  1   
 47  24  45  1   
 48  25  26  2   
 49  25  46  1   
 50  26  47  1   
@<TRIPOS>SUBSTRUCTURE
  1 ****  15 GROUP 4 **** **** 0

# MOE 2024.06 (io_trps.svl 2023.06)
