@<TRIPOS>MOLECULE
NONAME
56 59 1 0 0 
SMALL
USER_CHARGES


@<TRIPOS>ATOM
  1 O       -0.7920    -0.5680    -0.2420 O.3   1 <1>  -0.5600 
  2 C        0.2060    -1.2210    -0.9660 C.3   1 <1>   0.1200 
  3 C       -1.8620    -1.3900     0.1270 C.3   1 <1>   0.1200 
  4 C        0.8170    -2.3660    -0.1340 C.3   1 <1>   0.2090 
  5 C       -1.3720    -2.5430     1.0190 C.3   1 <1>   0.2090 
  6 N       -0.2500    -3.3080     0.3560 N.pl3 1 <1>  -0.8380 
  7 C       -0.2920    -4.6610     0.2160 C.ar  1 <1>   0.7710 
  8 N       -1.4100    -5.3090     0.5020 N.ar  1 <1>  -0.6200 
  9 N        0.8060    -5.3110    -0.2040 N.ar  1 <1>  -0.1790 
 10 C       -1.4400    -6.6220     0.3720 C.ar  1 <1>   0.4100 
 11 C        0.8260    -6.6530    -0.3770 C.ar  1 <1>   0.2180 
 12 N       -2.5950    -7.2580     0.7000 N.pl3 1 <1>  -0.8380 
 13 C       -0.3130    -7.3280    -0.0920 C.ar  1 <1>  -0.1500 
 14 C        2.1030    -7.3180    -0.8770 C.3   1 <1>  -0.0170 
 15 C       -2.7160    -8.6710     1.1880 C.3   1 <1>   0.2090 
 16 C       -3.9230    -6.5580     0.7520 C.3   1 <1>   0.2090 
 17 C        3.2700    -7.1440     0.1040 C.3   1 <1>  -0.2400 
 18 C       -3.8120    -9.4320     0.4180 C.3   1 <1>   0.1100 
 19 C       -5.0030    -7.3630     0.0040 C.3   1 <1>   0.1100 
 20 N       -5.1270    -8.7510     0.5070 N.3   1 <1>  -0.8100 
 21 C       -6.1710    -9.4740    -0.2390 C.3   1 <1>   0.1100 
 22 C       -6.6510   -10.6960     0.5450 C.3   1 <1>   0.0960 
 23 N       -7.7700   -11.3320    -0.1660 N.pl3 1 <1>   0.3140 
 24 N       -7.6170   -11.9740    -1.3160 N.2   1 <1>  -0.7070 
 25 C       -9.0590   -11.3770     0.1800 C.2   1 <1>   0.0360 
 26 C       -8.8230   -12.3600    -1.5800 C.2   1 <1>   0.3660 
 27 N       -9.7590   -12.0160    -0.6870 N.2   1 <1>  -0.5650 
 28 H        0.9600    -0.4930    -1.2090 H     1 <1>   0.0800 
 29 H       -0.2210    -1.5940    -1.8800 H     1 <1>   0.0800 
 30 H       -2.3330    -1.7700    -0.7630 H     1 <1>   0.0800 
 31 H       -2.5720    -0.7840     0.6620 H     1 <1>   0.0800 
 32 H        1.3290    -1.9360     0.7120 H     1 <1>   0.0800 
 33 H        1.5440    -2.8710    -0.7420 H     1 <1>   0.0800 
 34 H       -2.2120    -3.1740     1.2520 H     1 <1>   0.0800 
 35 H       -1.0180    -2.1310     1.9490 H     1 <1>   0.0800 
 36 H        1.6270    -4.7430    -0.3530 H     1 <1>   0.4570 
 37 H       -0.3790    -8.3890    -0.2250 H     1 <1>   0.1500 
 38 H        2.3710    -6.9120    -1.8370 H     1 <1>   0.0800 
 39 H        1.9250    -8.3710    -1.0160 H     1 <1>   0.0800 
 40 H       -2.9810    -8.6550     2.2320 H     1 <1>   0.0800 
 41 H       -1.7860    -9.1990     1.1040 H     1 <1>   0.0800 
 42 H       -3.8590    -5.5810     0.3080 H     1 <1>   0.0800 
 43 H       -4.2200    -6.4370     1.7790 H     1 <1>   0.0800 
 44 H        3.5430    -6.1100     0.2180 H     1 <1>   0.0800 
 45 H        4.1330    -7.6770    -0.2600 H     1 <1>   0.0800 
 46 H        3.0140    -7.5460     1.0690 H     1 <1>   0.0800 
 47 H       -3.8890   -10.4210     0.8310 H     1 <1>   0.0800 
 48 H       -3.5150    -9.5220    -0.6130 H     1 <1>   0.0800 
 49 H       -4.7590    -7.3750    -1.0450 H     1 <1>   0.0800 
 50 H       -5.9450    -6.8570     0.1210 H     1 <1>   0.0800 
 51 H       -5.7990    -9.7730    -1.2060 H     1 <1>   0.0800 
 52 H       -7.0150    -8.8200    -0.3880 H     1 <1>   0.0800 
 53 H       -6.9820   -10.3970     1.5220 H     1 <1>   0.0800 
 54 H       -5.8640   -11.4190     0.6370 H     1 <1>   0.0800 
 55 H       -9.4440   -10.9270     1.0770 H     1 <1>   0.1500 
 56 H       -9.0840   -12.9250    -2.4610 H     1 <1>   0.1500 
@<TRIPOS>BOND
  1   1   2  1   
  2   1   3  1   
  3   2   4  1   
  4   2  28  1   
  5   2  29  1   
  6   3   5  1   
  7   3  30  1   
  8   3  31  1   
  9   4   6  1   
 10   4  32  1   
 11   4  33  1   
 12   5   6  1   
 13   5  34  1   
 14   5  35  1   
 15   6   7  1   
 16   7   8  ar  
 17   7   9  ar  
 18   8  10  ar  
 19   9  11  ar  
 20   9  36  1   
 21  10  12  1   
 22  10  13  ar  
 23  11  13  ar  
 24  11  14  1   
 25  12  15  1   
 26  12  16  1   
 27  13  37  1   
 28  14  17  1   
 29  14  38  1   
 30  14  39  1   
 31  15  18  1   
 32  15  40  1   
 33  15  41  1   
 34  16  19  1   
 35  16  42  1   
 36  16  43  1   
 37  17  44  1   
 38  17  45  1   
 39  17  46  1   
 40  18  20  1   
 41  18  47  1   
 42  18  48  1   
 43  19  20  1   
 44  19  49  1   
 45  19  50  1   
 46  20  21  1   
 47  21  22  1   
 48  21  51  1   
 49  21  52  1   
 50  22  23  1   
 51  22  53  1   
 52  22  54  1   
 53  23  24  1   
 54  23  25  1   
 55  24  26  2   
 56  25  27  2   
 57  25  55  1   
 58  26  27  1   
 59  26  56  1   
@<TRIPOS>SUBSTRUCTURE
  1 ****  12 GROUP 4 **** **** 0

# MOE 2024.06 (io_trps.svl 2023.06)
