@<TRIPOS>MOLECULE
NONAME
53 55 1 0 0 
SMALL
USER_CHARGES


@<TRIPOS>ATOM
  1 O        0.8400    -1.4200    -2.9500 O.2   1 <1>  -0.5700 
  2 C        1.5900    -1.8470    -2.1050 C.2   1 <1>   0.5690 
  3 N        1.8850    -1.1030    -0.9790 N.am  1 <1>  -0.6600 
  4 C        2.2120    -3.2250    -2.3870 C.3   1 <1>   0.1810 
  5 C        2.6900    -1.6170     0.1710 C.3   1 <1>   0.1400 
  6 C        1.1630     0.1770    -0.7250 C.3   1 <1>   0.1400 
  7 O        1.9370    -4.2140    -1.4230 O.3   1 <1>  -0.5600 
  8 C        4.1510    -1.1470     0.0790 C.3   1 <1>   0.3430 
  9 C        2.0880     1.2700    -0.1810 C.3   1 <1>  -0.1600 
 10 C        0.5820    -4.5200    -1.2430 C.3   1 <1>   0.2640 
 11 N        4.3490     0.3380     0.2430 N.4   1 <1>  -0.9590 
 12 C        3.5250     1.1670    -0.6940 C.3   1 <1>   0.3430 
 13 C        0.0690    -3.7910    -0.0100 C.ar  1 <1>  -0.1440 
 14 C        5.8040     0.6510     0.1180 C.3   1 <1>   0.3430 
 15 C       -0.8740    -2.7800    -0.1260 C.ar  1 <1>  -0.1500 
 16 C        0.5420    -4.1360     1.2470 C.ar  1 <1>  -0.1500 
 17 C        6.1600     2.0110     0.7360 C.3   1 <1>  -0.0800 
 18 C       -1.3340    -2.1200     1.0010 C.ar  1 <1>  -0.1500 
 19 C        0.0840    -3.4760     2.3750 C.ar  1 <1>  -0.1500 
 20 C        7.6700     2.1640     0.6580 C.3   1 <1>   0.1200 
 21 C        5.9510     2.0460     2.2530 C.3   1 <1>  -0.1600 
 22 C       -0.8540    -2.4670     2.2520 C.ar  1 <1>  -0.1500 
 23 O        8.1110     1.3790     1.7080 O.3   1 <1>  -0.5600 
 24 C        7.3010     1.5970     2.8180 C.3   1 <1>   0.1200 
 25 H        3.2780    -3.1220    -2.4460 H     1 <1>   0.0800 
 26 H        1.8620    -3.5840    -3.3390 H     1 <1>   0.0800 
 27 H        2.6820    -2.6880     0.1850 H     1 <1>   0.0800 
 28 H        2.2480    -1.3000     1.1000 H     1 <1>   0.0800 
 29 H        0.3560    -0.0020    -0.0330 H     1 <1>   0.0800 
 30 H        0.7220     0.5320    -1.6420 H     1 <1>   0.0800 
 31 H        4.5420    -1.4600    -0.8750 H     1 <1>   0.0800 
 32 H        4.7140    -1.6600     0.8420 H     1 <1>   0.0800 
 33 H        2.0630     1.2780     0.8930 H     1 <1>   0.0800 
 34 H        1.6810     2.2130    -0.5030 H     1 <1>   0.0800 
 35 H        0.5070    -5.5820    -1.0900 H     1 <1>   0.0800 
 36 H        0.0210    -4.2600    -2.1250 H     1 <1>   0.0800 
 37 H        4.0660     0.5860     1.1980 H     1 <1>   0.4500 
 38 H        3.9340     2.1620    -0.7450 H     1 <1>   0.0800 
 39 H        3.5380     0.7480    -1.6880 H     1 <1>   0.0800 
 40 H        6.0930     0.6360    -0.9210 H     1 <1>   0.0800 
 41 H        6.3810    -0.1040     0.6290 H     1 <1>   0.0800 
 42 H       -1.2530    -2.4990    -1.0940 H     1 <1>   0.1500 
 43 H        1.2680    -4.9240     1.3460 H     1 <1>   0.1500 
 44 H        5.6740     2.8220     0.2250 H     1 <1>   0.0800 
 45 H       -2.0700    -1.3410     0.9030 H     1 <1>   0.1500 
 46 H        0.4510    -3.7540     3.3480 H     1 <1>   0.1500 
 47 H        7.9810     3.1800     0.8430 H     1 <1>   0.0800 
 48 H        8.1010     1.8080    -0.2620 H     1 <1>   0.0800 
 49 H        5.1550     1.4180     2.6070 H     1 <1>   0.0800 
 50 H        5.7600     3.0540     2.5820 H     1 <1>   0.0800 
 51 H       -1.2170    -1.9580     3.1280 H     1 <1>   0.1500 
 52 H        7.2330     0.6790     3.3770 H     1 <1>   0.0800 
 53 H        7.7540     2.3650     3.4240 H     1 <1>   0.0800 
@<TRIPOS>BOND
  1   1   2  2   
  2   2   3  am  
  3   2   4  1   
  4   3   5  1   
  5   3   6  1   
  6   4   7  1   
  7   4  25  1   
  8   4  26  1   
  9   5   8  1   
 10   5  27  1   
 11   5  28  1   
 12   6   9  1   
 13   6  29  1   
 14   6  30  1   
 15   7  10  1   
 16   8  11  1   
 17   8  31  1   
 18   8  32  1   
 19   9  12  1   
 20   9  33  1   
 21   9  34  1   
 22  10  13  1   
 23  10  35  1   
 24  10  36  1   
 25  11  12  1   
 26  11  14  1   
 27  11  37  1   
 28  12  38  1   
 29  12  39  1   
 30  13  15  ar  
 31  13  16  ar  
 32  14  17  1   
 33  14  40  1   
 34  14  41  1   
 35  15  18  ar  
 36  15  42  1   
 37  16  19  ar  
 38  16  43  1   
 39  17  20  1   
 40  17  21  1   
 41  17  44  1   
 42  18  22  ar  
 43  18  45  1   
 44  19  22  ar  
 45  19  46  1   
 46  20  23  1   
 47  20  47  1   
 48  20  48  1   
 49  21  24  1   
 50  21  49  1   
 51  21  50  1   
 52  22  51  1   
 53  23  24  1   
 54  24  52  1   
 55  24  53  1   
@<TRIPOS>SUBSTRUCTURE
  1 ****   5 GROUP 4 **** **** 0

# MOE 2024.06 (io_trps.svl 2023.06)
