@<TRIPOS>MOLECULE
NONAME
53 56 1 0 0 
SMALL
USER_CHARGES


@<TRIPOS>ATOM
  1 O       -0.8750    -0.3250    -0.7090 O.2   1 <1>  -0.5700 
  2 C       -1.8440     0.0670    -0.0990 C.2   1 <1>   0.5690 
  3 N       -2.4230     1.2860    -0.2340 N.am  1 <1>  -0.6600 
  4 C       -2.6040    -0.7850     0.9090 C.3   1 <1>   0.2810 
  5 C       -3.6400     1.4220     0.5850 C.3   1 <1>   0.1400 
  6 C       -1.9630     2.3830    -1.1180 C.3   1 <1>   0.0600 
  7 N       -2.8720    -2.1690     0.4280 N.am  1 <1>  -0.7300 
  8 C       -3.9100     0.0010     1.1030 C.3   1 <1>  -0.1600 
  9 C       -3.3490    -3.1730     1.2160 C.2   1 <1>   0.5440 
 10 O       -3.6920    -2.9040     2.3490 O.2   1 <1>  -0.5700 
 11 C       -3.4420    -4.5370     0.7200 C.ar  1 <1>   0.0860 
 12 C       -3.5900    -4.8280    -0.6370 C.ar  1 <1>  -0.1500 
 13 C       -3.3930    -5.6190     1.5980 C.ar  1 <1>  -0.1500 
 14 C       -3.6890    -6.1300    -1.0920 C.ar  1 <1>  -0.1500 
 15 C       -3.4890    -6.9240     1.1540 C.ar  1 <1>  -0.1500 
 16 C       -3.6470    -7.1900    -0.1980 C.ar  1 <1>  -0.1440 
 17 C       -3.7830    -8.6190    -0.6900 C.3   1 <1>   0.4860 
 18 N       -5.1070    -9.1410    -0.2630 N.4   1 <1>  -0.9590 
 19 C       -5.2540   -10.5940    -0.5420 C.3   1 <1>   0.4860 
 20 C       -6.2530    -8.3820    -0.8480 C.3   1 <1>   0.3430 
 21 C       -6.5930   -11.0910    -0.0240 C.ar  1 <1>  -0.1440 
 22 C       -7.5450    -8.7360    -0.1080 C.3   1 <1>  -0.0170 
 23 C       -7.6680   -10.2280     0.1680 C.ar  1 <1>  -0.1440 
 24 C       -6.7430   -12.4420     0.2540 C.ar  1 <1>  -0.1500 
 25 C       -8.8750   -10.7260     0.6320 C.ar  1 <1>  -0.1500 
 26 C       -7.9500   -12.9320     0.7170 C.ar  1 <1>  -0.1500 
 27 C       -9.0170   -12.0740     0.9050 C.ar  1 <1>  -0.1500 
 28 H       -2.0420    -0.8160     1.8260 H     1 <1>   0.0800 
 29 H       -4.4620     1.7840    -0.0090 H     1 <1>   0.0800 
 30 H       -3.4490     2.1000     1.4000 H     1 <1>   0.0800 
 31 H       -1.0620     2.0890    -1.6300 H     1 <1>   0.0800 
 32 H       -1.7590     3.2620    -0.5320 H     1 <1>   0.0800 
 33 H       -2.7210     2.6060    -1.8480 H     1 <1>   0.0800 
 34 H       -2.3420    -2.3930    -0.4180 H     1 <1>   0.3700 
 35 H       -4.2100     0.0100     2.1350 H     1 <1>   0.0800 
 36 H       -4.6970    -0.4370     0.5150 H     1 <1>   0.0800 
 37 H       -3.6350    -4.0190    -1.3460 H     1 <1>   0.1500 
 38 H       -3.2750    -5.4200     2.6520 H     1 <1>   0.1500 
 39 H       -3.7990    -6.3030    -2.1500 H     1 <1>   0.1500 
 40 H       -3.4370    -7.7200     1.8780 H     1 <1>   0.1500 
 41 H       -2.9920    -9.2160    -0.2650 H     1 <1>   0.0800 
 42 H       -3.6970    -8.6490    -1.7640 H     1 <1>   0.0800 
 43 H       -5.1760    -9.0300     0.7560 H     1 <1>   0.4500 
 44 H       -4.4630   -11.1450    -0.0600 H     1 <1>   0.0800 
 45 H       -5.1990   -10.7760    -1.6030 H     1 <1>   0.0800 
 46 H       -6.3590    -8.6330    -1.8910 H     1 <1>   0.0800 
 47 H       -6.0850    -7.3190    -0.7690 H     1 <1>   0.0800 
 48 H       -8.3840    -8.4030    -0.6930 H     1 <1>   0.0800 
 49 H       -7.5720    -8.2040     0.8270 H     1 <1>   0.0800 
 50 H       -5.9280   -13.1330     0.1130 H     1 <1>   0.1500 
 51 H       -9.7160   -10.0710     0.7870 H     1 <1>   0.1500 
 52 H       -8.0640   -13.9820     0.9310 H     1 <1>   0.1500 
 53 H       -9.9580   -12.4560     1.2660 H     1 <1>   0.1500 
@<TRIPOS>BOND
  1   1   2  2   
  2   2   3  am  
  3   2   4  1   
  4   3   5  1   
  5   3   6  1   
  6   4   7  1   
  7   4   8  1   
  8   4  28  1   
  9   5   8  1   
 10   5  29  1   
 11   5  30  1   
 12   6  31  1   
 13   6  32  1   
 14   6  33  1   
 15   7   9  am  
 16   7  34  1   
 17   8  35  1   
 18   8  36  1   
 19   9  10  2   
 20   9  11  1   
 21  11  12  ar  
 22  11  13  ar  
 23  12  14  ar  
 24  12  37  1   
 25  13  15  ar  
 26  13  38  1   
 27  14  16  ar  
 28  14  39  1   
 29  15  16  ar  
 30  15  40  1   
 31  16  17  1   
 32  17  18  1   
 33  17  41  1   
 34  17  42  1   
 35  18  19  1   
 36  18  20  1   
 37  18  43  1   
 38  19  21  1   
 39  19  44  1   
 40  19  45  1   
 41  20  22  1   
 42  20  46  1   
 43  20  47  1   
 44  21  23  ar  
 45  21  24  ar  
 46  22  23  1   
 47  22  48  1   
 48  22  49  1   
 49  23  25  ar  
 50  24  26  ar  
 51  24  50  1   
 52  25  27  ar  
 53  25  51  1   
 54  26  27  ar  
 55  26  52  1   
 56  27  53  1   
@<TRIPOS>SUBSTRUCTURE
  1 ****  12 GROUP 4 **** **** 0

# MOE 2024.06 (io_trps.svl 2023.06)
