@<TRIPOS>MOLECULE
NONAME
54 57 1 0 0 
SMALL
USER_CHARGES


@<TRIPOS>ATOM
  1 F       -2.6560     2.7790     1.7980 F     1 <1>  -0.1900 
  2 C       -1.6270     2.9520     1.0130 C.ar  1 <1>   0.1900 
  3 C       -1.7010     2.5620    -0.3150 C.ar  1 <1>   0.0860 
  4 C       -0.4850     3.5300     1.5370 C.ar  1 <1>   0.1600 
  5 C       -2.8660     1.9500    -0.9070 C.2   1 <1>   0.5440 
  6 C       -0.5370     2.7900    -1.0370 C.ar  1 <1>  -0.1500 
  7 N        0.6160     3.7580     0.8350 N.ar  1 <1>  -0.6200 
  8 O       -2.7850     0.7950    -1.2780 O.2   1 <1>  -0.5700 
  9 N       -4.0550     2.6260    -1.0950 N.am  1 <1>  -0.6600 
 10 C        0.5630     3.3760    -0.4350 C.ar  1 <1>   0.1600 
 11 C       -4.2540     4.0740    -0.7830 C.3   1 <1>   0.1400 
 12 C       -5.2530     1.8780    -1.5850 C.3   1 <1>   0.1400 
 13 C       -5.5590     4.2150    -0.0010 C.3   1 <1>  -0.1600 
 14 C       -6.3800     2.8310    -1.9870 C.3   1 <1>  -0.1600 
 15 C       -6.7890     3.7880    -0.8440 C.3   1 <1>   0.2800 
 16 O       -7.2720     4.9180    -1.5200 O.3   1 <1>  -0.5600 
 17 C       -7.9050     3.1380     0.0260 C.3   1 <1>  -0.1600 
 18 C       -7.9720     5.9390    -0.8400 C.3   1 <1>   0.1200 
 19 C       -9.2370     3.9030     0.0120 C.3   1 <1>   0.3000 
 20 C       -8.9220     5.4050     0.2480 C.3   1 <1>   0.2000 
 21 N       -9.8280     3.7010    -1.3290 N.am  1 <1>  -0.7300 
 22 C      -10.1880     3.3300     1.0740 C.3   1 <1>  -0.2400 
 23 O       -8.3150     5.5950     1.4930 O.3   1 <1>  -0.6800 
 24 C      -11.0440     4.1950    -1.6690 C.2   1 <1>   0.7160 
 25 O      -11.0820     5.3480    -2.0450 O.2   1 <1>  -0.5700 
 26 C      -12.2320     3.3860    -1.5790 C.2   1 <1>  -0.0860 
 27 C      -12.2770     2.0070    -1.3560 C.2   1 <1>   0.1390 
 28 C      -13.5470     3.7240    -1.6840 C.2   1 <1>  -0.3020 
 29 N      -13.4830     1.5360    -1.3180 N.2   1 <1>  -0.7070 
 30 N      -14.2710     2.6070    -1.5240 N.pl3 1 <1>   0.3000 
 31 H       -0.4810     3.8150     2.5750 H     1 <1>   0.1500 
 32 H       -0.4950     2.5010    -2.0720 H     1 <1>   0.1500 
 33 H        1.4500     3.5390    -1.0250 H     1 <1>   0.1500 
 34 H       -3.4410     4.4640    -0.2000 H     1 <1>   0.0800 
 35 H       -4.3080     4.6370    -1.7000 H     1 <1>   0.0800 
 36 H       -4.9730     1.2770    -2.4340 H     1 <1>   0.0800 
 37 H       -5.5900     1.2160    -0.8060 H     1 <1>   0.0800 
 38 H       -5.6580     5.2260     0.3440 H     1 <1>   0.0800 
 39 H       -5.4600     3.5900     0.8670 H     1 <1>   0.0800 
 40 H       -7.2250     2.2610    -2.3270 H     1 <1>   0.0800 
 41 H       -6.0310     3.4000    -2.8310 H     1 <1>   0.0800 
 42 H       -8.0820     2.1200    -0.2700 H     1 <1>   0.0800 
 43 H       -7.5670     3.0690     1.0430 H     1 <1>   0.0800 
 44 H       -7.2660     6.6420    -0.4340 H     1 <1>   0.0800 
 45 H       -8.5560     6.4500    -1.5860 H     1 <1>   0.0800 
 46 H       -9.8300     5.9840     0.2600 H     1 <1>   0.0800 
 47 H       -9.1130     4.0190    -1.9940 H     1 <1>   0.3700 
 48 H       -9.7470     3.4050     2.0520 H     1 <1>   0.0800 
 49 H      -10.3940     2.2920     0.8810 H     1 <1>   0.0800 
 50 H      -11.1120     3.8790     1.0950 H     1 <1>   0.0800 
 51 H       -7.4540     5.1380     1.5200 H     1 <1>   0.4000 
 52 H      -11.3990     1.3940    -1.2310 H     1 <1>   0.1500 
 53 H      -13.9740     4.6940    -1.8620 H     1 <1>   0.1500 
 54 H      -15.2960     2.5330    -1.5510 H     1 <1>   0.2700 
@<TRIPOS>BOND
  1   1   2  1   
  2   2   3  ar  
  3   2   4  ar  
  4   3   5  1   
  5   3   6  ar  
  6   4   7  ar  
  7   4  31  1   
  8   5   8  2   
  9   5   9  am  
 10   6  10  ar  
 11   6  32  1   
 12   7  10  ar  
 13   9  11  1   
 14   9  12  1   
 15  10  33  1   
 16  11  13  1   
 17  11  34  1   
 18  11  35  1   
 19  12  14  1   
 20  12  36  1   
 21  12  37  1   
 22  13  15  1   
 23  13  38  1   
 24  13  39  1   
 25  14  15  1   
 26  14  40  1   
 27  14  41  1   
 28  15  16  1   
 29  15  17  1   
 30  16  18  1   
 31  17  19  1   
 32  17  42  1   
 33  17  43  1   
 34  18  20  1   
 35  18  44  1   
 36  18  45  1   
 37  19  20  1   
 38  19  21  1   
 39  19  22  1   
 40  20  23  1   
 41  20  46  1   
 42  21  24  am  
 43  21  47  1   
 44  22  48  1   
 45  22  49  1   
 46  22  50  1   
 47  23  51  1   
 48  24  25  2   
 49  24  26  1   
 50  26  27  1   
 51  26  28  2   
 52  27  29  2   
 53  27  52  1   
 54  28  30  1   
 55  28  53  1   
 56  29  30  1   
 57  30  54  1   
@<TRIPOS>SUBSTRUCTURE
  1 ****  15 GROUP 4 **** **** 0

# MOE 2024.06 (io_trps.svl 2023.06)
