@<TRIPOS>MOLECULE
NONAME
54 57 1 0 0 
SMALL
USER_CHARGES


@<TRIPOS>ATOM
  1 O       -1.9400     0.1830    -2.1160 O.2   1 <1>  -0.5700 
  2 C       -1.7590     0.3550    -0.9220 C.2   1 <1>   0.7160 
  3 N       -1.7780    -0.7350    -0.1020 N.am  1 <1>  -0.7300 
  4 C       -1.5450     1.6750    -0.3510 C.2   1 <1>   0.2030 
  5 C       -1.9350    -2.1500    -0.5090 C.3   1 <1>   0.2200 
  6 N       -1.3790     1.9370     0.9350 N.2   1 <1>  -0.7070 
  7 C       -1.4860     2.8610    -1.0950 C.2   1 <1>  -0.1500 
  8 C       -3.3300    -2.6720    -0.1930 C.3   1 <1>  -0.0800 
  9 C       -1.0910    -3.0280     0.4060 C.3   1 <1>   0.1200 
 10 N       -1.2160     3.2660     1.0070 N.pl3 1 <1>   0.3000 
 11 C       -1.2800     3.8510    -0.2060 C.2   1 <1>  -0.3320 
 12 C       -3.2150    -3.0300     1.2930 C.3   1 <1>   0.1200 
 13 C       -4.4860    -1.7060    -0.5300 C.3   1 <1>  -0.0160 
 14 O       -1.8560    -3.2200     1.5590 O.3   1 <1>  -0.5600 
 15 C       -1.1240     5.3450    -0.4480 C.3   1 <1>   0.0200 
 16 C       -5.9100    -2.2500    -0.3580 C.ar  1 <1>  -0.1430 
 17 C       -2.4310     6.1280    -0.2210 C.3   1 <1>  -0.0800 
 18 C       -7.0140    -1.3700    -0.4860 C.ar  1 <1>   0.0000 
 19 C       -6.1940    -3.5610    -0.0920 C.ar  1 <1>  -0.1500 
 20 C       -2.2410     7.5960    -0.6250 C.3   1 <1>  -0.2400 
 21 C       -2.9210     6.0600     1.2330 C.3   1 <1>  -0.2400 
 22 C       -8.3150    -1.9020    -0.3050 C.ar  1 <1>   0.3100 
 23 C       -6.9040     0.0080    -0.7910 C.ar  1 <1>  -0.1500 
 24 C       -7.5190    -3.9850     0.0630 C.ar  1 <1>   0.1600 
 25 N       -8.5500    -3.2080    -0.0300 N.ar  1 <1>  -0.6200 
 26 C       -9.4230    -1.0480    -0.4180 C.ar  1 <1>  -0.1500 
 27 C       -8.0060     0.8130    -0.8960 C.ar  1 <1>  -0.1500 
 28 C       -9.2830     0.2820    -0.7060 C.ar  1 <1>  -0.1500 
 29 H       -1.6450    -0.5580     0.8980 H     1 <1>   0.3700 
 30 H       -1.6710    -2.2750    -1.5460 H     1 <1>   0.0800 
 31 H       -1.5900     2.9190    -2.1640 H     1 <1>   0.1500 
 32 H       -3.4610    -3.5800    -0.7530 H     1 <1>   0.0800 
 33 H       -0.1490    -2.5770     0.6650 H     1 <1>   0.0800 
 34 H       -0.9260    -3.9920    -0.0400 H     1 <1>   0.0800 
 35 H       -1.0660     3.7570     1.8970 H     1 <1>   0.2700 
 36 H       -3.7470    -3.9300     1.5430 H     1 <1>   0.0800 
 37 H       -3.5570    -2.2220     1.9170 H     1 <1>   0.0800 
 38 H       -4.3720    -1.3870    -1.5520 H     1 <1>   0.0800 
 39 H       -4.3880    -0.8360     0.0940 H     1 <1>   0.0800 
 40 H       -0.3420     5.7360     0.1800 H     1 <1>   0.0800 
 41 H       -0.8130     5.4850    -1.4690 H     1 <1>   0.0800 
 42 H       -3.1910     5.7020    -0.8550 H     1 <1>   0.0800 
 43 H       -5.4360    -4.3130     0.0070 H     1 <1>   0.1500 
 44 H       -1.4910     8.0660    -0.0120 H     1 <1>   0.0800 
 45 H       -3.1640     8.1370    -0.5120 H     1 <1>   0.0800 
 46 H       -1.9370     7.6660    -1.6550 H     1 <1>   0.0800 
 47 H       -2.1590     6.4030     1.9100 H     1 <1>   0.0800 
 48 H       -3.1990     5.0550     1.4940 H     1 <1>   0.0800 
 49 H       -3.7920     6.6780     1.3590 H     1 <1>   0.0800 
 50 H       -5.9340     0.4420    -0.9490 H     1 <1>   0.1500 
 51 H       -7.6910    -5.0260     0.2750 H     1 <1>   0.1500 
 52 H      -10.3960    -1.4800    -0.2700 H     1 <1>   0.1500 
 53 H       -7.9030     1.8600    -1.1270 H     1 <1>   0.1500 
 54 H      -10.1420     0.9250    -0.7900 H     1 <1>   0.1500 
@<TRIPOS>BOND
  1   1   2  2   
  2   2   3  am  
  3   2   4  1   
  4   3   5  1   
  5   3  29  1   
  6   4   6  2   
  7   4   7  1   
  8   5   8  1   
  9   5   9  1   
 10   5  30  1   
 11   6  10  1   
 12   7  11  2   
 13   7  31  1   
 14   8  12  1   
 15   8  13  1   
 16   8  32  1   
 17   9  14  1   
 18   9  33  1   
 19   9  34  1   
 20  10  11  1   
 21  10  35  1   
 22  11  15  1   
 23  12  14  1   
 24  12  36  1   
 25  12  37  1   
 26  13  16  1   
 27  13  38  1   
 28  13  39  1   
 29  15  17  1   
 30  15  40  1   
 31  15  41  1   
 32  16  18  ar  
 33  16  19  ar  
 34  17  20  1   
 35  17  21  1   
 36  17  42  1   
 37  18  22  ar  
 38  18  23  ar  
 39  19  24  ar  
 40  19  43  1   
 41  20  44  1   
 42  20  45  1   
 43  20  46  1   
 44  21  47  1   
 45  21  48  1   
 46  21  49  1   
 47  22  25  ar  
 48  22  26  ar  
 49  23  27  ar  
 50  23  50  1   
 51  24  25  ar  
 52  24  51  1   
 53  26  28  ar  
 54  26  52  1   
 55  27  28  ar  
 56  27  53  1   
 57  28  54  1   
@<TRIPOS>SUBSTRUCTURE
  1 ****  13 GROUP 4 **** **** 0

# MOE 2024.06 (io_trps.svl 2023.06)
