@<TRIPOS>MOLECULE
NONAME
53 55 1 0 0 
SMALL
USER_CHARGES


@<TRIPOS>ATOM
  1 O       -0.3550     0.8380     0.5760 O.2   1 <1>  -0.5700 
  2 C       -0.3320     1.9880     0.2170 C.2   1 <1>   0.5690 
  3 N       -1.1070     2.9140     0.8240 N.am  1 <1>  -0.7300 
  4 C        0.5630     2.4110    -0.9530 C.3   1 <1>   0.1810 
  5 C       -1.1160     4.3470     0.4480 C.3   1 <1>   0.3640 
  6 O        0.7960     3.8030    -0.9900 O.3   1 <1>  -0.5600 
  7 C       -2.5550     4.8470     0.3980 C.ar  1 <1>  -0.1440 
  8 C       -0.3840     4.5900    -0.8930 C.3   1 <1>   0.2610 
  9 C       -2.8760     6.0630     0.9810 C.ar  1 <1>  -0.1500 
 10 C       -3.5570     4.1210    -0.2290 C.ar  1 <1>  -0.1500 
 11 C       -0.1060     6.0870    -1.0790 C.2   1 <1>   0.5690 
 12 C       -4.1680     6.5590     0.9480 C.ar  1 <1>   0.0830 
 13 C       -4.8560     4.5980    -0.2620 C.ar  1 <1>  -0.1500 
 14 O       -0.7110     6.6400    -1.9690 O.2   1 <1>  -0.5700 
 15 N        0.7620     6.7960    -0.2730 N.am  1 <1>  -0.6600 
 16 O       -4.3430     7.7680     1.5460 O.3   1 <1>  -0.3620 
 17 C       -5.1850     5.8150     0.3300 C.ar  1 <1>   0.0830 
 18 C        1.7400     6.2180     0.7010 C.3   1 <1>   0.1400 
 19 C        0.9860     8.2610    -0.4760 C.3   1 <1>   0.1400 
 20 C       -5.1420     8.7480     0.9190 C.3   1 <1>   0.0400 
 21 O       -6.4660     6.2870     0.3380 O.3   1 <1>  -0.3630 
 22 C        3.1800     6.5960     0.3010 C.3   1 <1>   0.2000 
 23 C        2.4670     8.5430    -0.8010 C.3   1 <1>   0.2000 
 24 C       -7.5450     5.5280    -0.1610 C.3   1 <1>   0.0400 
 25 O        3.2930     7.9820     0.1780 O.3   1 <1>  -0.5600 
 26 C        4.2000     6.1580     1.3490 C.3   1 <1>  -0.2400 
 27 C        2.7720    10.0370    -0.8370 C.3   1 <1>  -0.2400 
 28 H       -1.7210     2.6250     1.5880 H     1 <1>   0.3700 
 29 H        0.1030     2.1190    -1.8800 H     1 <1>   0.0800 
 30 H        1.5150     1.9200    -0.8700 H     1 <1>   0.0800 
 31 H       -0.6020     4.8870     1.2230 H     1 <1>   0.0800 
 32 H       -1.0310     4.2870    -1.6970 H     1 <1>   0.0800 
 33 H       -2.1220     6.6560     1.4680 H     1 <1>   0.1500 
 34 H       -3.3350     3.1770    -0.6960 H     1 <1>   0.1500 
 35 H       -5.5970     3.9990    -0.7560 H     1 <1>   0.1500 
 36 H        1.5350     6.6130     1.6810 H     1 <1>   0.0800 
 37 H        1.6640     5.1510     0.7570 H     1 <1>   0.0800 
 38 H        0.3730     8.6370    -1.2760 H     1 <1>   0.0800 
 39 H        0.7120     8.7870     0.4210 H     1 <1>   0.0800 
 40 H       -4.8310     9.7130     1.2750 H     1 <1>   0.0800 
 41 H       -6.1700     8.5780     1.1820 H     1 <1>   0.0800 
 42 H       -5.0070     8.6850    -0.1470 H     1 <1>   0.0800 
 43 H        3.4250     6.1480    -0.6480 H     1 <1>   0.0800 
 44 H        2.7200     8.1010    -1.7510 H     1 <1>   0.0800 
 45 H       -8.4490     6.0880     0.0000 H     1 <1>   0.0800 
 46 H       -7.5930     4.5960     0.3740 H     1 <1>   0.0800 
 47 H       -7.4000     5.3650    -1.2140 H     1 <1>   0.0800 
 48 H        3.9890     6.6240     2.2950 H     1 <1>   0.0800 
 49 H        5.1890     6.4350     1.0310 H     1 <1>   0.0800 
 50 H        4.1690     5.0910     1.4720 H     1 <1>   0.0800 
 51 H        2.5570    10.4860     0.1160 H     1 <1>   0.0800 
 52 H        2.1750    10.5170    -1.5910 H     1 <1>   0.0800 
 53 H        3.8090    10.1910    -1.0750 H     1 <1>   0.0800 
@<TRIPOS>BOND
  1   1   2  2   
  2   2   3  am  
  3   2   4  1   
  4   3   5  1   
  5   3  28  1   
  6   4   6  1   
  7   4  29  1   
  8   4  30  1   
  9   5   7  1   
 10   5   8  1   
 11   5  31  1   
 12   6   8  1   
 13   7   9  ar  
 14   7  10  ar  
 15   8  11  1   
 16   8  32  1   
 17   9  12  ar  
 18   9  33  1   
 19  10  13  ar  
 20  10  34  1   
 21  11  14  2   
 22  11  15  am  
 23  12  16  1   
 24  12  17  ar  
 25  13  17  ar  
 26  13  35  1   
 27  15  18  1   
 28  15  19  1   
 29  16  20  1   
 30  17  21  1   
 31  18  22  1   
 32  18  36  1   
 33  18  37  1   
 34  19  23  1   
 35  19  38  1   
 36  19  39  1   
 37  20  40  1   
 38  20  41  1   
 39  20  42  1   
 40  21  24  1   
 41  22  25  1   
 42  22  26  1   
 43  22  43  1   
 44  23  25  1   
 45  23  27  1   
 46  23  44  1   
 47  24  45  1   
 48  24  46  1   
 49  24  47  1   
 50  26  48  1   
 51  26  49  1   
 52  26  50  1   
 53  27  51  1   
 54  27  52  1   
 55  27  53  1   
@<TRIPOS>SUBSTRUCTURE
  1 ****   5 GROUP 4 **** **** 0

# MOE 2024.06 (io_trps.svl 2023.06)
