@<TRIPOS>MOLECULE
NONAME
45 46 1 0 0 
SMALL
USER_CHARGES


@<TRIPOS>ATOM
  1 O       -0.5600    -0.1830     0.9940 O.2   1 <1>  -0.5700 
  2 C       -1.4860     0.5070     0.6110 C.2   1 <1>   0.5440 
  3 N       -2.7580     0.1910     1.0280 N.am  1 <1>  -0.6600 
  4 C       -1.2240     1.6330    -0.2650 C.ar  1 <1>   0.0860 
  5 C       -3.0960    -1.2120     1.4260 C.3   1 <1>   0.3210 
  6 C       -3.9070     1.1580     0.9890 C.3   1 <1>   0.1400 
  7 C       -0.2910     2.6080     0.0790 C.ar  1 <1>  -0.1500 
  8 C       -1.8940     1.7740    -1.4790 C.ar  1 <1>  -0.1500 
  9 C       -4.0740    -1.8300     0.4320 C.2   1 <1>   0.0460 
 10 C       -4.5060     1.3810     2.3830 C.3   1 <1>   0.1200 
 11 C       -0.0360     3.6990    -0.7370 C.ar  1 <1>  -0.1440 
 12 C       -1.6520     2.8550    -2.3060 C.ar  1 <1>  -0.1500 
 13 N       -5.4080    -1.7670     0.6320 N.2   1 <1>  -0.5650 
 14 C       -3.7880    -2.4840    -0.7180 C.2   1 <1>  -0.3320 
 15 O       -3.4860     1.6790     3.2730 O.3   1 <1>  -0.6800 
 16 C       -0.7270     3.8140    -1.9350 C.ar  1 <1>  -0.1500 
 17 C        0.9920     4.7430    -0.3100 C.3   1 <1>   0.0630 
 18 C       -5.9020    -2.3870    -0.3900 C.2   1 <1>   0.0360 
 19 N       -4.9690    -2.8470    -1.2490 N.pl3 1 <1>   0.0330 
 20 C       -2.4500    -2.7900    -1.3710 C.3   1 <1>  -0.0600 
 21 C        0.3350     6.1150    -0.1300 C.3   1 <1>  -0.2400 
 22 C        2.1460     4.8180    -1.3150 C.3   1 <1>  -0.2400 
 23 H       -3.5280    -1.2230     2.4100 H     1 <1>   0.0800 
 24 H       -2.2110    -1.8200     1.4560 H     1 <1>   0.0800 
 25 H       -4.6700     0.7910     0.3250 H     1 <1>   0.0800 
 26 H       -3.5850     2.1130     0.6140 H     1 <1>   0.0800 
 27 H        0.2370     2.4940     1.0100 H     1 <1>   0.1500 
 28 H       -2.6090     1.0250    -1.7710 H     1 <1>   0.1500 
 29 H       -5.0110     0.4940     2.7240 H     1 <1>   0.0800 
 30 H       -5.2040     2.2000     2.3780 H     1 <1>   0.0800 
 31 H       -2.1790     2.9500    -3.2390 H     1 <1>   0.1500 
 32 H       -2.7120     1.1180     3.0510 H     1 <1>   0.4000 
 33 H       -0.5480     4.6520    -2.5860 H     1 <1>   0.1500 
 34 H        1.4070     4.4520     0.6410 H     1 <1>   0.0800 
 35 H       -6.9550    -2.5330    -0.5580 H     1 <1>   0.1500 
 36 H       -5.1320    -3.3640    -2.1180 H     1 <1>   0.2700 
 37 H       -1.6430    -2.3690    -0.7970 H     1 <1>   0.0800 
 38 H       -2.4130    -2.3690    -2.3590 H     1 <1>   0.0800 
 39 H       -2.3030    -3.8530    -1.4370 H     1 <1>   0.0800 
 40 H       -0.0540     6.4800    -1.0630 H     1 <1>   0.0800 
 41 H        1.0510     6.8240     0.2450 H     1 <1>   0.0800 
 42 H       -0.4750     6.0420     0.5740 H     1 <1>   0.0800 
 43 H        1.7980     5.1560    -2.2740 H     1 <1>   0.0800 
 44 H        2.5890     3.8450    -1.4340 H     1 <1>   0.0800 
 45 H        2.9010     5.4980    -0.9640 H     1 <1>   0.0800 
@<TRIPOS>BOND
  1   1   2  2   
  2   2   3  am  
  3   2   4  1   
  4   3   5  1   
  5   3   6  1   
  6   4   7  ar  
  7   4   8  ar  
  8   5   9  1   
  9   5  23  1   
 10   5  24  1   
 11   6  10  1   
 12   6  25  1   
 13   6  26  1   
 14   7  11  ar  
 15   7  27  1   
 16   8  12  ar  
 17   8  28  1   
 18   9  13  1   
 19   9  14  2   
 20  10  15  1   
 21  10  29  1   
 22  10  30  1   
 23  11  16  ar  
 24  11  17  1   
 25  12  16  ar  
 26  12  31  1   
 27  13  18  2   
 28  14  19  1   
 29  14  20  1   
 30  15  32  1   
 31  16  33  1   
 32  17  21  1   
 33  17  22  1   
 34  17  34  1   
 35  18  19  1   
 36  18  35  1   
 37  19  36  1   
 38  20  37  1   
 39  20  38  1   
 40  20  39  1   
 41  21  40  1   
 42  21  41  1   
 43  21  42  1   
 44  22  43  1   
 45  22  44  1   
 46  22  45  1   
@<TRIPOS>SUBSTRUCTURE
  1 ****   2 GROUP 4 **** **** 0

# MOE 2024.06 (io_trps.svl 2023.06)
