@<TRIPOS>MOLECULE
NONAME
43 44 1 0 0 
SMALL
USER_CHARGES


@<TRIPOS>ATOM
  1 O       -0.3770    -0.0530    -0.3340 O.2   1 <1>  -0.5700 
  2 C       -1.3710     0.5890    -0.0610 C.2   1 <1>   0.5690 
  3 N       -2.5530    -0.0850     0.1610 N.am  1 <1>  -0.6600 
  4 C       -1.2550     2.1560    -0.0380 C.3   1 <1>   0.3410 
  5 C       -3.8840     0.5040     0.4530 C.3   1 <1>   0.1400 
  6 C       -2.6390    -1.5660     0.1190 C.3   1 <1>   0.1400 
  7 O       -2.1420     2.7020     0.9260 O.3   1 <1>  -0.5600 
  8 C       -1.6260     2.7000    -1.4300 C.3   1 <1>  -0.2400 
  9 C        0.1790     2.5980     0.3270 C.3   1 <1>  -0.2400 
 10 C       -4.8640    -0.6590     0.3120 C.3   1 <1>   0.2000 
 11 C       -4.0450    -1.9100     0.6160 C.3   1 <1>  -0.0800 
 12 C       -2.2260     4.0850     1.1280 C.3   1 <1>   0.0400 
 13 O       -5.9230    -0.5480     1.1980 O.3   1 <1>  -0.6800 
 14 C       -4.6300    -3.1810    -0.0170 C.3   1 <1>   0.0210 
 15 C       -3.7410    -4.3800     0.2430 C.2   1 <1>   0.1080 
 16 N       -3.5900    -4.9010     1.4210 N.2   1 <1>  -0.7070 
 17 C       -2.9920    -5.0420    -0.7250 C.2   1 <1>  -0.1500 
 18 N       -2.7310    -5.9210     1.2340 N.pl3 1 <1>   0.3000 
 19 C       -2.3530    -6.0260    -0.0580 C.2   1 <1>  -0.3320 
 20 C       -1.3910    -7.0750    -0.5820 C.3   1 <1>  -0.0600 
 21 H       -3.8850     0.8830     1.4600 H     1 <1>   0.0800 
 22 H       -4.1170     1.2910    -0.2410 H     1 <1>   0.0800 
 23 H       -2.4950    -1.8930    -0.8970 H     1 <1>   0.0800 
 24 H       -1.8840    -2.0120     0.7440 H     1 <1>   0.0800 
 25 H       -1.0420     2.1900    -2.1750 H     1 <1>   0.0800 
 26 H       -1.4170     3.7500    -1.5160 H     1 <1>   0.0800 
 27 H       -2.6640     2.5170    -1.6370 H     1 <1>   0.0800 
 28 H        0.8840     2.1420    -0.3450 H     1 <1>   0.0800 
 29 H        0.4150     2.2750     1.3250 H     1 <1>   0.0800 
 30 H        0.3070     3.6600     0.2460 H     1 <1>   0.0800 
 31 H       -5.2580    -0.6790    -0.6890 H     1 <1>   0.0800 
 32 H       -3.9760    -2.0480     1.6810 H     1 <1>   0.0800 
 33 H       -2.9940     4.2610     1.8610 H     1 <1>   0.0800 
 34 H       -2.4970     4.5780     0.2130 H     1 <1>   0.0800 
 35 H       -1.2930     4.4580     1.5070 H     1 <1>   0.0800 
 36 H       -5.6010    -0.6350     2.1170 H     1 <1>   0.4000 
 37 H       -4.7470    -3.0470    -1.0770 H     1 <1>   0.0800 
 38 H       -5.6010    -3.3750     0.4030 H     1 <1>   0.0800 
 39 H       -2.9470    -4.7980    -1.7710 H     1 <1>   0.1500 
 40 H       -2.4240    -6.5240     2.0060 H     1 <1>   0.2700 
 41 H       -1.2490    -6.9500    -1.6410 H     1 <1>   0.0800 
 42 H       -1.7800    -8.0610    -0.4020 H     1 <1>   0.0800 
 43 H       -0.4360    -6.9800    -0.0960 H     1 <1>   0.0800 
@<TRIPOS>BOND
  1   1   2  2   
  2   2   3  am  
  3   2   4  1   
  4   3   5  1   
  5   3   6  1   
  6   4   7  1   
  7   4   8  1   
  8   4   9  1   
  9   5  10  1   
 10   5  21  1   
 11   5  22  1   
 12   6  11  1   
 13   6  23  1   
 14   6  24  1   
 15   7  12  1   
 16   8  25  1   
 17   8  26  1   
 18   8  27  1   
 19   9  28  1   
 20   9  29  1   
 21   9  30  1   
 22  10  11  1   
 23  10  13  1   
 24  10  31  1   
 25  11  14  1   
 26  11  32  1   
 27  12  33  1   
 28  12  34  1   
 29  12  35  1   
 30  13  36  1   
 31  14  15  1   
 32  14  37  1   
 33  14  38  1   
 34  15  16  2   
 35  15  17  1   
 36  16  18  1   
 37  17  19  2   
 38  17  39  1   
 39  18  19  1   
 40  18  40  1   
 41  19  20  1   
 42  20  41  1   
 43  20  42  1   
 44  20  43  1   
@<TRIPOS>SUBSTRUCTURE
  1 ****   6 GROUP 4 **** **** 0

# MOE 2024.06 (io_trps.svl 2023.06)
