@<TRIPOS>MOLECULE
NONAME
47 50 1 0 0 
SMALL
USER_CHARGES


@<TRIPOS>ATOM
  1 O       -0.1540     0.0900     2.4340 O.2   1 <1>  -0.5700 
  2 C       -0.7410     0.8840     1.7360 C.2   1 <1>   0.5690 
  3 N       -1.7200     0.4720     0.8700 N.am  1 <1>  -0.6600 
  4 C       -0.3730     2.3500     1.8870 C.3   1 <1>   0.1570 
  5 C       -2.5010     1.3170    -0.0740 C.3   1 <1>   0.1400 
  6 C       -2.0240    -0.9630     0.6310 C.3   1 <1>   0.1400 
  7 N        0.0870     2.9340     0.6100 N.pl3 1 <1>   0.0480 
  8 C       -3.6490     0.4180    -0.5250 C.3   1 <1>   0.2000 
  9 C       -3.0160    -0.9760    -0.5380 C.3   1 <1>  -0.0800 
 10 C       -0.5010     3.9750    -0.0750 C.ar  1 <1>  -0.1520 
 11 C        1.1220     2.4660    -0.1520 C.2   1 <1>  -0.3020 
 12 O       -4.6380     0.4700     0.4470 O.3   1 <1>  -0.6800 
 13 C       -4.0040    -2.1570    -0.5030 C.3   1 <1>   0.0210 
 14 C        0.1780     4.1430    -1.2790 C.ar  1 <1>   0.0000 
 15 C       -1.5860     4.7990     0.2440 C.ar  1 <1>  -0.1500 
 16 C        1.2040     3.1770    -1.3000 C.2   1 <1>  -0.1500 
 17 C       -3.2630    -3.4800    -0.4920 C.2   1 <1>   0.1080 
 18 C       -0.2290     5.1320    -2.1790 C.ar  1 <1>  -0.1500 
 19 C       -1.9780     5.7690    -0.6500 C.ar  1 <1>  -0.1500 
 20 N       -2.4670    -3.8500    -1.4470 N.2   1 <1>  -0.7070 
 21 C       -3.3370    -4.4240     0.5260 C.2   1 <1>  -0.1500 
 22 C       -1.2990     5.9350    -1.8630 C.ar  1 <1>  -0.1500 
 23 N       -2.0080    -5.0540    -1.0600 N.pl3 1 <1>   0.3000 
 24 C       -2.5190    -5.4230     0.1340 C.2   1 <1>  -0.3320 
 25 C       -2.1890    -6.7270     0.8360 C.3   1 <1>  -0.0600 
 26 H        0.4180     2.4420     2.6060 H     1 <1>   0.0800 
 27 H       -1.2260     2.8900     2.2470 H     1 <1>   0.0800 
 28 H       -2.8630     2.2190     0.3880 H     1 <1>   0.0800 
 29 H       -1.8810     1.5660    -0.9190 H     1 <1>   0.0800 
 30 H       -1.1280    -1.5100     0.3880 H     1 <1>   0.0800 
 31 H       -2.4640    -1.3830     1.5190 H     1 <1>   0.0800 
 32 H       -4.0730     0.7090    -1.4700 H     1 <1>   0.0800 
 33 H       -2.4360    -1.0610    -1.4410 H     1 <1>   0.0800 
 34 H        1.7390     1.6440     0.1700 H     1 <1>   0.1500 
 35 H       -4.2220     0.3150     1.3190 H     1 <1>   0.4000 
 36 H       -4.6350    -2.1230    -1.3730 H     1 <1>   0.0800 
 37 H       -4.6330    -2.1020     0.3660 H     1 <1>   0.0800 
 38 H       -2.1080     4.6810     1.1760 H     1 <1>   0.1500 
 39 H        1.9050     3.0600    -2.1070 H     1 <1>   0.1500 
 40 H        0.3050     5.2500    -3.1040 H     1 <1>   0.1500 
 41 H       -2.8100     6.4130    -0.4250 H     1 <1>   0.1500 
 42 H       -3.9260    -4.3480     1.4230 H     1 <1>   0.1500 
 43 H       -1.6240     6.7020    -2.5450 H     1 <1>   0.1500 
 44 H       -1.3480    -5.5960    -1.6300 H     1 <1>   0.2700 
 45 H       -2.7190    -6.7880     1.7700 H     1 <1>   0.0800 
 46 H       -1.1340    -6.7850     1.0380 H     1 <1>   0.0800 
 47 H       -2.4760    -7.5630     0.2240 H     1 <1>   0.0800 
@<TRIPOS>BOND
  1   1   2  2   
  2   2   3  am  
  3   2   4  1   
  4   3   5  1   
  5   3   6  1   
  6   4   7  1   
  7   4  26  1   
  8   4  27  1   
  9   5   8  1   
 10   5  28  1   
 11   5  29  1   
 12   6   9  1   
 13   6  30  1   
 14   6  31  1   
 15   7  10  1   
 16   7  11  1   
 17   8   9  1   
 18   8  12  1   
 19   8  32  1   
 20   9  13  1   
 21   9  33  1   
 22  10  14  ar  
 23  10  15  ar  
 24  11  16  2   
 25  11  34  1   
 26  12  35  1   
 27  13  17  1   
 28  13  36  1   
 29  13  37  1   
 30  14  16  1   
 31  14  18  ar  
 32  15  19  ar  
 33  15  38  1   
 34  16  39  1   
 35  17  20  2   
 36  17  21  1   
 37  18  22  ar  
 38  18  40  1   
 39  19  22  ar  
 40  19  41  1   
 41  20  23  1   
 42  21  24  2   
 43  21  42  1   
 44  22  43  1   
 45  23  24  1   
 46  23  44  1   
 47  24  25  1   
 48  25  45  1   
 49  25  46  1   
 50  25  47  1   
@<TRIPOS>SUBSTRUCTURE
  1 ****   3 GROUP 4 **** **** 0

# MOE 2024.06 (io_trps.svl 2023.06)
