@<TRIPOS>MOLECULE
NONAME
41 42 1 0 0 
SMALL
USER_CHARGES


@<TRIPOS>ATOM
  1 O       -0.4770     0.2950     0.1860 O.2   1 <1>  -0.5700 
  2 C       -1.5760     0.8180     0.1480 C.2   1 <1>   0.5440 
  3 N       -1.6570     2.1740    -0.1130 N.am  1 <1>  -0.6600 
  4 C       -2.7470     0.0000     0.3620 C.ar  1 <1>   0.0860 
  5 C       -2.8700     2.8350    -0.6680 C.3   1 <1>   0.0600 
  6 C       -0.4490     3.0450    -0.0620 C.3   1 <1>   0.0600 
  7 C       -2.8460    -1.2550    -0.2340 C.ar  1 <1>   0.1600 
  8 C       -3.8140     0.3950     1.1640 C.ar  1 <1>  -0.1500 
  9 N       -3.8670    -2.0880    -0.1310 N.ar  1 <1>  -0.6200 
 10 C       -4.8810    -0.4610     1.2890 C.ar  1 <1>  -0.1500 
 11 C       -4.8790    -1.6870     0.6300 C.ar  1 <1>   0.4100 
 12 N       -5.9600    -2.5170     0.7640 N.pl3 1 <1>  -0.8690 
 13 C       -6.1500    -3.7440    -0.0490 C.3   1 <1>   0.2890 
 14 C       -7.6320    -4.1570    -0.0740 C.3   1 <1>   0.2000 
 15 C       -5.3220    -4.8990     0.5160 C.3   1 <1>  -0.1600 
 16 O       -8.4060    -3.1280    -0.6390 O.3   1 <1>  -0.5600 
 17 C       -7.7710    -5.4600    -0.8750 C.3   1 <1>   0.1200 
 18 C       -5.5910    -6.1730    -0.2920 C.3   1 <1>   0.1200 
 19 C       -9.7650    -3.1720    -0.3350 C.3   1 <1>   0.0400 
 20 O       -6.9610    -6.4500    -0.3020 O.3   1 <1>  -0.5600 
 21 H       -2.5990     3.4410    -1.5150 H     1 <1>   0.0800 
 22 H       -3.3180     3.4610     0.0830 H     1 <1>   0.0800 
 23 H       -3.5900     2.1050    -0.9950 H     1 <1>   0.0800 
 24 H       -0.6950     3.9880     0.3920 H     1 <1>   0.0800 
 25 H       -0.0810     3.2120    -1.0590 H     1 <1>   0.0800 
 26 H        0.3280     2.5780     0.5200 H     1 <1>   0.0800 
 27 H       -2.0150    -1.5800    -0.8380 H     1 <1>   0.1500 
 28 H       -3.7900     1.3420     1.6730 H     1 <1>   0.1500 
 29 H       -5.7240    -0.2020     1.8990 H     1 <1>   0.1500 
 30 H       -6.8560    -2.0320     0.8540 H     1 <1>   0.4000 
 31 H       -5.8340    -3.5500    -1.0610 H     1 <1>   0.0800 
 32 H       -7.9650    -4.3240     0.9360 H     1 <1>   0.0800 
 33 H       -5.5770    -5.0690     1.5470 H     1 <1>   0.0800 
 34 H       -4.2760    -4.6620     0.4600 H     1 <1>   0.0800 
 35 H       -7.4680    -5.3190    -1.8980 H     1 <1>   0.0800 
 36 H       -8.7830    -5.8200    -0.8440 H     1 <1>   0.0800 
 37 H       -5.0890    -7.0140     0.1530 H     1 <1>   0.0800 
 38 H       -5.2560    -6.0650    -1.3100 H     1 <1>   0.0800 
 39 H      -10.2360    -2.3170    -0.7890 H     1 <1>   0.0800 
 40 H       -9.8940    -3.1290     0.7330 H     1 <1>   0.0800 
 41 H      -10.1970    -4.0720    -0.7330 H     1 <1>   0.0800 
@<TRIPOS>BOND
  1   1   2  2   
  2   2   3  am  
  3   2   4  1   
  4   3   5  1   
  5   3   6  1   
  6   4   7  ar  
  7   4   8  ar  
  8   5  21  1   
  9   5  22  1   
 10   5  23  1   
 11   6  24  1   
 12   6  25  1   
 13   6  26  1   
 14   7   9  ar  
 15   7  27  1   
 16   8  10  ar  
 17   8  28  1   
 18   9  11  ar  
 19  10  11  ar  
 20  10  29  1   
 21  11  12  1   
 22  12  13  1   
 23  12  30  1   
 24  13  14  1   
 25  13  15  1   
 26  13  31  1   
 27  14  16  1   
 28  14  17  1   
 29  14  32  1   
 30  15  18  1   
 31  15  33  1   
 32  15  34  1   
 33  16  19  1   
 34  17  20  1   
 35  17  35  1   
 36  17  36  1   
 37  18  20  1   
 38  18  37  1   
 39  18  38  1   
 40  19  39  1   
 41  19  40  1   
 42  19  41  1   
@<TRIPOS>SUBSTRUCTURE
  1 ****  11 GROUP 4 **** **** 0

# MOE 2024.06 (io_trps.svl 2023.06)
