@<TRIPOS>MOLECULE
NONAME
39 41 1 0 0 
SMALL
USER_CHARGES


@<TRIPOS>ATOM
  1 F        0.7030    -1.2770     1.9560 F     1 <1>  -0.3400 
  2 C       -0.0350    -2.1650     1.2960 C.3   1 <1>   1.1640 
  3 F       -0.2310    -3.1610     2.1550 F     1 <1>  -0.3400 
  4 F       -1.2120    -1.5730     1.1160 F     1 <1>  -0.3400 
  5 C        0.6320    -2.6040    -0.0030 C.ar  1 <1>  -0.1440 
  6 C       -0.0200    -3.5330    -0.8120 C.ar  1 <1>   0.4100 
  7 C        1.8630    -2.1130    -0.4050 C.ar  1 <1>  -0.1500 
  8 N        0.4750    -3.9860    -1.9590 N.ar  1 <1>  -0.6200 
  9 N       -1.2430    -4.0540    -0.4520 N.pl3 1 <1>  -0.8380 
 10 C        2.3760    -2.5820    -1.5960 C.ar  1 <1>  -0.1500 
 11 C        1.6500    -3.5060    -2.3220 C.ar  1 <1>   0.1600 
 12 C       -2.3820    -3.8340    -1.3940 C.3   1 <1>   0.2090 
 13 C       -1.2520    -5.4860    -0.0340 C.3   1 <1>   0.2090 
 14 C       -3.3460    -4.9850    -1.1210 C.3   1 <1>   0.2000 
 15 C       -2.4080    -6.1460    -0.7910 C.3   1 <1>  -0.0800 
 16 O       -4.0960    -4.6600     0.0010 O.3   1 <1>  -0.6800 
 17 C       -3.0510    -7.3280    -0.0420 C.3   1 <1>  -0.0170 
 18 C       -2.0180    -8.3980     0.2740 C.ar  1 <1>  -0.1430 
 19 C       -1.5390    -9.2580    -0.6940 C.ar  1 <1>  -0.1500 
 20 C       -1.5000    -8.5600     1.5430 C.ar  1 <1>  -0.1500 
 21 C       -0.5900   -10.2080    -0.3560 C.ar  1 <1>   0.1600 
 22 C       -0.5520    -9.5430     1.7760 C.ar  1 <1>   0.1600 
 23 N       -0.0840   -10.3710     0.8560 N.ar  1 <1>  -0.6200 
 24 H        2.4160    -1.3920     0.1750 H     1 <1>   0.1500 
 25 H        3.3280    -2.2360    -1.9570 H     1 <1>   0.1500 
 26 H        2.0570    -3.8690    -3.2500 H     1 <1>   0.1500 
 27 H       -2.8470    -2.8780    -1.2290 H     1 <1>   0.0800 
 28 H       -2.0350    -3.8880    -2.4120 H     1 <1>   0.0800 
 29 H       -0.3170    -5.9720    -0.2640 H     1 <1>   0.0800 
 30 H       -1.4190    -5.5350     1.0280 H     1 <1>   0.0800 
 31 H       -4.0150    -5.1870    -1.9400 H     1 <1>   0.0800 
 32 H       -2.0050    -6.5110    -1.7190 H     1 <1>   0.0800 
 33 H       -3.4910    -4.2410     0.6510 H     1 <1>   0.4000 
 34 H       -3.8330    -7.7520    -0.6480 H     1 <1>   0.0800 
 35 H       -3.5030    -6.9900     0.8740 H     1 <1>   0.0800 
 36 H       -1.8940    -9.1980    -1.7060 H     1 <1>   0.1500 
 37 H       -1.8220    -7.9320     2.3540 H     1 <1>   0.1500 
 38 H       -0.2270   -10.8690    -1.1240 H     1 <1>   0.1500 
 39 H       -0.1590    -9.6540     2.7720 H     1 <1>   0.1500 
@<TRIPOS>BOND
  1   1   2  1   
  2   2   3  1   
  3   2   4  1   
  4   2   5  1   
  5   5   6  ar  
  6   5   7  ar  
  7   6   8  ar  
  8   6   9  1   
  9   7  10  ar  
 10   7  24  1   
 11   8  11  ar  
 12   9  12  1   
 13   9  13  1   
 14  10  11  ar  
 15  10  25  1   
 16  11  26  1   
 17  12  14  1   
 18  12  27  1   
 19  12  28  1   
 20  13  15  1   
 21  13  29  1   
 22  13  30  1   
 23  14  15  1   
 24  14  16  1   
 25  14  31  1   
 26  15  17  1   
 27  15  32  1   
 28  16  33  1   
 29  17  18  1   
 30  17  34  1   
 31  17  35  1   
 32  18  19  ar  
 33  18  20  ar  
 34  19  21  ar  
 35  19  36  1   
 36  20  22  ar  
 37  20  37  1   
 38  21  23  ar  
 39  21  38  1   
 40  22  23  ar  
 41  22  39  1   
@<TRIPOS>SUBSTRUCTURE
  1 ****  13 GROUP 4 **** **** 0

# MOE 2024.06 (io_trps.svl 2023.06)
