@<TRIPOS>MOLECULE
NONAME
54 56 1 0 0 
SMALL
USER_CHARGES


@<TRIPOS>ATOM
  1 O       -0.8780    -0.0250     2.0310 O.2   1 <1>  -0.5700 
  2 C       -1.2660     0.4090     0.9700 C.2   1 <1>   0.5690 
  3 N       -1.6700    -0.4440    -0.0340 N.am  1 <1>  -0.6600 
  4 C       -1.2930     1.9390     0.8470 C.3   1 <1>  -0.0190 
  5 C       -1.7350    -1.9120     0.2240 C.3   1 <1>   0.2840 
  6 C       -2.1910    -0.0580    -1.3780 C.3   1 <1>   0.0600 
  7 C       -2.7080     2.5200     0.6370 C.3   1 <1>  -0.1600 
  8 C       -0.2460     2.4950    -0.1520 C.3   1 <1>  -0.1600 
  9 C       -3.1880    -2.3420     0.3670 C.ar  1 <1>  -0.1440 
 10 C       -2.7270     4.0600     0.7190 C.3   1 <1>   0.2000 
 11 C       -0.6400     3.8580    -0.7510 C.3   1 <1>  -0.1600 
 12 C       -3.8130    -3.0830    -0.6260 C.ar  1 <1>  -0.1500 
 13 C       -3.9000    -1.9850     1.5030 C.ar  1 <1>  -0.1500 
 14 O       -3.7650     4.5250    -0.1100 O.3   1 <1>  -0.5600 
 15 C       -1.3880     4.7110     0.2760 C.3   1 <1>   0.2000 
 16 C       -5.1360    -3.4640    -0.4840 C.ar  1 <1>  -0.1500 
 17 C       -5.2230    -2.3650     1.6480 C.ar  1 <1>  -0.1500 
 18 C       -5.0420     4.4600     0.4460 C.3   1 <1>   0.0400 
 19 O       -1.6460     5.9390    -0.2980 O.3   1 <1>  -0.6800 
 20 C       -5.8430    -3.1110     0.6590 C.ar  1 <1>   0.0820 
 21 O       -7.1410    -3.4620     0.8370 O.3   1 <1>  -0.1650 
 22 C       -7.6110    -4.6700     0.4360 C.ar  1 <1>   0.0820 
 23 C       -8.8830    -4.7300    -0.1110 C.ar  1 <1>  -0.1500 
 24 C       -6.8610    -5.8320     0.5750 C.ar  1 <1>  -0.1500 
 25 C       -9.4000    -5.9430    -0.5320 C.ar  1 <1>  -0.1500 
 26 C       -7.3790    -7.0440     0.1530 C.ar  1 <1>  -0.1500 
 27 C       -8.6470    -7.0990    -0.4020 C.ar  1 <1>  -0.1500 
 28 H       -0.9870     2.3030     1.8140 H     1 <1>   0.0800 
 29 H       -1.2680    -2.4370    -0.5900 H     1 <1>   0.0800 
 30 H       -1.2000    -2.1720     1.1210 H     1 <1>   0.0800 
 31 H       -1.7900    -0.7170    -2.1280 H     1 <1>   0.0800 
 32 H       -1.9190     0.9460    -1.6400 H     1 <1>   0.0800 
 33 H       -3.2650    -0.1390    -1.3830 H     1 <1>   0.0800 
 34 H       -3.3660     2.1180     1.3870 H     1 <1>   0.0800 
 35 H       -3.0830     2.2260    -0.3240 H     1 <1>   0.0800 
 36 H        0.6880     2.6000     0.3740 H     1 <1>   0.0800 
 37 H       -0.0650     1.8010    -0.9530 H     1 <1>   0.0800 
 38 H       -2.9230     4.3750     1.7300 H     1 <1>   0.0800 
 39 H       -1.2800     3.7010    -1.6020 H     1 <1>   0.0800 
 40 H        0.2450     4.3740    -1.0820 H     1 <1>   0.0800 
 41 H       -3.2750    -3.3650    -1.5140 H     1 <1>   0.1500 
 42 H       -3.4200    -1.4060     2.2750 H     1 <1>   0.1500 
 43 H       -0.7530     4.8740     1.1300 H     1 <1>   0.0800 
 44 H       -5.6180    -4.0300    -1.2620 H     1 <1>   0.1500 
 45 H       -5.7750    -2.0880     2.5280 H     1 <1>   0.1500 
 46 H       -5.7400     4.8550    -0.2710 H     1 <1>   0.0800 
 47 H       -5.0710     5.0540     1.3430 H     1 <1>   0.0800 
 48 H       -5.2910     3.4350     0.6610 H     1 <1>   0.0800 
 49 H       -2.5600     5.8730    -0.6590 H     1 <1>   0.4000 
 50 H       -9.4610    -3.8290    -0.2060 H     1 <1>   0.1500 
 51 H       -5.8800    -5.7910     1.0150 H     1 <1>   0.1500 
 52 H      -10.3860    -5.9880    -0.9600 H     1 <1>   0.1500 
 53 H       -6.7980    -7.9440     0.2580 H     1 <1>   0.1500 
 54 H       -9.0490    -8.0420    -0.7310 H     1 <1>   0.1500 
@<TRIPOS>BOND
  1   1   2  2   
  2   2   3  am  
  3   2   4  1   
  4   3   5  1   
  5   3   6  1   
  6   4   7  1   
  7   4   8  1   
  8   4  28  1   
  9   5   9  1   
 10   5  29  1   
 11   5  30  1   
 12   6  31  1   
 13   6  32  1   
 14   6  33  1   
 15   7  10  1   
 16   7  34  1   
 17   7  35  1   
 18   8  11  1   
 19   8  36  1   
 20   8  37  1   
 21   9  12  ar  
 22   9  13  ar  
 23  10  14  1   
 24  10  15  1   
 25  10  38  1   
 26  11  15  1   
 27  11  39  1   
 28  11  40  1   
 29  12  16  ar  
 30  12  41  1   
 31  13  17  ar  
 32  13  42  1   
 33  14  18  1   
 34  15  19  1   
 35  15  43  1   
 36  16  20  ar  
 37  16  44  1   
 38  17  20  ar  
 39  17  45  1   
 40  18  46  1   
 41  18  47  1   
 42  18  48  1   
 43  19  49  1   
 44  20  21  1   
 45  21  22  1   
 46  22  23  ar  
 47  22  24  ar  
 48  23  25  ar  
 49  23  50  1   
 50  24  26  ar  
 51  24  51  1   
 52  25  27  ar  
 53  25  52  1   
 54  26  27  ar  
 55  26  53  1   
 56  27  54  1   
@<TRIPOS>SUBSTRUCTURE
  1 ****  13 GROUP 4 **** **** 0

# MOE 2024.06 (io_trps.svl 2023.06)
