@<TRIPOS>MOLECULE
NONAME
42 44 1 0 0 
SMALL
USER_CHARGES


@<TRIPOS>ATOM
  1 F       -0.9620     1.4630     1.0810 F     1 <1>  -0.3400 
  2 C       -1.6160     2.4440     0.4680 C.3   1 <1>   1.1640 
  3 F       -2.6100     2.7780     1.2890 F     1 <1>  -0.3400 
  4 F       -2.1990     1.9000    -0.5970 F     1 <1>  -0.3400 
  5 C       -0.6960     3.6480     0.1080 C.ar  1 <1>   0.1660 
  6 N        0.3320     3.4490    -0.7260 N.ar  1 <1>  -0.6200 
  7 C       -0.9530     4.9040     0.6550 C.ar  1 <1>  -0.1500 
  8 C        1.0920     4.4920    -1.0090 C.ar  1 <1>   0.1600 
  9 C       -0.1440     5.9780     0.3540 C.ar  1 <1>  -0.1500 
 10 C        0.9300     5.7790    -0.5030 C.ar  1 <1>   0.0860 
 11 C        1.8550     6.8350    -0.8600 C.2   1 <1>   0.5440 
 12 O        2.6610     6.6990    -1.7610 O.2   1 <1>  -0.5700 
 13 N        1.9300     8.0050    -0.1510 N.am  1 <1>  -0.6600 
 14 C        2.6890     7.9700     1.1500 C.3   1 <1>   0.2200 
 15 C        1.8570     9.2940    -0.9100 C.3   1 <1>   0.1400 
 16 C        2.3420     9.1420     2.0830 C.3   1 <1>   0.1200 
 17 C        4.2200     7.8980     0.9040 C.3   1 <1>   0.3430 
 18 C        2.9820    10.3010    -0.6030 C.3   1 <1>  -0.0800 
 19 O        3.1520    10.2450     1.8080 O.3   1 <1>  -0.5600 
 20 N        4.6100     8.3160    -0.4870 N.4   1 <1>  -0.9590 
 21 C        2.7620    11.0300     0.7330 C.3   1 <1>   0.1200 
 22 C        4.4270     9.7770    -0.7570 C.3   1 <1>   0.3430 
 23 C        5.9850     7.8610    -0.8360 C.3   1 <1>   0.2630 
 24 H       -1.7870     5.0550     1.3200 H     1 <1>   0.1500 
 25 H        1.9080     4.3150    -1.6920 H     1 <1>   0.1500 
 26 H       -0.3470     6.9490     0.7730 H     1 <1>   0.1500 
 27 H        2.4000     7.0750     1.6730 H     1 <1>   0.0800 
 28 H        1.8700     9.0800    -1.9670 H     1 <1>   0.0800 
 29 H        0.9060     9.7540    -0.7030 H     1 <1>   0.0800 
 30 H        2.5530     8.8580     3.1000 H     1 <1>   0.0800 
 31 H        1.3020     9.4160     2.0200 H     1 <1>   0.0800 
 32 H        4.5290     6.8780     1.0610 H     1 <1>   0.0800 
 33 H        4.7330     8.5050     1.6330 H     1 <1>   0.0800 
 34 H        2.8780    11.0750    -1.3420 H     1 <1>   0.0800 
 35 H        3.9340     7.8150    -1.1080 H     1 <1>   0.4500 
 36 H        1.7330    11.3220     0.8650 H     1 <1>   0.0800 
 37 H        3.3650    11.9210     0.7660 H     1 <1>   0.0800 
 38 H        5.0730    10.3450    -0.1080 H     1 <1>   0.0800 
 39 H        4.7380     9.9690    -1.7700 H     1 <1>   0.0800 
 40 H        6.7120     8.3440    -0.2030 H     1 <1>   0.0800 
 41 H        6.2060     8.0980    -1.8640 H     1 <1>   0.0800 
 42 H        6.0670     6.7930    -0.7090 H     1 <1>   0.0800 
@<TRIPOS>BOND
  1   1   2  1   
  2   2   3  1   
  3   2   4  1   
  4   2   5  1   
  5   5   6  ar  
  6   5   7  ar  
  7   6   8  ar  
  8   7   9  ar  
  9   7  24  1   
 10   8  10  ar  
 11   8  25  1   
 12   9  10  ar  
 13   9  26  1   
 14  10  11  1   
 15  11  12  2   
 16  11  13  am  
 17  13  14  1   
 18  13  15  1   
 19  14  16  1   
 20  14  17  1   
 21  14  27  1   
 22  15  18  1   
 23  15  28  1   
 24  15  29  1   
 25  16  19  1   
 26  16  30  1   
 27  16  31  1   
 28  17  20  1   
 29  17  32  1   
 30  17  33  1   
 31  18  21  1   
 32  18  22  1   
 33  18  34  1   
 34  19  21  1   
 35  20  22  1   
 36  20  23  1   
 37  20  35  1   
 38  21  36  1   
 39  21  37  1   
 40  22  38  1   
 41  22  39  1   
 42  23  40  1   
 43  23  41  1   
 44  23  42  1   
@<TRIPOS>SUBSTRUCTURE
  1 ****  11 GROUP 4 **** **** 0

# MOE 2024.06 (io_trps.svl 2023.06)
