@<TRIPOS>MOLECULE
NONAME
48 51 1 0 0 
SMALL
USER_CHARGES


@<TRIPOS>ATOM
  1 F       -2.8440    -2.8760    -1.4650 F     1 <1>  -0.1900 
  2 C       -3.4970    -2.3870    -0.4420 C.ar  1 <1>   0.1900 
  3 C       -3.6970    -3.1810     0.6790 C.ar  1 <1>   0.0830 
  4 C       -3.9850    -1.0970    -0.5220 C.ar  1 <1>  -0.1500 
  5 O       -3.2360    -4.4430     0.7410 O.3   1 <1>  -0.5330 
  6 C       -4.3940    -2.6570     1.7530 C.ar  1 <1>  -0.1500 
  7 C       -4.7100    -0.5860     0.5480 C.ar  1 <1>  -0.1440 
  8 C       -4.8970    -1.3670     1.6840 C.ar  1 <1>  -0.1500 
  9 C       -5.3170     0.8150     0.4920 C.3   1 <1>   0.0440 
 10 C       -6.8190     0.7520     0.7380 C.2   1 <1>   0.5690 
 11 O       -7.2270     1.1570     1.7980 O.2   1 <1>  -0.5700 
 12 N       -7.6770     0.1660    -0.1650 N.am  1 <1>  -0.6600 
 13 C       -9.0790    -0.1760     0.2350 C.3   1 <1>   0.1400 
 14 C       -7.2690    -0.5500    -1.4120 C.3   1 <1>   0.1400 
 15 C       -9.2540    -1.7080     0.4170 C.3   1 <1>   0.4230 
 16 C       -7.3800    -2.0830    -1.2330 C.3   1 <1>   0.3430 
 17 N       -7.9890    -2.4860     0.0910 N.4   1 <1>  -0.9590 
 18 C      -10.4490    -2.2310    -0.4120 C.3   1 <1>   0.1200 
 19 C       -8.2380    -3.9580     0.2280 C.3   1 <1>   0.5180 
 20 O      -10.5970    -3.6130    -0.2460 O.3   1 <1>  -0.5600 
 21 C       -6.9510    -4.7350    -0.1110 C.3   1 <1>  -0.1950 
 22 C       -9.4790    -4.3850    -0.5940 C.3   1 <1>   0.1200 
 23 C       -6.5150    -5.1290    -1.4930 C.3   1 <1>  -0.2000 
 24 C       -6.9430    -6.1810    -0.5090 C.3   1 <1>  -0.2000 
 25 H       -3.7930    -0.5140    -1.4050 H     1 <1>   0.1500 
 26 H       -2.6530    -4.6670    -0.0120 H     1 <1>   0.4500 
 27 H       -4.5300    -3.2570     2.6370 H     1 <1>   0.1500 
 28 H       -5.4290    -0.9650     2.5330 H     1 <1>   0.1500 
 29 H       -5.1290     1.2880    -0.4530 H     1 <1>   0.0800 
 30 H       -4.8650     1.4240     1.2540 H     1 <1>   0.0800 
 31 H       -9.3490     0.3170     1.1540 H     1 <1>   0.0800 
 32 H       -9.7540     0.1940    -0.5180 H     1 <1>   0.0800 
 33 H       -7.9180    -0.2430    -2.2150 H     1 <1>   0.0800 
 34 H       -6.2710    -0.2870    -1.7100 H     1 <1>   0.0800 
 35 H       -9.5020    -1.8740     1.4520 H     1 <1>   0.0800 
 36 H       -6.3910    -2.5060    -1.3110 H     1 <1>   0.0800 
 37 H       -7.9640    -2.4850    -2.0440 H     1 <1>   0.0800 
 38 H       -7.2970    -2.2150     0.8030 H     1 <1>   0.4500 
 39 H      -10.3240    -2.0220    -1.4600 H     1 <1>   0.0800 
 40 H      -11.3620    -1.7680    -0.0780 H     1 <1>   0.0800 
 41 H       -8.4700    -4.1700     1.2600 H     1 <1>   0.0800 
 42 H       -6.1770    -4.4850     0.5930 H     1 <1>   0.1000 
 43 H       -9.7250    -5.4110    -0.3830 H     1 <1>   0.0800 
 44 H       -9.3060    -4.2870    -1.6500 H     1 <1>   0.0800 
 45 H       -7.1460    -4.9840    -2.3530 H     1 <1>   0.1000 
 46 H       -5.4690    -5.0750    -1.7460 H     1 <1>   0.1000 
 47 H       -6.1850    -6.8260    -0.0940 H     1 <1>   0.1000 
 48 H       -7.8530    -6.7170    -0.7150 H     1 <1>   0.1000 
@<TRIPOS>BOND
  1   1   2  1   
  2   2   3  ar  
  3   2   4  ar  
  4   3   5  1   
  5   3   6  ar  
  6   4   7  ar  
  7   4  25  1   
  8   5  26  1   
  9   6   8  ar  
 10   6  27  1   
 11   7   8  ar  
 12   7   9  1   
 13   8  28  1   
 14   9  10  1   
 15   9  29  1   
 16   9  30  1   
 17  10  11  2   
 18  10  12  am  
 19  12  13  1   
 20  12  14  1   
 21  13  15  1   
 22  13  31  1   
 23  13  32  1   
 24  14  16  1   
 25  14  33  1   
 26  14  34  1   
 27  15  17  1   
 28  15  18  1   
 29  15  35  1   
 30  16  17  1   
 31  16  36  1   
 32  16  37  1   
 33  17  19  1   
 34  17  38  1   
 35  18  20  1   
 36  18  39  1   
 37  18  40  1   
 38  19  21  1   
 39  19  22  1   
 40  19  41  1   
 41  20  22  1   
 42  21  23  1   
 43  21  24  1   
 44  21  42  1   
 45  22  43  1   
 46  22  44  1   
 47  23  24  1   
 48  23  45  1   
 49  23  46  1   
 50  24  47  1   
 51  24  48  1   
@<TRIPOS>SUBSTRUCTURE
  1 ****  17 GROUP 4 **** **** 0

# MOE 2024.06 (io_trps.svl 2023.06)
