@<TRIPOS>MOLECULE
NONAME
48 49 1 0 0 
SMALL
USER_CHARGES


@<TRIPOS>ATOM
  1 S        0.2510     0.0160     0.7450 S.o2  1 <1>   1.3330 
  2 O        1.6880     0.0720     0.8810 O.2   1 <1>  -0.6500 
  3 O       -0.5820     0.0430     1.9260 O.2   1 <1>  -0.6500 
  4 N       -0.1360    -1.3700    -0.1550 N.am  1 <1>  -0.8490 
  5 C       -0.2870     1.3500    -0.3230 C.3   1 <1>  -0.0550 
  6 C        0.8910    -1.7320    -1.1380 C.3   1 <1>   0.1160 
  7 C       -0.4340    -2.5220     0.7010 C.3   1 <1>   0.1160 
  8 C       -0.1420     2.7370     0.3260 C.3   1 <1>  -0.0800 
  9 C       -0.7280     3.8500    -0.5360 C.3   1 <1>   0.2000 
 10 C        1.3050     3.1790     0.5590 C.3   1 <1>   0.1400 
 11 O       -2.1000     3.9150    -0.3610 O.3   1 <1>  -0.6800 
 12 C       -0.0300     5.1250    -0.0680 C.3   1 <1>   0.1400 
 13 N        1.2780     4.6620     0.4630 N.am  1 <1>  -0.6600 
 14 C        2.4350     5.4100     0.4330 C.2   1 <1>   0.5440 
 15 O        3.4990     4.8240     0.3790 O.2   1 <1>  -0.5700 
 16 C        2.4140     6.8550     0.4420 C.ar  1 <1>   0.0860 
 17 C        3.2970     7.5780    -0.3560 C.ar  1 <1>   0.1600 
 18 C        1.5420     7.5950     1.2340 C.ar  1 <1>  -0.1500 
 19 N        3.3580     8.8940    -0.4560 N.ar  1 <1>  -0.6200 
 20 C        1.5950     8.9650     1.1490 C.ar  1 <1>  -0.1500 
 21 C        2.5030     9.5860     0.2910 C.ar  1 <1>   0.4100 
 22 N        2.5430    10.9620     0.1940 N.pl3 1 <1>  -0.8380 
 23 C        1.3000    11.7490    -0.0150 C.3   1 <1>   0.1290 
 24 C        3.7980    11.6450    -0.2220 C.3   1 <1>   0.1290 
 25 H        0.2680     1.3240    -1.2400 H     1 <1>   0.0800 
 26 H       -1.3220     1.1950    -0.5630 H     1 <1>   0.0800 
 27 H        0.5540    -2.5610    -1.7370 H     1 <1>   0.0800 
 28 H        1.8070    -2.0070    -0.6420 H     1 <1>   0.0800 
 29 H        1.0890    -0.9000    -1.7920 H     1 <1>   0.0800 
 30 H       -0.6900    -3.3780     0.1010 H     1 <1>   0.0800 
 31 H       -1.2710    -2.2990     1.3420 H     1 <1>   0.0800 
 32 H        0.4180    -2.7610     1.3170 H     1 <1>   0.0800 
 33 H       -0.6330     2.7350     1.2850 H     1 <1>   0.0800 
 34 H       -0.5240     3.6870    -1.5810 H     1 <1>   0.0800 
 35 H        1.9590     2.7880    -0.2030 H     1 <1>   0.0800 
 36 H        1.6670     2.8680     1.5250 H     1 <1>   0.0800 
 37 H       -2.3250     3.9840     0.5870 H     1 <1>   0.4000 
 38 H       -0.5880     5.5920     0.7240 H     1 <1>   0.0800 
 39 H        0.1080     5.8100    -0.8860 H     1 <1>   0.0800 
 40 H        3.9970     7.0170    -0.9530 H     1 <1>   0.1500 
 41 H        0.8570     7.1030     1.9000 H     1 <1>   0.1500 
 42 H        0.9510     9.5780     1.7480 H     1 <1>   0.1500 
 43 H        1.1870    12.4660     0.7790 H     1 <1>   0.0800 
 44 H        0.4390    11.1040    -0.0320 H     1 <1>   0.0800 
 45 H        1.3510    12.2700    -0.9560 H     1 <1>   0.0800 
 46 H        3.8320    12.6390     0.1880 H     1 <1>   0.0800 
 47 H        3.8440    11.6970    -1.2960 H     1 <1>   0.0800 
 48 H        4.6530    11.0960     0.1350 H     1 <1>   0.0800 
@<TRIPOS>BOND
  1   1   2  2   
  2   1   3  2   
  3   1   4  am  
  4   1   5  1   
  5   4   6  1   
  6   4   7  1   
  7   5   8  1   
  8   5  25  1   
  9   5  26  1   
 10   6  27  1   
 11   6  28  1   
 12   6  29  1   
 13   7  30  1   
 14   7  31  1   
 15   7  32  1   
 16   8   9  1   
 17   8  10  1   
 18   8  33  1   
 19   9  11  1   
 20   9  12  1   
 21   9  34  1   
 22  10  13  1   
 23  10  35  1   
 24  10  36  1   
 25  11  37  1   
 26  12  13  1   
 27  12  38  1   
 28  12  39  1   
 29  13  14  am  
 30  14  15  2   
 31  14  16  1   
 32  16  17  ar  
 33  16  18  ar  
 34  17  19  ar  
 35  17  40  1   
 36  18  20  ar  
 37  18  41  1   
 38  19  21  ar  
 39  20  21  ar  
 40  20  42  1   
 41  21  22  1   
 42  22  23  1   
 43  22  24  1   
 44  23  43  1   
 45  23  44  1   
 46  23  45  1   
 47  24  46  1   
 48  24  47  1   
 49  24  48  1   
@<TRIPOS>SUBSTRUCTURE
  1 ****  13 GROUP 4 **** **** 0

# MOE 2024.06 (io_trps.svl 2023.06)
