@<TRIPOS>MOLECULE
NONAME
51 54 1 0 0 
SMALL
USER_CHARGES


@<TRIPOS>ATOM
  1 S       -0.3590     0.0730     0.2130 S.3   1 <1>  -0.0800 
  2 C       -0.2950    -1.4670    -0.6160 C.2   1 <1>  -0.0450 
  3 C        0.5640     0.8000    -1.0740 C.2   1 <1>   0.1980 
  4 C        0.4200    -1.2750    -1.7480 C.2   1 <1>   0.0460 
  5 C       -0.9190    -2.6270    -0.0340 C.2   1 <1>   0.7150 
  6 N        0.8880    -0.0040    -2.0030 N.2   1 <1>  -0.5650 
  7 C        0.8800     2.2730    -0.9650 C.3   1 <1>  -0.0600 
  8 C        0.7620    -2.3330    -2.7770 C.3   1 <1>  -0.0590 
  9 O       -0.2430    -3.6250     0.1450 O.2   1 <1>  -0.5700 
 10 N       -2.2610    -2.6670     0.2920 N.am  1 <1>  -0.6600 
 11 C       -3.2690    -1.7070    -0.2670 C.3   1 <1>   0.1400 
 12 C       -2.8630    -3.8680     0.9430 C.3   1 <1>   0.1400 
 13 C       -4.2780    -1.2520     0.8050 C.3   1 <1>   0.1430 
 14 C       -3.8800    -3.4520     2.0130 C.3   1 <1>  -0.1600 
 15 C       -5.2850    -0.3320     0.1430 C.ar  1 <1>   0.1670 
 16 C       -4.9380    -2.4870     1.4530 C.3   1 <1>  -0.1600 
 17 C       -3.6300    -0.3230     1.8670 C.3   1 <1>  -0.1600 
 18 N       -6.2340    -0.7110    -0.6770 N.ar  1 <1>  -0.6200 
 19 C       -5.0750     0.9690     0.4840 C.ar  1 <1>  -0.1430 
 20 C       -3.9060     1.1240     1.4230 C.3   1 <1>  -0.0170 
 21 C       -7.0030     0.2720    -1.1530 C.ar  1 <1>   0.7200 
 22 C       -5.9130     1.9120    -0.0550 C.ar  1 <1>   0.1600 
 23 N       -6.8800     1.5740    -0.8750 N.ar  1 <1>  -0.6200 
 24 N       -8.0180    -0.0930    -2.0160 N.pl3 1 <1>  -0.8380 
 25 C       -8.7540     0.9080    -2.8360 C.3   1 <1>   0.1290 
 26 C       -8.4800    -1.5020    -2.1450 C.3   1 <1>   0.1290 
 27 H        1.4480     2.4580    -0.0730 H     1 <1>   0.0800 
 28 H       -0.0320     2.8400    -0.9340 H     1 <1>   0.0800 
 29 H        1.4560     2.5830    -1.8180 H     1 <1>   0.0800 
 30 H        0.3590    -3.2890    -2.4970 H     1 <1>   0.0800 
 31 H        1.8300    -2.4190    -2.8610 H     1 <1>   0.0800 
 32 H        0.3610    -2.0500    -3.7330 H     1 <1>   0.0800 
 33 H       -3.8080    -2.2030    -1.0570 H     1 <1>   0.0800 
 34 H       -2.7930    -0.8470    -0.7010 H     1 <1>   0.0800 
 35 H       -2.0990    -4.4740     1.4000 H     1 <1>   0.0800 
 36 H       -3.3510    -4.4620     0.1890 H     1 <1>   0.0800 
 37 H       -3.3540    -2.9940     2.8320 H     1 <1>   0.0800 
 38 H       -4.3660    -4.3330     2.3950 H     1 <1>   0.0800 
 39 H       -5.5200    -3.0020     0.7070 H     1 <1>   0.0800 
 40 H       -5.6150    -2.1810     2.2310 H     1 <1>   0.0800 
 41 H       -2.5810    -0.5140     2.0000 H     1 <1>   0.0800 
 42 H       -4.1170    -0.4730     2.8140 H     1 <1>   0.0800 
 43 H       -3.0640     1.5280     0.8890 H     1 <1>   0.0800 
 44 H       -4.1460     1.7560     2.2610 H     1 <1>   0.0800 
 45 H       -5.7890     2.9530     0.1860 H     1 <1>   0.1500 
 46 H       -8.1210     1.7470    -3.0670 H     1 <1>   0.0800 
 47 H       -9.6130     1.2570    -2.2910 H     1 <1>   0.0800 
 48 H       -9.0750     0.4630    -3.7620 H     1 <1>   0.0800 
 49 H       -8.3040    -2.0420    -1.2300 H     1 <1>   0.0800 
 50 H       -7.9440    -1.9840    -2.9440 H     1 <1>   0.0800 
 51 H       -9.5340    -1.5290    -2.3550 H     1 <1>   0.0800 
@<TRIPOS>BOND
  1   1   2  1   
  2   1   3  1   
  3   2   4  2   
  4   2   5  1   
  5   3   6  2   
  6   3   7  1   
  7   4   6  1   
  8   4   8  1   
  9   5   9  2   
 10   5  10  am  
 11   7  27  1   
 12   7  28  1   
 13   7  29  1   
 14   8  30  1   
 15   8  31  1   
 16   8  32  1   
 17  10  11  1   
 18  10  12  1   
 19  11  13  1   
 20  11  33  1   
 21  11  34  1   
 22  12  14  1   
 23  12  35  1   
 24  12  36  1   
 25  13  15  1   
 26  13  16  1   
 27  13  17  1   
 28  14  16  1   
 29  14  37  1   
 30  14  38  1   
 31  15  18  ar  
 32  15  19  ar  
 33  16  39  1   
 34  16  40  1   
 35  17  20  1   
 36  17  41  1   
 37  17  42  1   
 38  18  21  ar  
 39  19  20  1   
 40  19  22  ar  
 41  20  43  1   
 42  20  44  1   
 43  21  23  ar  
 44  21  24  1   
 45  22  23  ar  
 46  22  45  1   
 47  24  25  1   
 48  24  26  1   
 49  25  46  1   
 50  25  47  1   
 51  25  48  1   
 52  26  49  1   
 53  26  50  1   
 54  26  51  1   
@<TRIPOS>SUBSTRUCTURE
  1 ****  11 GROUP 4 **** **** 0

# MOE 2024.06 (io_trps.svl 2023.06)
