@<TRIPOS>MOLECULE
NONAME
23 24 1 0 0 
SMALL
USER_CHARGES


@<TRIPOS>ATOM
  1 O        9.8420    -0.3510     0.5320 O.3   1 <1>  -0.6800 
  2 C        8.8090    -1.1950     0.1080 C.3   1 <1>   0.1200 
  3 C        7.7040    -0.3720    -0.6010 C.3   1 <1>   0.4230 
  4 N        7.7060     1.0210    -0.0770 N.4   1 <1>  -0.9060 
  5 C        6.2880    -0.9160    -0.3740 C.3   1 <1>  -0.0650 
  6 C        6.5160     1.2220     0.7700 C.3   1 <1>   0.4380 
  7 C        5.4990     0.2860     0.1340 C.3   1 <1>  -0.1900 
  8 C        4.0570     0.2080     0.5200 C.3   1 <1>  -0.2000 
  9 C        4.4560     0.8750    -0.7670 C.3   1 <1>  -0.2000 
 10 H       10.5980    -0.8700     0.8900 H     1 <1>   0.4000 
 11 H        8.4230    -1.6980     0.9780 H     1 <1>   0.0800 
 12 H        9.2150    -1.9320    -0.5650 H     1 <1>   0.0800 
 13 H        7.9130    -0.3520    -1.6580 H     1 <1>   0.0800 
 14 H        7.7080     1.6840    -0.8550 H     1 <1>   0.4500 
 15 H        8.5950     1.1170     0.4460 H     1 <1>   0.4500 
 16 H        6.2850    -1.6910     0.3720 H     1 <1>   0.0800 
 17 H        5.8770    -1.3220    -1.2820 H     1 <1>   0.0800 
 18 H        6.1820     2.2470     0.7680 H     1 <1>   0.0800 
 19 H        6.7210     0.9050     1.7800 H     1 <1>   0.0800 
 20 H        3.6820     0.8250     1.3190 H     1 <1>   0.1000 
 21 H        3.5450    -0.7390     0.4650 H     1 <1>   0.1000 
 22 H        4.1760     0.3800    -1.6830 H     1 <1>   0.1000 
 23 H        4.3190     1.9420    -0.8300 H     1 <1>   0.1000 
@<TRIPOS>BOND
  1   1   2  1   
  2   1  10  1   
  3   2   3  1   
  4   2  11  1   
  5   2  12  1   
  6   3   4  1   
  7   3   5  1   
  8   3  13  1   
  9   4   6  1   
 10   4  14  1   
 11   4  15  1   
 12   5   7  1   
 13   5  16  1   
 14   5  17  1   
 15   6   7  1   
 16   6  18  1   
 17   6  19  1   
 18   7   8  1   
 19   7   9  1   
 20   8   9  1   
 21   8  20  1   
 22   8  21  1   
 23   9  22  1   
 24   9  23  1   
@<TRIPOS>SUBSTRUCTURE
  1 ****   5 GROUP 4 **** **** 0

# MOE 2024.06 (io_trps.svl 2023.06)
