@<TRIPOS>MOLECULE
NONAME
53 55 1 0 0 
SMALL
USER_CHARGES


@<TRIPOS>ATOM
  1 O        1.9720     1.4060    -1.3220 O.3   1 <1>  -0.0190 
  2 N        2.8240     0.4600    -1.0680 N.2   1 <1>  -0.4100 
  3 C        1.2310     1.6850    -0.2830 C.2   1 <1>  -0.0400 
  4 C        2.6150     0.1050     0.1490 C.2   1 <1>   0.1080 
  5 C        1.5960     0.8660     0.7160 C.2   1 <1>  -0.1500 
  6 C        0.2020     2.7950    -0.3670 C.3   1 <1>   0.0200 
  7 C        3.3790    -0.9920     0.8580 C.3   1 <1>  -0.0590 
  8 C        0.8280     4.0550    -0.9980 C.3   1 <1>  -0.0800 
  9 C       -0.0130     5.3300    -0.9710 C.3   1 <1>   0.2000 
 10 C        2.1540     4.4600    -0.3430 C.3   1 <1>   0.3430 
 11 O       -0.5500     5.5120     0.3020 O.3   1 <1>  -0.6800 
 12 C        1.0440     6.4110    -1.2120 C.3   1 <1>   0.3430 
 13 N        2.2690     5.9420    -0.4870 N.4   1 <1>  -0.9590 
 14 C        2.3790     6.6080     0.8350 C.3   1 <1>   0.5240 
 15 C        2.6870     8.0630     0.5710 C.2   1 <1>  -0.1810 
 16 C        1.8000     9.1230     0.7220 C.2   1 <1>   0.1080 
 17 C        3.8380     8.6260     0.1330 C.2   1 <1>  -0.3320 
 18 N        2.3370    10.2460     0.3870 N.2   1 <1>  -0.7070 
 19 C        0.3670     9.0760     1.2120 C.3   1 <1>  -0.0590 
 20 N        3.6050     9.9590     0.0290 N.pl3 1 <1>   0.3140 
 21 C        5.1760     7.9700    -0.1860 C.3   1 <1>  -0.0600 
 22 C        4.5630    11.0270    -0.3990 C.3   1 <1>   0.1760 
 23 C        4.8190    12.0140     0.7490 C.3   1 <1>  -0.2400 
 24 C        4.0420    11.7610    -1.6430 C.3   1 <1>  -0.2400 
 25 H        1.2240     0.7820     1.7200 H     1 <1>   0.1500 
 26 H       -0.6260     2.4610    -0.9680 H     1 <1>   0.0800 
 27 H       -0.1620     2.9950     0.6260 H     1 <1>   0.0800 
 28 H        3.8610    -0.5990     1.7330 H     1 <1>   0.0800 
 29 H        4.1270    -1.4020     0.2030 H     1 <1>   0.0800 
 30 H        2.7050    -1.7770     1.1470 H     1 <1>   0.0800 
 31 H        1.0460     3.8290    -2.0280 H     1 <1>   0.0800 
 32 H       -0.8060     5.3540    -1.7000 H     1 <1>   0.0800 
 33 H        2.9800     3.9510    -0.8150 H     1 <1>   0.0800 
 34 H        2.1320     4.1920     0.7010 H     1 <1>   0.0800 
 35 H       -1.4220     5.0700     0.3840 H     1 <1>   0.4000 
 36 H        0.7060     7.3770    -0.8750 H     1 <1>   0.0800 
 37 H        1.2540     6.4650    -2.2670 H     1 <1>   0.0800 
 38 H        3.1030     6.2260    -1.0160 H     1 <1>   0.4500 
 39 H        1.4620     6.5050     1.3900 H     1 <1>   0.0800 
 40 H        3.1830     6.1750     1.4060 H     1 <1>   0.0800 
 41 H        0.0420     8.0750     1.4170 H     1 <1>   0.0800 
 42 H       -0.2780     9.5110     0.4710 H     1 <1>   0.0800 
 43 H        0.2850     9.6580     2.1130 H     1 <1>   0.0800 
 44 H        5.1480     6.9140     0.0060 H     1 <1>   0.0800 
 45 H        5.9490     8.3990     0.4280 H     1 <1>   0.0800 
 46 H        5.4310     8.1260    -1.2200 H     1 <1>   0.0800 
 47 H        5.4960    10.5580    -0.6520 H     1 <1>   0.0800 
 48 H        3.9070    12.5170     1.0180 H     1 <1>   0.0800 
 49 H        5.5420    12.7520     0.4510 H     1 <1>   0.0800 
 50 H        5.1980    11.4910     1.6090 H     1 <1>   0.0800 
 51 H        3.1150    12.2600    -1.4200 H     1 <1>   0.0800 
 52 H        3.8810    11.0640    -2.4450 H     1 <1>   0.0800 
 53 H        4.7560    12.4960    -1.9660 H     1 <1>   0.0800 
@<TRIPOS>BOND
  1   1   2  1   
  2   1   3  1   
  3   2   4  2   
  4   3   5  2   
  5   3   6  1   
  6   4   5  1   
  7   4   7  1   
  8   5  25  1   
  9   6   8  1   
 10   6  26  1   
 11   6  27  1   
 12   7  28  1   
 13   7  29  1   
 14   7  30  1   
 15   8   9  1   
 16   8  10  1   
 17   8  31  1   
 18   9  11  1   
 19   9  12  1   
 20   9  32  1   
 21  10  13  1   
 22  10  33  1   
 23  10  34  1   
 24  11  35  1   
 25  12  13  1   
 26  12  36  1   
 27  12  37  1   
 28  13  14  1   
 29  13  38  1   
 30  14  15  1   
 31  14  39  1   
 32  14  40  1   
 33  15  16  1   
 34  15  17  2   
 35  16  18  2   
 36  16  19  1   
 37  17  20  1   
 38  17  21  1   
 39  18  20  1   
 40  19  41  1   
 41  19  42  1   
 42  19  43  1   
 43  20  22  1   
 44  21  44  1   
 45  21  45  1   
 46  21  46  1   
 47  22  23  1   
 48  22  24  1   
 49  22  47  1   
 50  23  48  1   
 51  23  49  1   
 52  23  50  1   
 53  24  51  1   
 54  24  52  1   
 55  24  53  1   
@<TRIPOS>SUBSTRUCTURE
  1 ****  13 GROUP 4 **** **** 0

# MOE 2024.06 (io_trps.svl 2023.06)
