@<TRIPOS>MOLECULE
NONAME
24 25 1 0 0 
SMALL
USER_CHARGES


@<TRIPOS>ATOM
  1 O       -4.0200     3.6920    -2.0820 O.2   1 <1>  -0.5700 
  2 C       -4.9680     3.2520    -1.4560 C.2   1 <1>   0.7670 
  3 N       -6.0510     4.0500    -1.2260 N.2   1 <1>  -0.6610 
  4 C       -4.9480     1.9150    -0.9800 C.2   1 <1>  -0.1360 
  5 C       -7.0310     3.5580    -0.5700 C.2   1 <1>   0.4390 
  6 C       -6.0070     1.4140    -0.2990 C.2   1 <1>  -0.0160 
  7 N       -7.0580     2.2750    -0.0960 N.pl3 1 <1>  -0.5500 
  8 C       -8.2410     4.4120    -0.2820 C.3   1 <1>  -0.1790 
  9 C       -6.1240    -0.0030     0.2560 C.3   1 <1>   0.1160 
 10 C       -4.9370    -0.9590    -0.0160 C.3   1 <1>   0.4720 
 11 C       -6.9350    -0.9510    -0.6570 C.3   1 <1>   0.4720 
 12 N       -5.9430    -2.0280    -0.3310 N.4   1 <1>  -0.8440 
 13 H       -4.0500     1.3750    -1.2080 H     1 <1>   0.1500 
 14 H       -7.8830     2.0220     0.4570 H     1 <1>   0.4000 
 15 H       -9.1180     3.9730    -0.7200 H     1 <1>   0.0800 
 16 H       -8.1050     5.3930    -0.7020 H     1 <1>   0.0800 
 17 H       -8.3780     4.5130     0.7790 H     1 <1>   0.0800 
 18 H       -6.4470    -0.0350     1.2830 H     1 <1>   0.0000 
 19 H       -4.3480    -1.1960     0.8510 H     1 <1>   0.0000 
 20 H       -4.3680    -0.7020    -0.8910 H     1 <1>   0.0000 
 21 H       -6.8870    -0.6810    -1.6960 H     1 <1>   0.0000 
 22 H       -7.9220    -1.1800    -0.2960 H     1 <1>   0.0000 
 23 H       -6.2070    -2.5810     0.4920 H     1 <1>   0.4500 
 24 H       -5.6870    -2.6100    -1.1370 H     1 <1>   0.4500 
@<TRIPOS>BOND
  1   1   2  2   
  2   2   3  1   
  3   2   4  1   
  4   3   5  2   
  5   4   6  2   
  6   4  13  1   
  7   5   7  1   
  8   5   8  1   
  9   6   7  1   
 10   6   9  1   
 11   7  14  1   
 12   8  15  1   
 13   8  16  1   
 14   8  17  1   
 15   9  10  1   
 16   9  11  1   
 17   9  18  1   
 18  10  12  1   
 19  10  19  1   
 20  10  20  1   
 21  11  12  1   
 22  11  21  1   
 23  11  22  1   
 24  12  23  1   
 25  12  24  1   
@<TRIPOS>SUBSTRUCTURE
  1 ****   6 GROUP 4 **** **** 0

# MOE 2024.06 (io_trps.svl 2023.06)
