@<TRIPOS>MOLECULE
NONAME
50 53 1 0 0 
SMALL
USER_CHARGES


@<TRIPOS>ATOM
  1 F       -0.5290    -0.9540    -2.2840 F     1 <1>  -0.1900 
  2 C       -0.5080    -2.1570    -1.7670 C.ar  1 <1>   0.1900 
  3 C        0.6880    -2.8450    -1.6460 C.ar  1 <1>   0.1900 
  4 C       -1.6980    -2.7200    -1.3480 C.ar  1 <1>  -0.1500 
  5 F        1.8110    -2.3030    -2.0470 F     1 <1>  -0.1900 
  6 C        0.7150    -4.1160    -1.1040 C.ar  1 <1>  -0.1500 
  7 C       -1.6930    -3.9980    -0.7960 C.ar  1 <1>   0.1170 
  8 C       -0.4790    -4.6830    -0.6850 C.ar  1 <1>  -0.1500 
  9 N       -2.9100    -4.5600    -0.3900 N.am  1 <1>  -0.5470 
 10 C       -3.1900    -5.4970     0.5650 C.2   1 <1>   0.6900 
 11 O       -2.3240    -5.8730     1.3320 O.2   1 <1>  -0.5700 
 12 N       -4.4710    -5.9840     0.6610 N.am  1 <1>  -0.6600 
 13 C       -5.5020    -5.9010    -0.4110 C.3   1 <1>   0.1400 
 14 C       -4.8790    -6.8580     1.7990 C.3   1 <1>   0.1400 
 15 C       -5.7710    -7.3030    -0.9640 C.3   1 <1>  -0.1600 
 16 C       -5.1460    -8.2750     1.2840 C.3   1 <1>  -0.1600 
 17 C       -6.1820    -8.2930     0.1450 C.3   1 <1>   0.4240 
 18 O       -7.3480    -7.7660     0.7420 O.3   1 <1>  -0.5600 
 19 C       -6.4130    -9.7350    -0.3940 C.ar  1 <1>  -0.1430 
 20 C       -8.5720    -8.0550     0.1490 C.3   1 <1>   0.1200 
 21 C       -5.3850   -10.4850    -0.9830 C.ar  1 <1>   0.0830 
 22 C       -7.6760   -10.3180    -0.2980 C.ar  1 <1>  -0.1430 
 23 C       -8.8300    -9.5450     0.3050 C.3   1 <1>  -0.0170 
 24 O       -4.1510    -9.9280    -1.1080 O.3   1 <1>  -0.3630 
 25 C       -5.6320   -11.7780    -1.4390 C.ar  1 <1>  -0.1500 
 26 C       -7.9080   -11.6060    -0.7500 C.ar  1 <1>  -0.1500 
 27 C       -3.0110   -10.6740    -1.4730 C.3   1 <1>   0.0400 
 28 C       -6.8870   -12.3380    -1.3200 C.ar  1 <1>  -0.1500 
 29 H       -2.6110    -2.1650    -1.4480 H     1 <1>   0.1500 
 30 H        1.6460    -4.6460    -1.0120 H     1 <1>   0.1500 
 31 H       -0.4680    -5.6740    -0.2650 H     1 <1>   0.1500 
 32 H       -3.7490    -4.1360    -0.7680 H     1 <1>   0.3700 
 33 H       -5.1820    -5.2630    -1.2140 H     1 <1>   0.0800 
 34 H       -6.4070    -5.4900     0.0040 H     1 <1>   0.0800 
 35 H       -5.7690    -6.4560     2.2500 H     1 <1>   0.0800 
 36 H       -4.1120    -6.8870     2.5540 H     1 <1>   0.0800 
 37 H       -4.8730    -7.6370    -1.4450 H     1 <1>   0.0800 
 38 H       -6.5300    -7.2650    -1.7200 H     1 <1>   0.0800 
 39 H       -5.4990    -8.8940     2.0870 H     1 <1>   0.0800 
 40 H       -4.2090    -8.6800     0.9590 H     1 <1>   0.0800 
 41 H       -8.5460    -7.7690    -0.8870 H     1 <1>   0.0800 
 42 H       -9.3290    -7.4850     0.6580 H     1 <1>   0.0800 
 43 H       -9.7490    -9.7970    -0.1920 H     1 <1>   0.0800 
 44 H       -8.9270    -9.7870     1.3480 H     1 <1>   0.0800 
 45 H       -4.8610   -12.3680    -1.8940 H     1 <1>   0.1500 
 46 H       -8.8870   -12.0460    -0.6620 H     1 <1>   0.1500 
 47 H       -2.1540   -10.0290    -1.3960 H     1 <1>   0.0800 
 48 H       -3.1240   -11.0100    -2.4880 H     1 <1>   0.0800 
 49 H       -2.9060   -11.5040    -0.7980 H     1 <1>   0.0800 
 50 H       -7.0710   -13.3380    -1.6720 H     1 <1>   0.1500 
@<TRIPOS>BOND
  1   1   2  1   
  2   2   3  ar  
  3   2   4  ar  
  4   3   5  1   
  5   3   6  ar  
  6   4   7  ar  
  7   4  29  1   
  8   6   8  ar  
  9   6  30  1   
 10   7   8  ar  
 11   7   9  1   
 12   8  31  1   
 13   9  10  am  
 14   9  32  1   
 15  10  11  2   
 16  10  12  am  
 17  12  13  1   
 18  12  14  1   
 19  13  15  1   
 20  13  33  1   
 21  13  34  1   
 22  14  16  1   
 23  14  35  1   
 24  14  36  1   
 25  15  17  1   
 26  15  37  1   
 27  15  38  1   
 28  16  17  1   
 29  16  39  1   
 30  16  40  1   
 31  17  18  1   
 32  17  19  1   
 33  18  20  1   
 34  19  21  ar  
 35  19  22  ar  
 36  20  23  1   
 37  20  41  1   
 38  20  42  1   
 39  21  24  1   
 40  21  25  ar  
 41  22  23  1   
 42  22  26  ar  
 43  23  43  1   
 44  23  44  1   
 45  24  27  1   
 46  25  28  ar  
 47  25  45  1   
 48  26  28  ar  
 49  26  46  1   
 50  27  47  1   
 51  27  48  1   
 52  27  49  1   
 53  28  50  1   
@<TRIPOS>SUBSTRUCTURE
  1 ****  12 GROUP 4 **** **** 0

# MOE 2024.06 (io_trps.svl 2023.06)
