@<TRIPOS>MOLECULE
NONAME
51 53 1 0 0 
SMALL
USER_CHARGES


@<TRIPOS>ATOM
  1 S       -0.0350    -0.0810    -0.2580 S.o2  1 <1>   1.0900 
  2 O       -1.1490     0.0180    -1.1730 O.2   1 <1>  -0.6500 
  3 O       -0.0280    -1.0990     0.7680 O.2   1 <1>  -0.6500 
  4 C        1.4540    -0.2470    -1.2220 C.3   1 <1>  -0.0550 
  5 C        0.1830     1.4940     0.5500 C.3   1 <1>  -0.0550 
  6 C        2.6170     0.4150    -0.4960 C.3   1 <1>   0.1100 
  7 C        1.0620     2.4080    -0.2920 C.3   1 <1>   0.1100 
  8 N        2.4430     1.8800    -0.4290 N.3   1 <1>  -0.8100 
  9 C        3.4050     2.4870     0.5130 C.3   1 <1>   0.2530 
 10 C        3.5260     3.9930     0.3050 C.ar  1 <1>  -0.1430 
 11 C        3.4130     4.8650     1.3750 C.ar  1 <1>  -0.1500 
 12 C        3.7520     4.5120    -0.9600 C.ar  1 <1>  -0.1500 
 13 C        3.5280     6.2310     1.1820 C.ar  1 <1>  -0.1500 
 14 C        3.8660     5.8770    -1.1480 C.ar  1 <1>  -0.1500 
 15 C        3.7660     6.7710    -0.0830 C.ar  1 <1>   0.0860 
 16 C        3.9070     8.2020    -0.2960 C.2   1 <1>   0.5440 
 17 O        3.5800     8.7100    -1.3510 O.2   1 <1>  -0.5700 
 18 N        4.4350     9.0000     0.6820 N.am  1 <1>  -0.7300 
 19 C        4.6750    10.4590     0.5600 C.3   1 <1>   0.1400 
 20 C        6.1790    10.7610     0.5240 C.3   1 <1>  -0.0800 
 21 C        6.3960    12.2810     0.4470 C.3   1 <1>   0.1200 
 22 C        6.8840    10.0720    -0.6590 C.3   1 <1>  -0.1600 
 23 O        7.7620    12.5630     0.3970 O.3   1 <1>  -0.5600 
 24 C        8.3380    10.5510    -0.7590 C.3   1 <1>  -0.1600 
 25 C        8.4130    12.0820    -0.7390 C.3   1 <1>   0.1200 
 26 H        1.3360     0.2180    -2.1820 H     1 <1>   0.0800 
 27 H        1.6670    -1.2870    -1.3790 H     1 <1>   0.0800 
 28 H        0.6420     1.3610     1.5100 H     1 <1>   0.0800 
 29 H       -0.7740     1.9540     0.7030 H     1 <1>   0.0800 
 30 H        3.5340     0.1980    -1.0190 H     1 <1>   0.0800 
 31 H        2.6920     0.0030     0.4980 H     1 <1>   0.0800 
 32 H        1.0720     3.3960     0.1380 H     1 <1>   0.0800 
 33 H        0.6310     2.5000    -1.2750 H     1 <1>   0.0800 
 34 H        4.3780     2.0530     0.3580 H     1 <1>   0.0800 
 35 H        3.1030     2.2740     1.5240 H     1 <1>   0.0800 
 36 H        3.2320     4.4850     2.3660 H     1 <1>   0.1500 
 37 H        3.8330     3.8460    -1.8020 H     1 <1>   0.1500 
 38 H        3.4240     6.8880     2.0260 H     1 <1>   0.1500 
 39 H        4.0370     6.2650    -2.1380 H     1 <1>   0.1500 
 40 H        4.8420     8.5580     1.5060 H     1 <1>   0.3700 
 41 H        4.2200    10.9560     1.4000 H     1 <1>   0.0800 
 42 H        4.2080    10.8320    -0.3370 H     1 <1>   0.0800 
 43 H        6.6160    10.4210     1.4470 H     1 <1>   0.0800 
 44 H        5.9990    12.7660     1.3210 H     1 <1>   0.0800 
 45 H        5.9290    12.6990    -0.4290 H     1 <1>   0.0800 
 46 H        6.3660    10.3120    -1.5730 H     1 <1>   0.0800 
 47 H        6.8640     9.0030    -0.5410 H     1 <1>   0.0800 
 48 H        8.7840    10.1800    -1.6640 H     1 <1>   0.0800 
 49 H        8.9060    10.1680     0.0710 H     1 <1>   0.0800 
 50 H        9.4370    12.4100    -0.6960 H     1 <1>   0.0800 
 51 H        7.9440    12.5070    -1.6110 H     1 <1>   0.0800 
@<TRIPOS>BOND
  1   1   2  2   
  2   1   3  2   
  3   1   4  1   
  4   1   5  1   
  5   4   6  1   
  6   4  26  1   
  7   4  27  1   
  8   5   7  1   
  9   5  28  1   
 10   5  29  1   
 11   6   8  1   
 12   6  30  1   
 13   6  31  1   
 14   7   8  1   
 15   7  32  1   
 16   7  33  1   
 17   8   9  1   
 18   9  10  1   
 19   9  34  1   
 20   9  35  1   
 21  10  11  ar  
 22  10  12  ar  
 23  11  13  ar  
 24  11  36  1   
 25  12  14  ar  
 26  12  37  1   
 27  13  15  ar  
 28  13  38  1   
 29  14  15  ar  
 30  14  39  1   
 31  15  16  1   
 32  16  17  2   
 33  16  18  am  
 34  18  19  1   
 35  18  40  1   
 36  19  20  1   
 37  19  41  1   
 38  19  42  1   
 39  20  21  1   
 40  20  22  1   
 41  20  43  1   
 42  21  23  1   
 43  21  44  1   
 44  21  45  1   
 45  22  24  1   
 46  22  46  1   
 47  22  47  1   
 48  23  25  1   
 49  24  25  1   
 50  24  48  1   
 51  24  49  1   
 52  25  50  1   
 53  25  51  1   
@<TRIPOS>SUBSTRUCTURE
  1 ****  15 GROUP 4 **** **** 0

# MOE 2024.06 (io_trps.svl 2023.06)
