@<TRIPOS>MOLECULE
NONAME
52 54 1 0 0 
SMALL
USER_CHARGES


@<TRIPOS>ATOM
  1 O       -5.1580     1.1820    -1.0960 O.2   1 <1>  -0.5700 
  2 C       -4.0260     1.0800    -0.6810 C.2   1 <1>   0.5690 
  3 N       -3.3690    -0.1240    -0.7240 N.am  1 <1>  -0.6600 
  4 C       -3.3800     2.3280    -0.0850 C.3   1 <1>   0.1810 
  5 C       -1.9960    -0.3560    -0.1600 C.3   1 <1>   0.3640 
  6 C       -4.0550    -1.3350    -1.2690 C.3   1 <1>   0.1400 
  7 O       -2.1920     2.6620    -0.7860 O.3   1 <1>  -0.3630 
  8 C       -0.8960    -0.3000    -1.2370 C.ar  1 <1>  -0.1440 
  9 C       -1.9830    -1.6870     0.6520 C.3   1 <1>   0.2000 
 10 C       -3.1500    -2.5790    -1.2580 C.3   1 <1>   0.1200 
 11 C       -1.1790     3.3030    -0.1560 C.ar  1 <1>   0.0820 
 12 C       -1.1610    -0.0750    -2.5850 C.ar  1 <1>  -0.1500 
 13 C        0.4300    -0.4470    -0.8460 C.ar  1 <1>  -0.1500 
 14 O       -2.5890    -2.7910     0.0080 O.3   1 <1>  -0.5600 
 15 C       -2.7070    -1.5190     1.9960 C.3   1 <1>   0.1200 
 16 C        0.0960     3.1100    -0.6620 C.ar  1 <1>  -0.1500 
 17 C       -1.3650     4.1200     0.9540 C.ar  1 <1>  -0.1500 
 18 C       -0.1360    -0.0240    -3.5130 C.ar  1 <1>  -0.1500 
 19 C        1.4580    -0.3980    -1.7720 C.ar  1 <1>  -0.1500 
 20 O       -2.0540    -0.5800     2.7930 O.3   1 <1>  -0.6800 
 21 C        1.1880     3.7130    -0.0630 C.ar  1 <1>  -0.1500 
 22 C       -0.2720     4.7210     1.5540 C.ar  1 <1>  -0.1500 
 23 C        1.1750    -0.1880    -3.1080 C.ar  1 <1>  -0.1500 
 24 C        1.0060     4.5230     1.0560 C.ar  1 <1>   0.0830 
 25 O        2.0180     5.1500     1.7100 O.3   1 <1>  -0.3630 
 26 C        3.3480     5.0530     1.2550 C.3   1 <1>   0.1200 
 27 C        4.2270     5.8800     2.1880 C.3   1 <1>  -0.2400 
 28 H       -3.1430     2.1400     0.9460 H     1 <1>   0.0800 
 29 H       -4.0530     3.1620    -0.1560 H     1 <1>   0.0800 
 30 H       -1.7600     0.4330     0.5290 H     1 <1>   0.0800 
 31 H       -4.9350    -1.5350    -0.6820 H     1 <1>   0.0800 
 32 H       -4.3740    -1.1350    -2.2770 H     1 <1>   0.0800 
 33 H       -0.9700    -1.9800     0.8560 H     1 <1>   0.0800 
 34 H       -2.3520    -2.4800    -1.9720 H     1 <1>   0.0800 
 35 H       -3.7210    -3.4540    -1.5130 H     1 <1>   0.0800 
 36 H       -2.1680     0.0730    -2.9320 H     1 <1>   0.1500 
 37 H        0.6810    -0.5950     0.1890 H     1 <1>   0.1500 
 38 H       -2.7360    -2.4520     2.5310 H     1 <1>   0.0800 
 39 H       -3.7110    -1.1680     1.8330 H     1 <1>   0.0800 
 40 H        0.2260     2.4810    -1.5250 H     1 <1>   0.1500 
 41 H       -2.3450     4.3010     1.3530 H     1 <1>   0.1500 
 42 H       -0.3620     0.1490    -4.5510 H     1 <1>   0.1500 
 43 H        2.4780    -0.5200    -1.4520 H     1 <1>   0.1500 
 44 H       -1.2920    -0.9840     3.2550 H     1 <1>   0.4000 
 45 H        2.1610     3.5390    -0.4790 H     1 <1>   0.1500 
 46 H       -0.4020     5.3530     2.4140 H     1 <1>   0.1500 
 47 H        1.9720    -0.1500    -3.8310 H     1 <1>   0.1500 
 48 H        3.6410     4.0180     1.2750 H     1 <1>   0.0800 
 49 H        3.3930     5.4360     0.2500 H     1 <1>   0.0800 
 50 H        4.1600     5.5000     3.1910 H     1 <1>   0.0800 
 51 H        3.9150     6.9090     2.1720 H     1 <1>   0.0800 
 52 H        5.2510     5.8260     1.8670 H     1 <1>   0.0800 
@<TRIPOS>BOND
  1   1   2  2   
  2   2   3  am  
  3   2   4  1   
  4   3   5  1   
  5   3   6  1   
  6   4   7  1   
  7   4  28  1   
  8   4  29  1   
  9   5   8  1   
 10   5   9  1   
 11   5  30  1   
 12   6  10  1   
 13   6  31  1   
 14   6  32  1   
 15   7  11  1   
 16   8  12  ar  
 17   8  13  ar  
 18   9  14  1   
 19   9  15  1   
 20   9  33  1   
 21  10  14  1   
 22  10  34  1   
 23  10  35  1   
 24  11  16  ar  
 25  11  17  ar  
 26  12  18  ar  
 27  12  36  1   
 28  13  19  ar  
 29  13  37  1   
 30  15  20  1   
 31  15  38  1   
 32  15  39  1   
 33  16  21  ar  
 34  16  40  1   
 35  17  22  ar  
 36  17  41  1   
 37  18  23  ar  
 38  18  42  1   
 39  19  23  ar  
 40  19  43  1   
 41  20  44  1   
 42  21  24  ar  
 43  21  45  1   
 44  22  24  ar  
 45  22  46  1   
 46  23  47  1   
 47  24  25  1   
 48  25  26  1   
 49  26  27  1   
 50  26  48  1   
 51  26  49  1   
 52  27  50  1   
 53  27  51  1   
 54  27  52  1   
@<TRIPOS>SUBSTRUCTURE
  1 ****   8 GROUP 4 **** **** 0

# MOE 2024.06 (io_trps.svl 2023.06)
