@<TRIPOS>MOLECULE
NONAME
45 48 1 0 0 
SMALL
USER_CHARGES


@<TRIPOS>ATOM
  1 CL      -1.0540     0.9720     2.3420 Cl    1 <1>  -0.1230 
  2 C       -1.5180     1.9570     0.9660 C.2   1 <1>   0.1230 
  3 C       -2.6420     1.7500     0.1840 C.2   1 <1>   0.1080 
  4 C       -0.8870     3.0340     0.4600 C.2   1 <1>  -0.3320 
  5 N       -2.7320     2.6440    -0.7660 N.2   1 <1>  -0.7070 
  6 C       -3.6470     0.6280     0.3980 C.3   1 <1>   0.5240 
  7 N       -1.6380     3.4340    -0.5920 N.pl3 1 <1>   0.3000 
  8 C        0.3950     3.7180     0.9080 C.3   1 <1>  -0.0600 
  9 N       -4.8980     1.0180    -0.3060 N.4   1 <1>  -0.9590 
 10 C       -5.6990     1.9840     0.5140 C.3   1 <1>   0.3430 
 11 C       -5.7040    -0.1310    -0.7930 C.3   1 <1>   0.3430 
 12 C       -6.8800     2.5590    -0.2850 C.3   1 <1>   0.1430 
 13 C       -6.8760     0.3850    -1.6350 C.3   1 <1>  -0.1600 
 14 C       -7.7100     3.4110     0.6450 C.ar  1 <1>   0.1670 
 15 C       -7.7330     1.4160    -0.8760 C.3   1 <1>  -0.1600 
 16 C       -6.4330     3.5790    -1.3680 C.3   1 <1>  -0.1600 
 17 N       -8.1000     3.0400     1.8380 N.ar  1 <1>  -0.6200 
 18 C       -7.9900     4.6290     0.1040 C.ar  1 <1>  -0.1430 
 19 C       -7.3990     4.7770    -1.2760 C.3   1 <1>  -0.0170 
 20 C       -8.8000     3.9670     2.4800 C.ar  1 <1>   0.7200 
 21 C       -8.7320     5.5040     0.8600 C.ar  1 <1>   0.1600 
 22 N       -9.1470     5.1750     2.0630 N.ar  1 <1>  -0.6200 
 23 N       -9.2240     3.6350     3.7000 N.pl3 1 <1>  -0.9000 
 24 H       -3.8260     0.4750     1.4490 H     1 <1>   0.0800 
 25 H       -3.2460    -0.2770    -0.0270 H     1 <1>   0.0800 
 26 H       -1.4270     4.2350    -1.2050 H     1 <1>   0.2700 
 27 H        0.8070     3.2150     1.7660 H     1 <1>   0.0800 
 28 H        0.2000     4.7410     1.1770 H     1 <1>   0.0800 
 29 H        1.1260     3.6970     0.1200 H     1 <1>   0.0800 
 30 H       -4.5310     1.5640    -1.1080 H     1 <1>   0.4500 
 31 H       -5.0740     2.7980     0.8450 H     1 <1>   0.0800 
 32 H       -6.0870     1.4860     1.3880 H     1 <1>   0.0800 
 33 H       -6.0850    -0.6910     0.0460 H     1 <1>   0.0800 
 34 H       -5.0920    -0.7870    -1.3930 H     1 <1>   0.0800 
 35 H       -7.4950    -0.4490    -1.9150 H     1 <1>   0.0800 
 36 H       -6.4950     0.8130    -2.5450 H     1 <1>   0.0800 
 37 H       -8.4910     1.8190    -1.5270 H     1 <1>   0.0800 
 38 H       -8.2430     0.9130    -0.0700 H     1 <1>   0.0800 
 39 H       -6.4270     3.1650    -2.3610 H     1 <1>   0.0800 
 40 H       -5.4410     3.9340    -1.1440 H     1 <1>   0.0800 
 41 H       -8.1790     4.6990    -2.0140 H     1 <1>   0.0800 
 42 H       -6.8820     5.7150    -1.3900 H     1 <1>   0.0800 
 43 H       -8.9860     6.4790     0.4800 H     1 <1>   0.1500 
 44 H       -9.9560     4.2350     4.0720 H     1 <1>   0.4000 
 45 H       -9.3130     2.6420     3.8890 H     1 <1>   0.4000 
@<TRIPOS>BOND
  1   1   2  1   
  2   2   3  1   
  3   2   4  2   
  4   3   5  2   
  5   3   6  1   
  6   4   7  1   
  7   4   8  1   
  8   5   7  1   
  9   6   9  1   
 10   6  24  1   
 11   6  25  1   
 12   7  26  1   
 13   8  27  1   
 14   8  28  1   
 15   8  29  1   
 16   9  10  1   
 17   9  11  1   
 18   9  30  1   
 19  10  12  1   
 20  10  31  1   
 21  10  32  1   
 22  11  13  1   
 23  11  33  1   
 24  11  34  1   
 25  12  14  1   
 26  12  15  1   
 27  12  16  1   
 28  13  15  1   
 29  13  35  1   
 30  13  36  1   
 31  14  17  ar  
 32  14  18  ar  
 33  15  37  1   
 34  15  38  1   
 35  16  19  1   
 36  16  39  1   
 37  16  40  1   
 38  17  20  ar  
 39  18  19  1   
 40  18  21  ar  
 41  19  41  1   
 42  19  42  1   
 43  20  22  ar  
 44  20  23  1   
 45  21  22  ar  
 46  21  43  1   
 47  23  44  1   
 48  23  45  1   
@<TRIPOS>SUBSTRUCTURE
  1 ****  10 GROUP 4 **** **** 0

# MOE 2024.06 (io_trps.svl 2023.06)
