@<TRIPOS>MOLECULE
NONAME
30 30 1 0 0 
SMALL
USER_CHARGES


@<TRIPOS>ATOM
  1 O        5.2670     1.3330     1.7210 O.2   1 <1>  -0.5700 
  2 C        5.5710     1.2370     0.5600 C.2   1 <1>   0.6590 
  3 O        5.7710     2.2940    -0.2130 O.3   1 <1>  -0.4300 
  4 C        5.7450    -0.1230    -0.1180 C.3   1 <1>  -0.0190 
  5 C        5.6500     3.6060     0.2880 C.3   1 <1>   0.1200 
  6 C        5.1490    -1.2720     0.7290 C.3   1 <1>  -0.1600 
  7 C        7.2290    -0.4000    -0.4280 C.3   1 <1>  -0.1600 
  8 C        5.9510     4.5760    -0.8500 C.3   1 <1>  -0.2400 
  9 C        5.3550    -2.6330     0.0640 C.3   1 <1>   0.4230 
 10 C        7.4350    -1.7730    -1.0840 C.3   1 <1>  -0.1600 
 11 N        4.8540    -3.6770     0.9690 N.4   1 <1>  -0.8530 
 12 C        6.8350    -2.8950    -0.2250 C.3   1 <1>  -0.1600 
 13 H        5.2100    -0.0730    -1.0500 H     1 <1>   0.0800 
 14 H        4.6460     3.7410     0.6560 H     1 <1>   0.0800 
 15 H        6.3510     3.7300     1.0970 H     1 <1>   0.0800 
 16 H        4.0980    -1.0850     0.8670 H     1 <1>   0.0800 
 17 H        5.6260    -1.2630     1.6950 H     1 <1>   0.0800 
 18 H        7.6080     0.3660    -1.0850 H     1 <1>   0.0800 
 19 H        7.8010    -0.3500     0.4850 H     1 <1>   0.0800 
 20 H        5.2500     4.4350    -1.6530 H     1 <1>   0.0800 
 21 H        6.9520     4.4230    -1.2130 H     1 <1>   0.0800 
 22 H        5.8670     5.5870    -0.4960 H     1 <1>   0.0800 
 23 H        4.8060    -2.6580    -0.8650 H     1 <1>   0.0800 
 24 H        8.4900    -1.9470    -1.2220 H     1 <1>   0.0800 
 25 H        6.9780    -1.7740    -2.0600 H     1 <1>   0.0800 
 26 H        5.3700    -3.6500     1.8540 H     1 <1>   0.4500 
 27 H        4.9710    -4.6070     0.5530 H     1 <1>   0.4500 
 28 H        3.8600    -3.5310     1.1740 H     1 <1>   0.4500 
 29 H        7.3900    -2.9500     0.6960 H     1 <1>   0.0800 
 30 H        6.9500    -3.8270    -0.7510 H     1 <1>   0.0800 
@<TRIPOS>BOND
  1   1   2  2   
  2   2   3  1   
  3   2   4  1   
  4   3   5  1   
  5   4   6  1   
  6   4   7  1   
  7   4  13  1   
  8   5   8  1   
  9   5  14  1   
 10   5  15  1   
 11   6   9  1   
 12   6  16  1   
 13   6  17  1   
 14   7  10  1   
 15   7  18  1   
 16   7  19  1   
 17   8  20  1   
 18   8  21  1   
 19   8  22  1   
 20   9  11  1   
 21   9  12  1   
 22   9  23  1   
 23  10  12  1   
 24  10  24  1   
 25  10  25  1   
 26  11  26  1   
 27  11  27  1   
 28  11  28  1   
 29  12  29  1   
 30  12  30  1   
@<TRIPOS>SUBSTRUCTURE
  1 ****   4 GROUP 4 **** **** 0

# MOE 2024.06 (io_trps.svl 2023.06)
