@<TRIPOS>MOLECULE
NONAME
48 51 1 0 0 
SMALL
USER_CHARGES


@<TRIPOS>ATOM
  1 O       -0.7440     0.8480    -1.1540 O.2   1 <1>  -0.5700 
  2 C       -1.7620     1.1280    -0.5640 C.2   1 <1>   0.5690 
  3 N       -2.9470     0.4880    -0.8330 N.am  1 <1>  -0.6600 
  4 C       -1.7040     2.2080     0.5040 C.3   1 <1>  -0.0990 
  5 C       -3.0400    -0.5650    -1.8830 C.3   1 <1>   0.1400 
  6 C       -4.2350     0.7110    -0.1180 C.3   1 <1>   0.1400 
  7 C       -0.3150     2.8280     0.6470 C.3   1 <1>   0.1200 
  8 C       -3.4420    -1.8870    -1.2270 C.3   1 <1>  -0.1600 
  9 C       -4.6440    -0.5900     0.5720 C.3   1 <1>  -0.1600 
 10 O       -0.3760     3.7840     1.6560 O.3   1 <1>  -0.5600 
 11 C       -4.7430    -1.7500    -0.4290 C.3   1 <1>   0.4600 
 12 C        0.8300     4.4370     1.8800 C.3   1 <1>   0.0400 
 13 O       -5.7560    -1.4630    -1.3690 O.3   1 <1>  -0.5600 
 14 C       -5.0680    -3.0600     0.2780 C.2   1 <1>  -0.3320 
 15 C       -7.0920    -1.7280    -1.0100 C.3   1 <1>   0.1200 
 16 N       -4.2580    -3.7360     1.1500 N.pl3 1 <1>   0.0330 
 17 C       -6.2230    -3.7380     0.1290 C.2   1 <1>  -0.1810 
 18 C       -7.3190    -3.2300    -0.7740 C.3   1 <1>   0.0210 
 19 C       -4.9220    -4.8690     1.5540 C.ar  1 <1>  -0.1520 
 20 C       -6.1640    -4.9010     0.9250 C.ar  1 <1>   0.0000 
 21 C       -4.5360    -5.8880     2.4290 C.ar  1 <1>  -0.1500 
 22 C       -7.0370    -5.9650     1.1700 C.ar  1 <1>  -0.1500 
 23 C       -5.4050    -6.9290     2.6620 C.ar  1 <1>  -0.1500 
 24 C       -6.6560    -6.9680     2.0320 C.ar  1 <1>  -0.1500 
 25 H       -1.9840     1.7740     1.4450 H     1 <1>   0.0800 
 26 H       -2.3990     2.9840     0.2450 H     1 <1>   0.0800 
 27 H       -2.1000    -0.6850    -2.3940 H     1 <1>   0.0800 
 28 H       -3.7790    -0.2750    -2.6100 H     1 <1>   0.0800 
 29 H       -4.9870     0.9980    -0.8340 H     1 <1>   0.0800 
 30 H       -4.1540     1.4970     0.6110 H     1 <1>   0.0800 
 31 H       -0.0190     3.3050    -0.2730 H     1 <1>   0.0800 
 32 H        0.4080     2.0770     0.9190 H     1 <1>   0.0800 
 33 H       -2.6450    -2.1980    -0.5790 H     1 <1>   0.0800 
 34 H       -3.5680    -2.6460    -1.9780 H     1 <1>   0.0800 
 35 H       -5.5800    -0.4630     1.0810 H     1 <1>   0.0800 
 36 H       -3.9080    -0.8270     1.3180 H     1 <1>   0.0800 
 37 H        0.6830     5.1500     2.6720 H     1 <1>   0.0800 
 38 H        1.1300     4.9490     0.9810 H     1 <1>   0.0800 
 39 H        1.5760     3.7180     2.1730 H     1 <1>   0.0800 
 40 H       -7.7210    -1.3800    -1.8100 H     1 <1>   0.0800 
 41 H       -7.3250    -1.1710    -0.1200 H     1 <1>   0.0800 
 42 H       -3.3150    -3.4680     1.4460 H     1 <1>   0.2700 
 43 H       -7.2930    -3.7580    -1.7090 H     1 <1>   0.0800 
 44 H       -8.2780    -3.3850    -0.3160 H     1 <1>   0.0800 
 45 H       -3.5740    -5.8510     2.9070 H     1 <1>   0.1500 
 46 H       -7.9910    -5.9820     0.6780 H     1 <1>   0.1500 
 47 H       -5.1320    -7.7260     3.3310 H     1 <1>   0.1500 
 48 H       -7.3160    -7.7930     2.2300 H     1 <1>   0.1500 
@<TRIPOS>BOND
  1   1   2  2   
  2   2   3  am  
  3   2   4  1   
  4   3   5  1   
  5   3   6  1   
  6   4   7  1   
  7   4  25  1   
  8   4  26  1   
  9   5   8  1   
 10   5  27  1   
 11   5  28  1   
 12   6   9  1   
 13   6  29  1   
 14   6  30  1   
 15   7  10  1   
 16   7  31  1   
 17   7  32  1   
 18   8  11  1   
 19   8  33  1   
 20   8  34  1   
 21   9  11  1   
 22   9  35  1   
 23   9  36  1   
 24  10  12  1   
 25  11  13  1   
 26  11  14  1   
 27  12  37  1   
 28  12  38  1   
 29  12  39  1   
 30  13  15  1   
 31  14  16  1   
 32  14  17  2   
 33  15  18  1   
 34  15  40  1   
 35  15  41  1   
 36  16  19  1   
 37  16  42  1   
 38  17  18  1   
 39  17  20  1   
 40  18  43  1   
 41  18  44  1   
 42  19  20  ar  
 43  19  21  ar  
 44  20  22  ar  
 45  21  23  ar  
 46  21  45  1   
 47  22  24  ar  
 48  22  46  1   
 49  23  24  ar  
 50  23  47  1   
 51  24  48  1   
@<TRIPOS>SUBSTRUCTURE
  1 ****  11 GROUP 4 **** **** 0

# MOE 2024.06 (io_trps.svl 2023.06)
