@<TRIPOS>MOLECULE
NONAME
42 44 1 0 0 
SMALL
USER_CHARGES


@<TRIPOS>ATOM
  1 O       -0.9440    -0.4770     0.7960 O.3   1 <1>  -0.5600 
  2 C       -1.4280     0.7520     1.2440 C.3   1 <1>   0.1200 
  3 C       -0.9990    -0.7290    -0.5700 C.3   1 <1>   0.1200 
  4 C       -2.9580     0.8980     1.0940 C.3   1 <1>   0.4230 
  5 C       -2.4310    -1.0590    -1.0200 C.3   1 <1>  -0.0800 
  6 N       -3.3380     1.2760    -0.3320 N.4   1 <1>  -0.9590 
  7 C       -3.7150    -0.3170     1.7090 C.3   1 <1>   0.2090 
  8 C       -3.1760    -2.0140    -0.0650 C.3   1 <1>   0.2090 
  9 C       -3.2650     0.1830    -1.3730 C.3   1 <1>   0.3430 
 10 C       -4.7220     1.8430    -0.3480 C.3   1 <1>   0.2630 
 11 N       -4.2390    -1.2880     0.6920 N.pl3 1 <1>  -0.8380 
 12 C       -5.5770    -1.3740     0.3650 C.ar  1 <1>   0.7200 
 13 N       -6.4450    -0.8380     1.2180 N.ar  1 <1>  -0.6200 
 14 N       -5.8750    -1.9240    -0.8090 N.ar  1 <1>  -0.6200 
 15 C       -7.7140    -0.9490     0.9030 C.ar  1 <1>   0.1600 
 16 C       -7.1500    -2.0190    -1.1000 C.ar  1 <1>   0.1600 
 17 C       -8.1340    -1.5430    -0.2650 C.ar  1 <1>  -0.1430 
 18 C       -9.6090    -1.6700    -0.6120 C.3   1 <1>  -0.0170 
 19 C      -10.1770    -2.9820    -0.0670 C.3   1 <1>  -0.2400 
 20 H       -1.1770     0.8080     2.2890 H     1 <1>   0.0800 
 21 H       -0.9030     1.5420     0.7370 H     1 <1>   0.0800 
 22 H       -0.5830     0.1070    -1.1070 H     1 <1>   0.0800 
 23 H       -0.3680    -1.5850    -0.7430 H     1 <1>   0.0800 
 24 H       -3.2110     1.7400     1.7160 H     1 <1>   0.0800 
 25 H       -2.3220    -1.6010    -1.9420 H     1 <1>   0.0800 
 26 H       -2.6870     2.0130    -0.6270 H     1 <1>   0.4500 
 27 H       -4.5160     0.0660     2.3160 H     1 <1>   0.0800 
 28 H       -3.0640    -0.8440     2.3850 H     1 <1>   0.0800 
 29 H       -2.4910    -2.4710     0.6290 H     1 <1>   0.0800 
 30 H       -3.6130    -2.8190    -0.6320 H     1 <1>   0.0800 
 31 H       -4.2640    -0.1620    -1.5870 H     1 <1>   0.0800 
 32 H       -2.8800     0.6040    -2.2870 H     1 <1>   0.0800 
 33 H       -5.4350     1.0950    -0.0420 H     1 <1>   0.0800 
 34 H       -4.9810     2.1750    -1.3400 H     1 <1>   0.0800 
 35 H       -4.7950     2.6810     0.3260 H     1 <1>   0.0800 
 36 H       -8.4400    -0.5560     1.5950 H     1 <1>   0.1500 
 37 H       -7.4210    -2.4910    -2.0290 H     1 <1>   0.1500 
 38 H      -10.1560    -0.8410    -0.1940 H     1 <1>   0.0800 
 39 H       -9.7380    -1.6390    -1.6800 H     1 <1>   0.0800 
 40 H      -10.0750    -3.0190     1.0040 H     1 <1>   0.0800 
 41 H       -9.6550    -3.8210    -0.4910 H     1 <1>   0.0800 
 42 H      -11.2210    -3.0650    -0.3150 H     1 <1>   0.0800 
@<TRIPOS>BOND
  1   1   2  1   
  2   1   3  1   
  3   2   4  1   
  4   2  20  1   
  5   2  21  1   
  6   3   5  1   
  7   3  22  1   
  8   3  23  1   
  9   4   6  1   
 10   4   7  1   
 11   4  24  1   
 12   5   8  1   
 13   5   9  1   
 14   5  25  1   
 15   6   9  1   
 16   6  10  1   
 17   6  26  1   
 18   7  11  1   
 19   7  27  1   
 20   7  28  1   
 21   8  11  1   
 22   8  29  1   
 23   8  30  1   
 24   9  31  1   
 25   9  32  1   
 26  10  33  1   
 27  10  34  1   
 28  10  35  1   
 29  11  12  1   
 30  12  13  ar  
 31  12  14  ar  
 32  13  15  ar  
 33  14  16  ar  
 34  15  17  ar  
 35  15  36  1   
 36  16  17  ar  
 37  16  37  1   
 38  17  18  1   
 39  18  19  1   
 40  18  38  1   
 41  18  39  1   
 42  19  40  1   
 43  19  41  1   
 44  19  42  1   
@<TRIPOS>SUBSTRUCTURE
  1 ****  12 GROUP 4 **** **** 0

# MOE 2024.06 (io_trps.svl 2023.06)
