@<TRIPOS>MOLECULE
NONAME
53 56 1 0 0 
SMALL
USER_CHARGES


@<TRIPOS>ATOM
  1 O       -0.5330    -0.3020     0.1430 O.3   1 <1>  -0.3630 
  2 C       -0.7390    -1.6130     0.4340 C.ar  1 <1>   0.0830 
  3 C        0.7420     0.2970     0.2220 C.3   1 <1>   0.0400 
  4 C       -2.0640    -2.0640     0.5240 C.ar  1 <1>   0.0000 
  5 C        0.3180    -2.4950     0.6480 C.ar  1 <1>  -0.1500 
  6 C       -3.2010    -1.1980     0.2980 C.ar  1 <1>   0.3100 
  7 C       -2.2760    -3.4050     0.8460 C.ar  1 <1>  -0.1500 
  8 C        0.0770    -3.8200     0.9580 C.ar  1 <1>  -0.1500 
  9 N       -4.1680    -1.1710     1.2260 N.ar  1 <1>  -0.3100 
 10 C       -3.3070    -0.4430    -0.8600 C.ar  1 <1>  -0.1500 
 11 C       -1.2240    -4.2750     1.0600 C.ar  1 <1>  -0.1500 
 12 N       -5.2320    -0.4220     1.0670 N.ar  1 <1>  -0.3100 
 13 C       -4.4180     0.3430    -1.0260 C.ar  1 <1>  -0.1500 
 14 C       -5.3750     0.3350    -0.0280 C.ar  1 <1>   0.4100 
 15 N       -6.5070     1.1220    -0.1540 N.pl3 1 <1>  -0.8380 
 16 C       -7.7810     0.6940     0.5050 C.3   1 <1>   0.2090 
 17 C       -6.3580     2.5940    -0.2390 C.3   1 <1>   0.2090 
 18 C       -9.0060     1.2320    -0.2770 C.3   1 <1>   0.0000 
 19 C       -7.5330     3.1790    -1.0300 C.3   1 <1>  -0.1600 
 20 C      -10.3260     0.8310     0.4030 C.3   1 <1>   0.2000 
 21 C       -8.8890     2.7660    -0.4280 C.3   1 <1>  -0.1600 
 22 C       -9.1250     0.5190    -1.6360 C.3   1 <1>  -0.1600 
 23 O      -10.2380     0.9360     1.7930 O.3   1 <1>  -0.5600 
 24 C      -10.5970    -0.6130    -0.0320 C.3   1 <1>  -0.1600 
 25 C       -9.8290    -0.8110    -1.3470 C.3   1 <1>  -0.1600 
 26 C      -11.4560     0.8870     2.4650 C.3   1 <1>   0.0400 
 27 H        0.6290     1.3480     0.0290 H     1 <1>   0.0800 
 28 H        1.3820    -0.1440    -0.5210 H     1 <1>   0.0800 
 29 H        1.1370     0.1480     1.2120 H     1 <1>   0.0800 
 30 H        1.3380    -2.1700     0.5770 H     1 <1>   0.1500 
 31 H       -3.2870    -3.7650     0.9300 H     1 <1>   0.1500 
 32 H        0.8980    -4.4960     1.1230 H     1 <1>   0.1500 
 33 H       -2.5320    -0.4790    -1.6020 H     1 <1>   0.1500 
 34 H       -1.4190    -5.3040     1.3060 H     1 <1>   0.1500 
 35 H       -4.5610     0.9440    -1.9020 H     1 <1>   0.1500 
 36 H       -7.8190    -0.3790     0.5620 H     1 <1>   0.0800 
 37 H       -7.7900     1.0750     1.5120 H     1 <1>   0.0800 
 38 H       -6.3480     3.0020     0.7580 H     1 <1>   0.0800 
 39 H       -5.4290     2.8500    -0.7170 H     1 <1>   0.0800 
 40 H       -7.4550     4.2510    -1.0350 H     1 <1>   0.0800 
 41 H       -7.4650     2.8410    -2.0480 H     1 <1>   0.0800 
 42 H      -11.1140     1.4750     0.0500 H     1 <1>   0.0800 
 43 H       -9.6880     3.1440    -1.0410 H     1 <1>   0.0800 
 44 H       -8.9850     3.2130     0.5470 H     1 <1>   0.0800 
 45 H       -9.7420     1.1010    -2.2980 H     1 <1>   0.0800 
 46 H       -8.1690     0.3660    -2.1080 H     1 <1>   0.0800 
 47 H      -10.2230    -1.3000     0.7070 H     1 <1>   0.0800 
 48 H      -11.6500    -0.7730    -0.1760 H     1 <1>   0.0800 
 49 H       -9.0950    -1.5890    -1.2210 H     1 <1>   0.0800 
 50 H      -10.4870    -1.0820    -2.1540 H     1 <1>   0.0800 
 51 H      -11.2590     0.9990     3.5170 H     1 <1>   0.0800 
 52 H      -11.9280    -0.0630     2.2860 H     1 <1>   0.0800 
 53 H      -12.0820     1.6940     2.1270 H     1 <1>   0.0800 
@<TRIPOS>BOND
  1   1   2  1   
  2   1   3  1   
  3   2   4  ar  
  4   2   5  ar  
  5   3  27  1   
  6   3  28  1   
  7   3  29  1   
  8   4   6  1   
  9   4   7  ar  
 10   5   8  ar  
 11   5  30  1   
 12   6   9  ar  
 13   6  10  ar  
 14   7  11  ar  
 15   7  31  1   
 16   8  11  ar  
 17   8  32  1   
 18   9  12  ar  
 19  10  13  ar  
 20  10  33  1   
 21  11  34  1   
 22  12  14  ar  
 23  13  14  ar  
 24  13  35  1   
 25  14  15  1   
 26  15  16  1   
 27  15  17  1   
 28  16  18  1   
 29  16  36  1   
 30  16  37  1   
 31  17  19  1   
 32  17  38  1   
 33  17  39  1   
 34  18  20  1   
 35  18  21  1   
 36  18  22  1   
 37  19  21  1   
 38  19  40  1   
 39  19  41  1   
 40  20  23  1   
 41  20  24  1   
 42  20  42  1   
 43  21  43  1   
 44  21  44  1   
 45  22  25  1   
 46  22  45  1   
 47  22  46  1   
 48  23  26  1   
 49  24  25  1   
 50  24  47  1   
 51  24  48  1   
 52  25  49  1   
 53  25  50  1   
 54  26  51  1   
 55  26  52  1   
 56  26  53  1   
@<TRIPOS>SUBSTRUCTURE
  1 ****  14 GROUP 4 **** **** 0

# MOE 2024.06 (io_trps.svl 2023.06)
