@<TRIPOS>MOLECULE
NONAME
57 59 1 0 0 
SMALL
USER_CHARGES


@<TRIPOS>ATOM
  1 O       -1.1240     0.1840     1.8780 O.2   1 <1>  -0.5700 
  2 C       -1.6300     0.9640     1.1030 C.2   1 <1>   0.5690 
  3 N       -2.5030     0.4950     0.1440 N.am  1 <1>  -0.6600 
  4 C       -1.3120     2.4610     1.2840 C.3   1 <1>   0.1710 
  5 C       -2.6080    -0.9660    -0.1150 C.3   1 <1>   0.1400 
  6 C       -3.5690     1.2990    -0.5110 C.3   1 <1>   0.1400 
  7 N       -0.2920     3.0320     0.3580 N.3   1 <1>  -0.8100 
  8 C       -3.9570    -1.4790     0.4320 C.3   1 <1>   0.4230 
  9 C       -4.9230     0.8170     0.0270 C.3   1 <1>  -0.1600 
 10 C        0.1380     4.3670     0.8170 C.3   1 <1>   0.2540 
 11 C       -0.7220     3.0510    -1.0480 C.3   1 <1>   0.0300 
 12 N       -4.1020    -2.9940     0.3950 N.4   1 <1>  -0.9590 
 13 C       -5.1670    -0.7080    -0.1790 C.3   1 <1>   0.0000 
 14 C        1.3270     4.8880     0.0180 C.ar  1 <1>  -0.1440 
 15 C       -5.5160    -3.4770     0.5160 C.3   1 <1>   0.3430 
 16 C       -3.4220    -3.6820    -0.7520 C.3   1 <1>   0.2630 
 17 C       -6.4670    -1.1130     0.5770 C.3   1 <1>  -0.1600 
 18 C       -5.2990    -1.0330    -1.6960 C.3   1 <1>   0.1200 
 19 C        1.2750     6.1320    -0.5950 C.ar  1 <1>  -0.1500 
 20 C        2.4790     4.1250    -0.0970 C.ar  1 <1>  -0.1500 
 21 C       -6.3740    -2.4770     1.2900 C.3   1 <1>  -0.1600 
 22 O       -6.2170    -0.2040    -2.3180 O.3   1 <1>  -0.6800 
 23 C        2.3600     6.6040    -1.3140 C.ar  1 <1>  -0.1500 
 24 C        3.5650     4.5950    -0.8150 C.ar  1 <1>  -0.1500 
 25 C        3.5060     5.8370    -1.4230 C.ar  1 <1>  -0.1500 
 26 H       -0.9410     2.5640     2.2890 H     1 <1>   0.0800 
 27 H       -2.2160     3.0360     1.2290 H     1 <1>   0.0800 
 28 H       -2.5220    -1.1300    -1.1730 H     1 <1>   0.0800 
 29 H       -1.8000    -1.4870     0.3690 H     1 <1>   0.0800 
 30 H       -3.4530     2.3470    -0.3040 H     1 <1>   0.0800 
 31 H       -3.5170     1.1710    -1.5790 H     1 <1>   0.0800 
 32 H       -3.9490    -1.2060     1.4750 H     1 <1>   0.0800 
 33 H       -4.9520     1.0530     1.0780 H     1 <1>   0.0800 
 34 H       -5.7050     1.3930    -0.4360 H     1 <1>   0.0800 
 35 H       -0.6850     5.0560     0.7450 H     1 <1>   0.0800 
 36 H        0.4360     4.3080     1.8500 H     1 <1>   0.0800 
 37 H        0.0680     3.4280    -1.6740 H     1 <1>   0.0800 
 38 H       -1.5900     3.6740    -1.1710 H     1 <1>   0.0800 
 39 H       -0.9440     2.0530    -1.3800 H     1 <1>   0.0800 
 40 H       -3.6220    -3.3130     1.2520 H     1 <1>   0.4500 
 41 H       -5.9430    -3.6040    -0.4650 H     1 <1>   0.0800 
 42 H       -5.5350    -4.4350     1.0120 H     1 <1>   0.0800 
 43 H       -3.8440    -3.3600    -1.6900 H     1 <1>   0.0800 
 44 H       -3.5420    -4.7500    -0.6710 H     1 <1>   0.0800 
 45 H       -2.3670    -3.4630    -0.7540 H     1 <1>   0.0800 
 46 H       -6.7150    -0.3790     1.3260 H     1 <1>   0.0800 
 47 H       -7.2990    -1.1320    -0.1040 H     1 <1>   0.0800 
 48 H       -5.6190    -2.0460    -1.8580 H     1 <1>   0.0800 
 49 H       -4.3670    -0.8860    -2.2110 H     1 <1>   0.0800 
 50 H        0.3900     6.7380    -0.5180 H     1 <1>   0.1500 
 51 H        2.5210     3.1560     0.3710 H     1 <1>   0.1500 
 52 H       -7.3650    -2.8790     1.4110 H     1 <1>   0.0800 
 53 H       -5.9630    -2.3520     2.2780 H     1 <1>   0.0800 
 54 H       -7.1260    -0.3380    -1.9840 H     1 <1>   0.4000 
 55 H        2.3130     7.5690    -1.7870 H     1 <1>   0.1500 
 56 H        4.4530     3.9940    -0.8990 H     1 <1>   0.1500 
 57 H        4.3500     6.2030    -1.9810 H     1 <1>   0.1500 
@<TRIPOS>BOND
  1   1   2  2   
  2   2   3  am  
  3   2   4  1   
  4   3   5  1   
  5   3   6  1   
  6   4   7  1   
  7   4  26  1   
  8   4  27  1   
  9   5   8  1   
 10   5  28  1   
 11   5  29  1   
 12   6   9  1   
 13   6  30  1   
 14   6  31  1   
 15   7  10  1   
 16   7  11  1   
 17   8  12  1   
 18   8  13  1   
 19   8  32  1   
 20   9  13  1   
 21   9  33  1   
 22   9  34  1   
 23  10  14  1   
 24  10  35  1   
 25  10  36  1   
 26  11  37  1   
 27  11  38  1   
 28  11  39  1   
 29  12  15  1   
 30  12  16  1   
 31  12  40  1   
 32  13  17  1   
 33  13  18  1   
 34  14  19  ar  
 35  14  20  ar  
 36  15  21  1   
 37  15  41  1   
 38  15  42  1   
 39  16  43  1   
 40  16  44  1   
 41  16  45  1   
 42  17  21  1   
 43  17  46  1   
 44  17  47  1   
 45  18  22  1   
 46  18  48  1   
 47  18  49  1   
 48  19  23  ar  
 49  19  50  1   
 50  20  24  ar  
 51  20  51  1   
 52  21  52  1   
 53  21  53  1   
 54  22  54  1   
 55  23  25  ar  
 56  23  55  1   
 57  24  25  ar  
 58  24  56  1   
 59  25  57  1   
@<TRIPOS>SUBSTRUCTURE
  1 ****   3 GROUP 4 **** **** 0

# MOE 2024.06 (io_trps.svl 2023.06)
