@<TRIPOS>MOLECULE
NONAME
53 54 1 0 0 
SMALL
USER_CHARGES


@<TRIPOS>ATOM
  1 F       -0.5230     0.7270     0.0790 F     1 <1>  -0.1900 
  2 C       -1.8270     0.8330     0.0310 C.ar  1 <1>   0.1900 
  3 C       -2.4740     1.5980    -0.9460 C.ar  1 <1>   0.0830 
  4 C       -2.5350     0.1500     1.0020 C.ar  1 <1>  -0.1500 
  5 O       -1.8890     2.3130    -1.9500 O.3   1 <1>  -0.3630 
  6 C       -3.8570     1.6490    -0.9100 C.ar  1 <1>  -0.1500 
  7 C       -3.9150     0.2230     1.0090 C.ar  1 <1>  -0.1500 
  8 C       -0.4950     2.3450    -2.1610 C.3   1 <1>   0.0400 
  9 C       -4.6070     0.9690     0.0520 C.ar  1 <1>   0.0530 
 10 C       -6.0460     1.0560     0.0530 C.2   1 <1>   0.0870 
 11 O       -6.6200     2.2030    -0.2070 O.3   1 <1>  -0.0190 
 12 C       -7.0420     0.1580     0.2900 C.2   1 <1>  -0.0860 
 13 N       -7.9230     2.1470    -0.1570 N.2   1 <1>  -0.4100 
 14 C       -8.2050     0.9260     0.1360 C.2   1 <1>   0.3720 
 15 C       -6.9880    -1.2380     0.6070 C.2   1 <1>   0.7160 
 16 N       -9.5230     0.4490     0.2520 N.pl3 1 <1>  -0.8210 
 17 O       -5.9850    -1.8940     0.3960 O.2   1 <1>  -0.5700 
 18 N       -8.0760    -1.8420     1.1570 N.am  1 <1>  -0.7300 
 19 C       -9.9950    -0.2720    -0.9650 C.3   1 <1>   0.1290 
 20 C      -10.5200     1.4450     0.7330 C.3   1 <1>   0.1290 
 21 C       -8.3850    -3.2780     1.2290 C.3   1 <1>   0.3000 
 22 C       -8.2110    -3.9660    -0.1480 C.3   1 <1>   0.1200 
 23 C       -7.4780    -3.9220     2.2820 C.3   1 <1>  -0.2400 
 24 C       -9.8380    -3.3790     1.7000 C.3   1 <1>  -0.2400 
 25 O       -9.0110    -3.3660    -1.1330 O.3   1 <1>  -0.5600 
 26 C       -8.8110    -3.8930    -2.4010 C.3   1 <1>   0.1200 
 27 C       -9.7610    -3.1810    -3.3560 C.3   1 <1>  -0.2400 
 28 H       -2.0110    -0.4310     1.7390 H     1 <1>   0.1500 
 29 H       -4.3680     2.2330    -1.6540 H     1 <1>   0.1500 
 30 H       -4.4660    -0.3070     1.7650 H     1 <1>   0.1500 
 31 H       -0.3010     2.9590    -3.0220 H     1 <1>   0.0800 
 32 H       -0.1450     1.3440    -2.3420 H     1 <1>   0.0800 
 33 H       -0.0190     2.7710    -1.2960 H     1 <1>   0.0800 
 34 H       -8.9180    -1.2530     1.1070 H     1 <1>   0.3700 
 35 H       -9.1780    -0.8030    -1.4230 H     1 <1>   0.0800 
 36 H      -10.3940     0.4260    -1.6810 H     1 <1>   0.0800 
 37 H      -10.7560    -0.9850    -0.6990 H     1 <1>   0.0800 
 38 H      -10.1400     1.9490     1.6050 H     1 <1>   0.0800 
 39 H      -11.4400     0.9500     0.9920 H     1 <1>   0.0800 
 40 H      -10.7130     2.1780    -0.0330 H     1 <1>   0.0800 
 41 H       -8.4950    -5.0010    -0.0720 H     1 <1>   0.0800 
 42 H       -7.1820    -3.9140    -0.4570 H     1 <1>   0.0800 
 43 H       -6.4500    -3.8820     1.9730 H     1 <1>   0.0800 
 44 H       -7.7450    -4.9540     2.4210 H     1 <1>   0.0800 
 45 H       -7.5780    -3.4140     3.2240 H     1 <1>   0.0800 
 46 H      -10.4970    -2.9090     0.9910 H     1 <1>   0.0800 
 47 H       -9.9600    -2.9080     2.6590 H     1 <1>   0.0800 
 48 H      -10.1270    -4.4110     1.7880 H     1 <1>   0.0800 
 49 H       -9.0210    -4.9490    -2.3750 H     1 <1>   0.0800 
 50 H       -7.7860    -3.7260    -2.6890 H     1 <1>   0.0800 
 51 H      -10.7780    -3.3090    -3.0300 H     1 <1>   0.0800 
 52 H       -9.6610    -3.5970    -4.3420 H     1 <1>   0.0800 
 53 H       -9.5230    -2.1340    -3.4030 H     1 <1>   0.0800 
@<TRIPOS>BOND
  1   1   2  1   
  2   2   3  ar  
  3   2   4  ar  
  4   3   5  1   
  5   3   6  ar  
  6   4   7  ar  
  7   4  28  1   
  8   5   8  1   
  9   6   9  ar  
 10   6  29  1   
 11   7   9  ar  
 12   7  30  1   
 13   8  31  1   
 14   8  32  1   
 15   8  33  1   
 16   9  10  1   
 17  10  11  1   
 18  10  12  2   
 19  11  13  1   
 20  12  14  1   
 21  12  15  1   
 22  13  14  2   
 23  14  16  1   
 24  15  17  2   
 25  15  18  am  
 26  16  19  1   
 27  16  20  1   
 28  18  21  1   
 29  18  34  1   
 30  19  35  1   
 31  19  36  1   
 32  19  37  1   
 33  20  38  1   
 34  20  39  1   
 35  20  40  1   
 36  21  22  1   
 37  21  23  1   
 38  21  24  1   
 39  22  25  1   
 40  22  41  1   
 41  22  42  1   
 42  23  43  1   
 43  23  44  1   
 44  23  45  1   
 45  24  46  1   
 46  24  47  1   
 47  24  48  1   
 48  25  26  1   
 49  26  27  1   
 50  26  49  1   
 51  26  50  1   
 52  27  51  1   
 53  27  52  1   
 54  27  53  1   
@<TRIPOS>SUBSTRUCTURE
  1 ****  12 GROUP 4 **** **** 0

# MOE 2024.06 (io_trps.svl 2023.06)
