@<TRIPOS>MOLECULE
NONAME
20 21 1 0 0 
SMALL
USER_CHARGES


@<TRIPOS>ATOM
  1 O        6.4480     0.5230    -0.4410 O.3   1 <1>  -0.5380 
  2 C        5.2370     1.2150    -0.4710 C.3   1 <1>   0.2580 
  3 C        6.1310    -0.6940     0.1370 C.3   1 <1>   0.1200 
  4 C        4.5760     0.9910     0.9200 C.3   1 <1>   0.0000 
  5 C        4.1700     0.1980    -0.9710 C.3   1 <1>   0.0000 
  6 C        5.3350     2.6080    -1.0760 C.3   1 <1>  -0.2400 
  7 C        4.6440    -0.4510     0.3540 C.3   1 <1>   0.4720 
  8 N        3.7680    -1.4710     0.9700 N.4   1 <1>  -0.8220 
  9 H        6.6900    -0.8010     1.0510 H     1 <1>   0.0800 
 10 H        6.3430    -1.4790    -0.5680 H     1 <1>   0.0800 
 11 H        3.5900     1.4140     1.0340 H     1 <1>   0.0000 
 12 H        5.2360     1.1970     1.7450 H     1 <1>   0.0000 
 13 H        4.4600    -0.3190    -1.8700 H     1 <1>   0.0000 
 14 H        3.1550     0.5670    -0.9880 H     1 <1>   0.0000 
 15 H        6.0210     3.2080    -0.5060 H     1 <1>   0.0800 
 16 H        4.3730     3.0880    -1.0710 H     1 <1>   0.0800 
 17 H        5.6800     2.5430    -2.0920 H     1 <1>   0.0800 
 18 H        4.0860    -1.6960     1.9190 H     1 <1>   0.4500 
 19 H        3.7610    -2.3290     0.4090 H     1 <1>   0.4500 
 20 H        2.8060    -1.1180     1.0290 H     1 <1>   0.4500 
@<TRIPOS>BOND
  1   1   2  1   
  2   1   3  1   
  3   2   4  1   
  4   2   5  1   
  5   2   6  1   
  6   3   7  1   
  7   3   9  1   
  8   3  10  1   
  9   4   7  1   
 10   4  11  1   
 11   4  12  1   
 12   5   7  1   
 13   5  13  1   
 14   5  14  1   
 15   6  15  1   
 16   6  16  1   
 17   6  17  1   
 18   7   8  1   
 19   8  18  1   
 20   8  19  1   
 21   8  20  1   
@<TRIPOS>SUBSTRUCTURE
  1 ****   2 GROUP 4 **** **** 0

# MOE 2024.06 (io_trps.svl 2023.06)
