@<TRIPOS>MOLECULE
NONAME
54 57 1 0 0 
SMALL
USER_CHARGES


@<TRIPOS>ATOM
  1 O       -2.0990     1.4640     3.4970 O.3   1 <1>  -0.5600 
  2 C       -0.7100     1.3390     3.4480 C.3   1 <1>   0.1200 
  3 C       -2.6410     1.2850     2.2200 C.3   1 <1>   0.1200 
  4 C       -0.3190     1.8480     2.0670 C.3   1 <1>   0.2890 
  5 C       -1.4650     1.2890     1.2350 C.3   1 <1>  -0.0800 
  6 N       -0.3460     3.3350     2.0890 N.pl3 1 <1>  -0.8690 
  7 C       -1.7520     2.0190    -0.0900 C.3   1 <1>  -0.0170 
  8 C        0.4620     4.1850     1.4240 C.ar  1 <1>   0.4100 
  9 C       -2.8360     1.3060    -0.8810 C.ar  1 <1>  -0.1430 
 10 N        1.2950     3.6520     0.5560 N.ar  1 <1>  -0.6200 
 11 C        0.3830     5.5820     1.6530 C.ar  1 <1>  -0.1430 
 12 C       -2.5570     0.1960    -1.6540 C.ar  1 <1>  -0.1500 
 13 C       -4.1500     1.7260    -0.8700 C.ar  1 <1>  -0.1500 
 14 C        2.0740     4.4670    -0.1330 C.ar  1 <1>   0.7710 
 15 C        1.1930     6.3930     0.9140 C.ar  1 <1>   0.2180 
 16 C       -0.5930     6.0940     2.7200 C.3   1 <1>  -0.0970 
 17 C       -3.5780    -0.4240    -2.3540 C.ar  1 <1>   0.1600 
 18 C       -5.0960     1.0340    -1.6080 C.ar  1 <1>   0.1600 
 19 N        2.0330     5.7970     0.0350 N.ar  1 <1>  -0.1790 
 20 N        2.9370     3.9470    -1.0400 N.pl3 1 <1>  -0.8380 
 21 C        1.2480     7.9150     0.9790 C.3   1 <1>  -0.0970 
 22 N       -4.8420    -0.0330    -2.3480 N.ar  1 <1>  -0.6200 
 23 C        3.8600     4.6640    -1.9620 C.3   1 <1>   0.2090 
 24 C        3.0480     2.4760    -1.2530 C.3   1 <1>   0.2090 
 25 C        4.3310     3.6060    -2.9510 C.3   1 <1>  -0.1600 
 26 C        4.2420     2.2950    -2.1800 C.3   1 <1>  -0.1600 
 27 H       -0.2640     1.9060     4.2450 H     1 <1>   0.0800 
 28 H       -0.4670     0.2960     3.5560 H     1 <1>   0.0800 
 29 H       -3.1780     0.3520     2.1940 H     1 <1>   0.0800 
 30 H       -3.3190     2.1000     2.0370 H     1 <1>   0.0800 
 31 H        0.6440     1.4790     1.7570 H     1 <1>   0.0800 
 32 H       -1.2340     0.2630     1.0090 H     1 <1>   0.0800 
 33 H       -1.0780     3.6820     2.7170 H     1 <1>   0.4000 
 34 H       -0.8510     2.0570    -0.6780 H     1 <1>   0.0800 
 35 H       -2.0570     3.0330     0.1000 H     1 <1>   0.0800 
 36 H       -1.5580    -0.1930    -1.7180 H     1 <1>   0.1500 
 37 H       -4.4510     2.5840    -0.2980 H     1 <1>   0.1500 
 38 H       -0.4370     7.1260     2.9710 H     1 <1>   0.0800 
 39 H       -0.4730     5.5330     3.6300 H     1 <1>   0.0800 
 40 H       -1.6060     5.9760     2.3780 H     1 <1>   0.0800 
 41 H       -3.3430    -1.2880    -2.9520 H     1 <1>   0.1500 
 42 H       -6.1170     1.3750    -1.5870 H     1 <1>   0.1500 
 43 H        2.6780     6.3220    -0.5380 H     1 <1>   0.4570 
 44 H        0.3220     8.3300     1.3300 H     1 <1>   0.0800 
 45 H        1.4280     8.3330     0.0040 H     1 <1>   0.0800 
 46 H        2.0370     8.2280     1.6410 H     1 <1>   0.0800 
 47 H        3.3670     5.4690    -2.4800 H     1 <1>   0.0800 
 48 H        4.7050     5.0380    -1.4070 H     1 <1>   0.0800 
 49 H        3.1950     1.9540    -0.3220 H     1 <1>   0.0800 
 50 H        2.1500     2.1170    -1.7270 H     1 <1>   0.0800 
 51 H        3.6580     3.5820    -3.7910 H     1 <1>   0.0800 
 52 H        5.3260     3.8030    -3.3080 H     1 <1>   0.0800 
 53 H        5.1290     2.1540    -1.5870 H     1 <1>   0.0800 
 54 H        4.1180     1.4450    -2.8280 H     1 <1>   0.0800 
@<TRIPOS>BOND
  1   1   2  1   
  2   1   3  1   
  3   2   4  1   
  4   2  27  1   
  5   2  28  1   
  6   3   5  1   
  7   3  29  1   
  8   3  30  1   
  9   4   5  1   
 10   4   6  1   
 11   4  31  1   
 12   5   7  1   
 13   5  32  1   
 14   6   8  1   
 15   6  33  1   
 16   7   9  1   
 17   7  34  1   
 18   7  35  1   
 19   8  10  ar  
 20   8  11  ar  
 21   9  12  ar  
 22   9  13  ar  
 23  10  14  ar  
 24  11  15  ar  
 25  11  16  1   
 26  12  17  ar  
 27  12  36  1   
 28  13  18  ar  
 29  13  37  1   
 30  14  19  ar  
 31  14  20  1   
 32  15  19  ar  
 33  15  21  1   
 34  16  38  1   
 35  16  39  1   
 36  16  40  1   
 37  17  22  ar  
 38  17  41  1   
 39  18  22  ar  
 40  18  42  1   
 41  19  43  1   
 42  20  23  1   
 43  20  24  1   
 44  21  44  1   
 45  21  45  1   
 46  21  46  1   
 47  23  25  1   
 48  23  47  1   
 49  23  48  1   
 50  24  26  1   
 51  24  49  1   
 52  24  50  1   
 53  25  26  1   
 54  25  51  1   
 55  25  52  1   
 56  26  53  1   
 57  26  54  1   
@<TRIPOS>SUBSTRUCTURE
  1 ****  10 GROUP 4 **** **** 0

# MOE 2024.06 (io_trps.svl 2023.06)
