@<TRIPOS>MOLECULE
NONAME
54 57 1 0 0 
SMALL
USER_CHARGES


@<TRIPOS>ATOM
  1 O        0.1360    -0.0970    -0.0400 O.2   1 <1>  -0.5700 
  2 C       -0.5620     0.8080    -0.4310 C.2   1 <1>   0.5690 
  3 N       -1.8860     0.9110    -0.0810 N.am  1 <1>  -0.6600 
  4 C        0.1030     1.8260    -1.3340 C.3   1 <1>  -0.0990 
  5 C       -2.7880     2.0650    -0.4270 C.3   1 <1>   0.1400 
  6 C       -2.5820    -0.2290     0.5860 C.3   1 <1>   0.1400 
  7 C        0.6860     2.9590    -0.4980 C.3   1 <1>   0.1400 
  8 C       -3.5860     2.5620     0.7970 C.3   1 <1>   0.1440 
  9 C       -3.3500     0.2500     1.8220 C.3   1 <1>  -0.1600 
 10 N        1.1330     4.0510    -1.3900 N.am  1 <1>  -0.7300 
 11 C       -4.5430     3.6460     0.3340 C.ar  1 <1>   0.1670 
 12 C       -4.3230     1.3850     1.4700 C.3   1 <1>  -0.1600 
 13 C       -2.6820     3.3250     1.8010 C.3   1 <1>  -0.1600 
 14 C        0.3530     5.0950    -1.7600 C.2   1 <1>   0.5690 
 15 N       -5.6400     3.4490    -0.3570 N.ar  1 <1>  -0.6200 
 16 C       -4.1180     4.8820     0.7110 C.ar  1 <1>  -0.1440 
 17 C       -2.8240     4.8240     1.4840 C.3   1 <1>  -0.0170 
 18 O       -0.7900     5.2060    -1.3910 O.2   1 <1>  -0.5700 
 19 C        0.9430     6.1400    -2.6690 C.3   1 <1>  -0.1790 
 20 C       -6.3390     4.5490    -0.6680 C.ar  1 <1>   0.6200 
 21 C       -4.8840     5.9580     0.3460 C.ar  1 <1>   0.1600 
 22 N       -5.9960     5.8020    -0.3360 N.ar  1 <1>  -0.6200 
 23 C       -7.5700     4.3670    -1.4270 C.ar  1 <1>   0.0000 
 24 C       -7.7370     3.2950    -2.3080 C.ar  1 <1>  -0.1500 
 25 C       -8.6430     5.2560    -1.3090 C.ar  1 <1>  -0.1500 
 26 C       -8.9040     3.1170    -3.0280 C.ar  1 <1>  -0.1500 
 27 C       -9.8140     5.0860    -2.0260 C.ar  1 <1>  -0.1500 
 28 C       -9.9470     4.0130    -2.8880 C.ar  1 <1>  -0.1500 
 29 H       -0.6020     2.2000    -2.0510 H     1 <1>   0.0800 
 30 H        0.8950     1.3380    -1.8720 H     1 <1>   0.0800 
 31 H       -3.4810     1.7410    -1.1850 H     1 <1>   0.0800 
 32 H       -2.2320     2.8930    -0.8260 H     1 <1>   0.0800 
 33 H       -1.8760    -0.9880     0.8790 H     1 <1>   0.0800 
 34 H       -3.2670    -0.6730    -0.1160 H     1 <1>   0.0800 
 35 H        1.5140     2.6010     0.0910 H     1 <1>   0.0800 
 36 H       -0.0640     3.3390     0.1740 H     1 <1>   0.0800 
 37 H       -2.6450     0.5750     2.5660 H     1 <1>   0.0800 
 38 H       -3.8990    -0.5780     2.2350 H     1 <1>   0.0800 
 39 H        2.0860     3.9770    -1.7510 H     1 <1>   0.3700 
 40 H       -5.0680     1.0060     0.7910 H     1 <1>   0.0800 
 41 H       -4.8360     1.7240     2.3530 H     1 <1>   0.0800 
 42 H       -1.6580     3.0000     1.7640 H     1 <1>   0.0800 
 43 H       -3.0440     3.1650     2.8020 H     1 <1>   0.0800 
 44 H       -2.0150     5.1630     0.8630 H     1 <1>   0.0800 
 45 H       -2.8680     5.4160     2.3810 H     1 <1>   0.0800 
 46 H        1.7870     6.6010    -2.1920 H     1 <1>   0.0800 
 47 H        0.2070     6.8940    -2.8790 H     1 <1>   0.0800 
 48 H        1.2510     5.6870    -3.5920 H     1 <1>   0.0800 
 49 H       -4.5820     6.9560     0.6160 H     1 <1>   0.1500 
 50 H       -6.9350     2.5870    -2.4310 H     1 <1>   0.1500 
 51 H       -8.5560     6.0960    -0.6420 H     1 <1>   0.1500 
 52 H       -9.0010     2.2800    -3.6980 H     1 <1>   0.1500 
 53 H      -10.6210     5.7880    -1.9120 H     1 <1>   0.1500 
 54 H      -10.8570     3.8780    -3.4470 H     1 <1>   0.1500 
@<TRIPOS>BOND
  1   1   2  2   
  2   2   3  am  
  3   2   4  1   
  4   3   5  1   
  5   3   6  1   
  6   4   7  1   
  7   4  29  1   
  8   4  30  1   
  9   5   8  1   
 10   5  31  1   
 11   5  32  1   
 12   6   9  1   
 13   6  33  1   
 14   6  34  1   
 15   7  10  1   
 16   7  35  1   
 17   7  36  1   
 18   8  11  1   
 19   8  12  1   
 20   8  13  1   
 21   9  12  1   
 22   9  37  1   
 23   9  38  1   
 24  10  14  am  
 25  10  39  1   
 26  11  15  ar  
 27  11  16  ar  
 28  12  40  1   
 29  12  41  1   
 30  13  17  1   
 31  13  42  1   
 32  13  43  1   
 33  14  18  2   
 34  14  19  1   
 35  15  20  ar  
 36  16  17  1   
 37  16  21  ar  
 38  17  44  1   
 39  17  45  1   
 40  19  46  1   
 41  19  47  1   
 42  19  48  1   
 43  20  22  ar  
 44  20  23  1   
 45  21  22  ar  
 46  21  49  1   
 47  23  24  ar  
 48  23  25  ar  
 49  24  26  ar  
 50  24  50  1   
 51  25  27  ar  
 52  25  51  1   
 53  26  28  ar  
 54  26  52  1   
 55  27  28  ar  
 56  27  53  1   
 57  28  54  1   
@<TRIPOS>SUBSTRUCTURE
  1 ****  11 GROUP 4 **** **** 0

# MOE 2024.06 (io_trps.svl 2023.06)
