@<TRIPOS>MOLECULE
NONAME
44 45 1 0 0 
SMALL
USER_CHARGES


@<TRIPOS>ATOM
  1 S        1.2300    -0.0230     0.3890 S.o2  1 <1>   1.3330 
  2 O        0.9500     0.8890     1.4740 O.2   1 <1>  -0.6500 
  3 O        2.0550    -1.1860     0.6330 O.2   1 <1>  -0.6500 
  4 N       -0.2470    -0.5610    -0.2520 N.am  1 <1>  -0.8490 
  5 C        1.9160     0.9370    -0.9620 C.3   1 <1>  -0.0550 
  6 C       -0.1210    -1.7790    -1.0610 C.3   1 <1>   0.1160 
  7 C       -1.2660    -0.7540     0.7840 C.3   1 <1>   0.1160 
  8 C        3.2460     1.6340    -0.6090 C.3   1 <1>  -0.0800 
  9 C        3.6530     2.6180    -1.6930 C.3   1 <1>   0.2200 
 10 C        4.4270     0.6590    -0.6170 C.3   1 <1>   0.1200 
 11 N        4.5740     3.6200    -1.1140 N.am  1 <1>  -0.7300 
 12 C        4.4120     1.7220    -2.6670 C.3   1 <1>   0.1200 
 13 O        4.9520     0.6780    -1.9110 O.3   1 <1>  -0.5600 
 14 C        4.3000     4.9400    -0.9580 C.2   1 <1>   0.5690 
 15 O        3.2520     5.4140    -1.3220 O.2   1 <1>  -0.5700 
 16 C        5.3280     5.8550    -0.3110 C.3   1 <1>   0.0440 
 17 C        6.5240     5.1120     0.2840 C.ar  1 <1>  -0.1440 
 18 C        7.7240     5.0430    -0.4150 C.ar  1 <1>  -0.1500 
 19 C        6.4090     4.4970     1.5280 C.ar  1 <1>  -0.1500 
 20 C        8.7890     4.3610     0.1450 C.ar  1 <1>   0.1900 
 21 C        7.4800     3.8120     2.0860 C.ar  1 <1>  -0.1500 
 22 F        9.9150     4.3000    -0.5180 F     1 <1>  -0.1900 
 23 C        8.6690     3.7520     1.3830 C.ar  1 <1>   0.1900 
 24 F        9.6800     3.1080     1.9070 F     1 <1>  -0.1900 
 25 H        2.0550     0.3050    -1.8170 H     1 <1>   0.0800 
 26 H        1.1970     1.6900    -1.2240 H     1 <1>   0.0800 
 27 H       -1.0660    -2.0200    -1.5160 H     1 <1>   0.0800 
 28 H        0.1940    -2.6080    -0.4470 H     1 <1>   0.0800 
 29 H        0.6050    -1.6340    -1.8420 H     1 <1>   0.0800 
 30 H       -2.1920    -1.0790     0.3420 H     1 <1>   0.0800 
 31 H       -1.4480     0.1740     1.2990 H     1 <1>   0.0800 
 32 H       -0.9360    -1.4880     1.5010 H     1 <1>   0.0800 
 33 H        3.1430     2.1260     0.3440 H     1 <1>   0.0800 
 34 H        2.8160     3.1070    -2.1620 H     1 <1>   0.0800 
 35 H        4.1590    -0.3520    -0.3650 H     1 <1>   0.0800 
 36 H        5.2010     0.9950     0.0510 H     1 <1>   0.0800 
 37 H        5.4760     3.2530    -0.7990 H     1 <1>   0.3700 
 38 H        5.2010     2.2430    -3.1800 H     1 <1>   0.0800 
 39 H        3.7390     1.2870    -3.3850 H     1 <1>   0.0800 
 40 H        5.6610     6.5570    -1.0520 H     1 <1>   0.0800 
 41 H        4.8350     6.4150     0.4620 H     1 <1>   0.0800 
 42 H        7.8430     5.5080    -1.3780 H     1 <1>   0.1500 
 43 H        5.4790     4.5480     2.0710 H     1 <1>   0.1500 
 44 H        7.3980     3.3350     3.0460 H     1 <1>   0.1500 
@<TRIPOS>BOND
  1   1   2  2   
  2   1   3  2   
  3   1   4  am  
  4   1   5  1   
  5   4   6  1   
  6   4   7  1   
  7   5   8  1   
  8   5  25  1   
  9   5  26  1   
 10   6  27  1   
 11   6  28  1   
 12   6  29  1   
 13   7  30  1   
 14   7  31  1   
 15   7  32  1   
 16   8   9  1   
 17   8  10  1   
 18   8  33  1   
 19   9  11  1   
 20   9  12  1   
 21   9  34  1   
 22  10  13  1   
 23  10  35  1   
 24  10  36  1   
 25  11  14  am  
 26  11  37  1   
 27  12  13  1   
 28  12  38  1   
 29  12  39  1   
 30  14  15  2   
 31  14  16  1   
 32  16  17  1   
 33  16  40  1   
 34  16  41  1   
 35  17  18  ar  
 36  17  19  ar  
 37  18  20  ar  
 38  18  42  1   
 39  19  21  ar  
 40  19  43  1   
 41  20  22  1   
 42  20  23  ar  
 43  21  23  ar  
 44  21  44  1   
 45  23  24  1   
@<TRIPOS>SUBSTRUCTURE
  1 ****  11 GROUP 4 **** **** 0

# MOE 2024.06 (io_trps.svl 2023.06)
