@<TRIPOS>MOLECULE
NONAME
53 56 1 0 0 
SMALL
USER_CHARGES


@<TRIPOS>ATOM
  1 O        0.4330    -0.2150     1.3390 O.3   1 <1>  -0.5600 
  2 C        0.3340    -1.5730     0.9940 C.3   1 <1>   0.1200 
  3 C        1.1980     0.5330     0.4440 C.3   1 <1>   0.1200 
  4 C        1.7300    -2.2280     0.9070 C.3   1 <1>   0.3340 
  5 C        2.6360    -0.0200     0.4000 C.3   1 <1>   0.1900 
  6 N        2.6290    -1.4510     0.0110 N.3   1 <1>  -0.8100 
  7 C        1.6020    -3.6660     0.4110 C.ar  1 <1>  -0.1430 
  8 C        3.4980     0.7980    -0.5840 C.3   1 <1>   0.3430 
  9 C        3.9980    -2.0070    -0.0280 C.3   1 <1>   0.1100 
 10 C        1.8430    -4.7240     1.2750 C.ar  1 <1>  -0.1500 
 11 C        1.2520    -3.9360    -0.9060 C.ar  1 <1>  -0.1500 
 12 N        4.8970     0.2480    -0.7060 N.4   1 <1>  -0.9590 
 13 C        4.8860    -1.2230    -1.0140 C.3   1 <1>   0.3430 
 14 C        1.7390    -6.0310     0.8300 C.ar  1 <1>  -0.1500 
 15 C        1.1460    -5.2410    -1.3520 C.ar  1 <1>  -0.1500 
 16 C        5.7030     1.0170    -1.6800 C.3   1 <1>   0.5240 
 17 C        1.3910    -6.2900    -0.4840 C.ar  1 <1>  -0.1500 
 18 C        5.8790     2.4060    -1.1020 C.2   1 <1>  -0.1810 
 19 C        6.6810     2.8080    -0.0760 C.2   1 <1>  -0.3320 
 20 C        5.2040     3.5410    -1.5580 C.2   1 <1>  -0.1500 
 21 N        6.5160     4.1490     0.1220 N.pl3 1 <1>   0.0480 
 22 C        7.6490     1.9720     0.7510 C.3   1 <1>  -0.0600 
 23 C        5.6070     4.5980    -0.7960 C.2   1 <1>  -0.1320 
 24 C        7.2190     4.9980     1.1150 C.3   1 <1>   0.0160 
 25 C        5.1940     5.9650    -0.8960 C.1   1 <1>   0.5370 
 26 N        4.8700     7.0560    -0.9500 N.1   1 <1>  -0.5570 
 27 H       -0.2550    -2.0630     1.7480 H     1 <1>   0.0800 
 28 H       -0.1810    -1.6520     0.0540 H     1 <1>   0.0800 
 29 H        0.7330     0.4890    -0.5260 H     1 <1>   0.0800 
 30 H        1.1920     1.5520     0.7900 H     1 <1>   0.0800 
 31 H        2.1460    -2.2380     1.9000 H     1 <1>   0.0800 
 32 H        3.0530     0.0850     1.3870 H     1 <1>   0.0800 
 33 H        3.5370     1.8220    -0.2490 H     1 <1>   0.0800 
 34 H        3.0170     0.7810    -1.5480 H     1 <1>   0.0800 
 35 H        4.4350    -1.9900     0.9560 H     1 <1>   0.0800 
 36 H        3.9640    -3.0340    -0.3540 H     1 <1>   0.0800 
 37 H        2.1110    -4.5430     2.3010 H     1 <1>   0.1500 
 38 H        1.0630    -3.1250    -1.5880 H     1 <1>   0.1500 
 39 H        5.3510     0.3990     0.2020 H     1 <1>   0.4500 
 40 H        4.5010    -1.3830    -2.0080 H     1 <1>   0.0800 
 41 H        5.8880    -1.6170    -0.9770 H     1 <1>   0.0800 
 42 H        1.9260    -6.8470     1.5050 H     1 <1>   0.1500 
 43 H        0.8720    -5.4420    -2.3730 H     1 <1>   0.1500 
 44 H        6.6710     0.5610    -1.8090 H     1 <1>   0.0800 
 45 H        5.2070     1.0640    -2.6360 H     1 <1>   0.0800 
 46 H        1.3090    -7.3060    -0.8300 H     1 <1>   0.1500 
 47 H        4.4970     3.5770    -2.3710 H     1 <1>   0.1500 
 48 H        7.6910     0.9570     0.4010 H     1 <1>   0.0800 
 49 H        7.3510     1.9660     1.7850 H     1 <1>   0.0800 
 50 H        8.6410     2.3860     0.6840 H     1 <1>   0.0800 
 51 H        7.6140     4.3930     1.9090 H     1 <1>   0.0800 
 52 H        6.5320     5.7120     1.5330 H     1 <1>   0.0800 
 53 H        8.0230     5.5200     0.6290 H     1 <1>   0.0800 
@<TRIPOS>BOND
  1   1   2  1   
  2   1   3  1   
  3   2   4  1   
  4   2  27  1   
  5   2  28  1   
  6   3   5  1   
  7   3  29  1   
  8   3  30  1   
  9   4   6  1   
 10   4   7  1   
 11   4  31  1   
 12   5   6  1   
 13   5   8  1   
 14   5  32  1   
 15   6   9  1   
 16   7  10  ar  
 17   7  11  ar  
 18   8  12  1   
 19   8  33  1   
 20   8  34  1   
 21   9  13  1   
 22   9  35  1   
 23   9  36  1   
 24  10  14  ar  
 25  10  37  1   
 26  11  15  ar  
 27  11  38  1   
 28  12  13  1   
 29  12  16  1   
 30  12  39  1   
 31  13  40  1   
 32  13  41  1   
 33  14  17  ar  
 34  14  42  1   
 35  15  17  ar  
 36  15  43  1   
 37  16  18  1   
 38  16  44  1   
 39  16  45  1   
 40  17  46  1   
 41  18  19  2   
 42  18  20  1   
 43  19  21  1   
 44  19  22  1   
 45  20  23  2   
 46  20  47  1   
 47  21  23  1   
 48  21  24  1   
 49  22  48  1   
 50  22  49  1   
 51  22  50  1   
 52  23  25  1   
 53  24  51  1   
 54  24  52  1   
 55  24  53  1   
 56  25  26  3   
@<TRIPOS>SUBSTRUCTURE
  1 ****   8 GROUP 4 **** **** 0

# MOE 2024.06 (io_trps.svl 2023.06)
