@<TRIPOS>MOLECULE
NONAME
45 47 1 0 0 
SMALL
USER_CHARGES


@<TRIPOS>ATOM
  1 F       -2.2120     0.8310    -1.9970 F     1 <1>  -0.3400 
  2 C       -2.6410     0.9030    -0.7370 C.3   1 <1>   0.8560 
  3 F       -1.5360     1.0520    -0.0070 F     1 <1>  -0.3400 
  4 N       -3.3530    -0.3640    -0.3570 N.pl3 1 <1>   0.3140 
  5 N       -4.6620    -0.4000    -0.0110 N.2   1 <1>  -0.7070 
  6 C       -2.8130    -1.6010    -0.2960 C.2   1 <1>  -0.3020 
  7 C       -4.9390    -1.6650     0.2740 C.2   1 <1>   0.2030 
  8 C       -3.7850    -2.4420     0.1000 C.2   1 <1>  -0.1500 
  9 C       -6.2090    -2.2460     0.7220 C.2   1 <1>   0.7160 
 10 O       -6.2000    -3.3690     1.2050 O.2   1 <1>  -0.5700 
 11 N       -7.4380    -1.6070     0.6270 N.am  1 <1>  -0.6600 
 12 C       -7.6540    -0.3850    -0.2020 C.3   1 <1>   0.1400 
 13 C       -8.6320    -2.1440     1.3490 C.3   1 <1>   0.1400 
 14 C       -9.1060    -0.3210    -0.6790 C.3   1 <1>  -0.1600 
 15 C       -9.5800    -1.0050     1.7330 C.3   1 <1>  -0.1600 
 16 C      -10.0930    -0.2120     0.5070 C.3   1 <1>   0.2800 
 17 O      -10.0490     1.1450     0.8930 O.3   1 <1>  -0.5600 
 18 C      -11.5440    -0.6610     0.1280 C.3   1 <1>   0.2000 
 19 C      -11.2050     1.9290     0.8180 C.3   1 <1>   0.1200 
 20 O      -11.5660    -1.9790    -0.3580 O.3   1 <1>  -0.6800 
 21 C      -12.2830     0.3410    -0.8180 C.3   1 <1>   0.2800 
 22 C      -11.8130     1.7850    -0.5760 C.3   1 <1>  -0.1600 
 23 O      -13.6250     0.3030    -0.4920 O.3   1 <1>  -0.6800 
 24 C      -12.2180    -0.0040    -2.3130 C.3   1 <1>  -0.2400 
 25 H       -3.2550     1.7760    -0.6250 H     1 <1>   0.0800 
 26 H       -1.7820    -1.8020    -0.5320 H     1 <1>   0.1500 
 27 H       -3.7310    -3.5050     0.2660 H     1 <1>   0.1500 
 28 H       -7.4180     0.4880     0.3840 H     1 <1>   0.0800 
 29 H       -7.0050    -0.4080    -1.0600 H     1 <1>   0.0800 
 30 H       -9.1400    -2.8510     0.7150 H     1 <1>   0.0800 
 31 H       -8.3180    -2.6600     2.2410 H     1 <1>   0.0800 
 32 H       -9.2920    -1.2090    -1.2530 H     1 <1>   0.0800 
 33 H       -9.2240     0.5200    -1.3350 H     1 <1>   0.0800 
 34 H       -9.0470    -0.3500     2.4000 H     1 <1>   0.0800 
 35 H      -10.4040    -1.4200     2.2830 H     1 <1>   0.0800 
 36 H      -12.1000    -0.6890     1.0490 H     1 <1>   0.0800 
 37 H      -11.8910     1.6130     1.5860 H     1 <1>   0.0800 
 38 H      -10.9180     2.9490     1.0050 H     1 <1>   0.0800 
 39 H      -11.3600    -1.9870    -1.3110 H     1 <1>   0.4000 
 40 H      -11.0570     2.0600    -1.2890 H     1 <1>   0.0800 
 41 H      -12.6270     2.4780    -0.6940 H     1 <1>   0.0800 
 42 H      -14.1440     0.7860    -1.1610 H     1 <1>   0.4000 
 43 H      -11.1970    -0.0600    -2.6420 H     1 <1>   0.0800 
 44 H      -12.7100     0.7540    -2.8960 H     1 <1>   0.0800 
 45 H      -12.6910    -0.9500    -2.5070 H     1 <1>   0.0800 
@<TRIPOS>BOND
  1   1   2  1   
  2   2   3  1   
  3   2   4  1   
  4   2  25  1   
  5   4   5  1   
  6   4   6  1   
  7   5   7  2   
  8   6   8  2   
  9   6  26  1   
 10   7   8  1   
 11   7   9  1   
 12   8  27  1   
 13   9  10  2   
 14   9  11  am  
 15  11  12  1   
 16  11  13  1   
 17  12  14  1   
 18  12  28  1   
 19  12  29  1   
 20  13  15  1   
 21  13  30  1   
 22  13  31  1   
 23  14  16  1   
 24  14  32  1   
 25  14  33  1   
 26  15  16  1   
 27  15  34  1   
 28  15  35  1   
 29  16  17  1   
 30  16  18  1   
 31  17  19  1   
 32  18  20  1   
 33  18  21  1   
 34  18  36  1   
 35  19  22  1   
 36  19  37  1   
 37  19  38  1   
 38  20  39  1   
 39  21  22  1   
 40  21  23  1   
 41  21  24  1   
 42  22  40  1   
 43  22  41  1   
 44  23  42  1   
 45  24  43  1   
 46  24  44  1   
 47  24  45  1   
@<TRIPOS>SUBSTRUCTURE
  1 ****  12 GROUP 4 **** **** 0

# MOE 2024.06 (io_trps.svl 2023.06)
