@<TRIPOS>MOLECULE
NONAME
39 41 1 0 0 
SMALL
USER_CHARGES


@<TRIPOS>ATOM
  1 S       -0.7500     0.3080     0.5720 S.3   1 <1>  -0.0800 
  2 C       -0.4920     1.1990    -0.8910 C.2   1 <1>   0.1980 
  3 C       -0.7810    -1.1190    -0.4010 C.2   1 <1>   0.1980 
  4 N       -0.4600     0.4500    -1.9210 N.2   1 <1>  -0.3380 
  5 C       -0.3790     2.7170    -0.8000 C.3   1 <1>   0.2900 
  6 N       -0.6210    -0.8800    -1.6380 N.2   1 <1>  -0.3380 
  7 C       -0.9860    -2.4480     0.2890 C.3   1 <1>  -0.0600 
  8 N        1.0130     3.2310    -0.8410 N.3   1 <1>  -0.8100 
  9 C        0.9980     4.6910    -1.0780 C.3   1 <1>   0.1100 
 10 C        1.7890     2.8410     0.3490 C.3   1 <1>   0.1100 
 11 C        2.3890     5.3040    -1.3040 C.3   1 <1>   0.1400 
 12 C        3.2900     2.8990     0.0530 C.3   1 <1>  -0.1600 
 13 N        3.1410     5.4300    -0.0210 N.am  1 <1>  -0.6600 
 14 C        3.9500     4.2450     0.3830 C.3   1 <1>   0.1400 
 15 C        3.2370     6.6150     0.6930 C.2   1 <1>   0.7150 
 16 O        4.1340     6.7100     1.5150 O.2   1 <1>  -0.5700 
 17 C        2.3490     7.7520     0.5240 C.2   1 <1>   0.0550 
 18 O        1.1610     7.6770    -0.0780 O.3   1 <1>  -0.2800 
 19 C        2.5250     9.0380     0.9410 C.2   1 <1>  -0.1500 
 20 C        0.5930     8.8610    -0.0590 C.2   1 <1>  -0.0100 
 21 C        1.3900     9.7550     0.5610 C.2   1 <1>  -0.1500 
 22 H       -0.8670     3.0620     0.0950 H     1 <1>   0.0800 
 23 H       -0.9190     3.1160    -1.6420 H     1 <1>   0.0800 
 24 H       -0.1950    -2.6180     0.9950 H     1 <1>   0.0800 
 25 H       -0.9810    -3.2390    -0.4400 H     1 <1>   0.0800 
 26 H       -1.9300    -2.4520     0.8020 H     1 <1>   0.0800 
 27 H        0.5140     5.1930    -0.2580 H     1 <1>   0.0800 
 28 H        0.4210     4.8830    -1.9660 H     1 <1>   0.0800 
 29 H        1.5630     1.8220     0.6030 H     1 <1>   0.0800 
 30 H        1.5350     3.4600     1.1940 H     1 <1>   0.0800 
 31 H        2.2780     6.2750    -1.7500 H     1 <1>   0.0800 
 32 H        2.9400     4.7010    -2.0040 H     1 <1>   0.0800 
 33 H        3.4680     2.6330    -0.9740 H     1 <1>   0.0800 
 34 H        3.7800     2.1530     0.6510 H     1 <1>   0.0800 
 35 H        4.9130     4.3000    -0.0940 H     1 <1>   0.0800 
 36 H        4.1120     4.2830     1.4470 H     1 <1>   0.0800 
 37 H        3.3740     9.4360     1.4690 H     1 <1>   0.1500 
 38 H       -0.3790     8.9860    -0.5050 H     1 <1>   0.1500 
 39 H        1.2170    10.8020     0.7420 H     1 <1>   0.1500 
@<TRIPOS>BOND
  1   1   2  1   
  2   1   3  1   
  3   2   4  2   
  4   2   5  1   
  5   3   6  2   
  6   3   7  1   
  7   4   6  1   
  8   5   8  1   
  9   5  22  1   
 10   5  23  1   
 11   7  24  1   
 12   7  25  1   
 13   7  26  1   
 14   8   9  1   
 15   8  10  1   
 16   9  11  1   
 17   9  27  1   
 18   9  28  1   
 19  10  12  1   
 20  10  29  1   
 21  10  30  1   
 22  11  13  1   
 23  11  31  1   
 24  11  32  1   
 25  12  14  1   
 26  12  33  1   
 27  12  34  1   
 28  13  14  1   
 29  13  15  am  
 30  14  35  1   
 31  14  36  1   
 32  15  16  2   
 33  15  17  1   
 34  17  18  1   
 35  17  19  2   
 36  18  20  1   
 37  19  21  1   
 38  19  37  1   
 39  20  21  2   
 40  20  38  1   
 41  21  39  1   
@<TRIPOS>SUBSTRUCTURE
  1 ****   8 GROUP 4 **** **** 0

# MOE 2024.06 (io_trps.svl 2023.06)
