@<TRIPOS>MOLECULE
NONAME
36 37 1 0 0 
SMALL
USER_CHARGES


@<TRIPOS>ATOM
  1 O        0.3410    -0.2210     1.2360 O.2   1 <1>  -0.5700 
  2 C        1.2340    -0.6650     0.5410 C.2   1 <1>   0.7150 
  3 N        2.2580     0.1410     0.1110 N.am  1 <1>  -0.4940 
  4 C        1.2270    -2.0500     0.1530 C.2   1 <1>   0.0550 
  5 C        2.5170     1.4920     0.3610 C.2   1 <1>   0.2040 
  6 O        2.2030    -2.5270    -0.6100 O.3   1 <1>  -0.0190 
  7 C        0.3500    -3.0330     0.4400 C.2   1 <1>  -0.1500 
  8 O        1.7700     2.2200     1.1560 O.3   1 <1>  -0.0190 
  9 C        3.5070     2.2800    -0.1030 C.2   1 <1>  -0.1810 
 10 N        1.9550    -3.7990    -0.8110 N.2   1 <1>  -0.4100 
 11 C        0.8710    -4.1280    -0.2050 C.2   1 <1>   0.1080 
 12 N        2.2100     3.4490     1.2480 N.2   1 <1>  -0.4100 
 13 C        3.2530     3.5110     0.5010 C.2   1 <1>   0.1080 
 14 C        4.6400     1.9380    -1.0560 C.3   1 <1>   0.0210 
 15 C        0.2750    -5.5310    -0.2180 C.3   1 <1>   0.1010 
 16 C        4.0700     4.7730     0.3240 C.3   1 <1>  -0.0590 
 17 C        5.8980     1.5490    -0.2790 C.3   1 <1>  -0.2400 
 18 C       -1.1180    -5.5270    -0.8590 C.3   1 <1>  -0.2400 
 19 C        0.2140    -6.1100     1.2000 C.3   1 <1>  -0.2400 
 20 H        2.9430    -0.3340    -0.4700 H     1 <1>   0.3700 
 21 H       -0.5460    -2.9830     1.0320 H     1 <1>   0.1500 
 22 H        4.8470     2.7820    -1.6910 H     1 <1>   0.0800 
 23 H        4.3440     1.1200    -1.6900 H     1 <1>   0.0800 
 24 H        0.9190    -6.1590    -0.8120 H     1 <1>   0.0800 
 25 H        5.0800     4.6050     0.6500 H     1 <1>   0.0800 
 26 H        3.6460     5.5680     0.9100 H     1 <1>   0.0800 
 27 H        4.0710     5.0670    -0.7090 H     1 <1>   0.0800 
 28 H        6.2220     2.3650     0.3430 H     1 <1>   0.0800 
 29 H        6.6930     1.3000    -0.9600 H     1 <1>   0.0800 
 30 H        5.7010     0.6980     0.3490 H     1 <1>   0.0800 
 31 H       -1.8000    -4.9260    -0.2850 H     1 <1>   0.0800 
 32 H       -1.5040    -6.5280    -0.9180 H     1 <1>   0.0800 
 33 H       -1.0600    -5.1240    -1.8550 H     1 <1>   0.0800 
 34 H       -0.4370    -5.5240     1.8240 H     1 <1>   0.0800 
 35 H        1.1970    -6.1140     1.6360 H     1 <1>   0.0800 
 36 H       -0.1510    -7.1220     1.1740 H     1 <1>   0.0800 
@<TRIPOS>BOND
  1   1   2  2   
  2   2   3  am  
  3   2   4  1   
  4   3   5  1   
  5   3  20  1   
  6   4   6  1   
  7   4   7  2   
  8   5   8  1   
  9   5   9  2   
 10   6  10  1   
 11   7  11  1   
 12   7  21  1   
 13   8  12  1   
 14   9  13  1   
 15   9  14  1   
 16  10  11  2   
 17  11  15  1   
 18  12  13  2   
 19  13  16  1   
 20  14  17  1   
 21  14  22  1   
 22  14  23  1   
 23  15  18  1   
 24  15  19  1   
 25  15  24  1   
 26  16  25  1   
 27  16  26  1   
 28  16  27  1   
 29  17  28  1   
 30  17  29  1   
 31  17  30  1   
 32  18  31  1   
 33  18  32  1   
 34  18  33  1   
 35  19  34  1   
 36  19  35  1   
 37  19  36  1   
@<TRIPOS>SUBSTRUCTURE
  1 ****   3 GROUP 4 **** **** 0

# MOE 2024.06 (io_trps.svl 2023.06)
