@<TRIPOS>MOLECULE
NONAME
36 37 1 0 0 
SMALL
USER_CHARGES


@<TRIPOS>ATOM
  1 N        9.9550     1.4130     1.9040 N.pl3 1 <1>  -0.9000 
  2 C        8.8590     0.7250     1.4160 C.ar  1 <1>   0.1000 
  3 C        7.7690     1.4040     0.8980 C.ar  1 <1>  -0.1500 
  4 C        8.8290    -0.6560     1.4380 C.ar  1 <1>  -0.1500 
  5 C        6.6470     0.7420     0.4100 C.ar  1 <1>  -0.1430 
  6 C        7.7190    -1.3330     0.9730 C.ar  1 <1>  -0.1500 
  7 C        6.6090    -0.6570     0.4720 C.ar  1 <1>  -0.1430 
  8 C        5.4870     1.5810    -0.1640 C.3   1 <1>   0.1440 
  9 C        5.3980    -1.4810    -0.0090 C.3   1 <1>   0.1440 
 10 C        4.4920     0.7070    -0.9510 C.3   1 <1>  -0.1600 
 11 C        4.7680     2.2820     1.0000 C.3   1 <1>  -0.2400 
 12 C        6.0000     2.6550    -1.1420 C.3   1 <1>  -0.2400 
 13 C        4.1570    -0.5940    -0.2190 C.3   1 <1>  -0.1600 
 14 C        5.0050    -2.5560     1.0210 C.3   1 <1>  -0.2400 
 15 C        5.7750    -2.1810    -1.3260 C.3   1 <1>  -0.2400 
 16 H       10.5320     0.9080     2.5810 H     1 <1>   0.4000 
 17 H        9.7800     2.3780     2.1960 H     1 <1>   0.4000 
 18 H        7.8180     2.4740     0.8860 H     1 <1>   0.1500 
 19 H        9.6730    -1.2000     1.8160 H     1 <1>   0.1500 
 20 H        7.7380    -2.4050     1.0040 H     1 <1>   0.1500 
 21 H        4.9090     0.4660    -1.9110 H     1 <1>   0.0800 
 22 H        3.5850     1.2580    -1.1310 H     1 <1>   0.0800 
 23 H        4.4380     1.5640     1.7280 H     1 <1>   0.0800 
 24 H        3.9160     2.8340     0.6470 H     1 <1>   0.0800 
 25 H        5.4330     2.9660     1.4950 H     1 <1>   0.0800 
 26 H        6.6220     2.2010    -1.8920 H     1 <1>   0.0800 
 27 H        6.5730     3.4100    -0.6380 H     1 <1>   0.0800 
 28 H        5.1760     3.1440    -1.6300 H     1 <1>   0.0800 
 29 H        3.7250    -0.3530     0.7350 H     1 <1>   0.0800 
 30 H        3.4120    -1.1340    -0.7760 H     1 <1>   0.0800 
 31 H        4.8650    -2.1040     1.9870 H     1 <1>   0.0800 
 32 H        5.7560    -3.3170     1.1090 H     1 <1>   0.0800 
 33 H        4.0870    -3.0360     0.7320 H     1 <1>   0.0800 
 34 H        6.1040    -1.4630    -2.0540 H     1 <1>   0.0800 
 35 H        4.9370    -2.7220    -1.7260 H     1 <1>   0.0800 
 36 H        6.5810    -2.8740    -1.1650 H     1 <1>   0.0800 
@<TRIPOS>BOND
  1   1   2  1   
  2   1  16  1   
  3   1  17  1   
  4   2   3  ar  
  5   2   4  ar  
  6   3   5  ar  
  7   3  18  1   
  8   4   6  ar  
  9   4  19  1   
 10   5   7  ar  
 11   5   8  1   
 12   6   7  ar  
 13   6  20  1   
 14   7   9  1   
 15   8  10  1   
 16   8  11  1   
 17   8  12  1   
 18   9  13  1   
 19   9  14  1   
 20   9  15  1   
 21  10  13  1   
 22  10  21  1   
 23  10  22  1   
 24  11  23  1   
 25  11  24  1   
 26  11  25  1   
 27  12  26  1   
 28  12  27  1   
 29  12  28  1   
 30  13  29  1   
 31  13  30  1   
 32  14  31  1   
 33  14  32  1   
 34  14  33  1   
 35  15  34  1   
 36  15  35  1   
 37  15  36  1   
@<TRIPOS>SUBSTRUCTURE
  1 ****   5 GROUP 4 **** **** 0

# MOE 2024.06 (io_trps.svl 2023.06)
