@<TRIPOS>MOLECULE
NONAME
33 34 1 0 0 
SMALL
USER_CHARGES


@<TRIPOS>ATOM
  1 O        0.0270    -0.0890    -0.1760 O.2   1 <1>  -0.5700 
  2 C        1.1000    -0.6060    -0.3940 C.2   1 <1>   0.5690 
  3 N        2.2690     0.0880    -0.4660 N.am  1 <1>  -0.4930 
  4 C        1.1690    -2.1240    -0.6030 C.3   1 <1>   0.2610 
  5 C        2.5260     1.4710    -0.3050 C.2   1 <1>   0.0630 
  6 O        2.4650    -2.5540    -0.9380 O.3   1 <1>  -0.5600 
  7 C        0.8280    -2.9380     0.6410 C.3   1 <1>  -0.1600 
  8 C        3.7260     2.0840    -0.4070 C.2   1 <1>  -0.3320 
  9 C        1.6260     2.4950    -0.0120 C.2   1 <1>   0.1390 
 10 C        2.5890    -3.9170    -0.6810 C.3   1 <1>   0.1200 
 11 C        1.6120    -4.2280     0.4500 C.3   1 <1>  -0.1600 
 12 N        3.5060     3.4050    -0.1760 N.pl3 1 <1>   0.3140 
 13 C        5.0900     1.4810    -0.7150 C.3   1 <1>  -0.0600 
 14 N        2.2060     3.6560     0.0660 N.2   1 <1>  -0.7070 
 15 C        4.4990     4.5010    -0.1740 C.3   1 <1>   0.0960 
 16 C        5.1370     4.6700     1.2100 C.3   1 <1>  -0.2400 
 17 H        3.0780    -0.5000    -0.6790 H     1 <1>   0.3700 
 18 H        0.5190    -2.3980    -1.4140 H     1 <1>   0.0800 
 19 H        1.1730    -2.4160     1.5170 H     1 <1>   0.0800 
 20 H       -0.2330    -3.1000     0.7240 H     1 <1>   0.0800 
 21 H        0.5700     2.3450     0.1330 H     1 <1>   0.1500 
 22 H        2.3290    -4.4520    -1.5790 H     1 <1>   0.0800 
 23 H        3.6100    -4.1260    -0.4090 H     1 <1>   0.0800 
 24 H        0.9670    -5.0400     0.1630 H     1 <1>   0.0800 
 25 H        2.1380    -4.5020     1.3480 H     1 <1>   0.0800 
 26 H        5.0130     0.4180    -0.8540 H     1 <1>   0.0800 
 27 H        5.7700     1.6680     0.0960 H     1 <1>   0.0800 
 28 H        5.4900     1.9120    -1.6160 H     1 <1>   0.0800 
 29 H        5.2500     4.2890    -0.9120 H     1 <1>   0.0800 
 30 H        3.9920     5.4060    -0.4550 H     1 <1>   0.0800 
 31 H        5.6530     3.7730     1.5010 H     1 <1>   0.0800 
 32 H        4.3760     4.8930     1.9380 H     1 <1>   0.0800 
 33 H        5.8410     5.4820     1.1920 H     1 <1>   0.0800 
@<TRIPOS>BOND
  1   1   2  2   
  2   2   3  am  
  3   2   4  1   
  4   3   5  1   
  5   3  17  1   
  6   4   6  1   
  7   4   7  1   
  8   4  18  1   
  9   5   8  2   
 10   5   9  1   
 11   6  10  1   
 12   7  11  1   
 13   7  19  1   
 14   7  20  1   
 15   8  12  1   
 16   8  13  1   
 17   9  14  2   
 18   9  21  1   
 19  10  11  1   
 20  10  22  1   
 21  10  23  1   
 22  11  24  1   
 23  11  25  1   
 24  12  14  1   
 25  12  15  1   
 26  13  26  1   
 27  13  27  1   
 28  13  28  1   
 29  15  16  1   
 30  15  29  1   
 31  15  30  1   
 32  16  31  1   
 33  16  32  1   
 34  16  33  1   
@<TRIPOS>SUBSTRUCTURE
  1 ****   3 GROUP 4 **** **** 0

# MOE 2024.06 (io_trps.svl 2023.06)
