@<TRIPOS>MOLECULE
NONAME
51 54 1 0 0 
SMALL
USER_CHARGES


@<TRIPOS>ATOM
  1 O       -1.4910     0.9270     2.2630 O.2   1 <1>  -0.5700 
  2 C       -2.2660     1.5380     1.5490 C.2   1 <1>   0.5440 
  3 N       -3.5440     1.0500     1.3790 N.am  1 <1>  -0.6600 
  4 C       -1.8010     2.7260     0.8690 C.ar  1 <1>   0.0860 
  5 C       -3.8680    -0.3450     1.7900 C.3   1 <1>   0.1400 
  6 C       -4.5090     1.5790     0.3670 C.3   1 <1>   0.1400 
  7 C       -0.8070     2.6530    -0.1150 C.ar  1 <1>  -0.0230 
  8 C       -2.3290     3.9770     1.1870 C.ar  1 <1>  -0.1500 
  9 C       -3.7110    -1.2350     0.5370 C.3   1 <1>   0.4230 
 10 C       -4.5030     0.6720    -0.8760 C.3   1 <1>  -0.1600 
 11 N       -0.2130     1.4100    -0.4520 N.pl3 1 <1>   0.5930 
 12 C       -0.3870     3.8140    -0.7600 C.ar  1 <1>  -0.1500 
 13 C       -1.9040     5.1240     0.5440 C.ar  1 <1>  -0.1500 
 14 N       -3.7950    -2.7140     0.7820 N.4   1 <1>  -0.9590 
 15 C       -4.7500    -0.8280    -0.5350 C.3   1 <1>  -0.1060 
 16 N       -0.8580     0.3990    -1.0990 N.2   1 <1>  -0.7070 
 17 C        1.0970     1.0940    -0.3030 C.2   1 <1>  -0.3020 
 18 C       -0.9310     5.0410    -0.4350 C.ar  1 <1>  -0.1500 
 19 C       -3.5150    -3.5360    -0.4310 C.3   1 <1>   0.3430 
 20 C       -3.0770    -3.2010     1.9890 C.3   1 <1>   0.2630 
 21 C       -6.1510    -1.0500     0.0650 C.2   1 <1>   0.9060 
 22 C       -4.5980    -1.6900    -1.8230 C.3   1 <1>  -0.1600 
 23 C        0.0510    -0.4960    -1.3320 C.2   1 <1>   0.1390 
 24 C        1.2990    -0.1200    -0.8530 C.2   1 <1>  -0.1500 
 25 C       -3.4470    -2.7040    -1.7200 C.3   1 <1>  -0.1600 
 26 O       -6.3590    -2.1060     0.6860 O.co2 1 <1>  -0.9000 
 27 O       -7.0220    -0.1900    -0.0520 O.co2 1 <1>  -0.9000 
 28 H       -3.1970    -0.6570     2.5670 H     1 <1>   0.0800 
 29 H       -4.8710    -0.3820     2.1780 H     1 <1>   0.0800 
 30 H       -5.4960     1.6030     0.8010 H     1 <1>   0.0800 
 31 H       -4.2620     2.5840     0.0770 H     1 <1>   0.0800 
 32 H       -3.0850     4.0420     1.9520 H     1 <1>   0.1500 
 33 H       -2.7300    -1.0240     0.1450 H     1 <1>   0.0800 
 34 H       -5.2680     1.0160    -1.5510 H     1 <1>   0.0800 
 35 H       -3.5580     0.7860    -1.3770 H     1 <1>   0.0800 
 36 H        0.3710     3.7570    -1.5230 H     1 <1>   0.1500 
 37 H       -2.3280     6.0790     0.8040 H     1 <1>   0.1500 
 38 H       -4.8350    -2.8110     0.9410 H     1 <1>   0.4500 
 39 H        1.7900     1.7530     0.1840 H     1 <1>   0.1500 
 40 H       -0.5990     5.9330    -0.9400 H     1 <1>   0.1500 
 41 H       -2.5820    -4.0610    -0.3090 H     1 <1>   0.0800 
 42 H       -4.2990    -4.2700    -0.5320 H     1 <1>   0.0800 
 43 H       -2.0240    -2.9910     1.9040 H     1 <1>   0.0800 
 44 H       -3.2190    -4.2630     2.1010 H     1 <1>   0.0800 
 45 H       -3.4600    -2.7140     2.8710 H     1 <1>   0.0800 
 46 H       -5.5150    -2.2300    -1.9980 H     1 <1>   0.0800 
 47 H       -4.4420    -1.0650    -2.6860 H     1 <1>   0.0800 
 48 H       -0.1410    -1.4240    -1.8440 H     1 <1>   0.1500 
 49 H        2.2090    -0.6900    -0.9230 H     1 <1>   0.1500 
 50 H       -2.5070    -2.1820    -1.7550 H     1 <1>   0.0800 
 51 H       -3.4750    -3.3650    -2.5680 H     1 <1>   0.0800 
@<TRIPOS>BOND
  1   1   2  2   
  2   2   3  am  
  3   2   4  1   
  4   3   5  1   
  5   3   6  1   
  6   4   7  ar  
  7   4   8  ar  
  8   5   9  1   
  9   5  28  1   
 10   5  29  1   
 11   6  10  1   
 12   6  30  1   
 13   6  31  1   
 14   7  11  1   
 15   7  12  ar  
 16   8  13  ar  
 17   8  32  1   
 18   9  14  1   
 19   9  15  1   
 20   9  33  1   
 21  10  15  1   
 22  10  34  1   
 23  10  35  1   
 24  11  16  1   
 25  11  17  1   
 26  12  18  ar  
 27  12  36  1   
 28  13  18  ar  
 29  13  37  1   
 30  14  19  1   
 31  14  20  1   
 32  14  38  1   
 33  15  21  1   
 34  15  22  1   
 35  16  23  2   
 36  17  24  2   
 37  17  39  1   
 38  18  40  1   
 39  19  25  1   
 40  19  41  1   
 41  19  42  1   
 42  20  43  1   
 43  20  44  1   
 44  20  45  1   
 45  21  26  ar  
 46  21  27  ar  
 47  22  25  1   
 48  22  46  1   
 49  22  47  1   
 50  23  24  1   
 51  23  48  1   
 52  24  49  1   
 53  25  50  1   
 54  25  51  1   
@<TRIPOS>SUBSTRUCTURE
  1 ****   3 GROUP 4 **** **** 0

# MOE 2024.06 (io_trps.svl 2023.06)
