@<TRIPOS>MOLECULE
NONAME
17 16 1 0 0 
SMALL
USER_CHARGES


@<TRIPOS>ATOM
  1 S       -0.0430    -0.0290     1.0620 S.o2  1 <1>   1.0900 
  2 O        1.3010    -0.0050     1.5990 O.2   1 <1>  -0.6500 
  3 O       -0.9950     0.9050     1.6260 O.2   1 <1>  -0.6500 
  4 C       -0.7270    -1.6910     1.2410 C.3   1 <1>   0.0830 
  5 C        0.0770     0.3300    -0.6810 C.3   1 <1>  -0.1350 
  6 C       -0.0140    -2.8080     0.4690 C.2   1 <1>  -0.3880 
  7 C       -0.4060    -2.9060    -0.9240 C.2   1 <1>   1.0500 
  8 C        0.8930    -3.5850     1.0960 C.2   1 <1>  -0.3000 
  9 O        0.1640    -3.6900    -1.6930 O.co2 1 <1>  -0.9000 
 10 O       -1.3030    -2.1680    -1.3600 O.co2 1 <1>  -0.9000 
 11 H       -1.7630    -1.6800     0.9580 H     1 <1>   0.0800 
 12 H       -0.7070    -1.9430     2.2830 H     1 <1>   0.0800 
 13 H        0.4770     1.3120    -0.8290 H     1 <1>   0.0800 
 14 H       -0.8910     0.2820    -1.1410 H     1 <1>   0.0800 
 15 H        0.7190    -0.3780    -1.1680 H     1 <1>   0.0800 
 16 H        1.4190    -4.3780     0.5900 H     1 <1>   0.1500 
 17 H        1.1800    -3.4930     2.1280 H     1 <1>   0.1500 
@<TRIPOS>BOND
  1   1   2  2   
  2   1   3  2   
  3   1   4  1   
  4   1   5  1   
  5   4   6  1   
  6   4  11  1   
  7   4  12  1   
  8   5  13  1   
  9   5  14  1   
 10   5  15  1   
 11   6   7  1   
 12   6   8  2   
 13   7   9  ar  
 14   7  10  ar  
 15   8  16  1   
 16   8  17  1   
@<TRIPOS>SUBSTRUCTURE
  1 ****   4 GROUP 4 **** **** 0

# MOE 2024.06 (io_trps.svl 2023.06)
