@<TRIPOS>MOLECULE
NONAME
42 43 1 0 0 
SMALL
USER_CHARGES


@<TRIPOS>ATOM
  1 O        1.4710     2.1480    -1.9750 O.3   1 <1>  -0.3630 
  2 C        2.6050     2.1550    -1.2160 C.ar  1 <1>   0.0830 
  3 C        0.9990     0.9430    -2.5410 C.3   1 <1>   0.0400 
  4 C        3.4300     1.0660    -1.0030 C.ar  1 <1>   0.1600 
  5 C        2.9790     3.3330    -0.6080 C.ar  1 <1>   0.1600 
  6 N        4.5100     1.1390    -0.2590 N.ar  1 <1>  -0.6200 
  7 N        4.0570     3.4390     0.1400 N.ar  1 <1>  -0.6200 
  8 C        4.7580     2.3180     0.2990 C.ar  1 <1>   0.7200 
  9 N        5.8790     2.4070     1.0930 N.pl3 1 <1>  -0.8380 
 10 C        7.1460     1.7250     0.7350 C.3   1 <1>   0.2090 
 11 C        5.9230     3.2580     2.3160 C.3   1 <1>   0.2090 
 12 C        8.2240     2.7800     0.4260 C.3   1 <1>  -0.1600 
 13 C        7.2340     4.0610     2.3540 C.3   1 <1>  -0.1600 
 14 C        7.8620     4.1840     0.9570 C.3   1 <1>   0.2800 
 15 O        9.0450     4.9090     1.0880 O.3   1 <1>  -0.6800 
 16 C        6.9080     4.9520    -0.0110 C.3   1 <1>   0.3430 
 17 N        7.6520     5.8490    -0.9590 N.4   1 <1>  -0.9590 
 18 C        6.9340     7.1390    -1.1600 C.3   1 <1>   0.2630 
 19 C        7.9550     5.1730    -2.2520 C.3   1 <1>   0.2630 
 20 H        0.0830     1.1560    -3.0640 H     1 <1>   0.0800 
 21 H        0.8100     0.2340    -1.7530 H     1 <1>   0.0800 
 22 H        1.7320     0.5670    -3.2320 H     1 <1>   0.0800 
 23 H        3.2070     0.1150    -1.4490 H     1 <1>   0.1500 
 24 H        2.3640     4.2050    -0.7490 H     1 <1>   0.1500 
 25 H        7.0130     1.0740    -0.1140 H     1 <1>   0.0800 
 26 H        7.4530     1.1150     1.5690 H     1 <1>   0.0800 
 27 H        5.8500     2.6290     3.1880 H     1 <1>   0.0800 
 28 H        5.0830     3.9320     2.3350 H     1 <1>   0.0800 
 29 H        8.3720     2.8110    -0.6360 H     1 <1>   0.0800 
 30 H        9.1420     2.4380     0.8680 H     1 <1>   0.0800 
 31 H        7.9160     3.5520     3.0120 H     1 <1>   0.0800 
 32 H        7.0360     5.0320     2.7710 H     1 <1>   0.0800 
 33 H        9.6220     4.4870     1.7580 H     1 <1>   0.4000 
 34 H        6.2440     5.5460     0.5930 H     1 <1>   0.0800 
 35 H        6.2940     4.2520    -0.5510 H     1 <1>   0.0800 
 36 H        8.5460     6.0180    -0.4520 H     1 <1>   0.4500 
 37 H        5.9800     6.9660    -1.6290 H     1 <1>   0.0800 
 38 H        7.5160     7.7960    -1.7860 H     1 <1>   0.0800 
 39 H        6.7710     7.6250    -0.2120 H     1 <1>   0.0800 
 40 H        7.0410     4.8820    -2.7450 H     1 <1>   0.0800 
 41 H        8.5540     4.2940    -2.0840 H     1 <1>   0.0800 
 42 H        8.5020     5.8380    -2.9000 H     1 <1>   0.0800 
@<TRIPOS>BOND
  1   1   2  1   
  2   1   3  1   
  3   2   4  ar  
  4   2   5  ar  
  5   3  20  1   
  6   3  21  1   
  7   3  22  1   
  8   4   6  ar  
  9   4  23  1   
 10   5   7  ar  
 11   5  24  1   
 12   6   8  ar  
 13   7   8  ar  
 14   8   9  1   
 15   9  10  1   
 16   9  11  1   
 17  10  12  1   
 18  10  25  1   
 19  10  26  1   
 20  11  13  1   
 21  11  27  1   
 22  11  28  1   
 23  12  14  1   
 24  12  29  1   
 25  12  30  1   
 26  13  14  1   
 27  13  31  1   
 28  13  32  1   
 29  14  15  1   
 30  14  16  1   
 31  15  33  1   
 32  16  17  1   
 33  16  34  1   
 34  16  35  1   
 35  17  18  1   
 36  17  19  1   
 37  17  36  1   
 38  18  37  1   
 39  18  38  1   
 40  18  39  1   
 41  19  40  1   
 42  19  41  1   
 43  19  42  1   
@<TRIPOS>SUBSTRUCTURE
  1 ****   8 GROUP 4 **** **** 0

# MOE 2024.06 (io_trps.svl 2023.06)
