@<TRIPOS>MOLECULE
NONAME
44 45 1 0 0 
SMALL
USER_CHARGES


@<TRIPOS>ATOM
  1 O        0.9670     1.4490     0.6870 O.3   1 <1>  -0.0190 
  2 N        1.9660     0.6400     0.8710 N.2   1 <1>  -0.4100 
  3 C        1.1080     2.1550    -0.4030 C.2   1 <1>  -0.0400 
  4 C        2.7550     0.8090    -0.1290 C.2   1 <1>   0.1080 
  5 C        2.2560     1.7830    -0.9900 C.2   1 <1>  -0.1500 
  6 C        0.0630     3.1900    -0.7710 C.3   1 <1>   0.0200 
  7 C        4.0460     0.0470    -0.3310 C.3   1 <1>  -0.0590 
  8 C       -0.3190     4.0510     0.4500 C.3   1 <1>  -0.0800 
  9 C       -1.1330     5.2810     0.0470 C.3   1 <1>   0.2000 
 10 C        0.9250     4.6150     1.1600 C.3   1 <1>   0.3430 
 11 O       -1.9450     5.6290     1.1200 O.3   1 <1>  -0.6800 
 12 C       -0.0710     6.3690    -0.1010 C.3   1 <1>   0.3430 
 13 N        0.8650     6.1010     1.0260 N.4   1 <1>  -0.9590 
 14 C        2.2060     6.7460     0.9260 C.3   1 <1>   0.3430 
 15 C        2.1090     8.2700     1.0090 C.3   1 <1>  -0.0220 
 16 C        3.5070     8.8600     0.9320 C.2   1 <1>  -0.2880 
 17 C        4.0860     9.4940    -0.0950 C.2   1 <1>  -0.2760 
 18 C        5.5030    10.0370     0.0120 C.3   1 <1>  -0.1020 
 19 C        3.4760     9.7740    -1.4630 C.3   1 <1>  -0.1020 
 20 H        2.7190     2.1220    -1.8990 H     1 <1>   0.1500 
 21 H        0.4490     3.7990    -1.5690 H     1 <1>   0.0800 
 22 H       -0.8120     2.6790    -1.1360 H     1 <1>   0.0800 
 23 H        4.8720     0.7310    -0.3930 H     1 <1>   0.0800 
 24 H        3.9930    -0.5280    -1.2370 H     1 <1>   0.0800 
 25 H        4.2110    -0.6230     0.4940 H     1 <1>   0.0800 
 26 H       -0.8710     3.4290     1.1340 H     1 <1>   0.0800 
 27 H       -1.7430     5.1550    -0.8320 H     1 <1>   0.0800 
 28 H        1.8220     4.2320     0.7000 H     1 <1>   0.0800 
 29 H        0.9250     4.3310     2.2010 H     1 <1>   0.0800 
 30 H       -2.7180     5.0290     1.1940 H     1 <1>   0.4000 
 31 H       -0.5090     7.3520    -0.0410 H     1 <1>   0.0800 
 32 H        0.4410     6.2550    -1.0420 H     1 <1>   0.0800 
 33 H        0.3720     6.4410     1.8680 H     1 <1>   0.4500 
 34 H        2.8340     6.4000     1.7310 H     1 <1>   0.0800 
 35 H        2.6790     6.4730    -0.0030 H     1 <1>   0.0800 
 36 H        1.5000     8.6490     0.2120 H     1 <1>   0.0800 
 37 H        1.6630     8.5650     1.9420 H     1 <1>   0.0800 
 38 H        4.0420     8.7150     1.8570 H     1 <1>   0.1500 
 39 H        5.5050    11.1010    -0.1440 H     1 <1>   0.0800 
 40 H        6.1360     9.5780    -0.7270 H     1 <1>   0.0800 
 41 H        5.9210     9.8400     0.9830 H     1 <1>   0.0800 
 42 H        4.1010     9.3600    -2.2350 H     1 <1>   0.0800 
 43 H        3.4060    10.8360    -1.6190 H     1 <1>   0.0800 
 44 H        2.4950     9.3560    -1.5730 H     1 <1>   0.0800 
@<TRIPOS>BOND
  1   1   2  1   
  2   1   3  1   
  3   2   4  2   
  4   3   5  2   
  5   3   6  1   
  6   4   5  1   
  7   4   7  1   
  8   5  20  1   
  9   6   8  1   
 10   6  21  1   
 11   6  22  1   
 12   7  23  1   
 13   7  24  1   
 14   7  25  1   
 15   8   9  1   
 16   8  10  1   
 17   8  26  1   
 18   9  11  1   
 19   9  12  1   
 20   9  27  1   
 21  10  13  1   
 22  10  28  1   
 23  10  29  1   
 24  11  30  1   
 25  12  13  1   
 26  12  31  1   
 27  12  32  1   
 28  13  14  1   
 29  13  33  1   
 30  14  15  1   
 31  14  34  1   
 32  14  35  1   
 33  15  16  1   
 34  15  36  1   
 35  15  37  1   
 36  16  17  2   
 37  16  38  1   
 38  17  18  1   
 39  17  19  1   
 40  18  39  1   
 41  18  40  1   
 42  18  41  1   
 43  19  42  1   
 44  19  43  1   
 45  19  44  1   
@<TRIPOS>SUBSTRUCTURE
  1 ****  10 GROUP 4 **** **** 0

# MOE 2024.06 (io_trps.svl 2023.06)
