@<TRIPOS>MOLECULE
NONAME
56 59 1 0 0 
SMALL
USER_CHARGES


@<TRIPOS>ATOM
  1 O        1.8570     1.7150    -2.5140 O.2   1 <1>  -0.5700 
  2 C        2.0820     1.1590    -1.4510 C.2   1 <1>   0.5440 
  3 N        1.5620     1.7220    -0.3070 N.am  1 <1>  -0.6600 
  4 C        2.9260    -0.0090    -1.4490 C.ar  1 <1>   0.0860 
  5 C        1.6850     1.1760     1.0650 C.3   1 <1>   0.1400 
  6 C        0.7130     2.9280    -0.3150 C.3   1 <1>   0.1400 
  7 C        2.4950    -1.3220    -1.1420 C.ar  1 <1>   0.4100 
  8 C        4.2600     0.1710    -1.7910 C.ar  1 <1>  -0.1500 
  9 C        0.8730     2.1210     1.9460 C.3   1 <1>  -0.1600 
 10 C        0.7160     3.4020     1.1310 C.3   1 <1>  -0.1600 
 11 N        3.3200    -2.3720    -1.1530 N.ar  1 <1>  -0.6200 
 12 N        1.1950    -1.6620    -0.7970 N.pl3 1 <1>  -0.8380 
 13 C        5.0960    -0.9200    -1.8030 C.ar  1 <1>  -0.1500 
 14 C        4.5770    -2.1570    -1.4770 C.ar  1 <1>   0.1600 
 15 C        0.9500    -2.5080     0.4360 C.3   1 <1>   0.2090 
 16 C       -0.0220    -1.1480    -1.5120 C.3   1 <1>   0.2090 
 17 C       -0.4280    -3.1860     0.3790 C.3   1 <1>   0.2000 
 18 C       -1.1600    -0.8840    -0.5220 C.3   1 <1>  -0.1600 
 19 O       -0.4340    -3.9510    -0.7880 O.3   1 <1>  -0.6800 
 20 C       -1.5460    -2.1100     0.3900 C.3   1 <1>  -0.1060 
 21 C       -1.6170    -1.7330     1.8850 C.2   1 <1>   0.9060 
 22 C       -2.9030    -2.7310    -0.0680 C.3   1 <1>  -0.0160 
 23 O       -1.0420    -0.7260     2.3160 O.co2 1 <1>  -0.9000 
 24 O       -2.1510    -2.5230     2.6740 O.co2 1 <1>  -0.9000 
 25 C       -4.0840    -1.7610    -0.1610 C.ar  1 <1>  -0.1430 
 26 C       -4.5700    -1.3700    -1.4010 C.ar  1 <1>  -0.1500 
 27 C       -4.6920    -1.2670     0.9820 C.ar  1 <1>  -0.1500 
 28 C       -5.6390    -0.4950    -1.4970 C.ar  1 <1>  -0.1500 
 29 C       -5.7590    -0.3900     0.8910 C.ar  1 <1>  -0.1500 
 30 C       -6.2340    -0.0020    -0.3490 C.ar  1 <1>  -0.1500 
 31 H        1.2810     0.1830     1.1220 H     1 <1>   0.0800 
 32 H        2.7200     1.1690     1.3600 H     1 <1>   0.0800 
 33 H        1.1040     3.6750    -0.9850 H     1 <1>   0.0800 
 34 H       -0.2820     2.6490    -0.6190 H     1 <1>   0.0800 
 35 H        4.6210     1.1530    -2.0440 H     1 <1>   0.1500 
 36 H       -0.0930     1.6780     2.1190 H     1 <1>   0.0800 
 37 H        1.3470     2.2860     2.8960 H     1 <1>   0.0800 
 38 H        1.5650     4.0440     1.2880 H     1 <1>   0.0800 
 39 H       -0.1850     3.9340     1.3790 H     1 <1>   0.0800 
 40 H        6.1340    -0.8170    -2.0630 H     1 <1>   0.1500 
 41 H        5.2310    -3.0120    -1.4860 H     1 <1>   0.1500 
 42 H        1.7040    -3.2700     0.5290 H     1 <1>   0.0800 
 43 H        1.0090    -1.8930     1.3150 H     1 <1>   0.0800 
 44 H        0.1900    -0.2530    -2.0620 H     1 <1>   0.0800 
 45 H       -0.3430    -1.8810    -2.2300 H     1 <1>   0.0800 
 46 H       -0.5510    -3.8650     1.2060 H     1 <1>   0.0800 
 47 H       -0.8560    -0.0420     0.0710 H     1 <1>   0.0800 
 48 H       -2.0070    -0.5380    -1.0790 H     1 <1>   0.0800 
 49 H        0.2270    -3.5210    -1.3760 H     1 <1>   0.4000 
 50 H       -2.7770    -3.1820    -1.0340 H     1 <1>   0.0800 
 51 H       -3.1710    -3.5300     0.6030 H     1 <1>   0.0800 
 52 H       -4.1130    -1.7470    -2.2980 H     1 <1>   0.1500 
 53 H       -4.3330    -1.5640     1.9540 H     1 <1>   0.1500 
 54 H       -6.0050    -0.1980    -2.4630 H     1 <1>   0.1500 
 55 H       -6.2120    -0.0140     1.7910 H     1 <1>   0.1500 
 56 H       -7.0610     0.6800    -0.4180 H     1 <1>   0.1500 
@<TRIPOS>BOND
  1   1   2  2   
  2   2   3  am  
  3   2   4  1   
  4   3   5  1   
  5   3   6  1   
  6   4   7  ar  
  7   4   8  ar  
  8   5   9  1   
  9   5  31  1   
 10   5  32  1   
 11   6  10  1   
 12   6  33  1   
 13   6  34  1   
 14   7  11  ar  
 15   7  12  1   
 16   8  13  ar  
 17   8  35  1   
 18   9  10  1   
 19   9  36  1   
 20   9  37  1   
 21  10  38  1   
 22  10  39  1   
 23  11  14  ar  
 24  12  15  1   
 25  12  16  1   
 26  13  14  ar  
 27  13  40  1   
 28  14  41  1   
 29  15  17  1   
 30  15  42  1   
 31  15  43  1   
 32  16  18  1   
 33  16  44  1   
 34  16  45  1   
 35  17  19  1   
 36  17  20  1   
 37  17  46  1   
 38  18  20  1   
 39  18  47  1   
 40  18  48  1   
 41  19  49  1   
 42  20  21  1   
 43  20  22  1   
 44  21  23  ar  
 45  21  24  ar  
 46  22  25  1   
 47  22  50  1   
 48  22  51  1   
 49  25  26  ar  
 50  25  27  ar  
 51  26  28  ar  
 52  26  52  1   
 53  27  29  ar  
 54  27  53  1   
 55  28  30  ar  
 56  28  54  1   
 57  29  30  ar  
 58  29  55  1   
 59  30  56  1   
@<TRIPOS>SUBSTRUCTURE
  1 ****  18 GROUP 4 **** **** 0

# MOE 2024.06 (io_trps.svl 2023.06)
