@<TRIPOS>MOLECULE
NONAME
41 43 1 0 0 
SMALL
USER_CHARGES


@<TRIPOS>ATOM
  1 F        0.1800     0.7200     0.5080 F     1 <1>  -0.1900 
  2 C        0.1820     2.0230     0.6310 C.ar  1 <1>   0.1900 
  3 C       -0.6560     2.8390    -0.1380 C.ar  1 <1>   0.0830 
  4 C        1.0620     2.5510     1.5570 C.ar  1 <1>  -0.1500 
  5 O       -1.5600     2.4400    -1.0750 O.3   1 <1>  -0.3630 
  6 C       -0.5730     4.2090     0.0530 C.ar  1 <1>  -0.1500 
  7 C        1.1260     3.9240     1.7290 C.ar  1 <1>  -0.1500 
  8 C       -1.9010     1.0860    -1.2840 C.3   1 <1>   0.0400 
  9 C        0.3110     4.7590     0.9730 C.ar  1 <1>  -0.1430 
 10 C        0.3870     6.2650     1.1380 C.3   1 <1>   0.4870 
 11 N        1.6890     6.7330     0.5950 N.4   1 <1>  -0.9590 
 12 C        2.0370     8.1320     1.0380 C.3   1 <1>   0.3430 
 13 C        1.8450     6.4370    -0.8710 C.3   1 <1>   0.3430 
 14 C        3.5020     8.5710     0.7530 C.3   1 <1>   0.2200 
 15 C        3.2930     6.5240    -1.3750 C.3   1 <1>  -0.0190 
 16 N        3.6830     8.8610    -0.6880 N.am  1 <1>  -0.7300 
 17 C        4.5620     7.5480     1.2340 C.3   1 <1>   0.1200 
 18 C        3.6080     7.9620    -1.6850 C.2   1 <1>   0.5690 
 19 C        4.3810     5.8830    -0.4840 C.3   1 <1>   0.1200 
 20 O        4.2560     6.2240     0.8730 O.3   1 <1>  -0.5600 
 21 O        3.7590     8.3060    -2.8240 O.2   1 <1>  -0.5700 
 22 H        1.6870     1.8910     2.1330 H     1 <1>   0.1500 
 23 H       -1.2210     4.8350    -0.5370 H     1 <1>   0.1500 
 24 H        1.8140     4.3230     2.4560 H     1 <1>   0.1500 
 25 H       -2.6970     1.0490    -2.0060 H     1 <1>   0.0800 
 26 H       -2.2320     0.6590    -0.3540 H     1 <1>   0.0800 
 27 H       -1.0420     0.5620    -1.6650 H     1 <1>   0.0800 
 28 H        0.3110     6.5080     2.1850 H     1 <1>   0.0800 
 29 H       -0.4280     6.7380     0.6150 H     1 <1>   0.0800 
 30 H        2.4240     6.1380     1.0270 H     1 <1>   0.4500 
 31 H        1.3690     8.8390     0.5740 H     1 <1>   0.0800 
 32 H        1.8850     8.1960     2.1030 H     1 <1>   0.0800 
 33 H        1.5020     5.4330    -1.0600 H     1 <1>   0.0800 
 34 H        1.2260     7.1040    -1.4500 H     1 <1>   0.0800 
 35 H        3.6770     9.4930     1.2800 H     1 <1>   0.0800 
 36 H        3.3250     6.0090    -2.3190 H     1 <1>   0.0800 
 37 H        3.9570     9.8120    -0.9610 H     1 <1>   0.3700 
 38 H        4.6100     7.5690     2.3090 H     1 <1>   0.0800 
 39 H        5.5400     7.8000     0.8570 H     1 <1>   0.0800 
 40 H        5.3670     6.1590    -0.8220 H     1 <1>   0.0800 
 41 H        4.3020     4.8110    -0.5410 H     1 <1>   0.0800 
@<TRIPOS>BOND
  1   1   2  1   
  2   2   3  ar  
  3   2   4  ar  
  4   3   5  1   
  5   3   6  ar  
  6   4   7  ar  
  7   4  22  1   
  8   5   8  1   
  9   6   9  ar  
 10   6  23  1   
 11   7   9  ar  
 12   7  24  1   
 13   8  25  1   
 14   8  26  1   
 15   8  27  1   
 16   9  10  1   
 17  10  11  1   
 18  10  28  1   
 19  10  29  1   
 20  11  12  1   
 21  11  13  1   
 22  11  30  1   
 23  12  14  1   
 24  12  31  1   
 25  12  32  1   
 26  13  15  1   
 27  13  33  1   
 28  13  34  1   
 29  14  16  1   
 30  14  17  1   
 31  14  35  1   
 32  15  18  1   
 33  15  19  1   
 34  15  36  1   
 35  16  18  am  
 36  16  37  1   
 37  17  20  1   
 38  17  38  1   
 39  17  39  1   
 40  18  21  2   
 41  19  20  1   
 42  19  40  1   
 43  19  41  1   
@<TRIPOS>SUBSTRUCTURE
  1 ****  13 GROUP 4 **** **** 0

# MOE 2024.06 (io_trps.svl 2023.06)
