@<TRIPOS>MOLECULE
NONAME
61 63 1 0 0 
SMALL
USER_CHARGES


@<TRIPOS>ATOM
  1 O        0.2260    -0.3840    -0.6520 O.2   1 <1>  -0.5700 
  2 C        1.2830    -0.9420    -0.5010 C.2   1 <1>   0.4230 
  3 C        2.5500    -0.2360    -0.4890 C.ar  1 <1>   0.0860 
  4 C        1.2480    -2.4610    -0.3140 C.3   1 <1>  -0.0990 
  5 C        3.7890    -0.8770    -0.5600 C.ar  1 <1>  -0.1500 
  6 C        2.5790     1.1550    -0.4050 C.ar  1 <1>  -0.1500 
  7 C       -0.1610    -2.9980     0.0140 C.3   1 <1>  -0.1600 
  8 C        4.9750    -0.1680    -0.5370 C.ar  1 <1>  -0.1500 
  9 C        3.7640     1.8660    -0.3830 C.ar  1 <1>  -0.1500 
 10 C       -0.1770    -4.5180     0.1730 C.3   1 <1>   0.3430 
 11 C        4.9930     1.2190    -0.4470 C.ar  1 <1>  -0.1440 
 12 N       -1.5220    -4.9660     0.6190 N.4   1 <1>  -0.9590 
 13 C        6.3450     1.9660    -0.4260 C.3   1 <1>   0.1430 
 14 C       -2.6520    -4.6900    -0.3130 C.3   1 <1>   0.3430 
 15 C       -1.6080    -6.4200     0.9470 C.3   1 <1>   0.3430 
 16 C        7.1720     1.5000     0.7820 C.3   1 <1>  -0.2400 
 17 C        7.1180     1.6680    -1.7190 C.3   1 <1>  -0.2400 
 18 C        6.1910     3.4930    -0.3200 C.3   1 <1>  -0.2400 
 19 C       -3.7700    -5.5920     0.2060 C.3   1 <1>   0.2000 
 20 C       -3.0320    -6.8780     0.5810 C.3   1 <1>  -0.0800 
 21 O       -4.2620    -5.0250     1.3760 O.3   1 <1>  -0.6800 
 22 C       -3.0210    -7.8870    -0.5830 C.3   1 <1>  -0.0170 
 23 C       -2.0690    -9.0390    -0.3000 C.ar  1 <1>  -0.1440 
 24 C       -2.2840    -9.9250     0.7370 C.ar  1 <1>  -0.1500 
 25 C       -0.9370    -9.2560    -1.0630 C.ar  1 <1>  -0.1500 
 26 C       -1.3720   -10.9410     0.9700 C.ar  1 <1>   0.1600 
 27 C       -0.0900   -10.3050    -0.7460 C.ar  1 <1>   0.1600 
 28 N       -0.2760   -11.1420     0.2590 N.ar  1 <1>  -0.6200 
 29 H        1.6050    -2.9150    -1.2210 H     1 <1>   0.0800 
 30 H        1.9170    -2.7220     0.4870 H     1 <1>   0.0800 
 31 H        3.8470    -1.9460    -0.6400 H     1 <1>   0.1500 
 32 H        1.6470     1.6930    -0.3560 H     1 <1>   0.1500 
 33 H       -0.8260    -2.7120    -0.7820 H     1 <1>   0.0800 
 34 H       -0.4990    -2.5340     0.9250 H     1 <1>   0.0800 
 35 H        5.9000    -0.7140    -0.5940 H     1 <1>   0.1500 
 36 H        3.6980     2.9360    -0.3160 H     1 <1>   0.1500 
 37 H        0.5580    -4.8050     0.9070 H     1 <1>   0.0800 
 38 H        0.0780    -4.9870    -0.7640 H     1 <1>   0.0800 
 39 H       -1.7820    -4.4630     1.4830 H     1 <1>   0.4500 
 40 H       -2.9470    -3.6530    -0.2970 H     1 <1>   0.0800 
 41 H       -2.3840    -4.9780    -1.3160 H     1 <1>   0.0800 
 42 H       -0.8820    -6.9790     0.3790 H     1 <1>   0.0800 
 43 H       -1.4210    -6.5780     1.9970 H     1 <1>   0.0800 
 44 H        8.1020     2.0370     0.8360 H     1 <1>   0.0800 
 45 H        7.3960     0.4510     0.7180 H     1 <1>   0.0800 
 46 H        6.6240     1.6730     1.6910 H     1 <1>   0.0800 
 47 H        8.0470     2.2090    -1.7410 H     1 <1>   0.0800 
 48 H        6.5320     1.9590    -2.5730 H     1 <1>   0.0800 
 49 H        7.3410     0.6200    -1.8060 H     1 <1>   0.0800 
 50 H        7.1540     3.9710    -0.3070 H     1 <1>   0.0800 
 51 H        5.6760     3.7590     0.5860 H     1 <1>   0.0800 
 52 H        5.6420     3.8760    -1.1610 H     1 <1>   0.0800 
 53 H       -4.5790    -5.7180    -0.4950 H     1 <1>   0.0800 
 54 H       -3.4920    -7.3510     1.4320 H     1 <1>   0.0800 
 55 H       -5.0990    -5.4520     1.6580 H     1 <1>   0.4000 
 56 H       -2.7280    -7.4030    -1.4990 H     1 <1>   0.0800 
 57 H       -4.0120    -8.2830    -0.7310 H     1 <1>   0.0800 
 58 H       -3.1500    -9.8460     1.3680 H     1 <1>   0.1500 
 59 H       -0.7010    -8.6310    -1.9040 H     1 <1>   0.1500 
 60 H       -1.5530   -11.6250     1.7830 H     1 <1>   0.1500 
 61 H        0.7880   -10.4650    -1.3510 H     1 <1>   0.1500 
@<TRIPOS>BOND
  1   1   2  2   
  2   2   3  1   
  3   2   4  1   
  4   3   5  ar  
  5   3   6  ar  
  6   4   7  1   
  7   4  29  1   
  8   4  30  1   
  9   5   8  ar  
 10   5  31  1   
 11   6   9  ar  
 12   6  32  1   
 13   7  10  1   
 14   7  33  1   
 15   7  34  1   
 16   8  11  ar  
 17   8  35  1   
 18   9  11  ar  
 19   9  36  1   
 20  10  12  1   
 21  10  37  1   
 22  10  38  1   
 23  11  13  1   
 24  12  14  1   
 25  12  15  1   
 26  12  39  1   
 27  13  16  1   
 28  13  17  1   
 29  13  18  1   
 30  14  19  1   
 31  14  40  1   
 32  14  41  1   
 33  15  20  1   
 34  15  42  1   
 35  15  43  1   
 36  16  44  1   
 37  16  45  1   
 38  16  46  1   
 39  17  47  1   
 40  17  48  1   
 41  17  49  1   
 42  18  50  1   
 43  18  51  1   
 44  18  52  1   
 45  19  20  1   
 46  19  21  1   
 47  19  53  1   
 48  20  22  1   
 49  20  54  1   
 50  21  55  1   
 51  22  23  1   
 52  22  56  1   
 53  22  57  1   
 54  23  24  ar  
 55  23  25  ar  
 56  24  26  ar  
 57  24  58  1   
 58  25  27  ar  
 59  25  59  1   
 60  26  28  ar  
 61  26  60  1   
 62  27  28  ar  
 63  27  61  1   
@<TRIPOS>SUBSTRUCTURE
  1 ****   7 GROUP 4 **** **** 0

# MOE 2024.06 (io_trps.svl 2023.06)
