@<TRIPOS>MOLECULE
NONAME
57 60 1 0 0 
SMALL
USER_CHARGES


@<TRIPOS>ATOM
  1 O       -1.0920     0.7230    -1.1810 O.2   1 <1>  -0.5700 
  2 C       -2.1130     1.1490    -0.6960 C.2   1 <1>   0.5690 
  3 N       -3.1170     0.3100    -0.2970 N.am  1 <1>  -0.6600 
  4 C       -2.2290     2.6700    -0.5530 C.3   1 <1>  -0.0190 
  5 C       -4.4110     0.6660     0.3390 C.3   1 <1>   0.1400 
  6 C       -3.0060    -1.1640    -0.4430 C.3   1 <1>   0.1400 
  7 C       -2.1750     3.3440    -1.9380 C.3   1 <1>  -0.1600 
  8 C       -1.1040     3.2150     0.3490 C.3   1 <1>  -0.1600 
  9 C       -5.1340    -0.6640     0.5560 C.3   1 <1>   0.2000 
 10 C       -4.0520    -1.7400     0.5130 C.3   1 <1>  -0.0800 
 11 C       -2.1270     4.8660    -1.8430 C.3   1 <1>   0.3430 
 12 C       -1.0770     4.7410     0.3900 C.3   1 <1>   0.3430 
 13 O       -5.7850    -0.6940     1.7790 O.3   1 <1>  -0.6800 
 14 C       -4.6010    -3.1160     0.0940 C.3   1 <1>  -0.0160 
 15 N       -0.9680     5.2780    -1.0000 N.4   1 <1>  -0.9590 
 16 C       -3.5120    -4.1760     0.0770 C.ar  1 <1>   0.1670 
 17 C       -0.7400     6.7530    -1.0870 C.3   1 <1>   0.4230 
 18 N       -2.7570    -4.2290    -1.0080 N.ar  1 <1>  -0.6200 
 19 C       -3.3480    -5.0260     1.1700 C.ar  1 <1>   0.1600 
 20 C        0.5630     7.1510    -0.3910 C.3   1 <1>  -0.1600 
 21 C       -1.8510     7.5690    -0.4040 C.3   1 <1>  -0.1600 
 22 C       -1.8340    -5.1730    -0.9280 C.ar  1 <1>   0.1600 
 23 N       -2.4260    -5.9710     1.2530 N.ar  1 <1>  -0.6200 
 24 C        0.1710     7.7620     0.9550 C.3   1 <1>  -0.1600 
 25 C       -1.1890     8.4030     0.7000 C.3   1 <1>  -0.1600 
 26 C       -1.6740    -6.0150     0.1660 C.ar  1 <1>   0.1600 
 27 H       -3.1690     2.9210    -0.0980 H     1 <1>   0.0800 
 28 H       -4.2250     1.1570     1.2790 H     1 <1>   0.0800 
 29 H       -4.9860     1.3020    -0.3110 H     1 <1>   0.0800 
 30 H       -3.2260    -1.4340    -1.4620 H     1 <1>   0.0800 
 31 H       -2.0140    -1.5080    -0.1960 H     1 <1>   0.0800 
 32 H       -3.0410     3.0530    -2.5070 H     1 <1>   0.0800 
 33 H       -1.3110     3.0000    -2.4810 H     1 <1>   0.0800 
 34 H       -0.1480     2.8610     0.0000 H     1 <1>   0.0800 
 35 H       -1.2350     2.8370     1.3480 H     1 <1>   0.0800 
 36 H       -5.8660    -0.8110    -0.2210 H     1 <1>   0.0800 
 37 H       -3.5860    -1.8210     1.4790 H     1 <1>   0.0800 
 38 H       -3.0440     5.2330    -1.4090 H     1 <1>   0.0800 
 39 H       -2.0300     5.2820    -2.8330 H     1 <1>   0.0800 
 40 H       -0.2320     5.0600     0.9780 H     1 <1>   0.0800 
 41 H       -1.9750     5.1090     0.8600 H     1 <1>   0.0800 
 42 H       -5.1430    -0.6540     2.5140 H     1 <1>   0.4000 
 43 H       -5.0430    -3.0540    -0.8850 H     1 <1>   0.0800 
 44 H       -5.3770    -3.4090     0.7790 H     1 <1>   0.0800 
 45 H       -0.1380     4.8320    -1.4120 H     1 <1>   0.4500 
 46 H       -0.6750     7.0370    -2.1260 H     1 <1>   0.0800 
 47 H       -4.0060    -4.9190     2.0140 H     1 <1>   0.1500 
 48 H        1.2640     6.3410    -0.2880 H     1 <1>   0.0800 
 49 H        1.0290     7.9220    -0.9810 H     1 <1>   0.0800 
 50 H       -2.3090     8.2290    -1.1190 H     1 <1>   0.0800 
 51 H       -2.6190     6.9480     0.0190 H     1 <1>   0.0800 
 52 H       -1.1720    -5.2850    -1.7680 H     1 <1>   0.1500 
 53 H        0.0790     6.9980     1.7070 H     1 <1>   0.0800 
 54 H        0.8940     8.4870     1.2920 H     1 <1>   0.0800 
 55 H       -1.0420     9.4110     0.3470 H     1 <1>   0.0800 
 56 H       -1.7870     8.4400     1.5960 H     1 <1>   0.0800 
 57 H       -0.8930    -6.7540     0.1380 H     1 <1>   0.1500 
@<TRIPOS>BOND
  1   1   2  2   
  2   2   3  am  
  3   2   4  1   
  4   3   5  1   
  5   3   6  1   
  6   4   7  1   
  7   4   8  1   
  8   4  27  1   
  9   5   9  1   
 10   5  28  1   
 11   5  29  1   
 12   6  10  1   
 13   6  30  1   
 14   6  31  1   
 15   7  11  1   
 16   7  32  1   
 17   7  33  1   
 18   8  12  1   
 19   8  34  1   
 20   8  35  1   
 21   9  10  1   
 22   9  13  1   
 23   9  36  1   
 24  10  14  1   
 25  10  37  1   
 26  11  15  1   
 27  11  38  1   
 28  11  39  1   
 29  12  15  1   
 30  12  40  1   
 31  12  41  1   
 32  13  42  1   
 33  14  16  1   
 34  14  43  1   
 35  14  44  1   
 36  15  17  1   
 37  15  45  1   
 38  16  18  ar  
 39  16  19  ar  
 40  17  20  1   
 41  17  21  1   
 42  17  46  1   
 43  18  22  ar  
 44  19  23  ar  
 45  19  47  1   
 46  20  24  1   
 47  20  48  1   
 48  20  49  1   
 49  21  25  1   
 50  21  50  1   
 51  21  51  1   
 52  22  26  ar  
 53  22  52  1   
 54  23  26  ar  
 55  24  25  1   
 56  24  53  1   
 57  24  54  1   
 58  25  55  1   
 59  25  56  1   
 60  26  57  1   
@<TRIPOS>SUBSTRUCTURE
  1 ****   2 GROUP 4 **** **** 0

# MOE 2024.06 (io_trps.svl 2023.06)
