@<TRIPOS>MOLECULE
NONAME
38 39 1 0 0 
SMALL
USER_CHARGES


@<TRIPOS>ATOM
  1 F        1.8230     1.0250    -2.6170 F     1 <1>  -0.3400 
  2 C        2.7380     1.6100    -1.8550 C.3   1 <1>   1.1640 
  3 F        3.5220     0.6470    -1.3930 F     1 <1>  -0.3400 
  4 F        3.4870     2.3450    -2.6690 F     1 <1>  -0.3400 
  5 C        2.1390     2.4570    -0.7170 C.ar  1 <1>  -0.1440 
  6 C        2.9120     3.4250    -0.0840 C.ar  1 <1>  -0.1500 
  7 C        0.8270     2.2730    -0.2920 C.ar  1 <1>  -0.1500 
  8 C        2.3900     4.2030     0.9410 C.ar  1 <1>  -0.1440 
  9 C        0.3050     3.0370     0.7350 C.ar  1 <1>  -0.1500 
 10 C        1.0820     3.9990     1.3520 C.ar  1 <1>  -0.1500 
 11 C        3.2420     5.2710     1.6020 C.3   1 <1>   0.4870 
 12 N        3.3850     6.4090     0.6490 N.4   1 <1>  -0.9590 
 13 C        4.4860     7.3260     1.0550 C.3   1 <1>   0.3430 
 14 C        2.0730     7.1120     0.4530 C.3   1 <1>   0.2630 
 15 C        4.9020     8.1940    -0.1340 C.3   1 <1>  -0.1600 
 16 C        6.1740     9.0100     0.1670 C.3   1 <1>   0.0960 
 17 N        6.6460     9.7010    -1.0500 N.pl3 1 <1>   0.3140 
 18 N        6.9680     9.0590    -2.1500 N.2   1 <1>  -0.4180 
 19 C        6.8140    10.9900    -1.2780 C.2   1 <1>   0.0370 
 20 N        7.3150     9.9550    -3.0030 N.2   1 <1>   0.0000 
 21 N        7.2230    11.1700    -2.4730 N.2   1 <1>  -0.3380 
 22 H        3.9340     3.5620    -0.3990 H     1 <1>   0.1500 
 23 H        0.1990     1.5270    -0.7550 H     1 <1>   0.1500 
 24 H       -0.7120     2.8770     1.0560 H     1 <1>   0.1500 
 25 H        0.6520     4.5770     2.1530 H     1 <1>   0.1500 
 26 H        4.2080     4.8530     1.8340 H     1 <1>   0.0800 
 27 H        2.7820     5.6010     2.5190 H     1 <1>   0.0800 
 28 H        3.6350     5.9770    -0.2530 H     1 <1>   0.4500 
 29 H        5.3370     6.7440     1.3720 H     1 <1>   0.0800 
 30 H        4.1720     7.9450     1.8810 H     1 <1>   0.0800 
 31 H        1.7460     7.5660     1.3740 H     1 <1>   0.0800 
 32 H        1.3190     6.4120     0.1280 H     1 <1>   0.0800 
 33 H        2.1640     7.8790    -0.2980 H     1 <1>   0.0800 
 34 H        4.1100     8.8740    -0.3930 H     1 <1>   0.0800 
 35 H        5.0990     7.5490    -0.9740 H     1 <1>   0.0800 
 36 H        6.9660     8.3610     0.4970 H     1 <1>   0.0800 
 37 H        5.9860     9.7420     0.9310 H     1 <1>   0.0800 
 38 H        6.6300    11.7650    -0.5580 H     1 <1>   0.1500 
@<TRIPOS>BOND
  1   1   2  1   
  2   2   3  1   
  3   2   4  1   
  4   2   5  1   
  5   5   6  ar  
  6   5   7  ar  
  7   6   8  ar  
  8   6  22  1   
  9   7   9  ar  
 10   7  23  1   
 11   8  10  ar  
 12   8  11  1   
 13   9  10  ar  
 14   9  24  1   
 15  10  25  1   
 16  11  12  1   
 17  11  26  1   
 18  11  27  1   
 19  12  13  1   
 20  12  14  1   
 21  12  28  1   
 22  13  15  1   
 23  13  29  1   
 24  13  30  1   
 25  14  31  1   
 26  14  32  1   
 27  14  33  1   
 28  15  16  1   
 29  15  34  1   
 30  15  35  1   
 31  16  17  1   
 32  16  36  1   
 33  16  37  1   
 34  17  18  1   
 35  17  19  1   
 36  18  20  2   
 37  19  21  2   
 38  19  38  1   
 39  20  21  1   
@<TRIPOS>SUBSTRUCTURE
  1 ****  12 GROUP 4 **** **** 0

# MOE 2024.06 (io_trps.svl 2023.06)
