@<TRIPOS>MOLECULE
NONAME
51 54 1 0 0 
SMALL
USER_CHARGES


@<TRIPOS>ATOM
  1 S       -0.3730     0.4410    -2.3200 S.3   1 <1>  -0.0800 
  2 C        0.7510    -0.7120    -1.6200 C.2   1 <1>  -0.1400 
  3 C        0.4500     1.7780    -1.5410 C.2   1 <1>  -0.1100 
  4 C        1.6680    -0.0740    -0.8680 C.2   1 <1>  -0.1500 
  5 C        0.5480    -2.1740    -1.9530 C.3   1 <1>   0.5230 
  6 C        1.5000     1.3490    -0.8120 C.2   1 <1>   0.0190 
  7 N       -0.2860    -2.7950    -0.8900 N.4   1 <1>  -0.9590 
  8 C        2.3860     2.1710    -0.0450 C.1   1 <1>  -0.0190 
  9 C       -1.6960    -2.2520    -0.8870 C.3   1 <1>   0.3430 
 10 C       -0.2850    -4.2950    -1.0010 C.3   1 <1>   0.3430 
 11 C        3.1240     2.8550     0.5900 C.1   1 <1>  -0.2000 
 12 C       -2.5900    -2.9440     0.1630 C.3   1 <1>   0.1900 
 13 C       -1.1990    -4.9520     0.0510 C.3   1 <1>   0.1100 
 14 C        4.0470     3.7170     1.3750 C.3   1 <1>   0.3200 
 15 N       -2.5720    -4.4130    -0.0330 N.3   1 <1>  -0.8100 
 16 C       -4.0320    -2.4070     0.0800 C.3   1 <1>   0.1200 
 17 O        4.8970     4.3280     0.4790 O.3   1 <1>  -0.6800 
 18 C       -3.5000    -5.0770     0.9220 C.3   1 <1>   0.3330 
 19 O       -4.8260    -3.0400     1.0360 O.3   1 <1>  -0.5600 
 20 C       -3.5980    -6.5680     0.6140 C.ar  1 <1>  -0.1430 
 21 C       -4.9020    -4.4320     0.8700 C.3   1 <1>   0.1200 
 22 C       -3.3810    -7.5020     1.6170 C.ar  1 <1>  -0.1500 
 23 C       -3.8980    -7.0120    -0.6680 C.ar  1 <1>  -0.1500 
 24 C       -3.4580    -8.8570     1.3430 C.ar  1 <1>  -0.1500 
 25 C       -3.9770    -8.3660    -0.9430 C.ar  1 <1>  -0.1500 
 26 C       -3.7550    -9.2890     0.0630 C.ar  1 <1>  -0.1500 
 27 H        0.0650     2.7690    -1.7060 H     1 <1>   0.1500 
 28 H        2.4830    -0.5290    -0.3310 H     1 <1>   0.1500 
 29 H        1.5100    -2.6590    -1.9880 H     1 <1>   0.0800 
 30 H        0.0780    -2.2750    -2.9180 H     1 <1>   0.0800 
 31 H        0.1370    -2.5370     0.0090 H     1 <1>   0.4500 
 32 H       -1.6810    -1.1940    -0.6820 H     1 <1>   0.0800 
 33 H       -2.1420    -2.3960    -1.8570 H     1 <1>   0.0800 
 34 H       -0.6390    -4.5880    -1.9760 H     1 <1>   0.0800 
 35 H        0.7170    -4.6740    -0.8830 H     1 <1>   0.0800 
 36 H       -2.2120    -2.7060     1.1430 H     1 <1>   0.0800 
 37 H       -0.7980    -4.7950     1.0380 H     1 <1>   0.0800 
 38 H       -1.2130    -6.0130    -0.1340 H     1 <1>   0.0800 
 39 H        4.6360     3.1290     2.0580 H     1 <1>   0.0800 
 40 H        3.5130     4.4810     1.9130 H     1 <1>   0.0800 
 41 H       -4.4590    -2.5830    -0.8920 H     1 <1>   0.0800 
 42 H       -4.0590    -1.3520     0.2880 H     1 <1>   0.0800 
 43 H        5.1240     3.6910    -0.2240 H     1 <1>   0.4000 
 44 H       -3.1230    -4.9520     1.9230 H     1 <1>   0.0800 
 45 H       -5.5170    -4.8270     1.6590 H     1 <1>   0.0800 
 46 H       -5.3810    -4.6400    -0.0710 H     1 <1>   0.0800 
 47 H       -3.1510    -7.1850     2.6200 H     1 <1>   0.1500 
 48 H       -4.0690    -6.3010    -1.4570 H     1 <1>   0.1500 
 49 H       -3.2880    -9.5760     2.1250 H     1 <1>   0.1500 
 50 H       -4.2120    -8.7020    -1.9380 H     1 <1>   0.1500 
 51 H       -3.8160   -10.3420    -0.1500 H     1 <1>   0.1500 
@<TRIPOS>BOND
  1   1   2  1   
  2   1   3  1   
  3   2   4  2   
  4   2   5  1   
  5   3   6  2   
  6   3  27  1   
  7   4   6  1   
  8   4  28  1   
  9   5   7  1   
 10   5  29  1   
 11   5  30  1   
 12   6   8  1   
 13   7   9  1   
 14   7  10  1   
 15   7  31  1   
 16   8  11  3   
 17   9  12  1   
 18   9  32  1   
 19   9  33  1   
 20  10  13  1   
 21  10  34  1   
 22  10  35  1   
 23  11  14  1   
 24  12  15  1   
 25  12  16  1   
 26  12  36  1   
 27  13  15  1   
 28  13  37  1   
 29  13  38  1   
 30  14  17  1   
 31  14  39  1   
 32  14  40  1   
 33  15  18  1   
 34  16  19  1   
 35  16  41  1   
 36  16  42  1   
 37  17  43  1   
 38  18  20  1   
 39  18  21  1   
 40  18  44  1   
 41  19  21  1   
 42  20  22  ar  
 43  20  23  ar  
 44  21  45  1   
 45  21  46  1   
 46  22  24  ar  
 47  22  47  1   
 48  23  25  ar  
 49  23  48  1   
 50  24  26  ar  
 51  24  49  1   
 52  25  26  ar  
 53  25  50  1   
 54  26  51  1   
@<TRIPOS>SUBSTRUCTURE
  1 ****   9 GROUP 4 **** **** 0

# MOE 2024.06 (io_trps.svl 2023.06)
