@<TRIPOS>MOLECULE
NONAME
42 45 1 0 0 
SMALL
USER_CHARGES


@<TRIPOS>ATOM
  1 O       -0.6850    -0.4990    -0.2090 O.2   1 <1>  -0.5700 
  2 C       -1.8530    -0.2010    -0.2360 C.2   1 <1>   0.5690 
  3 N       -2.9220    -1.0540    -0.2640 N.am  1 <1>  -0.4770 
  4 C       -2.2990     1.2370    -0.2450 C.3   1 <1>  -0.0990 
  5 C       -2.9190    -2.4590    -0.2040 C.ar  1 <1>   0.1170 
  6 C       -4.1910    -0.2990    -0.3070 C.3   1 <1>   0.1400 
  7 C       -3.8060     1.1480     0.0190 C.3   1 <1>  -0.1600 
  8 C       -3.8820    -3.2080    -0.8760 C.ar  1 <1>  -0.1500 
  9 C       -1.9670    -3.1540     0.5380 C.ar  1 <1>  -0.1500 
 10 C       -3.8970    -4.5870    -0.7970 C.ar  1 <1>  -0.1500 
 11 C       -1.9860    -4.5330     0.6160 C.ar  1 <1>  -0.1500 
 12 C       -2.9590    -5.2870    -0.0380 C.ar  1 <1>   0.0860 
 13 C       -2.9780    -6.7330     0.0580 C.2   1 <1>   0.5440 
 14 O       -1.9770    -7.3610    -0.2390 O.2   1 <1>  -0.5700 
 15 N       -4.0900    -7.4170     0.4800 N.am  1 <1>  -0.6600 
 16 C       -5.3340    -6.8240     1.0480 C.3   1 <1>   0.2350 
 17 C       -4.3800    -8.8180     0.0610 C.3   1 <1>   0.2350 
 18 C       -6.4650    -7.5710     0.3700 C.3   1 <1>  -0.2420 
 19 C       -5.8770    -8.8340    -0.2150 C.3   1 <1>  -0.2420 
 20 C       -7.7880    -7.2590     1.0730 C.2   1 <1>   0.9470 
 21 C       -6.4900    -7.7980    -1.1220 C.3   1 <1>  -0.2000 
 22 C       -6.4130   -10.2680    -0.2500 C.2   1 <1>   0.9470 
 23 O       -7.8630    -7.4020     2.3000 O.co2 1 <1>  -0.9000 
 24 O       -8.6890    -6.6920     0.4390 O.co2 1 <1>  -0.9000 
 25 O       -7.0050   -10.6730    -1.2610 O.co2 1 <1>  -0.9000 
 26 O       -6.1120   -11.0430     0.6670 O.co2 1 <1>  -0.9000 
 27 H       -1.7880     1.8000     0.5150 H     1 <1>   0.0800 
 28 H       -2.0960     1.6560    -1.2130 H     1 <1>   0.0800 
 29 H       -4.6070    -0.3640    -1.2980 H     1 <1>   0.0800 
 30 H       -4.8920    -0.6930     0.4110 H     1 <1>   0.0800 
 31 H       -4.3660     1.8530    -0.5700 H     1 <1>   0.0800 
 32 H       -4.0020     1.3330     1.0610 H     1 <1>   0.0800 
 33 H       -4.6260    -2.7170    -1.4740 H     1 <1>   0.1500 
 34 H       -1.2020    -2.6070     1.0600 H     1 <1>   0.1500 
 35 H       -4.6500    -5.1470    -1.3260 H     1 <1>   0.1500 
 36 H       -1.2370    -5.0510     1.1910 H     1 <1>   0.1500 
 37 H       -5.3620    -7.0140     2.1070 H     1 <1>   0.0800 
 38 H       -5.4190    -5.7680     0.8770 H     1 <1>   0.0800 
 39 H       -3.8230    -9.0920    -0.8170 H     1 <1>   0.0800 
 40 H       -4.1400    -9.4880     0.8680 H     1 <1>   0.0800 
 41 H       -5.8540    -7.2260    -1.7690 H     1 <1>   0.1000 
 42 H       -7.4380    -8.0310    -1.5780 H     1 <1>   0.1000 
@<TRIPOS>BOND
  1   1   2  2   
  2   2   3  am  
  3   2   4  1   
  4   3   5  1   
  5   3   6  1   
  6   4   7  1   
  7   4  27  1   
  8   4  28  1   
  9   5   8  ar  
 10   5   9  ar  
 11   6   7  1   
 12   6  29  1   
 13   6  30  1   
 14   7  31  1   
 15   7  32  1   
 16   8  10  ar  
 17   8  33  1   
 18   9  11  ar  
 19   9  34  1   
 20  10  12  ar  
 21  10  35  1   
 22  11  12  ar  
 23  11  36  1   
 24  12  13  1   
 25  13  14  2   
 26  13  15  am  
 27  15  16  1   
 28  15  17  1   
 29  16  18  1   
 30  16  37  1   
 31  16  38  1   
 32  17  19  1   
 33  17  39  1   
 34  17  40  1   
 35  18  19  1   
 36  18  20  1   
 37  18  21  1   
 38  19  21  1   
 39  19  22  1   
 40  20  23  ar  
 41  20  24  ar  
 42  21  41  1   
 43  21  42  1   
 44  22  25  ar  
 45  22  26  ar  
@<TRIPOS>SUBSTRUCTURE
  1 ****  10 GROUP 4 **** **** 0

# MOE 2024.06 (io_trps.svl 2023.06)
