@<TRIPOS>MOLECULE
NONAME
52 56 1 0 0 
SMALL
USER_CHARGES


@<TRIPOS>ATOM
  1 O       -0.9790     4.5020    -2.3590 O.2   1 <1>  -0.5700 
  2 C       -0.6530     4.3300    -1.2000 C.2   1 <1>   0.5440 
  3 N       -1.6070     3.9160    -0.2930 N.am  1 <1>  -0.6600 
  4 C        0.7250     4.5580    -0.8110 C.ar  1 <1>   0.0860 
  5 C       -3.0520     3.8260    -0.7010 C.3   1 <1>   0.1400 
  6 C       -1.2590     3.4220     1.0740 C.3   1 <1>   0.1400 
  7 C        1.0660     5.4430     0.2110 C.ar  1 <1>  -0.1500 
  8 C        1.7700     3.8990    -1.4530 C.ar  1 <1>  -0.1500 
  9 C       -4.0010     4.0220     0.4970 C.3   1 <1>   0.1440 
 10 C       -2.2870     2.3990     1.5660 C.3   1 <1>  -0.1600 
 11 C        2.3810     5.6410     0.5860 C.ar  1 <1>  -0.1500 
 12 C        3.0860     4.0970    -1.0780 C.ar  1 <1>  -0.1500 
 13 C       -5.4320     3.9880    -0.0160 C.ar  1 <1>   0.1670 
 14 C       -3.7280     2.9460     1.5850 C.3   1 <1>  -0.1600 
 15 C       -3.8920     5.4730     1.0540 C.3   1 <1>  -0.1600 
 16 C        3.4320     4.9700    -0.0450 C.ar  1 <1>   0.0540 
 17 N       -6.0860     2.9100    -0.3930 N.ar  1 <1>  -0.6200 
 18 C       -5.9800     5.2350    -0.0670 C.ar  1 <1>  -0.1430 
 19 C       -5.0130     6.2940     0.3950 C.3   1 <1>  -0.0170 
 20 C        4.8170     5.1650     0.3480 C.2   1 <1>   0.4620 
 21 C       -7.3230     3.1350    -0.8120 C.ar  1 <1>   0.4770 
 22 C       -7.2700     5.3530    -0.5200 C.ar  1 <1>   0.1600 
 23 N        5.1820     6.0070     1.3240 N.2   1 <1>  -0.2270 
 24 N        5.8280     4.5600    -0.1880 N.2   1 <1>  -0.7070 
 25 N       -7.9590     4.2960    -0.8970 N.ar  1 <1>  -0.6200 
 26 C       -8.0980     1.9160    -1.2500 C.3   1 <1>  -0.0970 
 27 N        6.4480     5.9380     1.4140 N.2   1 <1>  -0.4180 
 28 N        6.8220     5.0670     0.4990 N.pl3 1 <1>   0.5800 
 29 C        8.2200     4.6910     0.2720 C.3   1 <1>   0.0160 
 30 H       -3.2290     2.8590    -1.1400 H     1 <1>   0.0800 
 31 H       -3.2660     4.5680    -1.4510 H     1 <1>   0.0800 
 32 H       -1.2300     4.2560     1.7540 H     1 <1>   0.0800 
 33 H       -0.2840     2.9630     1.0590 H     1 <1>   0.0800 
 34 H        0.2820     5.9840     0.7110 H     1 <1>   0.1500 
 35 H        1.5360     3.2250    -2.2590 H     1 <1>   0.1500 
 36 H       -2.0170     2.0610     2.5510 H     1 <1>   0.0800 
 37 H       -2.2410     1.5440     0.9130 H     1 <1>   0.0800 
 38 H        2.5990     6.3330     1.3810 H     1 <1>   0.1500 
 39 H        3.8660     3.5670    -1.5980 H     1 <1>   0.1500 
 40 H       -4.3880     2.1090     1.4340 H     1 <1>   0.0800 
 41 H       -3.9560     3.3370     2.5600 H     1 <1>   0.0800 
 42 H       -2.9300     5.9180     0.8730 H     1 <1>   0.0800 
 43 H       -4.0680     5.4750     2.1140 H     1 <1>   0.0800 
 44 H       -4.6370     6.8350    -0.4570 H     1 <1>   0.0800 
 45 H       -5.4690     6.9760     1.0910 H     1 <1>   0.0800 
 46 H       -7.7430     6.3180    -0.5770 H     1 <1>   0.1500 
 47 H       -7.9370     1.1150    -0.5540 H     1 <1>   0.0800 
 48 H       -7.7590     1.6130    -2.2220 H     1 <1>   0.0800 
 49 H       -9.1480     2.1360    -1.2940 H     1 <1>   0.0800 
 50 H        8.3810     4.5610    -0.7820 H     1 <1>   0.0800 
 51 H        8.4200     3.7720     0.7870 H     1 <1>   0.0800 
 52 H        8.8600     5.4680     0.6460 H     1 <1>   0.0800 
@<TRIPOS>BOND
  1   1   2  2   
  2   2   3  am  
  3   2   4  1   
  4   3   5  1   
  5   3   6  1   
  6   4   7  ar  
  7   4   8  ar  
  8   5   9  1   
  9   5  30  1   
 10   5  31  1   
 11   6  10  1   
 12   6  32  1   
 13   6  33  1   
 14   7  11  ar  
 15   7  34  1   
 16   8  12  ar  
 17   8  35  1   
 18   9  13  1   
 19   9  14  1   
 20   9  15  1   
 21  10  14  1   
 22  10  36  1   
 23  10  37  1   
 24  11  16  ar  
 25  11  38  1   
 26  12  16  ar  
 27  12  39  1   
 28  13  17  ar  
 29  13  18  ar  
 30  14  40  1   
 31  14  41  1   
 32  15  19  1   
 33  15  42  1   
 34  15  43  1   
 35  16  20  1   
 36  17  21  ar  
 37  18  19  1   
 38  18  22  ar  
 39  19  44  1   
 40  19  45  1   
 41  20  23  1   
 42  20  24  2   
 43  21  25  ar  
 44  21  26  1   
 45  22  25  ar  
 46  22  46  1   
 47  23  27  2   
 48  24  28  1   
 49  26  47  1   
 50  26  48  1   
 51  26  49  1   
 52  27  28  1   
 53  28  29  1   
 54  29  50  1   
 55  29  51  1   
 56  29  52  1   
@<TRIPOS>SUBSTRUCTURE
  1 ****   3 GROUP 4 **** **** 0

# MOE 2024.06 (io_trps.svl 2023.06)
