@<TRIPOS>MOLECULE
NONAME
55 58 1 0 0 
SMALL
USER_CHARGES


@<TRIPOS>ATOM
  1 O       -0.3740    -1.0150     0.7130 O.3   1 <1>  -0.5600 
  2 C       -1.2340    -1.9590     1.2840 C.3   1 <1>   0.1200 
  3 C        0.8120    -1.5540     0.2130 C.3   1 <1>   0.1200 
  4 C       -1.6490    -3.0130     0.2430 C.3   1 <1>   0.2090 
  5 C        0.5110    -2.5790    -0.8970 C.3   1 <1>   0.2090 
  6 N       -0.4420    -3.6420    -0.4150 N.pl3 1 <1>  -0.8380 
  7 C       -0.3020    -4.9930    -0.5130 C.ar  1 <1>   0.7710 
  8 N       -1.1910    -5.7860     0.0730 N.ar  1 <1>  -0.6200 
  9 N        0.7340    -5.4970    -1.2080 N.ar  1 <1>  -0.1790 
 10 C       -1.0320    -7.0840    -0.0300 C.ar  1 <1>   0.4100 
 11 C        0.9370    -6.8300    -1.3400 C.ar  1 <1>   0.2180 
 12 N       -1.9670    -7.8100     0.6000 N.pl3 1 <1>  -0.8690 
 13 C        0.0420    -7.6520    -0.7400 C.ar  1 <1>  -0.1500 
 14 C        2.1360    -7.3240    -2.1400 C.3   1 <1>  -0.0170 
 15 C       -2.1350    -9.2810     0.7220 C.3   1 <1>   0.2890 
 16 C        2.0580    -6.9090    -3.6160 C.3   1 <1>  -0.2400 
 17 C       -3.5920    -9.6830     0.5770 C.3   1 <1>  -0.0800 
 18 C       -1.8000    -9.7960     2.1140 C.3   1 <1>   0.1200 
 19 C       -3.7070   -10.9130     1.4850 C.3   1 <1>   0.1200 
 20 C       -4.0040    -9.9440    -0.8810 C.3   1 <1>  -0.0160 
 21 O       -2.5460   -10.9620     2.2600 O.3   1 <1>  -0.5600 
 22 C       -5.4480   -10.4100    -0.9690 C.ar  1 <1>  -0.1430 
 23 C       -6.5050    -9.5310    -0.8410 C.ar  1 <1>  -0.1500 
 24 C       -5.7800   -11.7340    -1.1810 C.ar  1 <1>  -0.1500 
 25 C       -7.8040   -10.0050    -0.9220 C.ar  1 <1>   0.1600 
 26 C       -7.1140   -12.1030    -1.2460 C.ar  1 <1>   0.1600 
 27 N       -8.1340   -11.2710    -1.1190 N.ar  1 <1>  -0.6200 
 28 H       -0.7370    -2.4220     2.1190 H     1 <1>   0.0800 
 29 H       -2.1000    -1.4340     1.6470 H     1 <1>   0.0800 
 30 H        1.3980    -0.7410    -0.1780 H     1 <1>   0.0800 
 31 H        1.3520    -2.0100     1.0250 H     1 <1>   0.0800 
 32 H       -2.2520    -2.5330    -0.5090 H     1 <1>   0.0800 
 33 H       -2.2700    -3.7420     0.7330 H     1 <1>   0.0800 
 34 H        1.4430    -2.9990    -1.2270 H     1 <1>   0.0800 
 35 H        0.0680    -2.0570    -1.7300 H     1 <1>   0.0800 
 36 H        1.3420    -4.8230    -1.6510 H     1 <1>   0.4570 
 37 H       -2.6720    -7.2700     1.1120 H     1 <1>   0.4000 
 38 H        0.1340    -8.7190    -0.7940 H     1 <1>   0.1500 
 39 H        3.0450    -6.9450    -1.7040 H     1 <1>   0.0800 
 40 H        2.1830    -8.3990    -2.0870 H     1 <1>   0.0800 
 41 H       -1.5320    -9.8080     0.0050 H     1 <1>   0.0800 
 42 H        2.0880    -5.8410    -3.7310 H     1 <1>   0.0800 
 43 H        1.1530    -7.2830    -4.0650 H     1 <1>   0.0800 
 44 H        2.8920    -7.3260    -4.1540 H     1 <1>   0.0800 
 45 H       -4.2230    -8.9180     0.9940 H     1 <1>   0.0800 
 46 H       -2.1180    -9.1050     2.8740 H     1 <1>   0.0800 
 47 H       -0.7570   -10.0320     2.2260 H     1 <1>   0.0800 
 48 H       -3.7590   -11.8290     0.9220 H     1 <1>   0.0800 
 49 H       -4.5590   -10.8430     2.1400 H     1 <1>   0.0800 
 50 H       -3.3590   -10.6860    -1.3180 H     1 <1>   0.0800 
 51 H       -3.8910    -9.0380    -1.4510 H     1 <1>   0.0800 
 52 H       -6.3320    -8.4830    -0.6790 H     1 <1>   0.1500 
 53 H       -5.0190   -12.4840    -1.2960 H     1 <1>   0.1500 
 54 H       -8.6150    -9.3040    -0.8200 H     1 <1>   0.1500 
 55 H       -7.3540   -13.1400    -1.4110 H     1 <1>   0.1500 
@<TRIPOS>BOND
  1   1   2  1   
  2   1   3  1   
  3   2   4  1   
  4   2  28  1   
  5   2  29  1   
  6   3   5  1   
  7   3  30  1   
  8   3  31  1   
  9   4   6  1   
 10   4  32  1   
 11   4  33  1   
 12   5   6  1   
 13   5  34  1   
 14   5  35  1   
 15   6   7  1   
 16   7   8  ar  
 17   7   9  ar  
 18   8  10  ar  
 19   9  11  ar  
 20   9  36  1   
 21  10  12  1   
 22  10  13  ar  
 23  11  13  ar  
 24  11  14  1   
 25  12  15  1   
 26  12  37  1   
 27  13  38  1   
 28  14  16  1   
 29  14  39  1   
 30  14  40  1   
 31  15  17  1   
 32  15  18  1   
 33  15  41  1   
 34  16  42  1   
 35  16  43  1   
 36  16  44  1   
 37  17  19  1   
 38  17  20  1   
 39  17  45  1   
 40  18  21  1   
 41  18  46  1   
 42  18  47  1   
 43  19  21  1   
 44  19  48  1   
 45  19  49  1   
 46  20  22  1   
 47  20  50  1   
 48  20  51  1   
 49  22  23  ar  
 50  22  24  ar  
 51  23  25  ar  
 52  23  52  1   
 53  24  26  ar  
 54  24  53  1   
 55  25  27  ar  
 56  25  54  1   
 57  26  27  ar  
 58  26  55  1   
@<TRIPOS>SUBSTRUCTURE
  1 ****  12 GROUP 4 **** **** 0

# MOE 2024.06 (io_trps.svl 2023.06)
