@<TRIPOS>MOLECULE
NONAME
40 41 1 0 0 
SMALL
USER_CHARGES


@<TRIPOS>ATOM
  1 O       -1.5880     5.3670    -0.7290 O.co2 1 <1>  -0.9000 
  2 C       -1.0180     4.9020    -1.7350 C.2   1 <1>   1.0330 
  3 O       -1.6840     4.6990    -2.7650 O.co2 1 <1>  -0.9000 
  4 C        0.4280     4.6980    -1.7580 C.2   1 <1>  -0.0060 
  5 N        1.2870     4.7510    -0.6850 N.2   1 <1>  -0.5650 
  6 C        1.1770     4.4780    -2.8560 C.2   1 <1>  -0.0100 
  7 C        2.4450     4.6040    -1.2150 C.2   1 <1>   0.5620 
  8 O        2.4410     4.4360    -2.5160 O.3   1 <1>  -0.2800 
  9 N        3.6240     4.7470    -0.5250 N.pl3 1 <1>  -0.8220 
 10 C        4.3400     6.0450    -0.6760 C.3   1 <1>   0.2090 
 11 C        3.7650     4.0130     0.7600 C.3   1 <1>   0.1290 
 12 C        3.7820     7.1680     0.2370 C.3   1 <1>   0.3430 
 13 N        2.2870     7.3380     0.1840 N.4   1 <1>  -0.9590 
 14 C        1.7860     8.4330    -0.6980 C.3   1 <1>   0.4230 
 15 C        1.7210     7.4080     1.5600 C.3   1 <1>   0.3430 
 16 C        0.2530     8.4170    -0.7440 C.3   1 <1>  -0.1600 
 17 C        2.3390     8.2940    -2.1150 C.3   1 <1>  -0.2400 
 18 C        0.1960     7.3670     1.5260 C.3   1 <1>  -0.1600 
 19 C       -0.3810     8.4790     0.6470 C.3   1 <1>  -0.1600 
 20 H        0.8800     4.3630    -3.8840 H     1 <1>   0.1500 
 21 H        4.2830     6.3540    -1.7050 H     1 <1>   0.0800 
 22 H        5.3820     5.8940    -0.4540 H     1 <1>   0.0800 
 23 H        3.2060     3.0920     0.7150 H     1 <1>   0.0800 
 24 H        3.3840     4.6020     1.5750 H     1 <1>   0.0800 
 25 H        4.8000     3.7740     0.9370 H     1 <1>   0.0800 
 26 H        4.2610     8.0990    -0.0140 H     1 <1>   0.0800 
 27 H        4.0690     6.9250     1.2450 H     1 <1>   0.0800 
 28 H        1.8900     6.4540    -0.2040 H     1 <1>   0.4500 
 29 H        2.1000     9.3810    -0.2930 H     1 <1>   0.0800 
 30 H        2.0420     8.3180     2.0390 H     1 <1>   0.0800 
 31 H        2.0740     6.5710     2.1390 H     1 <1>   0.0800 
 32 H       -0.0830     7.5250    -1.2430 H     1 <1>   0.0800 
 33 H       -0.0990     9.2520    -1.3240 H     1 <1>   0.0800 
 34 H        2.1100     7.3240    -2.5200 H     1 <1>   0.0800 
 35 H        3.3970     8.4660    -2.1430 H     1 <1>   0.0800 
 36 H        1.8810     9.0300    -2.7520 H     1 <1>   0.0800 
 37 H       -0.1890     7.4640     2.5250 H     1 <1>   0.0800 
 38 H       -0.1260     6.4090     1.1530 H     1 <1>   0.0800 
 39 H       -1.4470     8.3450     0.5590 H     1 <1>   0.0800 
 40 H       -0.1960     9.4400     1.0960 H     1 <1>   0.0800 
@<TRIPOS>BOND
  1   1   2  ar  
  2   2   3  ar  
  3   2   4  1   
  4   4   5  1   
  5   4   6  2   
  6   5   7  2   
  7   6   8  1   
  8   6  20  1   
  9   7   8  1   
 10   7   9  1   
 11   9  10  1   
 12   9  11  1   
 13  10  12  1   
 14  10  21  1   
 15  10  22  1   
 16  11  23  1   
 17  11  24  1   
 18  11  25  1   
 19  12  13  1   
 20  12  26  1   
 21  12  27  1   
 22  13  14  1   
 23  13  15  1   
 24  13  28  1   
 25  14  16  1   
 26  14  17  1   
 27  14  29  1   
 28  15  18  1   
 29  15  30  1   
 30  15  31  1   
 31  16  19  1   
 32  16  32  1   
 33  16  33  1   
 34  17  34  1   
 35  17  35  1   
 36  17  36  1   
 37  18  19  1   
 38  18  37  1   
 39  18  38  1   
 40  19  39  1   
 41  19  40  1   
@<TRIPOS>SUBSTRUCTURE
  1 ****   5 GROUP 4 **** **** 0

# MOE 2024.06 (io_trps.svl 2023.06)
