@<TRIPOS>MOLECULE
NONAME
42 44 1 0 0 
SMALL
USER_CHARGES


@<TRIPOS>ATOM
  1 O       -0.6320     0.1910     0.1980 O.2   1 <1>  -0.5700 
  2 C       -1.7250     0.6280     0.4460 C.2   1 <1>   0.4230 
  3 C       -2.9310    -0.0820     0.1240 C.ar  1 <1>   0.0860 
  4 C       -1.7730     1.9490     1.1890 C.3   1 <1>  -0.1790 
  5 C       -4.0940     0.4640    -0.4150 C.ar  1 <1>   0.1660 
  6 C       -2.9890    -1.4450     0.3550 C.ar  1 <1>   0.1600 
  7 N       -5.1730    -0.2470    -0.6180 N.ar  1 <1>  -0.6200 
  8 C       -4.2010     1.9200    -0.8370 C.3   1 <1>  -0.0960 
  9 N       -4.0540    -2.1760     0.1490 N.ar  1 <1>  -0.6200 
 10 C       -5.1300    -1.5460    -0.3190 C.ar  1 <1>   0.7200 
 11 N       -6.2710    -2.2880    -0.5230 N.pl3 1 <1>  -0.8380 
 12 C       -6.2620    -3.7800    -0.5440 C.3   1 <1>   0.2090 
 13 C       -7.5840    -1.6620    -0.8600 C.3   1 <1>   0.2090 
 14 C       -7.3610    -4.3260     0.3690 C.3   1 <1>  -0.1600 
 15 C       -8.6800    -2.2220     0.0480 C.3   1 <1>  -0.1600 
 16 C       -8.7330    -3.7560    -0.0100 C.3   1 <1>   0.1000 
 17 C       -9.8260    -4.3310     0.8920 C.2   1 <1>   0.0070 
 18 N      -10.2770    -3.7640     1.9610 N.2   1 <1>  -0.3380 
 19 N      -10.4400    -5.5000     0.6700 N.pl3 1 <1>   0.0480 
 20 N      -11.2150    -4.5640     2.4700 N.2   1 <1>  -0.3380 
 21 C      -11.2940    -5.5840     1.6910 C.2   1 <1>   0.0360 
 22 C      -10.2530    -6.4770    -0.4190 C.3   1 <1>   0.0160 
 23 H       -2.7170     2.0760     1.6850 H     1 <1>   0.0800 
 24 H       -1.6080     2.7600     0.5040 H     1 <1>   0.0800 
 25 H       -0.9950     1.9670     1.9300 H     1 <1>   0.0800 
 26 H       -2.1100    -1.9390     0.7340 H     1 <1>   0.1500 
 27 H       -3.2680     2.2760    -1.2330 H     1 <1>   0.0800 
 28 H       -4.4980     2.5250    -0.0010 H     1 <1>   0.0800 
 29 H       -4.9440     2.0230    -1.6090 H     1 <1>   0.0800 
 30 H       -5.3150    -4.1780    -0.2250 H     1 <1>   0.0800 
 31 H       -6.4280    -4.1110    -1.5550 H     1 <1>   0.0800 
 32 H       -7.8150    -1.8690    -1.8900 H     1 <1>   0.0800 
 33 H       -7.5540    -0.5940    -0.7360 H     1 <1>   0.0800 
 34 H       -7.1290    -4.0620     1.3870 H     1 <1>   0.0800 
 35 H       -7.3730    -5.3970     0.3030 H     1 <1>   0.0800 
 36 H       -9.6310    -1.8160    -0.2460 H     1 <1>   0.0800 
 37 H       -8.4860    -1.9010     1.0570 H     1 <1>   0.0800 
 38 H       -8.9530    -4.0330    -1.0260 H     1 <1>   0.0800 
 39 H      -11.9650    -6.4110     1.8350 H     1 <1>   0.1500 
 40 H       -9.2380    -6.8290    -0.4130 H     1 <1>   0.0800 
 41 H      -10.4690    -6.0060    -1.3610 H     1 <1>   0.0800 
 42 H      -10.9190    -7.3090    -0.2760 H     1 <1>   0.0800 
@<TRIPOS>BOND
  1   1   2  2   
  2   2   3  1   
  3   2   4  1   
  4   3   5  ar  
  5   3   6  ar  
  6   4  23  1   
  7   4  24  1   
  8   4  25  1   
  9   5   7  ar  
 10   5   8  1   
 11   6   9  ar  
 12   6  26  1   
 13   7  10  ar  
 14   8  27  1   
 15   8  28  1   
 16   8  29  1   
 17   9  10  ar  
 18  10  11  1   
 19  11  12  1   
 20  11  13  1   
 21  12  14  1   
 22  12  30  1   
 23  12  31  1   
 24  13  15  1   
 25  13  32  1   
 26  13  33  1   
 27  14  16  1   
 28  14  34  1   
 29  14  35  1   
 30  15  16  1   
 31  15  36  1   
 32  15  37  1   
 33  16  17  1   
 34  16  38  1   
 35  17  18  2   
 36  17  19  1   
 37  18  20  1   
 38  19  21  1   
 39  19  22  1   
 40  20  21  2   
 41  21  39  1   
 42  22  40  1   
 43  22  41  1   
 44  22  42  1   
@<TRIPOS>SUBSTRUCTURE
  1 ****  11 GROUP 4 **** **** 0

# MOE 2024.06 (io_trps.svl 2023.06)
