@<TRIPOS>MOLECULE
NONAME
44 46 1 0 0 
SMALL
USER_CHARGES


@<TRIPOS>ATOM
  1 O       -0.3270     0.9220    -0.9760 O.2   1 <1>  -0.5700 
  2 C       -0.2690     2.0910    -0.6730 C.2   1 <1>   0.5690 
  3 N       -1.3030     2.7570    -0.0670 N.am  1 <1>  -0.5090 
  4 C        1.0140     2.8460    -1.0270 C.3   1 <1>   0.1810 
  5 C       -1.2590     4.2400     0.1430 C.3   1 <1>   0.3640 
  6 C       -2.5110     2.0620     0.4450 C.3   1 <1>   0.0490 
  7 O        1.1200     4.0960    -0.3890 O.3   1 <1>  -0.5600 
  8 C       -2.5330     4.8920    -0.3930 C.ar  1 <1>  -0.1440 
  9 C       -0.0300     4.9060    -0.5210 C.3   1 <1>   0.2610 
 10 C       -2.8510     2.1900     1.8980 C.3   1 <1>  -0.2000 
 11 C       -2.3570     0.8870     1.3590 C.3   1 <1>  -0.2000 
 12 C       -3.1930     5.8420     0.3740 C.ar  1 <1>   0.1600 
 13 C       -3.0490     4.5720    -1.6360 C.ar  1 <1>  -0.1500 
 14 C        0.2230     6.3120     0.0490 C.2   1 <1>   0.5690 
 15 N       -4.2950     6.4790     0.0100 N.ar  1 <1>  -0.6200 
 16 C       -4.1980     5.2240    -2.0280 C.ar  1 <1>  -0.1500 
 17 O       -0.1640     6.5660     1.1710 O.2   1 <1>  -0.5700 
 18 N        0.8660     7.2710    -0.6970 N.am  1 <1>  -0.6600 
 19 C       -4.7720     6.1540    -1.1790 C.ar  1 <1>   0.1600 
 20 C        0.9840     8.6800    -0.1800 C.3   1 <1>   0.2010 
 21 C        1.6640     7.0010    -1.9270 C.3   1 <1>   0.0600 
 22 C        2.1410     8.8600     0.8040 C.2   1 <1>   0.5690 
 23 O        3.0600     9.5880     0.5280 O.2   1 <1>  -0.5700 
 24 N        2.1230     8.1960     1.9760 N.am  1 <1>  -0.8000 
 25 H        1.0570     3.0000    -2.0890 H     1 <1>   0.0800 
 26 H        1.8620     2.2570    -0.7300 H     1 <1>   0.0800 
 27 H       -1.2030     4.4010     1.2050 H     1 <1>   0.0800 
 28 H       -3.3140     2.0400    -0.2730 H     1 <1>   0.1000 
 29 H       -0.2290     5.0120    -1.5720 H     1 <1>   0.0800 
 30 H       -2.2020     2.7300     2.5640 H     1 <1>   0.1000 
 31 H       -3.8870     2.2630     2.1800 H     1 <1>   0.1000 
 32 H       -3.0510     0.0710     1.2630 H     1 <1>   0.1000 
 33 H       -1.3630     0.5560     1.6050 H     1 <1>   0.1000 
 34 H       -2.7950     6.1010     1.3420 H     1 <1>   0.1500 
 35 H       -2.5870     3.8390    -2.2750 H     1 <1>   0.1500 
 36 H       -4.6500     5.0140    -2.9810 H     1 <1>   0.1500 
 37 H       -5.6710     6.6570    -1.4950 H     1 <1>   0.1500 
 38 H        1.1210     9.3570    -1.0040 H     1 <1>   0.0800 
 39 H        0.0720     8.9550     0.3180 H     1 <1>   0.0800 
 40 H        2.6160     7.5000    -1.8590 H     1 <1>   0.0800 
 41 H        1.1380     7.3700    -2.7910 H     1 <1>   0.0800 
 42 H        1.8510     5.9490    -2.0500 H     1 <1>   0.0800 
 43 H        2.9000     8.2650     2.6320 H     1 <1>   0.3700 
 44 H        1.3870     7.5060     2.1760 H     1 <1>   0.3700 
@<TRIPOS>BOND
  1   1   2  2   
  2   2   3  am  
  3   2   4  1   
  4   3   5  1   
  5   3   6  1   
  6   4   7  1   
  7   4  25  1   
  8   4  26  1   
  9   5   8  1   
 10   5   9  1   
 11   5  27  1   
 12   6  10  1   
 13   6  11  1   
 14   6  28  1   
 15   7   9  1   
 16   8  12  ar  
 17   8  13  ar  
 18   9  14  1   
 19   9  29  1   
 20  10  11  1   
 21  10  30  1   
 22  10  31  1   
 23  11  32  1   
 24  11  33  1   
 25  12  15  ar  
 26  12  34  1   
 27  13  16  ar  
 28  13  35  1   
 29  14  17  2   
 30  14  18  am  
 31  15  19  ar  
 32  16  19  ar  
 33  16  36  1   
 34  18  20  1   
 35  18  21  1   
 36  19  37  1   
 37  20  22  1   
 38  20  38  1   
 39  20  39  1   
 40  21  40  1   
 41  21  41  1   
 42  21  42  1   
 43  22  23  2   
 44  22  24  am  
 45  24  43  1   
 46  24  44  1   
@<TRIPOS>SUBSTRUCTURE
  1 ****   9 GROUP 4 **** **** 0

# MOE 2024.06 (io_trps.svl 2023.06)
