@<TRIPOS>MOLECULE
NONAME
48 52 1 0 0 
SMALL
USER_CHARGES


@<TRIPOS>ATOM
  1 S       -1.2140     0.0740     2.8060 S.3   1 <1>  -0.0800 
  2 C       -2.1330    -1.2770     2.1400 C.ar  1 <1>   0.2970 
  3 C       -2.1820     1.2410     1.9050 C.2   1 <1>  -0.1100 
  4 N       -1.8720    -2.5320     2.4320 N.ar  1 <1>  -0.5670 
  5 C       -3.1190    -0.8220     1.2980 C.ar  1 <1>   0.0000 
  6 C       -3.1200     0.6140     1.1740 C.2   1 <1>  -0.1500 
  7 C       -2.6790    -3.3670     1.8090 C.ar  1 <1>   0.4700 
  8 C       -3.9130    -1.8180     0.7220 C.ar  1 <1>   0.4100 
  9 N       -3.6750    -3.0960     0.9760 N.ar  1 <1>  -0.6200 
 10 N       -4.9740    -1.5300    -0.1160 N.pl3 1 <1>  -0.8380 
 11 C       -6.1370    -0.7660     0.4430 C.3   1 <1>   0.2090 
 12 C       -5.3740    -2.5430    -1.1370 C.3   1 <1>   0.2090 
 13 C       -6.9590    -0.0760    -0.6650 C.3   1 <1>   0.1440 
 14 C       -6.1950    -1.8960    -2.2590 C.3   1 <1>  -0.1600 
 15 C       -8.1270     0.6410    -0.0150 C.ar  1 <1>   0.1670 
 16 C       -7.4050    -1.1220    -1.7060 C.3   1 <1>  -0.1600 
 17 C       -6.1850     1.0950    -1.3300 C.3   1 <1>  -0.1600 
 18 N       -9.1940     0.0650     0.4790 N.ar  1 <1>  -0.6200 
 19 C       -7.9320     1.9890     0.0140 C.ar  1 <1>  -0.1430 
 20 C       -6.6140     2.3820    -0.6060 C.3   1 <1>  -0.0170 
 21 C      -10.0990     0.8940     1.0070 C.ar  1 <1>   0.7200 
 22 C       -8.9120     2.7630     0.5810 C.ar  1 <1>   0.1600 
 23 N      -10.0000     2.2250     1.0800 N.ar  1 <1>  -0.6200 
 24 N      -11.2420     0.3210     1.5290 N.pl3 1 <1>  -0.8380 
 25 C      -12.4470     1.1280     1.8680 C.3   1 <1>   0.1290 
 26 C      -11.3520    -1.1430     1.7780 C.3   1 <1>   0.1290 
 27 H       -1.9300     2.2800     2.0260 H     1 <1>   0.1500 
 28 H       -3.8290     1.0970     0.5310 H     1 <1>   0.1500 
 29 H       -2.5080    -4.4130     2.0020 H     1 <1>   0.1500 
 30 H       -5.7970    -0.0340     1.1540 H     1 <1>   0.0800 
 31 H       -6.7760    -1.4540     0.9710 H     1 <1>   0.0800 
 32 H       -5.9550    -3.3120    -0.6570 H     1 <1>   0.0800 
 33 H       -4.4930    -3.0010    -1.5550 H     1 <1>   0.0800 
 34 H       -6.5370    -2.6640    -2.9290 H     1 <1>   0.0800 
 35 H       -5.5550    -1.2380    -2.8190 H     1 <1>   0.0800 
 36 H       -7.9430    -0.6470    -2.5070 H     1 <1>   0.0800 
 37 H       -8.0780    -1.8180    -1.2350 H     1 <1>   0.0800 
 38 H       -6.4910     1.1820    -2.3580 H     1 <1>   0.0800 
 39 H       -5.1210     0.9470    -1.3150 H     1 <1>   0.0800 
 40 H       -6.7240     3.2040    -1.2920 H     1 <1>   0.0800 
 41 H       -5.9130     2.6400     0.1680 H     1 <1>   0.0800 
 42 H       -8.8050     3.8330     0.6270 H     1 <1>   0.1500 
 43 H      -12.5080     1.9980     1.2370 H     1 <1>   0.0800 
 44 H      -12.3900     1.4440     2.8950 H     1 <1>   0.0800 
 45 H      -13.3380     0.5440     1.7230 H     1 <1>   0.0800 
 46 H      -10.3850    -1.5620     1.9980 H     1 <1>   0.0800 
 47 H      -11.7520    -1.6270     0.9040 H     1 <1>   0.0800 
 48 H      -11.9990    -1.3300     2.6170 H     1 <1>   0.0800 
@<TRIPOS>BOND
  1   1   2  1   
  2   1   3  1   
  3   2   4  ar  
  4   2   5  ar  
  5   3   6  2   
  6   3  27  1   
  7   4   7  ar  
  8   5   6  1   
  9   5   8  ar  
 10   6  28  1   
 11   7   9  ar  
 12   7  29  1   
 13   8   9  ar  
 14   8  10  1   
 15  10  11  1   
 16  10  12  1   
 17  11  13  1   
 18  11  30  1   
 19  11  31  1   
 20  12  14  1   
 21  12  32  1   
 22  12  33  1   
 23  13  15  1   
 24  13  16  1   
 25  13  17  1   
 26  14  16  1   
 27  14  34  1   
 28  14  35  1   
 29  15  18  ar  
 30  15  19  ar  
 31  16  36  1   
 32  16  37  1   
 33  17  20  1   
 34  17  38  1   
 35  17  39  1   
 36  18  21  ar  
 37  19  20  1   
 38  19  22  ar  
 39  20  40  1   
 40  20  41  1   
 41  21  23  ar  
 42  21  24  1   
 43  22  23  ar  
 44  22  42  1   
 45  24  25  1   
 46  24  26  1   
 47  25  43  1   
 48  25  44  1   
 49  25  45  1   
 50  26  46  1   
 51  26  47  1   
 52  26  48  1   
@<TRIPOS>SUBSTRUCTURE
  1 ****  11 GROUP 4 **** **** 0

# MOE 2024.06 (io_trps.svl 2023.06)
