@<TRIPOS>MOLECULE
NONAME
47 49 1 0 0 
SMALL
USER_CHARGES


@<TRIPOS>ATOM
  1 O        2.0220    -0.6380    -0.8370 O.2   1 <1>  -0.5700 
  2 C        2.0740    -1.0110     0.3090 C.2   1 <1>   0.5690 
  3 N        1.9560    -0.1470     1.3480 N.am  1 <1>  -0.7300 
  4 C        2.2800    -2.4840     0.5990 C.3   1 <1>  -0.0990 
  5 C        1.6790     1.3000     1.1810 C.3   1 <1>   0.1400 
  6 C        0.9540    -3.1950     0.9160 C.3   1 <1>  -0.1600 
  7 C        2.9690     2.0520     0.8520 C.3   1 <1>   0.0200 
  8 C        1.1530    -4.7000     1.1540 C.3   1 <1>   0.0200 
  9 C        2.6360     3.4330     0.3270 C.2   1 <1>   0.0070 
 10 C       -0.1590    -5.3910     1.4720 C.2   1 <1>   0.2980 
 11 N        2.5580     4.5010     1.0360 N.2   1 <1>  -0.3380 
 12 N        2.3740     3.6840    -0.9610 N.pl3 1 <1>   0.0330 
 13 O       -0.7520    -5.1260     2.6060 O.3   1 <1>  -0.0190 
 14 N       -0.7550    -6.2250     0.7260 N.2   1 <1>  -0.5650 
 15 N        2.2380     5.5050     0.2050 N.2   1 <1>  -0.3380 
 16 C        2.1310     4.9940    -0.9760 C.2   1 <1>   0.2710 
 17 N       -1.8230    -5.8540     2.5790 N.2   1 <1>  -0.4100 
 18 C       -1.8310    -6.5060     1.4700 C.2   1 <1>   0.4620 
 19 N        1.8040     5.7200    -2.1000 N.pl3 1 <1>  -0.8840 
 20 C       -2.8620    -7.4380     1.0410 C.ar  1 <1>   0.0540 
 21 C       -2.8110    -8.0680    -0.2050 C.ar  1 <1>  -0.1500 
 22 C       -3.9490    -7.7430     1.8620 C.ar  1 <1>  -0.1500 
 23 C       -3.7890    -8.9570    -0.6180 C.ar  1 <1>  -0.1440 
 24 C       -4.9330    -8.6270     1.4600 C.ar  1 <1>  -0.1500 
 25 C       -4.8540    -9.2340     0.2210 C.ar  1 <1>  -0.1500 
 26 C       -3.7040    -9.6220    -1.9800 C.3   1 <1>  -0.0970 
 27 H        2.0140    -0.4870     2.3100 H     1 <1>   0.3700 
 28 H        2.9640    -2.5860     1.4220 H     1 <1>   0.0800 
 29 H        2.7340    -2.9350    -0.2660 H     1 <1>   0.0800 
 30 H        1.2360     1.7000     2.0770 H     1 <1>   0.0800 
 31 H        0.9760     1.4250     0.3750 H     1 <1>   0.0800 
 32 H        0.2740    -3.0580     0.0900 H     1 <1>   0.0800 
 33 H        0.5050    -2.7490     1.7870 H     1 <1>   0.0800 
 34 H        3.5310     1.5210     0.1040 H     1 <1>   0.0800 
 35 H        3.5720     2.1430     1.7380 H     1 <1>   0.0800 
 36 H        1.8330    -4.8610     1.9710 H     1 <1>   0.0800 
 37 H        1.5750    -5.1520     0.2740 H     1 <1>   0.0800 
 38 H        2.3810     3.0500    -1.7590 H     1 <1>   0.2700 
 39 H        1.7760     6.7200    -1.8780 H     1 <1>   0.4000 
 40 H        0.9130     5.4510    -2.5230 H     1 <1>   0.4000 
 41 H       -1.9870    -7.8520    -0.8620 H     1 <1>   0.1500 
 42 H       -4.0260    -7.2790     2.8300 H     1 <1>   0.1500 
 43 H       -5.7610    -8.8440     2.1130 H     1 <1>   0.1500 
 44 H       -5.6230    -9.9210    -0.0870 H     1 <1>   0.1500 
 45 H       -2.7020    -9.5720    -2.3670 H     1 <1>   0.0800 
 46 H       -4.3660    -9.1290    -2.6680 H     1 <1>   0.0800 
 47 H       -3.9870   -10.6570    -1.9050 H     1 <1>   0.0800 
@<TRIPOS>BOND
  1   1   2  2   
  2   2   3  am  
  3   2   4  1   
  4   3   5  1   
  5   3  27  1   
  6   4   6  1   
  7   4  28  1   
  8   4  29  1   
  9   5   7  1   
 10   5  30  1   
 11   5  31  1   
 12   6   8  1   
 13   6  32  1   
 14   6  33  1   
 15   7   9  1   
 16   7  34  1   
 17   7  35  1   
 18   8  10  1   
 19   8  36  1   
 20   8  37  1   
 21   9  11  2   
 22   9  12  1   
 23  10  13  1   
 24  10  14  2   
 25  11  15  1   
 26  12  16  1   
 27  12  38  1   
 28  13  17  1   
 29  14  18  1   
 30  15  16  2   
 31  16  19  1   
 32  17  18  2   
 33  18  20  1   
 34  19  39  1   
 35  19  40  1   
 36  20  21  ar  
 37  20  22  ar  
 38  21  23  ar  
 39  21  41  1   
 40  22  24  ar  
 41  22  42  1   
 42  23  25  ar  
 43  23  26  1   
 44  24  25  ar  
 45  24  43  1   
 46  25  44  1   
 47  26  45  1   
 48  26  46  1   
 49  26  47  1   
@<TRIPOS>SUBSTRUCTURE
  1 ****   6 GROUP 4 **** **** 0

# MOE 2024.06 (io_trps.svl 2023.06)
