@<TRIPOS>MOLECULE
NONAME
52 53 1 0 0 
SMALL
USER_CHARGES


@<TRIPOS>ATOM
  1 O        1.0220     0.0200     1.6220 O.2   1 <1>  -0.5700 
  2 C        1.7210    -0.6620     0.8980 C.2   1 <1>   0.5440 
  3 N        2.5580    -0.0750    -0.0130 N.am  1 <1>  -0.4930 
  4 C        1.6850    -2.1080     0.9790 C.ar  1 <1>   0.0860 
  5 C        2.7880     1.3000    -0.2680 C.2   1 <1>   0.0630 
  6 C        0.5350    -2.8640     0.7080 C.ar  1 <1>  -0.1440 
  7 C        2.8530    -2.7800     1.3380 C.ar  1 <1>  -0.1500 
  8 C        2.2450     2.4260     0.3550 C.2   1 <1>   0.1390 
  9 C        3.6190     1.8000    -1.2050 C.2   1 <1>  -0.3020 
 10 C        0.5650    -4.2570     0.8130 C.ar  1 <1>   0.1170 
 11 C       -0.7610    -2.1580     0.2890 C.3   1 <1>  -0.0960 
 12 C        2.8920    -4.1560     1.4280 C.ar  1 <1>  -0.1500 
 13 N        2.7010     3.5360    -0.1480 N.2   1 <1>  -0.7070 
 14 N        3.5520     3.1480    -1.1180 N.pl3 1 <1>   0.3140 
 15 N       -0.5990    -5.0110     0.5940 N.am  1 <1>  -0.5470 
 16 C        1.7520    -4.8870     1.1680 C.ar  1 <1>  -0.1500 
 17 C        4.2970     4.1220    -1.9280 C.3   1 <1>   0.1570 
 18 C       -0.7690    -6.2630     0.0630 C.2   1 <1>   0.5690 
 19 C        5.4910     4.6340    -1.1550 C.2   1 <1>   0.5690 
 20 O        0.1580    -6.9210    -0.3450 O.2   1 <1>  -0.5700 
 21 C       -2.2150    -6.8180    -0.0150 C.3   1 <1>   0.0610 
 22 O        6.5500     4.7210    -1.7300 O.2   1 <1>  -0.5700 
 23 N        5.3440     4.9900     0.1500 N.am  1 <1>  -0.7300 
 24 C       -3.1040    -5.8880    -0.8650 C.3   1 <1>  -0.2400 
 25 C       -2.2570    -8.2220    -0.6530 C.3   1 <1>  -0.2400 
 26 C       -2.8240    -6.9250     1.3970 C.3   1 <1>  -0.2400 
 27 C        6.4080     5.5100     1.0410 C.3   1 <1>   0.0600 
 28 H        3.0760    -0.7150    -0.6120 H     1 <1>   0.3700 
 29 H        3.7420    -2.2140     1.5580 H     1 <1>   0.1500 
 30 H        1.5320     2.3850     1.1610 H     1 <1>   0.1500 
 31 H        4.2440     1.2880    -1.9110 H     1 <1>   0.1500 
 32 H       -0.5660    -1.2100    -0.1780 H     1 <1>   0.0800 
 33 H       -1.3750    -1.9840     1.1550 H     1 <1>   0.0800 
 34 H       -1.3130    -2.7420    -0.4240 H     1 <1>   0.0800 
 35 H        3.8030    -4.6600     1.7040 H     1 <1>   0.1500 
 36 H       -1.4630    -4.5300     0.8270 H     1 <1>   0.3700 
 37 H        1.7860    -5.9590     1.2480 H     1 <1>   0.1500 
 38 H        3.6490     4.9420    -2.1670 H     1 <1>   0.0800 
 39 H        4.6250     3.6530    -2.8350 H     1 <1>   0.0800 
 40 H        4.4270     4.8000     0.5870 H     1 <1>   0.3700 
 41 H       -2.6880    -5.7850    -1.8530 H     1 <1>   0.0800 
 42 H       -3.1810    -4.9110    -0.4260 H     1 <1>   0.0800 
 43 H       -4.0970    -6.2930    -0.9580 H     1 <1>   0.0800 
 44 H       -1.8570    -8.1900    -1.6510 H     1 <1>   0.0800 
 45 H       -3.2640    -8.5970    -0.7010 H     1 <1>   0.0800 
 46 H       -1.6630    -8.9110    -0.0790 H     1 <1>   0.0800 
 47 H       -2.8820    -5.9610     1.8710 H     1 <1>   0.0800 
 48 H       -2.2160    -7.5660     2.0120 H     1 <1>   0.0800 
 49 H       -3.8160    -7.3390     1.3540 H     1 <1>   0.0800 
 50 H        7.3250     5.6420     0.4910 H     1 <1>   0.0800 
 51 H        6.5810     4.8140     1.8440 H     1 <1>   0.0800 
 52 H        6.1080     6.4580     1.4520 H     1 <1>   0.0800 
@<TRIPOS>BOND
  1   1   2  2   
  2   2   3  am  
  3   2   4  1   
  4   3   5  1   
  5   3  28  1   
  6   4   6  ar  
  7   4   7  ar  
  8   5   8  1   
  9   5   9  2   
 10   6  10  ar  
 11   6  11  1   
 12   7  12  ar  
 13   7  29  1   
 14   8  13  2   
 15   8  30  1   
 16   9  14  1   
 17   9  31  1   
 18  10  15  1   
 19  10  16  ar  
 20  11  32  1   
 21  11  33  1   
 22  11  34  1   
 23  12  16  ar  
 24  12  35  1   
 25  13  14  1   
 26  14  17  1   
 27  15  18  am  
 28  15  36  1   
 29  16  37  1   
 30  17  19  1   
 31  17  38  1   
 32  17  39  1   
 33  18  20  2   
 34  18  21  1   
 35  19  22  2   
 36  19  23  am  
 37  21  24  1   
 38  21  25  1   
 39  21  26  1   
 40  23  27  1   
 41  23  40  1   
 42  24  41  1   
 43  24  42  1   
 44  24  43  1   
 45  25  44  1   
 46  25  45  1   
 47  25  46  1   
 48  26  47  1   
 49  26  48  1   
 50  26  49  1   
 51  27  50  1   
 52  27  51  1   
 53  27  52  1   
@<TRIPOS>SUBSTRUCTURE
  1 ****   2 GROUP 4 **** **** 0

# MOE 2024.06 (io_trps.svl 2023.06)
