@<TRIPOS>MOLECULE
NONAME
46 49 1 0 0 
SMALL
USER_CHARGES


@<TRIPOS>ATOM
  1 CL       0.4240    -1.4240     1.5700 Cl    1 <1>  -0.1770 
  2 C       -0.8510    -2.4900     1.0390 C.ar  1 <1>   0.1770 
  3 C       -2.0730    -1.9550     0.6770 C.ar  1 <1>  -0.1500 
  4 C       -0.6110    -3.8600     0.9920 C.ar  1 <1>  -0.1500 
  5 C       -3.0430    -2.8500     0.2660 C.ar  1 <1>   0.0400 
  6 C       -1.6100    -4.7260     0.5730 C.ar  1 <1>  -0.1500 
  7 S       -4.6770    -2.5160    -0.2550 S.3   1 <1>  -0.0800 
  8 C       -2.8520    -4.2190     0.2030 C.ar  1 <1>   0.2270 
  9 C       -4.9420    -4.2470    -0.5110 C.2   1 <1>   0.4620 
 10 N       -3.9270    -4.9800    -0.2290 N.2   1 <1>  -0.5650 
 11 N       -6.1620    -4.6950    -0.9660 N.pl3 1 <1>  -0.8220 
 12 C       -6.3210    -6.1290    -1.3130 C.3   1 <1>   0.2090 
 13 C       -7.4410    -3.9890    -0.6810 C.3   1 <1>   0.2090 
 14 C       -6.9810    -6.8650    -0.1240 C.3   1 <1>   0.4230 
 15 C       -8.1120    -4.6950     0.5050 C.3   1 <1>  -0.1600 
 16 N       -7.0320    -8.3820    -0.2740 N.4   1 <1>  -0.9590 
 17 C       -8.3440    -6.2190     0.2780 C.3   1 <1>   0.0000 
 18 C       -8.0160    -9.0550     0.6350 C.3   1 <1>   0.3430 
 19 C       -7.2020    -8.8850    -1.6770 C.3   1 <1>   0.2630 
 20 C       -8.8360    -6.8510     1.6140 C.3   1 <1>  -0.1600 
 21 C       -9.3940    -6.4410    -0.8480 C.3   1 <1>   0.1200 
 22 C       -8.2330    -8.2390     1.9080 C.3   1 <1>  -0.1600 
 23 O      -10.5520    -5.7170    -0.6210 O.3   1 <1>  -0.6800 
 24 H       -2.2570    -0.8970     0.7130 H     1 <1>   0.1500 
 25 H        0.3540    -4.2360     1.2810 H     1 <1>   0.1500 
 26 H       -1.4420    -5.7870     0.5280 H     1 <1>   0.1500 
 27 H       -6.9180    -6.2000    -2.2040 H     1 <1>   0.0800 
 28 H       -5.3580    -6.5620    -1.5210 H     1 <1>   0.0800 
 29 H       -7.2730    -2.9540    -0.4380 H     1 <1>   0.0800 
 30 H       -8.0760    -4.0180    -1.5510 H     1 <1>   0.0800 
 31 H       -6.3250    -6.6690     0.7080 H     1 <1>   0.0800 
 32 H       -7.4770    -4.5440     1.3610 H     1 <1>   0.0800 
 33 H       -9.0400    -4.1960     0.7210 H     1 <1>   0.0800 
 34 H       -6.1000    -8.6950     0.0400 H     1 <1>   0.4500 
 35 H       -8.9640    -9.1610     0.1320 H     1 <1>   0.0800 
 36 H       -7.6640   -10.0420     0.8900 H     1 <1>   0.0800 
 37 H       -8.1420    -8.5540    -2.0860 H     1 <1>   0.0800 
 38 H       -7.1830    -9.9630    -1.6910 H     1 <1>   0.0800 
 39 H       -6.4040    -8.5270    -2.3080 H     1 <1>   0.0800 
 40 H       -8.5890    -6.2140     2.4470 H     1 <1>   0.0800 
 41 H       -9.9090    -6.9310     1.6120 H     1 <1>   0.0800 
 42 H       -9.6750    -7.4760    -0.9300 H     1 <1>   0.0800 
 43 H       -9.0200    -6.1160    -1.8030 H     1 <1>   0.0800 
 44 H       -8.8930    -8.7770     2.5660 H     1 <1>   0.0800 
 45 H       -7.2930    -8.1330     2.4230 H     1 <1>   0.0800 
 46 H      -11.0090    -5.9930     0.1980 H     1 <1>   0.4000 
@<TRIPOS>BOND
  1   1   2  1   
  2   2   3  ar  
  3   2   4  ar  
  4   3   5  ar  
  5   3  24  1   
  6   4   6  ar  
  7   4  25  1   
  8   5   7  1   
  9   5   8  ar  
 10   6   8  ar  
 11   6  26  1   
 12   7   9  1   
 13   8  10  1   
 14   9  10  2   
 15   9  11  1   
 16  11  12  1   
 17  11  13  1   
 18  12  14  1   
 19  12  27  1   
 20  12  28  1   
 21  13  15  1   
 22  13  29  1   
 23  13  30  1   
 24  14  16  1   
 25  14  17  1   
 26  14  31  1   
 27  15  17  1   
 28  15  32  1   
 29  15  33  1   
 30  16  18  1   
 31  16  19  1   
 32  16  34  1   
 33  17  20  1   
 34  17  21  1   
 35  18  22  1   
 36  18  35  1   
 37  18  36  1   
 38  19  37  1   
 39  19  38  1   
 40  19  39  1   
 41  20  22  1   
 42  20  40  1   
 43  20  41  1   
 44  21  23  1   
 45  21  42  1   
 46  21  43  1   
 47  22  44  1   
 48  22  45  1   
 49  23  46  1   
@<TRIPOS>SUBSTRUCTURE
  1 ****   9 GROUP 4 **** **** 0

# MOE 2024.06 (io_trps.svl 2023.06)
