@<TRIPOS>MOLECULE
NONAME
41 42 1 0 0 
SMALL
USER_CHARGES


@<TRIPOS>ATOM
  1 CL      -2.4130     0.3640    -1.4580 Cl    1 <1>  -0.1770 
  2 C       -2.9490    -0.9720    -0.4650 C.ar  1 <1>   0.1770 
  3 C       -3.3700    -0.7640     0.8370 C.ar  1 <1>   0.1900 
  4 C       -2.9490    -2.2480    -0.9920 C.ar  1 <1>  -0.1500 
  5 F       -3.3730     0.4380     1.3440 F     1 <1>  -0.1900 
  6 C       -3.7950    -1.8180     1.6230 C.ar  1 <1>  -0.1500 
  7 C       -3.3680    -3.3440    -0.2290 C.ar  1 <1>   0.0860 
  8 C       -3.7930    -3.0950     1.0840 C.ar  1 <1>  -0.1500 
  9 C       -3.3560    -4.6820    -0.8000 C.2   1 <1>   0.5440 
 10 O       -3.2980    -4.8450    -2.0020 O.2   1 <1>  -0.5700 
 11 N       -3.4150    -5.7950    -0.0110 N.am  1 <1>  -0.7300 
 12 C       -3.2870    -7.1950    -0.4860 C.3   1 <1>   0.2200 
 13 C       -4.6450    -7.8770    -0.5390 C.3   1 <1>  -0.0800 
 14 C       -2.6140    -8.0130     0.6050 C.3   1 <1>   0.1200 
 15 C       -4.8600    -8.3150     0.9160 C.3   1 <1>   0.1200 
 16 C       -5.7780    -7.0220    -1.1490 C.3   1 <1>  -0.0550 
 17 O       -3.6160    -8.2290     1.5510 O.3   1 <1>  -0.5600 
 18 S       -7.3180    -7.9080    -1.3980 S.o2  1 <1>   1.3330 
 19 O       -7.0090    -9.1870    -1.9970 O.2   1 <1>  -0.6500 
 20 O       -8.2730    -7.0290    -2.0330 O.2   1 <1>  -0.6500 
 21 N       -7.8740    -8.1940     0.1830 N.am  1 <1>  -0.8490 
 22 C       -8.6030    -7.0580     0.7570 C.3   1 <1>   0.1160 
 23 C       -8.7000    -9.4030     0.2680 C.3   1 <1>   0.1160 
 24 H       -2.6210    -2.3970    -2.0060 H     1 <1>   0.1500 
 25 H       -4.1220    -1.6350     2.6320 H     1 <1>   0.1500 
 26 H       -4.1330    -3.9090     1.7000 H     1 <1>   0.1500 
 27 H       -3.4500    -5.7210     1.0080 H     1 <1>   0.3700 
 28 H       -2.7570    -7.2390    -1.4230 H     1 <1>   0.0800 
 29 H       -4.5400    -8.7690    -1.1330 H     1 <1>   0.0800 
 30 H       -1.7820    -7.5050     1.0610 H     1 <1>   0.0800 
 31 H       -2.2990    -8.9720     0.2290 H     1 <1>   0.0800 
 32 H       -5.2180    -9.3290     0.9780 H     1 <1>   0.0800 
 33 H       -5.5360    -7.6600     1.4380 H     1 <1>   0.0800 
 34 H       -5.4410    -6.6620    -2.1020 H     1 <1>   0.0800 
 35 H       -5.9590    -6.1640    -0.5330 H     1 <1>   0.0800 
 36 H       -8.8490    -7.2570     1.7860 H     1 <1>   0.0800 
 37 H       -9.5140    -6.8780     0.2080 H     1 <1>   0.0800 
 38 H       -7.9970    -6.1690     0.7180 H     1 <1>   0.0800 
 39 H       -9.0290    -9.5610     1.2810 H     1 <1>   0.0800 
 40 H       -8.1280   -10.2640    -0.0370 H     1 <1>   0.0800 
 41 H       -9.5600    -9.3150    -0.3750 H     1 <1>   0.0800 
@<TRIPOS>BOND
  1   1   2  1   
  2   2   3  ar  
  3   2   4  ar  
  4   3   5  1   
  5   3   6  ar  
  6   4   7  ar  
  7   4  24  1   
  8   6   8  ar  
  9   6  25  1   
 10   7   8  ar  
 11   7   9  1   
 12   8  26  1   
 13   9  10  2   
 14   9  11  am  
 15  11  12  1   
 16  11  27  1   
 17  12  13  1   
 18  12  14  1   
 19  12  28  1   
 20  13  15  1   
 21  13  16  1   
 22  13  29  1   
 23  14  17  1   
 24  14  30  1   
 25  14  31  1   
 26  15  17  1   
 27  15  32  1   
 28  15  33  1   
 29  16  18  1   
 30  16  34  1   
 31  16  35  1   
 32  18  19  2   
 33  18  20  2   
 34  18  21  am  
 35  21  22  1   
 36  21  23  1   
 37  22  36  1   
 38  22  37  1   
 39  22  38  1   
 40  23  39  1   
 41  23  40  1   
 42  23  41  1   
@<TRIPOS>SUBSTRUCTURE
  1 ****  11 GROUP 4 **** **** 0

# MOE 2024.06 (io_trps.svl 2023.06)
