@<TRIPOS>MOLECULE
NONAME
55 57 1 0 0 
SMALL
USER_CHARGES


@<TRIPOS>ATOM
  1 S       -2.3870    -0.1010    -1.5310 S.3   1 <1>  -0.0800 
  2 C       -1.4730    -1.2140    -0.5180 C.2   1 <1>  -0.1400 
  3 C       -1.5840     1.2840    -0.8150 C.2   1 <1>  -0.1100 
  4 C       -0.6320    -0.5310     0.2830 C.2   1 <1>  -0.1500 
  5 C       -1.7300    -2.7050    -0.6630 C.3   1 <1>   0.3800 
  6 C       -0.6970     0.8890     0.1150 C.2   1 <1>  -0.1500 
  7 O       -1.3930    -3.0600    -1.9490 O.3   1 <1>  -0.6800 
  8 C       -3.2000    -3.1050    -0.4120 C.3   1 <1>  -0.0800 
  9 C       -3.6900    -2.6700     0.9840 C.3   1 <1>  -0.1600 
 10 C       -3.4290    -4.6200    -0.5820 C.3   1 <1>  -0.1600 
 11 C       -5.1440    -3.0790     1.2210 C.3   1 <1>   0.3430 
 12 C       -4.8850    -5.0010    -0.3230 C.3   1 <1>   0.3430 
 13 N       -5.2900    -4.5500     1.0420 N.4   1 <1>  -0.9590 
 14 C       -6.6640    -5.0050     1.3750 C.3   1 <1>   0.5240 
 15 C       -6.6610    -6.5190     1.3980 C.2   1 <1>  -0.1810 
 16 C       -7.2340    -7.4420     0.5810 C.2   1 <1>  -0.0400 
 17 C       -5.9720    -7.2480     2.3720 C.2   1 <1>  -0.1500 
 18 O       -6.9130    -8.6480     1.0040 O.3   1 <1>  -0.2800 
 19 C       -8.1240    -7.3740    -0.6730 C.3   1 <1>   0.1800 
 20 C       -6.1500    -8.5630     2.0860 C.2   1 <1>   0.0550 
 21 C       -9.4080    -8.1780    -0.4220 C.3   1 <1>  -0.2400 
 22 C       -7.3680    -7.9910    -1.8570 C.3   1 <1>  -0.2400 
 23 C       -8.5290    -5.9420    -1.0510 C.3   1 <1>  -0.2400 
 24 C       -5.6500    -9.7380     2.7600 C.2   1 <1>   0.7150 
 25 O       -4.8870    -9.6470     3.6990 O.2   1 <1>  -0.5700 
 26 N       -6.0030   -10.9830     2.3720 N.am  1 <1>  -0.8000 
 27 H       -1.8640     2.2600    -1.1730 H     1 <1>   0.1500 
 28 H        0.0470    -0.9620     0.9990 H     1 <1>   0.1500 
 29 H       -1.0760    -3.2440     0.0010 H     1 <1>   0.0800 
 30 H       -0.0730     1.5440     0.6990 H     1 <1>   0.1500 
 31 H       -0.7190    -2.4320    -2.2760 H     1 <1>   0.4000 
 32 H       -3.8000    -2.5920    -1.1450 H     1 <1>   0.0800 
 33 H       -3.6250    -1.5990     1.0740 H     1 <1>   0.0800 
 34 H       -3.0660    -3.0960     1.7500 H     1 <1>   0.0800 
 35 H       -2.7870    -5.1760     0.0800 H     1 <1>   0.0800 
 36 H       -3.1800    -4.9120    -1.5880 H     1 <1>   0.0800 
 37 H       -5.7780    -2.5600     0.5200 H     1 <1>   0.0800 
 38 H       -5.4360    -2.7950     2.2200 H     1 <1>   0.0800 
 39 H       -4.9930    -6.0720    -0.4100 H     1 <1>   0.0800 
 40 H       -5.5120    -4.5360    -1.0650 H     1 <1>   0.0800 
 41 H       -4.6630    -5.0240     1.7030 H     1 <1>   0.4500 
 42 H       -7.3660    -4.6300     0.6530 H     1 <1>   0.0800 
 43 H       -6.9510    -4.6400     2.3480 H     1 <1>   0.0800 
 44 H       -5.4060    -6.8600     3.2030 H     1 <1>   0.1500 
 45 H       -9.1760    -9.2070    -0.2150 H     1 <1>   0.0800 
 46 H      -10.0550    -8.1470    -1.2810 H     1 <1>   0.0800 
 47 H       -9.9400    -7.7790     0.4230 H     1 <1>   0.0800 
 48 H       -7.1150    -9.0160    -1.6470 H     1 <1>   0.0800 
 49 H       -6.4570    -7.4530    -2.0470 H     1 <1>   0.0800 
 50 H       -7.9720    -7.9710    -2.7470 H     1 <1>   0.0800 
 51 H       -9.0720    -5.4800    -0.2470 H     1 <1>   0.0800 
 52 H       -9.1730    -5.9570    -1.9130 H     1 <1>   0.0800 
 53 H       -7.6690    -5.3510    -1.3000 H     1 <1>   0.0800 
 54 H       -5.6420   -11.7920     2.8750 H     1 <1>   0.3700 
 55 H       -6.6500   -11.1460     1.6010 H     1 <1>   0.3700 
@<TRIPOS>BOND
  1   1   2  1   
  2   1   3  1   
  3   2   4  2   
  4   2   5  1   
  5   3   6  2   
  6   3  27  1   
  7   4   6  1   
  8   4  28  1   
  9   5   7  1   
 10   5   8  1   
 11   5  29  1   
 12   6  30  1   
 13   7  31  1   
 14   8   9  1   
 15   8  10  1   
 16   8  32  1   
 17   9  11  1   
 18   9  33  1   
 19   9  34  1   
 20  10  12  1   
 21  10  35  1   
 22  10  36  1   
 23  11  13  1   
 24  11  37  1   
 25  11  38  1   
 26  12  13  1   
 27  12  39  1   
 28  12  40  1   
 29  13  14  1   
 30  13  41  1   
 31  14  15  1   
 32  14  42  1   
 33  14  43  1   
 34  15  16  2   
 35  15  17  1   
 36  16  18  1   
 37  16  19  1   
 38  17  20  2   
 39  17  44  1   
 40  18  20  1   
 41  19  21  1   
 42  19  22  1   
 43  19  23  1   
 44  20  24  1   
 45  21  45  1   
 46  21  46  1   
 47  21  47  1   
 48  22  48  1   
 49  22  49  1   
 50  22  50  1   
 51  23  51  1   
 52  23  52  1   
 53  23  53  1   
 54  24  25  2   
 55  24  26  am  
 56  26  54  1   
 57  26  55  1   
@<TRIPOS>SUBSTRUCTURE
  1 ****  12 GROUP 4 **** **** 0

# MOE 2024.06 (io_trps.svl 2023.06)
