@<TRIPOS>MOLECULE
NONAME
34 35 1 0 0 
SMALL
USER_CHARGES


@<TRIPOS>ATOM
  1 F       -1.2550    -0.8860    -0.0120 F     1 <1>  -0.1900 
  2 C       -1.8940     0.1950     0.3470 C.ar  1 <1>   0.1900 
  3 C       -3.1390     0.4530    -0.2120 C.ar  1 <1>  -0.1440 
  4 C       -1.2990     1.0300     1.2720 C.ar  1 <1>  -0.1500 
  5 C       -3.8160     1.6040     0.1790 C.ar  1 <1>  -0.1500 
  6 C       -3.7300    -0.4980    -1.2360 C.3   1 <1>   0.4870 
  7 C       -2.0020     2.1610     1.6360 C.ar  1 <1>   0.1900 
  8 C       -3.2460     2.4630     1.1080 C.ar  1 <1>  -0.1500 
  9 N       -4.7580    -1.3450    -0.5870 N.4   1 <1>  -0.9590 
 10 F       -1.4750     2.9740     2.5090 F     1 <1>  -0.1900 
 11 C       -4.1190    -2.3560     0.3490 C.3   1 <1>   0.3430 
 12 C       -5.6340    -2.0080    -1.5960 C.3   1 <1>   0.3430 
 13 C       -4.9240    -3.6620     0.5100 C.3   1 <1>   0.2000 
 14 C       -6.8210    -2.6680    -0.8880 C.3   1 <1>  -0.1600 
 15 O       -4.5860    -4.5130    -0.5290 O.3   1 <1>  -0.6800 
 16 C       -6.4290    -3.3840     0.4320 C.3   1 <1>  -0.1860 
 17 C       -7.1970    -4.6710     0.6360 C.2   1 <1>   0.9060 
 18 O       -8.0510    -4.7030     1.5180 O.co2 1 <1>  -0.9000 
 19 O       -6.9090    -5.6330    -0.0860 O.co2 1 <1>  -0.9000 
 20 H       -0.3330     0.8150     1.6920 H     1 <1>   0.1500 
 21 H       -4.7800     1.8500    -0.2350 H     1 <1>   0.1500 
 22 H       -2.9580    -1.1180    -1.6650 H     1 <1>   0.0800 
 23 H       -4.1780     0.0780    -2.0290 H     1 <1>   0.0800 
 24 H       -3.7510     3.3610     1.4230 H     1 <1>   0.1500 
 25 H       -5.3660    -0.7490    -0.0150 H     1 <1>   0.4500 
 26 H       -3.1360    -2.6230    -0.0030 H     1 <1>   0.0800 
 27 H       -4.0060    -1.9030     1.3200 H     1 <1>   0.0800 
 28 H       -5.9960    -1.2970    -2.3200 H     1 <1>   0.0800 
 29 H       -5.0700    -2.7670    -2.1150 H     1 <1>   0.0800 
 30 H       -4.6700    -4.1610     1.4310 H     1 <1>   0.0800 
 31 H       -7.5910    -1.9440    -0.6890 H     1 <1>   0.0800 
 32 H       -7.2410    -3.3890    -1.5690 H     1 <1>   0.0800 
 33 H       -5.3110    -5.2140    -0.5510 H     1 <1>   0.4000 
 34 H       -6.6850    -2.7440     1.2560 H     1 <1>   0.0800 
@<TRIPOS>BOND
  1   1   2  1   
  2   2   3  ar  
  3   2   4  ar  
  4   3   5  ar  
  5   3   6  1   
  6   4   7  ar  
  7   4  20  1   
  8   5   8  ar  
  9   5  21  1   
 10   6   9  1   
 11   6  22  1   
 12   6  23  1   
 13   7   8  ar  
 14   7  10  1   
 15   8  24  1   
 16   9  11  1   
 17   9  12  1   
 18   9  25  1   
 19  11  13  1   
 20  11  26  1   
 21  11  27  1   
 22  12  14  1   
 23  12  28  1   
 24  12  29  1   
 25  13  15  1   
 26  13  16  1   
 27  13  30  1   
 28  14  16  1   
 29  14  31  1   
 30  14  32  1   
 31  15  33  1   
 32  16  17  1   
 33  16  34  1   
 34  17  18  ar  
 35  17  19  ar  
@<TRIPOS>SUBSTRUCTURE
  1 ****   9 GROUP 4 **** **** 0

# MOE 2024.06 (io_trps.svl 2023.06)
