@<TRIPOS>MOLECULE
NONAME
39 41 1 0 0 
SMALL
USER_CHARGES


@<TRIPOS>ATOM
  1 CL      -0.1880    -0.9780    -1.4000 Cl    1 <1>  -0.1770 
  2 C       -1.1610    -2.2000    -0.6210 C.ar  1 <1>   0.1770 
  3 C       -2.5140    -1.9730    -0.4490 C.ar  1 <1>  -0.1500 
  4 C       -0.5470    -3.3710    -0.1930 C.ar  1 <1>  -0.1500 
  5 C       -3.2940    -2.9460     0.1720 C.ar  1 <1>   0.0000 
  6 C       -1.3060    -4.3490     0.4260 C.ar  1 <1>  -0.1500 
  7 C       -2.6590    -4.1070     0.5900 C.ar  1 <1>   0.0400 
  8 C       -4.7060    -2.9490     0.4650 C.2   1 <1>  -0.1810 
  9 S       -3.8280    -5.1930     1.3420 S.3   1 <1>  -0.0800 
 10 C       -5.1650    -4.0600     1.0840 C.2   1 <1>  -0.0220 
 11 C       -5.5620    -1.7530     0.0750 C.3   1 <1>  -0.0590 
 12 S       -6.8070    -4.5830     1.6540 S.o2  1 <1>   1.5000 
 13 O       -7.3430    -3.5270     2.4870 O.2   1 <1>  -0.6500 
 14 O       -6.7570    -5.9360     2.1640 O.2   1 <1>  -0.6500 
 15 N       -7.7050    -4.5880     0.2140 N.am  1 <1>  -0.8490 
 16 C       -7.3090    -5.6460    -0.7420 C.3   1 <1>   0.1960 
 17 C       -9.1670    -4.4460     0.3970 C.3   1 <1>   0.1960 
 18 C       -7.9340    -7.0390    -0.4830 C.3   1 <1>   0.2000 
 19 C       -9.9900    -5.6360    -0.1220 C.3   1 <1>  -0.1600 
 20 O       -8.0770    -7.6290    -1.7250 O.3   1 <1>  -0.6800 
 21 C       -9.3030    -6.9670     0.2270 C.3   1 <1>  -0.1860 
 22 C      -10.2250    -8.1700     0.0510 C.2   1 <1>   0.9060 
 23 O      -11.1960    -8.2650     0.8050 O.co2 1 <1>  -0.9000 
 24 O      -10.0020    -9.0080    -0.8340 O.co2 1 <1>  -0.9000 
 25 H       -2.9520    -1.0550    -0.7930 H     1 <1>   0.1500 
 26 H        0.5090    -3.5050    -0.3460 H     1 <1>   0.1500 
 27 H       -0.8690    -5.2690     0.7710 H     1 <1>   0.1500 
 28 H       -5.1960    -0.8650     0.5600 H     1 <1>   0.0800 
 29 H       -6.5870    -1.8970     0.3660 H     1 <1>   0.0800 
 30 H       -5.5290    -1.6090    -0.9900 H     1 <1>   0.0800 
 31 H       -7.6250    -5.3210    -1.7180 H     1 <1>   0.0800 
 32 H       -6.2390    -5.7440    -0.7700 H     1 <1>   0.0800 
 33 H       -9.3950    -4.3240     1.4430 H     1 <1>   0.0800 
 34 H       -9.4930    -3.5520    -0.1050 H     1 <1>   0.0800 
 35 H       -7.2650    -7.6590     0.0880 H     1 <1>   0.0800 
 36 H      -10.9690    -5.6060     0.3260 H     1 <1>   0.0800 
 37 H      -10.1220    -5.5640    -1.1870 H     1 <1>   0.0800 
 38 H       -8.7990    -8.3280    -1.6070 H     1 <1>   0.4000 
 39 H       -9.1010    -6.9410     1.2810 H     1 <1>   0.0800 
@<TRIPOS>BOND
  1   1   2  1   
  2   2   3  ar  
  3   2   4  ar  
  4   3   5  ar  
  5   3  25  1   
  6   4   6  ar  
  7   4  26  1   
  8   5   7  ar  
  9   5   8  1   
 10   6   7  ar  
 11   6  27  1   
 12   7   9  1   
 13   8  10  2   
 14   8  11  1   
 15   9  10  1   
 16  10  12  1   
 17  11  28  1   
 18  11  29  1   
 19  11  30  1   
 20  12  13  2   
 21  12  14  2   
 22  12  15  am  
 23  15  16  1   
 24  15  17  1   
 25  16  18  1   
 26  16  31  1   
 27  16  32  1   
 28  17  19  1   
 29  17  33  1   
 30  17  34  1   
 31  18  20  1   
 32  18  21  1   
 33  18  35  1   
 34  19  21  1   
 35  19  36  1   
 36  19  37  1   
 37  20  38  1   
 38  21  22  1   
 39  21  39  1   
 40  22  23  ar  
 41  22  24  ar  
@<TRIPOS>SUBSTRUCTURE
  1 ****  10 GROUP 4 **** **** 0

# MOE 2024.06 (io_trps.svl 2023.06)
