@<TRIPOS>MOLECULE
NONAME
54 56 1 0 0 
SMALL
USER_CHARGES


@<TRIPOS>ATOM
  1 O        2.1630     0.5220     1.7220 O.2   1 <1>  -0.5700 
  2 C        2.2620    -0.1310     0.7000 C.2   1 <1>   0.5440 
  3 N        1.9740     0.5120    -0.4960 N.am  1 <1>  -0.6600 
  4 C        2.7470    -1.5120     0.7620 C.ar  1 <1>   0.3960 
  5 C        2.2520    -0.0930    -1.8390 C.3   1 <1>   0.1400 
  6 C        1.5470     1.9400    -0.5320 C.3   1 <1>   0.1400 
  7 N        3.9150    -1.7920     0.1450 N.ar  1 <1>  -0.6200 
  8 C        2.0120    -2.4930     1.4450 C.ar  1 <1>  -0.1440 
  9 C        3.7200     0.1300    -2.2650 C.3   1 <1>   0.3430 
 10 C        2.7650     2.8740    -0.5930 C.3   1 <1>  -0.1600 
 11 C        4.3480    -3.0370     0.2340 C.ar  1 <1>   0.1600 
 12 C        2.4870    -3.7860     1.5100 C.ar  1 <1>  -0.1500 
 13 C        0.6880    -2.1680     2.1310 C.3   1 <1>  -0.0960 
 14 N        4.3660     1.2220    -1.4710 N.4   1 <1>  -0.9590 
 15 C        3.7710     2.5660    -1.7070 C.3   1 <1>   0.3430 
 16 C        3.6850    -4.0550     0.8910 C.ar  1 <1>  -0.1500 
 17 C        5.8470     1.1840    -1.5240 C.3   1 <1>   0.5240 
 18 C        6.3960     2.2060    -0.5530 C.2   1 <1>  -0.1810 
 19 C        6.3130     2.1770     0.8360 C.2   1 <1>   0.1080 
 20 C        7.0590     3.3520    -0.8320 C.2   1 <1>  -0.3020 
 21 N        6.8610     3.2190     1.3690 N.2   1 <1>  -0.7070 
 22 C        5.6790     1.1070     1.7010 C.3   1 <1>  -0.0590 
 23 N        7.3350     3.9470     0.3450 N.pl3 1 <1>   0.3140 
 24 C        8.0510     5.2230     0.5440 C.3   1 <1>   0.0960 
 25 C        9.0520     5.1080     1.6950 C.3   1 <1>   0.1200 
 26 O        9.8270     6.2600     1.7390 O.3   1 <1>  -0.6800 
 27 H        1.5970     0.3440    -2.5730 H     1 <1>   0.0800 
 28 H        2.0410    -1.1480    -1.8230 H     1 <1>   0.0800 
 29 H        0.9670     2.1670     0.3490 H     1 <1>   0.0800 
 30 H        0.9070     2.1060    -1.3830 H     1 <1>   0.0800 
 31 H        3.7680     0.3450    -3.3200 H     1 <1>   0.0800 
 32 H        4.2530    -0.7910    -2.0960 H     1 <1>   0.0800 
 33 H        3.2680     2.8650     0.3590 H     1 <1>   0.0800 
 34 H        2.4040     3.8770    -0.7340 H     1 <1>   0.0800 
 35 H        5.2870    -3.2710    -0.2400 H     1 <1>   0.1500 
 36 H        1.9510    -4.5640     2.0290 H     1 <1>   0.1500 
 37 H        0.0230    -1.6650     1.4520 H     1 <1>   0.0800 
 38 H        0.8620    -1.5280     2.9790 H     1 <1>   0.0800 
 39 H        0.1990    -3.0610     2.4780 H     1 <1>   0.0800 
 40 H        4.1140     1.0090    -0.4920 H     1 <1>   0.4500 
 41 H        4.5410     3.3200    -1.6890 H     1 <1>   0.0800 
 42 H        3.2870     2.6010    -2.6690 H     1 <1>   0.0800 
 43 H        4.1030    -5.0460     0.9190 H     1 <1>   0.1500 
 44 H        6.1890     1.4110    -2.5200 H     1 <1>   0.0800 
 45 H        6.2030     0.2050    -1.2490 H     1 <1>   0.0800 
 46 H        7.3490     3.7760    -1.7760 H     1 <1>   0.1500 
 47 H        5.6080     0.1720     1.1810 H     1 <1>   0.0800 
 48 H        4.7010     1.4230     2.0140 H     1 <1>   0.0800 
 49 H        6.2800     0.9610     2.5810 H     1 <1>   0.0800 
 50 H        7.3270     5.9840     0.7710 H     1 <1>   0.0800 
 51 H        8.5630     5.4710    -0.3660 H     1 <1>   0.0800 
 52 H        9.7050     4.2610     1.5680 H     1 <1>   0.0800 
 53 H        8.5300     5.0230     2.6340 H     1 <1>   0.0800 
 54 H       10.5570     6.2230     1.0900 H     1 <1>   0.4000 
@<TRIPOS>BOND
  1   1   2  2   
  2   2   3  am  
  3   2   4  1   
  4   3   5  1   
  5   3   6  1   
  6   4   7  ar  
  7   4   8  ar  
  8   5   9  1   
  9   5  27  1   
 10   5  28  1   
 11   6  10  1   
 12   6  29  1   
 13   6  30  1   
 14   7  11  ar  
 15   8  12  ar  
 16   8  13  1   
 17   9  14  1   
 18   9  31  1   
 19   9  32  1   
 20  10  15  1   
 21  10  33  1   
 22  10  34  1   
 23  11  16  ar  
 24  11  35  1   
 25  12  16  ar  
 26  12  36  1   
 27  13  37  1   
 28  13  38  1   
 29  13  39  1   
 30  14  15  1   
 31  14  17  1   
 32  14  40  1   
 33  15  41  1   
 34  15  42  1   
 35  16  43  1   
 36  17  18  1   
 37  17  44  1   
 38  17  45  1   
 39  18  19  1   
 40  18  20  2   
 41  19  21  2   
 42  19  22  1   
 43  20  23  1   
 44  20  46  1   
 45  21  23  1   
 46  22  47  1   
 47  22  48  1   
 48  22  49  1   
 49  23  24  1   
 50  24  25  1   
 51  24  50  1   
 52  24  51  1   
 53  25  26  1   
 54  25  52  1   
 55  25  53  1   
 56  26  54  1   
@<TRIPOS>SUBSTRUCTURE
  1 ****  14 GROUP 4 **** **** 0

# MOE 2024.06 (io_trps.svl 2023.06)
