@<TRIPOS>MOLECULE
NONAME
40 42 1 0 0 
SMALL
USER_CHARGES


@<TRIPOS>ATOM
  1 O        2.6580     1.1740     2.7250 O.2   1 <1>  -0.5700 
  2 C        2.7280     0.8700     1.5540 C.2   1 <1>   0.7800 
  3 O        2.7810    -0.3950     1.1590 O.3   1 <1>  -0.4300 
  4 N        2.8250     1.7230     0.5130 N.am  1 <1>  -0.6600 
  5 C        2.9000    -0.4680    -0.2490 C.3   1 <1>   0.1200 
  6 C        3.1520     0.9780    -0.7030 C.3   1 <1>   0.2200 
  7 C        3.2060     3.1520     0.5830 C.3   1 <1>   0.1400 
  8 C        4.6250     1.2300    -1.0940 C.3   1 <1>   0.1100 
  9 C        4.6670     3.3410     0.1350 C.3   1 <1>   0.1100 
 10 N        4.9490     2.6740    -1.1600 N.3   1 <1>  -0.8100 
 11 C        6.3440     2.8760    -1.6490 C.3   1 <1>   0.1710 
 12 C        6.7710     4.3270    -1.9150 C.2   1 <1>   0.5690 
 13 O        6.7330     4.7470    -3.0480 O.2   1 <1>  -0.5700 
 14 N        7.2210     5.0700    -0.8610 N.am  1 <1>  -0.4930 
 15 C        7.6730     6.4130    -0.8380 C.2   1 <1>   0.0630 
 16 C        8.0960     7.0960     0.2490 C.2   1 <1>  -0.3320 
 17 C        7.7850     7.3200    -1.8920 C.2   1 <1>   0.1390 
 18 N        8.4320     8.3380    -0.1840 N.pl3 1 <1>   0.3140 
 19 C        8.2090     6.6500     1.7000 C.3   1 <1>  -0.0600 
 20 N        8.2390     8.4740    -1.5050 N.2   1 <1>  -0.7070 
 21 C        8.9520     9.4520     0.6190 C.3   1 <1>   0.0160 
 22 H        1.9720    -0.8390    -0.6450 H     1 <1>   0.0800 
 23 H        3.7040    -1.1350    -0.5040 H     1 <1>   0.0800 
 24 H        2.4970     1.2540    -1.5100 H     1 <1>   0.0800 
 25 H        3.0810     3.5140     1.5890 H     1 <1>   0.0800 
 26 H        2.5590     3.7200    -0.0620 H     1 <1>   0.0800 
 27 H        4.8060     0.7790    -2.0540 H     1 <1>   0.0800 
 28 H        5.2680     0.7530    -0.3740 H     1 <1>   0.0800 
 29 H        5.3170     2.9490     0.8980 H     1 <1>   0.0800 
 30 H        4.8440     4.3980     0.0460 H     1 <1>   0.0800 
 31 H        6.4560     2.3490    -2.5810 H     1 <1>   0.0800 
 32 H        7.0340     2.4390    -0.9500 H     1 <1>   0.0800 
 33 H        7.2210     4.6170     0.0470 H     1 <1>   0.3700 
 34 H        7.5250     7.0960    -2.9130 H     1 <1>   0.1500 
 35 H        7.8890     5.6310     1.8140 H     1 <1>   0.0800 
 36 H        7.5940     7.2710     2.3270 H     1 <1>   0.0800 
 37 H        9.2300     6.7240     2.0310 H     1 <1>   0.0800 
 38 H        9.8770     9.1560     1.0760 H     1 <1>   0.0800 
 39 H        8.2320     9.7110     1.3710 H     1 <1>   0.0800 
 40 H        9.1220    10.2970    -0.0220 H     1 <1>   0.0800 
@<TRIPOS>BOND
  1   1   2  2   
  2   2   3  1   
  3   2   4  am  
  4   3   5  1   
  5   4   6  1   
  6   4   7  1   
  7   5   6  1   
  8   5  22  1   
  9   5  23  1   
 10   6   8  1   
 11   6  24  1   
 12   7   9  1   
 13   7  25  1   
 14   7  26  1   
 15   8  10  1   
 16   8  27  1   
 17   8  28  1   
 18   9  10  1   
 19   9  29  1   
 20   9  30  1   
 21  10  11  1   
 22  11  12  1   
 23  11  31  1   
 24  11  32  1   
 25  12  13  2   
 26  12  14  am  
 27  14  15  1   
 28  14  33  1   
 29  15  16  2   
 30  15  17  1   
 31  16  18  1   
 32  16  19  1   
 33  17  20  2   
 34  17  34  1   
 35  18  20  1   
 36  18  21  1   
 37  19  35  1   
 38  19  36  1   
 39  19  37  1   
 40  21  38  1   
 41  21  39  1   
 42  21  40  1   
@<TRIPOS>SUBSTRUCTURE
  1 ****   9 GROUP 4 **** **** 0

# MOE 2024.06 (io_trps.svl 2023.06)
