@<TRIPOS>MOLECULE
NONAME
51 52 1 0 0 
SMALL
USER_CHARGES


@<TRIPOS>ATOM
  1 S        1.9760     0.5790    -1.9230 S.o2  1 <1>   1.3330 
  2 O        2.4440    -0.7670    -2.1640 O.2   1 <1>  -0.6500 
  3 O        1.6970     1.4510    -3.0410 O.2   1 <1>  -0.6500 
  4 N        0.5500     0.4740    -1.0030 N.am  1 <1>  -0.8490 
  5 C        3.1400     1.3820    -0.8180 C.3   1 <1>  -0.0550 
  6 C       -0.2280     1.7180    -0.9950 C.3   1 <1>   0.1160 
  7 C       -0.3030    -0.6380    -1.4340 C.3   1 <1>   0.1160 
  8 C        3.5710     0.5170     0.3860 C.3   1 <1>  -0.0800 
  9 C        4.6880     1.1080     1.2320 C.3   1 <1>   0.2200 
 10 C        2.4730     0.2400     1.4220 C.3   1 <1>   0.1200 
 11 N        4.4630     2.5540     1.4680 N.am  1 <1>  -0.7300 
 12 C        4.4670     0.3640     2.5400 C.3   1 <1>   0.1200 
 13 O        3.0810     0.2990     2.6810 O.3   1 <1>  -0.5600 
 14 C        5.0960     3.5740     0.8190 C.2   1 <1>   0.5440 
 15 O        5.8390     3.2860    -0.0990 O.2   1 <1>  -0.5700 
 16 C        4.8610     4.9600     1.1900 C.ar  1 <1>   0.0860 
 17 C        5.1150     5.9910     0.2850 C.ar  1 <1>  -0.1500 
 18 C        4.3750     5.3160     2.4520 C.ar  1 <1>  -0.1500 
 19 C        4.8830     7.3220     0.6130 C.ar  1 <1>   0.0820 
 20 C        4.1380     6.6360     2.7870 C.ar  1 <1>  -0.1500 
 21 O        5.1120     8.3670    -0.2210 O.3   1 <1>  -0.3620 
 22 C        4.3900     7.6360     1.8680 C.ar  1 <1>  -0.1500 
 23 C        5.7080     8.2300    -1.4920 C.3   1 <1>   0.2000 
 24 C        6.3500     9.5730    -1.8320 C.3   1 <1>  -0.2400 
 25 C        4.6240     7.8660    -2.5090 C.3   1 <1>  -0.2400 
 26 H        4.0220     1.6240    -1.3810 H     1 <1>   0.0800 
 27 H        2.7220     2.3060    -0.4740 H     1 <1>   0.0800 
 28 H       -1.0690     1.6240    -0.3300 H     1 <1>   0.0800 
 29 H       -0.5890     1.9440    -1.9860 H     1 <1>   0.0800 
 30 H        0.3830     2.5370    -0.6570 H     1 <1>   0.0800 
 31 H       -1.1910    -0.6860    -0.8280 H     1 <1>   0.0800 
 32 H        0.2250    -1.5710    -1.3290 H     1 <1>   0.0800 
 33 H       -0.5840    -0.5160    -2.4680 H     1 <1>   0.0800 
 34 H        3.9120    -0.4340     0.0140 H     1 <1>   0.0800 
 35 H        5.6680     0.9340     0.8180 H     1 <1>   0.0800 
 36 H        2.0340    -0.7340     1.2870 H     1 <1>   0.0800 
 37 H        1.7020     0.9910     1.4000 H     1 <1>   0.0800 
 38 H        3.7490     2.7470     2.1730 H     1 <1>   0.3700 
 39 H        4.8980     0.8670     3.3870 H     1 <1>   0.0800 
 40 H        4.8420    -0.6430     2.4780 H     1 <1>   0.0800 
 41 H        5.4950     5.7210    -0.6820 H     1 <1>   0.1500 
 42 H        4.1840     4.5550     3.1870 H     1 <1>   0.1500 
 43 H        3.7610     6.8900     3.7640 H     1 <1>   0.1500 
 44 H        4.2100     8.6670     2.1160 H     1 <1>   0.1500 
 45 H        6.4760     7.4770    -1.4420 H     1 <1>   0.0800 
 46 H        5.6060    10.3490    -1.8540 H     1 <1>   0.0800 
 47 H        6.8240     9.5210    -2.7950 H     1 <1>   0.0800 
 48 H        7.0970     9.8160    -1.0980 H     1 <1>   0.0800 
 49 H        3.8690     8.6310    -2.5370 H     1 <1>   0.0800 
 50 H        4.1650     6.9280    -2.2560 H     1 <1>   0.0800 
 51 H        5.0570     7.7750    -3.4880 H     1 <1>   0.0800 
@<TRIPOS>BOND
  1   1   2  2   
  2   1   3  2   
  3   1   4  am  
  4   1   5  1   
  5   4   6  1   
  6   4   7  1   
  7   5   8  1   
  8   5  26  1   
  9   5  27  1   
 10   6  28  1   
 11   6  29  1   
 12   6  30  1   
 13   7  31  1   
 14   7  32  1   
 15   7  33  1   
 16   8   9  1   
 17   8  10  1   
 18   8  34  1   
 19   9  11  1   
 20   9  12  1   
 21   9  35  1   
 22  10  13  1   
 23  10  36  1   
 24  10  37  1   
 25  11  14  am  
 26  11  38  1   
 27  12  13  1   
 28  12  39  1   
 29  12  40  1   
 30  14  15  2   
 31  14  16  1   
 32  16  17  ar  
 33  16  18  ar  
 34  17  19  ar  
 35  17  41  1   
 36  18  20  ar  
 37  18  42  1   
 38  19  21  1   
 39  19  22  ar  
 40  20  22  ar  
 41  20  43  1   
 42  21  23  1   
 43  22  44  1   
 44  23  24  1   
 45  23  25  1   
 46  23  45  1   
 47  24  46  1   
 48  24  47  1   
 49  24  48  1   
 50  25  49  1   
 51  25  50  1   
 52  25  51  1   
@<TRIPOS>SUBSTRUCTURE
  1 ****  14 GROUP 4 **** **** 0

# MOE 2024.06 (io_trps.svl 2023.06)
