@<TRIPOS>MOLECULE
NONAME
56 58 1 0 0 
SMALL
USER_CHARGES


@<TRIPOS>ATOM
  1 O       -0.3770     0.9280    -1.0480 O.2   1 <1>  -0.5700 
  2 C       -0.4020     2.1010    -0.7570 C.2   1 <1>   0.5690 
  3 N       -1.3500     2.6590     0.0670 N.am  1 <1>  -0.6600 
  4 C        0.6850     2.9860    -1.3680 C.3   1 <1>   0.1810 
  5 C       -1.3130     4.1280     0.3880 C.3   1 <1>   0.3640 
  6 C       -2.3210     1.8700     0.8790 C.3   1 <1>   0.2200 
  7 O        0.9230     4.1540    -0.6260 O.3   1 <1>  -0.5600 
  8 C       -2.6840     4.7550     0.1160 C.ar  1 <1>  -0.1440 
  9 C       -0.2390     4.9260    -0.4000 C.3   1 <1>   0.2610 
 10 C       -1.5770     0.9710     1.8670 C.3   1 <1>  -0.2400 
 11 C       -3.2770     1.0730    -0.0100 C.3   1 <1>  -0.2400 
 12 C       -3.2670     5.5840     1.0640 C.ar  1 <1>  -0.1500 
 13 C       -3.3590     4.5160    -1.0750 C.ar  1 <1>  -0.1500 
 14 C        0.1230     6.2560     0.2890 C.2   1 <1>   0.5690 
 15 C       -4.5010     6.1630     0.8280 C.ar  1 <1>  -0.1500 
 16 C       -4.5940     5.0940    -1.3120 C.ar  1 <1>  -0.1500 
 17 O       -0.2060     6.4220     1.4450 O.2   1 <1>  -0.5700 
 18 N        0.8160     7.2360    -0.3880 N.am  1 <1>  -0.6600 
 19 C       -5.1660     5.9180    -0.3600 C.ar  1 <1>  -0.1500 
 20 C        1.2560     8.4790     0.3190 C.3   1 <1>   0.2840 
 21 C        1.3380     7.0920    -1.7790 C.3   1 <1>   0.0600 
 22 C        2.7580     8.7150     0.1580 C.ar  1 <1>  -0.1440 
 23 C        3.7090     7.9050     0.7760 C.ar  1 <1>  -0.1440 
 24 C        3.1790     9.7740    -0.6360 C.ar  1 <1>  -0.1500 
 25 C        5.0570     8.1680     0.5860 C.ar  1 <1>  -0.1500 
 26 C        3.3130     6.7250     1.6550 C.3   1 <1>  -0.0970 
 27 C        4.5250    10.0290    -0.8190 C.ar  1 <1>  -0.1500 
 28 C        5.4660     9.2240    -0.2070 C.ar  1 <1>  -0.1500 
 29 H        0.4050     3.2640    -2.3670 H     1 <1>   0.0800 
 30 H        1.6070     2.4340    -1.4070 H     1 <1>   0.0800 
 31 H       -1.0940     4.2080     1.4390 H     1 <1>   0.0800 
 32 H       -2.9220     2.5500     1.4590 H     1 <1>   0.0800 
 33 H       -0.6540     5.1650    -1.3600 H     1 <1>   0.0800 
 34 H       -1.0190     0.2110     1.3510 H     1 <1>   0.0800 
 35 H       -2.2820     0.4850     2.5170 H     1 <1>   0.0800 
 36 H       -0.9070     1.5570     2.4700 H     1 <1>   0.0800 
 37 H       -2.7570     0.3050    -0.5510 H     1 <1>   0.0800 
 38 H       -3.7710     1.7260    -0.7040 H     1 <1>   0.0800 
 39 H       -4.0260     0.6010     0.5990 H     1 <1>   0.0800 
 40 H       -2.7590     5.7900     1.9910 H     1 <1>   0.1500 
 41 H       -2.9290     3.8720    -1.8220 H     1 <1>   0.1500 
 42 H       -4.9430     6.8050     1.5700 H     1 <1>   0.1500 
 43 H       -5.1110     4.9010    -2.2360 H     1 <1>   0.1500 
 44 H       -6.1270     6.3680    -0.5420 H     1 <1>   0.1500 
 45 H        0.7090     9.3110    -0.0870 H     1 <1>   0.0800 
 46 H        1.0220     8.4320     1.3680 H     1 <1>   0.0800 
 47 H        1.3190     8.0460    -2.2780 H     1 <1>   0.0800 
 48 H        0.7520     6.4010    -2.3540 H     1 <1>   0.0800 
 49 H        2.3550     6.7400    -1.7440 H     1 <1>   0.0800 
 50 H        2.4580    10.4090    -1.1190 H     1 <1>   0.1500 
 51 H        5.8000     7.5480     1.0560 H     1 <1>   0.1500 
 52 H        4.1560     6.3600     2.2120 H     1 <1>   0.0800 
 53 H        2.9390     5.9240     1.0440 H     1 <1>   0.0800 
 54 H        2.5510     7.0110     2.3570 H     1 <1>   0.0800 
 55 H        4.8400    10.8520    -1.4360 H     1 <1>   0.1500 
 56 H        6.5150     9.4180    -0.3460 H     1 <1>   0.1500 
@<TRIPOS>BOND
  1   1   2  2   
  2   2   3  am  
  3   2   4  1   
  4   3   5  1   
  5   3   6  1   
  6   4   7  1   
  7   4  29  1   
  8   4  30  1   
  9   5   8  1   
 10   5   9  1   
 11   5  31  1   
 12   6  10  1   
 13   6  11  1   
 14   6  32  1   
 15   7   9  1   
 16   8  12  ar  
 17   8  13  ar  
 18   9  14  1   
 19   9  33  1   
 20  10  34  1   
 21  10  35  1   
 22  10  36  1   
 23  11  37  1   
 24  11  38  1   
 25  11  39  1   
 26  12  15  ar  
 27  12  40  1   
 28  13  16  ar  
 29  13  41  1   
 30  14  17  2   
 31  14  18  am  
 32  15  19  ar  
 33  15  42  1   
 34  16  19  ar  
 35  16  43  1   
 36  18  20  1   
 37  18  21  1   
 38  19  44  1   
 39  20  22  1   
 40  20  45  1   
 41  20  46  1   
 42  21  47  1   
 43  21  48  1   
 44  21  49  1   
 45  22  23  ar  
 46  22  24  ar  
 47  23  25  ar  
 48  23  26  1   
 49  24  27  ar  
 50  24  50  1   
 51  25  28  ar  
 52  25  51  1   
 53  26  52  1   
 54  26  53  1   
 55  26  54  1   
 56  27  28  ar  
 57  27  55  1   
 58  28  56  1   
@<TRIPOS>SUBSTRUCTURE
  1 ****   9 GROUP 4 **** **** 0

# MOE 2024.06 (io_trps.svl 2023.06)
