@<TRIPOS>MOLECULE
NONAME
48 51 1 0 0 
SMALL
USER_CHARGES


@<TRIPOS>ATOM
  1 S       -0.6120     0.2010     0.5360 S.o2  1 <1>   1.0900 
  2 O        0.7460    -0.2890     0.5200 O.2   1 <1>  -0.6500 
  3 O       -0.9780     1.4190     1.2180 O.2   1 <1>  -0.6500 
  4 C       -1.6520    -1.1390     1.0420 C.3   1 <1>  -0.0550 
  5 C       -1.2110     0.2160    -1.1480 C.3   1 <1>  -0.0550 
  6 C       -1.7450    -2.0250    -0.1960 C.3   1 <1>   0.1760 
  7 C       -1.9740    -1.0960    -1.4070 C.3   1 <1>  -0.1600 
  8 N       -2.8260    -3.0330    -0.0580 N.pl3 1 <1>   0.3140 
  9 N       -4.0800    -2.6640     0.2600 N.2   1 <1>  -0.7070 
 10 C       -2.7270    -4.3790    -0.2060 C.2   1 <1>  -0.3320 
 11 C       -4.7530    -3.7710     0.3180 C.2   1 <1>   0.1080 
 12 C       -3.9560    -4.8860     0.0370 C.2   1 <1>   0.0630 
 13 C       -1.4450    -5.1200    -0.5660 C.3   1 <1>  -0.0600 
 14 C       -6.2300    -3.7810     0.6430 C.3   1 <1>  -0.0590 
 15 N       -4.3080    -6.2580    -0.0180 N.am  1 <1>  -0.4930 
 16 C       -5.0590    -7.0220     0.8320 C.2   1 <1>   0.7160 
 17 O       -5.6000    -6.5150     1.7990 O.2   1 <1>  -0.5700 
 18 C       -5.1660    -8.4380     0.5440 C.2   1 <1>   0.1410 
 19 N       -4.5120    -9.0380    -0.4940 N.2   1 <1>  -0.5650 
 20 C       -5.8820    -9.3960     1.1950 C.2   1 <1>  -0.0150 
 21 C       -4.8590   -10.3060    -0.4220 C.2   1 <1>   0.1420 
 22 F       -6.6530    -9.2550     2.2440 F     1 <1>  -0.1370 
 23 N       -5.7160   -10.5880     0.6190 N.pl3 1 <1>   0.3340 
 24 C       -4.4610   -11.3750    -1.2670 C.2   1 <1>  -0.1050 
 25 C       -6.1880   -11.8750     0.8500 C.2   1 <1>  -0.1810 
 26 C       -4.9220   -12.6370    -1.0440 C.2   1 <1>  -0.1500 
 27 C       -5.8060   -12.8980     0.0400 C.2   1 <1>  -0.1380 
 28 C       -6.2930   -14.3200     0.2480 C.3   1 <1>  -0.1020 
 29 H       -2.6250    -0.7630     1.2980 H     1 <1>   0.0800 
 30 H       -1.2350    -1.6690     1.8770 H     1 <1>   0.0800 
 31 H       -0.3850     0.3120    -1.8270 H     1 <1>   0.0800 
 32 H       -1.8710     1.0500    -1.2970 H     1 <1>   0.0800 
 33 H       -0.8060    -2.5330    -0.3200 H     1 <1>   0.0800 
 34 H       -1.6420    -1.5640    -2.3170 H     1 <1>   0.0800 
 35 H       -3.0240    -0.8690    -1.4960 H     1 <1>   0.0800 
 36 H       -1.0810    -4.7920    -1.5230 H     1 <1>   0.0800 
 37 H       -1.6190    -6.1800    -0.6150 H     1 <1>   0.0800 
 38 H       -0.6910    -4.9400     0.1800 H     1 <1>   0.0800 
 39 H       -6.6750    -2.8480     0.3500 H     1 <1>   0.0800 
 40 H       -6.3630    -3.9150     1.7000 H     1 <1>   0.0800 
 41 H       -6.7210    -4.5810     0.1210 H     1 <1>   0.0800 
 42 H       -3.8420    -6.8100    -0.7390 H     1 <1>   0.3700 
 43 H       -3.7920   -11.1430    -2.0770 H     1 <1>   0.1500 
 44 H       -6.8520   -11.9930     1.6870 H     1 <1>   0.1500 
 45 H       -4.6290   -13.4580    -1.6780 H     1 <1>   0.1500 
 46 H       -6.8250   -14.6580    -0.6230 H     1 <1>   0.0800 
 47 H       -6.9520   -14.3780     1.0960 H     1 <1>   0.0800 
 48 H       -5.4560   -14.9730     0.4200 H     1 <1>   0.0800 
@<TRIPOS>BOND
  1   1   2  2   
  2   1   3  2   
  3   1   4  1   
  4   1   5  1   
  5   4   6  1   
  6   4  29  1   
  7   4  30  1   
  8   5   7  1   
  9   5  31  1   
 10   5  32  1   
 11   6   7  1   
 12   6   8  1   
 13   6  33  1   
 14   7  34  1   
 15   7  35  1   
 16   8   9  1   
 17   8  10  1   
 18   9  11  2   
 19  10  12  2   
 20  10  13  1   
 21  11  12  1   
 22  11  14  1   
 23  12  15  1   
 24  13  36  1   
 25  13  37  1   
 26  13  38  1   
 27  14  39  1   
 28  14  40  1   
 29  14  41  1   
 30  15  16  am  
 31  15  42  1   
 32  16  17  2   
 33  16  18  1   
 34  18  19  1   
 35  18  20  2   
 36  19  21  2   
 37  20  22  1   
 38  20  23  1   
 39  21  23  1   
 40  21  24  1   
 41  23  25  1   
 42  24  26  2   
 43  24  43  1   
 44  25  27  2   
 45  25  44  1   
 46  26  27  1   
 47  26  45  1   
 48  27  28  1   
 49  28  46  1   
 50  28  47  1   
 51  28  48  1   
@<TRIPOS>SUBSTRUCTURE
  1 ****  15 GROUP 4 **** **** 0

# MOE 2024.06 (io_trps.svl 2023.06)
