@<TRIPOS>MOLECULE
NONAME
56 59 1 0 0 
SMALL
USER_CHARGES


@<TRIPOS>ATOM
  1 O       -0.6520    -0.5910     0.5070 O.3   1 <1>  -0.5600 
  2 C       -1.7390    -1.4720     0.5090 C.3   1 <1>   0.1200 
  3 C        0.5790    -1.2050     0.7430 C.3   1 <1>   0.1200 
  4 C       -1.5740    -2.5370    -0.5890 C.3   1 <1>   0.2090 
  5 C        0.8790    -2.2500    -0.3490 C.3   1 <1>   0.2090 
  6 N       -0.2440    -3.2460    -0.4710 N.pl3 1 <1>  -0.8380 
  7 C       -0.1580    -4.6050    -0.4610 C.ar  1 <1>   0.7710 
  8 N       -1.2670    -5.3280    -0.4310 N.ar  1 <1>  -0.6200 
  9 N        1.0550    -5.1860    -0.4890 N.ar  1 <1>  -0.1790 
 10 C       -1.1660    -6.6440    -0.4120 C.ar  1 <1>   0.4100 
 11 C        1.2130    -6.5300    -0.4800 C.ar  1 <1>   0.2180 
 12 N       -2.3180    -7.3590    -0.3640 N.pl3 1 <1>  -0.8380 
 13 C        0.0880    -7.2810    -0.4420 C.ar  1 <1>  -0.1500 
 14 C        2.6190    -7.1150    -0.5150 C.3   1 <1>  -0.0170 
 15 C       -3.6750    -6.7390    -0.3450 C.3   1 <1>   0.2090 
 16 C       -2.4400    -8.8380    -0.2310 C.3   1 <1>   0.2090 
 17 C        3.4200    -6.7650     0.7460 C.3   1 <1>  -0.2400 
 18 C       -4.6600    -7.9080    -0.3390 C.3   1 <1>   0.2000 
 19 C       -3.8770    -9.0930     0.2180 C.3   1 <1>  -0.0800 
 20 O       -5.7690    -7.6520     0.4540 O.3   1 <1>  -0.6800 
 21 C       -4.4350   -10.4530    -0.2360 C.3   1 <1>   0.0210 
 22 C       -3.5510   -11.6230     0.1670 C.2   1 <1>   0.1080 
 23 N       -2.7860   -11.6300     1.2160 N.2   1 <1>  -0.7070 
 24 C       -3.4710   -12.8150    -0.5450 C.2   1 <1>  -0.1500 
 25 N       -2.2040   -12.8450     1.2070 N.pl3 1 <1>   0.3000 
 26 C       -2.6000   -13.5790     0.1460 C.2   1 <1>  -0.3320 
 27 C       -2.1190   -14.9890    -0.1420 C.3   1 <1>  -0.0600 
 28 H       -1.8120    -1.9320     1.4790 H     1 <1>   0.0800 
 29 H       -2.6290    -0.8940     0.3340 H     1 <1>   0.0800 
 30 H        1.3300    -0.4350     0.7400 H     1 <1>   0.0800 
 31 H        0.5550    -1.6600     1.7180 H     1 <1>   0.0800 
 32 H       -1.6320    -2.0520    -1.5490 H     1 <1>   0.0800 
 33 H       -2.4040    -3.2170    -0.5260 H     1 <1>   0.0800 
 34 H        1.8100    -2.7270    -0.1090 H     1 <1>   0.0800 
 35 H        1.0000    -1.7350    -1.2880 H     1 <1>   0.0800 
 36 H        1.8460    -4.5600    -0.5330 H     1 <1>   0.4570 
 37 H        0.1310    -8.3530    -0.4360 H     1 <1>   0.1500 
 38 H        2.5570    -8.1870    -0.5960 H     1 <1>   0.0800 
 39 H        3.1400    -6.7600    -1.3890 H     1 <1>   0.0800 
 40 H       -3.7800    -6.1450     0.5470 H     1 <1>   0.0800 
 41 H       -3.8180    -6.1230    -1.2160 H     1 <1>   0.0800 
 42 H       -2.2570    -9.2970    -1.1880 H     1 <1>   0.0800 
 43 H       -1.7480    -9.2270     0.4960 H     1 <1>   0.0800 
 44 H        2.9100    -7.1200     1.6260 H     1 <1>   0.0800 
 45 H        3.5740    -5.7050     0.8370 H     1 <1>   0.0800 
 46 H        4.3860    -7.2400     0.7070 H     1 <1>   0.0800 
 47 H       -4.9980    -8.0960    -1.3440 H     1 <1>   0.0800 
 48 H       -3.8790    -9.0540     1.2940 H     1 <1>   0.0800 
 49 H       -5.5060    -7.5900     1.3930 H     1 <1>   0.4000 
 50 H       -4.5460   -10.4600    -1.3050 H     1 <1>   0.0800 
 51 H       -5.4080   -10.5960     0.1980 H     1 <1>   0.0800 
 52 H       -4.0060   -13.0520    -1.4470 H     1 <1>   0.1500 
 53 H       -1.5490   -13.1450     1.9390 H     1 <1>   0.2700 
 54 H       -2.5800   -15.3610    -1.0400 H     1 <1>   0.0800 
 55 H       -2.3780   -15.6440     0.6710 H     1 <1>   0.0800 
 56 H       -1.0510   -15.0000    -0.2760 H     1 <1>   0.0800 
@<TRIPOS>BOND
  1   1   2  1   
  2   1   3  1   
  3   2   4  1   
  4   2  28  1   
  5   2  29  1   
  6   3   5  1   
  7   3  30  1   
  8   3  31  1   
  9   4   6  1   
 10   4  32  1   
 11   4  33  1   
 12   5   6  1   
 13   5  34  1   
 14   5  35  1   
 15   6   7  1   
 16   7   8  ar  
 17   7   9  ar  
 18   8  10  ar  
 19   9  11  ar  
 20   9  36  1   
 21  10  12  1   
 22  10  13  ar  
 23  11  13  ar  
 24  11  14  1   
 25  12  15  1   
 26  12  16  1   
 27  13  37  1   
 28  14  17  1   
 29  14  38  1   
 30  14  39  1   
 31  15  18  1   
 32  15  40  1   
 33  15  41  1   
 34  16  19  1   
 35  16  42  1   
 36  16  43  1   
 37  17  44  1   
 38  17  45  1   
 39  17  46  1   
 40  18  19  1   
 41  18  20  1   
 42  18  47  1   
 43  19  21  1   
 44  19  48  1   
 45  20  49  1   
 46  21  22  1   
 47  21  50  1   
 48  21  51  1   
 49  22  23  2   
 50  22  24  1   
 51  23  25  1   
 52  24  26  2   
 53  24  52  1   
 54  25  26  1   
 55  25  53  1   
 56  26  27  1   
 57  27  54  1   
 58  27  55  1   
 59  27  56  1   
@<TRIPOS>SUBSTRUCTURE
  1 ****  10 GROUP 4 **** **** 0

# MOE 2024.06 (io_trps.svl 2023.06)
