@<TRIPOS>MOLECULE
NONAME
48 50 1 0 0 
SMALL
USER_CHARGES


@<TRIPOS>ATOM
  1 F       -0.5500    -2.5400     2.7970 F     1 <1>  -0.1900 
  2 C       -1.1270    -3.2820     1.8860 C.ar  1 <1>   0.1900 
  3 C       -0.3900    -4.0630     0.9890 C.ar  1 <1>   0.0820 
  4 C       -2.5070    -3.2540     1.8540 C.ar  1 <1>  -0.1500 
  5 O        0.9680    -4.1760     0.9210 O.3   1 <1>  -0.3630 
  6 C       -1.0950    -4.8120     0.0610 C.ar  1 <1>  -0.1500 
  7 C       -3.1780    -4.0140     0.9140 C.ar  1 <1>  -0.1500 
  8 C        1.8410    -3.5000     1.7980 C.3   1 <1>   0.0400 
  9 C       -2.4920    -4.8140    -0.0040 C.ar  1 <1>   0.0530 
 10 C       -3.1860    -5.6160    -0.9860 C.2   1 <1>   0.0870 
 11 O       -2.5380    -6.0870    -2.0290 O.3   1 <1>  -0.0190 
 12 C       -4.4650    -6.0590    -1.0960 C.2   1 <1>  -0.2330 
 13 N       -3.2900    -6.8140    -2.8150 N.2   1 <1>  -0.4100 
 14 C       -4.4570    -6.7930    -2.2830 C.2   1 <1>   0.3720 
 15 C       -5.5890    -5.9770    -0.2210 C.2   1 <1>   1.0330 
 16 N       -5.5560    -7.4700    -2.8060 N.pl3 1 <1>  -0.8520 
 17 O       -5.4620    -6.2450     0.9890 O.co2 1 <1>  -0.9000 
 18 O       -6.7430    -5.8730    -0.6690 O.co2 1 <1>  -0.9000 
 19 C       -5.5890    -8.9220    -2.5040 C.3   1 <1>   0.2090 
 20 C       -6.3230    -9.1080    -1.1710 C.3   1 <1>  -0.0800 
 21 C       -5.8880   -10.2690    -0.2820 C.3   1 <1>   0.3430 
 22 C       -7.8590    -9.0470    -1.2740 C.3   1 <1>  -0.1600 
 23 N       -6.3150    -9.9780     1.1420 N.4   1 <1>  -0.9590 
 24 C       -8.5110    -9.4030     0.0780 C.3   1 <1>  -0.1600 
 25 C       -7.5590    -9.1220     1.2480 C.3   1 <1>   0.3430 
 26 C       -5.2200    -9.2470     1.8600 C.3   1 <1>   0.2630 
 27 H       -3.0510    -2.6470     2.5550 H     1 <1>   0.1500 
 28 H       -0.5350    -5.4140    -0.6320 H     1 <1>   0.1500 
 29 H       -4.2530    -3.9850     0.8990 H     1 <1>   0.1500 
 30 H        2.8490    -3.7680     1.5380 H     1 <1>   0.0800 
 31 H        1.6320    -3.8070     2.8070 H     1 <1>   0.0800 
 32 H        1.7050    -2.4390     1.6800 H     1 <1>   0.0800 
 33 H       -6.3920    -7.0110    -2.3950 H     1 <1>   0.4000 
 34 H       -4.5770    -9.2880    -2.4350 H     1 <1>   0.0800 
 35 H       -6.0880    -9.4470    -3.3000 H     1 <1>   0.0800 
 36 H       -6.0140    -8.2780    -0.5970 H     1 <1>   0.0800 
 37 H       -4.8180   -10.3890    -0.3270 H     1 <1>   0.0800 
 38 H       -6.3540   -11.1740    -0.6330 H     1 <1>   0.0800 
 39 H       -8.2200    -9.7130    -2.0380 H     1 <1>   0.0800 
 40 H       -8.1420    -8.0440    -1.5500 H     1 <1>   0.0800 
 41 H       -6.4960   -10.8670     1.6210 H     1 <1>   0.4500 
 42 H       -8.8000   -10.4380     0.0970 H     1 <1>   0.0800 
 43 H       -9.4030    -8.8130     0.2020 H     1 <1>   0.0800 
 44 H       -7.2800    -8.0760     1.2080 H     1 <1>   0.0800 
 45 H       -8.0540    -9.2970     2.1880 H     1 <1>   0.0800 
 46 H       -4.9650    -8.3420     1.3330 H     1 <1>   0.0800 
 47 H       -4.3370    -9.8590     1.9290 H     1 <1>   0.0800 
 48 H       -5.5340    -8.9750     2.8550 H     1 <1>   0.0800 
@<TRIPOS>BOND
  1   1   2  1   
  2   2   3  ar  
  3   2   4  ar  
  4   3   5  1   
  5   3   6  ar  
  6   4   7  ar  
  7   4  27  1   
  8   5   8  1   
  9   6   9  ar  
 10   6  28  1   
 11   7   9  ar  
 12   7  29  1   
 13   8  30  1   
 14   8  31  1   
 15   8  32  1   
 16   9  10  1   
 17  10  11  1   
 18  10  12  2   
 19  11  13  1   
 20  12  14  1   
 21  12  15  1   
 22  13  14  2   
 23  14  16  1   
 24  15  17  ar  
 25  15  18  ar  
 26  16  19  1   
 27  16  33  1   
 28  19  20  1   
 29  19  34  1   
 30  19  35  1   
 31  20  21  1   
 32  20  22  1   
 33  20  36  1   
 34  21  23  1   
 35  21  37  1   
 36  21  38  1   
 37  22  24  1   
 38  22  39  1   
 39  22  40  1   
 40  23  25  1   
 41  23  26  1   
 42  23  41  1   
 43  24  25  1   
 44  24  42  1   
 45  24  43  1   
 46  25  44  1   
 47  25  45  1   
 48  26  46  1   
 49  26  47  1   
 50  26  48  1   
@<TRIPOS>SUBSTRUCTURE
  1 ****  12 GROUP 4 **** **** 0

# MOE 2024.06 (io_trps.svl 2023.06)
