@<TRIPOS>MOLECULE
NONAME
53 55 1 0 0 
SMALL
USER_CHARGES


@<TRIPOS>ATOM
  1 O       -1.8790    -0.1160     2.3350 O.2   1 <1>  -0.5700 
  2 C       -1.9560     0.4330     1.2600 C.2   1 <1>   0.5690 
  3 N       -2.0700    -0.2800     0.0940 N.am  1 <1>  -0.6600 
  4 C       -1.9610     1.9600     1.2610 C.3   1 <1>   0.1810 
  5 C       -2.0570    -1.7830     0.1090 C.3   1 <1>   0.3640 
  6 C       -2.2250     0.3590    -1.2530 C.3   1 <1>   0.1400 
  7 O       -0.9270     2.4880     0.4430 O.3   1 <1>  -0.3630 
  8 C       -0.6660    -2.3510    -0.2370 C.ar  1 <1>  -0.1440 
  9 C       -3.1680    -2.3560    -0.8310 C.3   1 <1>   0.2000 
 10 C       -2.4790    -0.6720    -2.3640 C.3   1 <1>   0.1200 
 11 C       -0.8030     3.8230     0.2410 C.ar  1 <1>   0.0830 
 12 C       -0.4880    -3.7290    -0.1930 C.ar  1 <1>  -0.1500 
 13 C        0.4290    -1.5580    -0.5720 C.ar  1 <1>  -0.1500 
 14 O       -3.4730    -1.5580    -1.9570 O.3   1 <1>  -0.5600 
 15 C       -4.4860    -2.5530    -0.0710 C.3   1 <1>   0.1200 
 16 C       -1.6070     4.7790     0.8580 C.ar  1 <1>  -0.1500 
 17 C        0.1880     4.2290    -0.6380 C.ar  1 <1>  -0.1500 
 18 C        0.7280    -4.3110    -0.5080 C.ar  1 <1>   0.0830 
 19 C        1.6560    -2.1270    -0.8700 C.ar  1 <1>  -0.1500 
 20 O       -4.3720    -3.6130     0.8240 O.3   1 <1>  -0.6800 
 21 C       -1.4140     6.1230     0.5860 C.ar  1 <1>  -0.1500 
 22 C        0.3790     5.5730    -0.9090 C.ar  1 <1>  -0.1500 
 23 O        0.7910    -5.6660    -0.4890 O.3   1 <1>  -0.3620 
 24 C        1.8200    -3.4990    -0.8290 C.ar  1 <1>   0.0830 
 25 C       -0.4240     6.5200    -0.2970 C.ar  1 <1>  -0.1500 
 26 C        1.0870    -6.3050    -1.7120 C.3   1 <1>   0.0400 
 27 O        3.0540    -3.9920    -1.0920 O.3   1 <1>  -0.3630 
 28 C        3.7290    -4.5780    -0.0010 C.3   1 <1>   0.0400 
 29 H       -1.8050     2.3150     2.2640 H     1 <1>   0.0800 
 30 H       -2.9050     2.3130     0.8910 H     1 <1>   0.0800 
 31 H       -2.2700    -2.1250     1.1070 H     1 <1>   0.0800 
 32 H       -3.0520     1.0450    -1.2270 H     1 <1>   0.0800 
 33 H       -1.3370     0.9160    -1.4950 H     1 <1>   0.0800 
 34 H       -2.8630    -3.3100    -1.2180 H     1 <1>   0.0800 
 35 H       -1.5870    -1.2280    -2.5960 H     1 <1>   0.0800 
 36 H       -2.8180    -0.1790    -3.2580 H     1 <1>   0.0800 
 37 H       -1.2970    -4.3780     0.0880 H     1 <1>   0.1500 
 38 H        0.3530    -0.4860    -0.5950 H     1 <1>   0.1500 
 39 H       -5.2880    -2.7770    -0.7530 H     1 <1>   0.0800 
 40 H       -4.7250    -1.6670     0.4910 H     1 <1>   0.0800 
 41 H       -2.3790     4.5030     1.5500 H     1 <1>   0.1500 
 42 H        0.8100     3.4890    -1.1070 H     1 <1>   0.1500 
 43 H        2.4950    -1.5050    -1.1240 H     1 <1>   0.1500 
 44 H       -4.4470    -4.4710     0.3610 H     1 <1>   0.4000 
 45 H       -2.0340     6.8630     1.0620 H     1 <1>   0.1500 
 46 H        1.1500     5.8810    -1.5930 H     1 <1>   0.1500 
 47 H       -0.2770     7.5660    -0.5060 H     1 <1>   0.1500 
 48 H        0.9400    -7.3610    -1.5830 H     1 <1>   0.0800 
 49 H        2.1090    -6.1090    -1.9800 H     1 <1>   0.0800 
 50 H        0.4230    -5.9290    -2.4700 H     1 <1>   0.0800 
 51 H        4.7150    -4.8580    -0.3260 H     1 <1>   0.0800 
 52 H        3.1890    -5.4470     0.3260 H     1 <1>   0.0800 
 53 H        3.7930    -3.8570     0.7940 H     1 <1>   0.0800 
@<TRIPOS>BOND
  1   1   2  2   
  2   2   3  am  
  3   2   4  1   
  4   3   5  1   
  5   3   6  1   
  6   4   7  1   
  7   4  29  1   
  8   4  30  1   
  9   5   8  1   
 10   5   9  1   
 11   5  31  1   
 12   6  10  1   
 13   6  32  1   
 14   6  33  1   
 15   7  11  1   
 16   8  12  ar  
 17   8  13  ar  
 18   9  14  1   
 19   9  15  1   
 20   9  34  1   
 21  10  14  1   
 22  10  35  1   
 23  10  36  1   
 24  11  16  ar  
 25  11  17  ar  
 26  12  18  ar  
 27  12  37  1   
 28  13  19  ar  
 29  13  38  1   
 30  15  20  1   
 31  15  39  1   
 32  15  40  1   
 33  16  21  ar  
 34  16  41  1   
 35  17  22  ar  
 36  17  42  1   
 37  18  23  1   
 38  18  24  ar  
 39  19  24  ar  
 40  19  43  1   
 41  20  44  1   
 42  21  25  ar  
 43  21  45  1   
 44  22  25  ar  
 45  22  46  1   
 46  23  26  1   
 47  24  27  1   
 48  25  47  1   
 49  26  48  1   
 50  26  49  1   
 51  26  50  1   
 52  27  28  1   
 53  28  51  1   
 54  28  52  1   
 55  28  53  1   
@<TRIPOS>SUBSTRUCTURE
  1 ****   3 GROUP 4 **** **** 0

# MOE 2024.06 (io_trps.svl 2023.06)
