@<TRIPOS>MOLECULE
NONAME
38 40 1 0 0 
SMALL
USER_CHARGES


@<TRIPOS>ATOM
  1 S        0.2360    -0.1070     0.7360 S.3   1 <1>  -0.0800 
  2 C       -1.2720     0.7700     0.5220 C.2   1 <1>   0.4620 
  3 C        1.0860     1.4040     0.7790 C.2   1 <1>  -0.1100 
  4 N       -1.1270     2.0440     0.4880 N.2   1 <1>  -0.5650 
  5 N       -2.4460     0.0690     0.4090 N.pl3 1 <1>  -0.8220 
  6 C        0.2160     2.4260     0.6360 C.2   1 <1>   0.1410 
  7 C       -3.7390     0.7220     0.1030 C.3   1 <1>   0.2090 
  8 C       -2.5480    -1.4060     0.3000 C.3   1 <1>   0.2090 
  9 C        0.5820     3.8360     0.6270 C.2   1 <1>   0.7160 
 10 C       -4.6300    -0.4080    -0.4170 C.3   1 <1>   0.2000 
 11 C       -4.0450    -1.6900     0.1760 C.3   1 <1>  -0.0800 
 12 O        1.7320     4.2070     0.7440 O.2   1 <1>  -0.5700 
 13 N       -0.3600     4.7950     0.4880 N.am  1 <1>  -0.8000 
 14 O       -5.9510    -0.2570    -0.0200 O.3   1 <1>  -0.6800 
 15 C       -4.3690    -2.9440    -0.6510 C.3   1 <1>   0.0210 
 16 C       -3.6220    -4.1640    -0.1420 C.2   1 <1>   0.1080 
 17 N       -3.5380    -4.4730     1.1150 N.2   1 <1>  -0.7070 
 18 C       -2.9450    -5.0710    -0.9510 C.2   1 <1>  -0.1500 
 19 N       -2.8020    -5.5990     1.1410 N.pl3 1 <1>   0.3000 
 20 C       -2.4290    -5.9800    -0.0980 C.2   1 <1>  -0.3320 
 21 C       -1.5910    -7.2100    -0.3960 C.3   1 <1>  -0.0600 
 22 H        2.1530     1.3890     0.9080 H     1 <1>   0.1500 
 23 H       -4.1390     1.1470     1.0060 H     1 <1>   0.0800 
 24 H       -3.6100     1.4870    -0.6430 H     1 <1>   0.0800 
 25 H       -2.0200    -1.7350    -0.5790 H     1 <1>   0.0800 
 26 H       -2.1350    -1.8900     1.1700 H     1 <1>   0.0800 
 27 H       -4.5970    -0.4220    -1.4920 H     1 <1>   0.0800 
 28 H       -4.4160    -1.8250     1.1770 H     1 <1>   0.0800 
 29 H       -0.1030     5.7800     0.4860 H     1 <1>   0.3700 
 30 H       -1.3430     4.5380     0.3940 H     1 <1>   0.3700 
 31 H       -6.0240    -0.3570     0.9490 H     1 <1>   0.4000 
 32 H       -4.1090    -2.7790    -1.6810 H     1 <1>   0.0800 
 33 H       -5.4250    -3.1410    -0.6010 H     1 <1>   0.0800 
 34 H       -2.8680    -5.0330    -2.0230 H     1 <1>   0.1500 
 35 H       -2.5730    -6.0810     2.0190 H     1 <1>   0.2700 
 36 H       -1.4310    -7.3020    -1.4550 H     1 <1>   0.0800 
 37 H       -2.0930    -8.0960    -0.0480 H     1 <1>   0.0800 
 38 H       -0.6340    -7.1360     0.0900 H     1 <1>   0.0800 
@<TRIPOS>BOND
  1   1   2  1   
  2   1   3  1   
  3   2   4  2   
  4   2   5  1   
  5   3   6  2   
  6   3  22  1   
  7   4   6  1   
  8   5   7  1   
  9   5   8  1   
 10   6   9  1   
 11   7  10  1   
 12   7  23  1   
 13   7  24  1   
 14   8  11  1   
 15   8  25  1   
 16   8  26  1   
 17   9  12  2   
 18   9  13  am  
 19  10  11  1   
 20  10  14  1   
 21  10  27  1   
 22  11  15  1   
 23  11  28  1   
 24  13  29  1   
 25  13  30  1   
 26  14  31  1   
 27  15  16  1   
 28  15  32  1   
 29  15  33  1   
 30  16  17  2   
 31  16  18  1   
 32  17  19  1   
 33  18  20  2   
 34  18  34  1   
 35  19  20  1   
 36  19  35  1   
 37  20  21  1   
 38  21  36  1   
 39  21  37  1   
 40  21  38  1   
@<TRIPOS>SUBSTRUCTURE
  1 ****   8 GROUP 4 **** **** 0

# MOE 2024.06 (io_trps.svl 2023.06)
