@<TRIPOS>MOLECULE
NONAME
52 56 1 0 0 
SMALL
USER_CHARGES


@<TRIPOS>ATOM
  1 O       -1.8200     0.3390     1.4280 O.3   1 <1>  -0.6800 
  2 C       -1.9670    -0.9570     0.9960 C.3   1 <1>   0.2800 
  3 C       -3.4360    -1.1900     0.6190 C.3   1 <1>  -0.1600 
  4 C       -1.5510    -1.9060     2.1260 C.3   1 <1>  -0.1600 
  5 C       -1.0710    -1.1700    -0.2300 C.3   1 <1>  -0.1600 
  6 C       -3.6410    -2.6440     0.1160 C.3   1 <1>   0.0000 
  7 C       -1.7120    -3.3580     1.6410 C.3   1 <1>  -0.0800 
  8 C       -1.2290    -2.6190    -0.7260 C.3   1 <1>  -0.0800 
  9 C       -5.1450    -2.9040    -0.2150 C.3   1 <1>   0.2890 
 10 C       -3.1820    -3.6000     1.2520 C.3   1 <1>  -0.1600 
 11 C       -2.7030    -2.8680    -1.1030 C.3   1 <1>  -0.1600 
 12 C       -0.8240    -3.5860     0.4030 C.3   1 <1>  -0.1600 
 13 N       -5.3560    -4.2900    -0.6900 N.pl3 1 <1>  -0.8690 
 14 C       -5.7520    -1.9990    -1.2900 C.3   1 <1>  -0.2400 
 15 C       -5.9020    -5.3290     0.0390 C.ar  1 <1>   0.4100 
 16 N       -6.3620    -5.0640     1.2450 N.ar  1 <1>  -0.3100 
 17 C       -5.9320    -6.6310    -0.5220 C.ar  1 <1>   0.0000 
 18 N       -6.8630    -6.0310     2.0020 N.ar  1 <1>  -0.3100 
 19 C       -6.4550    -7.6510     0.2870 C.ar  1 <1>   0.0000 
 20 C       -5.4760    -6.9650    -1.8180 C.ar  1 <1>  -0.1500 
 21 C       -6.9090    -7.2570     1.5610 C.ar  1 <1>   0.1670 
 22 C       -6.4910    -8.9710    -0.2220 C.ar  1 <1>  -0.1500 
 23 C       -5.5250    -8.2490    -2.2870 C.ar  1 <1>  -0.1500 
 24 C       -7.4970    -8.2860     2.5110 C.3   1 <1>  -0.0970 
 25 C       -6.0370    -9.2650    -1.4770 C.ar  1 <1>  -0.1500 
 26 H       -2.3500     0.4720     2.2340 H     1 <1>   0.4000 
 27 H       -3.6990    -0.4890    -0.1520 H     1 <1>   0.0800 
 28 H       -4.0640    -1.0140     1.4730 H     1 <1>   0.0800 
 29 H       -2.1680    -1.7490     2.9930 H     1 <1>   0.0800 
 30 H       -0.5250    -1.7270     2.3960 H     1 <1>   0.0800 
 31 H       -0.0440    -0.9850     0.0330 H     1 <1>   0.0800 
 32 H       -1.3500    -0.4840    -1.0100 H     1 <1>   0.0800 
 33 H       -1.4270    -4.0390     2.4250 H     1 <1>   0.0800 
 34 H       -0.6000    -2.7800    -1.5850 H     1 <1>   0.0800 
 35 H       -5.7120    -2.7480     0.6880 H     1 <1>   0.0800 
 36 H       -3.2880    -4.6240     0.9380 H     1 <1>   0.0800 
 37 H       -3.8110    -3.4700     2.1150 H     1 <1>   0.0800 
 38 H       -2.9700    -2.2050    -1.9060 H     1 <1>   0.0800 
 39 H       -2.8030    -3.8760    -1.4640 H     1 <1>   0.0800 
 40 H       -0.9250    -4.6030     0.0660 H     1 <1>   0.0800 
 41 H        0.2090    -3.4300     0.6630 H     1 <1>   0.0800 
 42 H       -4.8730    -4.5090    -1.5570 H     1 <1>   0.4000 
 43 H       -5.2290    -2.0920    -2.2230 H     1 <1>   0.0800 
 44 H       -5.7310    -0.9720    -0.9790 H     1 <1>   0.0800 
 45 H       -6.7810    -2.2690    -1.4420 H     1 <1>   0.0800 
 46 H       -5.0860    -6.1910    -2.4520 H     1 <1>   0.1500 
 47 H       -6.8840    -9.7610     0.3900 H     1 <1>   0.1500 
 48 H       -5.1740    -8.4920    -3.2750 H     1 <1>   0.1500 
 49 H       -7.7960    -7.8200     3.4330 H     1 <1>   0.0800 
 50 H       -6.7650    -9.0400     2.7340 H     1 <1>   0.0800 
 51 H       -8.3620    -8.7430     2.0670 H     1 <1>   0.0800 
 52 H       -6.0680   -10.2720    -1.8570 H     1 <1>   0.1500 
@<TRIPOS>BOND
  1   1   2  1   
  2   1  26  1   
  3   2   3  1   
  4   2   4  1   
  5   2   5  1   
  6   3   6  1   
  7   3  27  1   
  8   3  28  1   
  9   4   7  1   
 10   4  29  1   
 11   4  30  1   
 12   5   8  1   
 13   5  31  1   
 14   5  32  1   
 15   6   9  1   
 16   6  10  1   
 17   6  11  1   
 18   7  10  1   
 19   7  12  1   
 20   7  33  1   
 21   8  11  1   
 22   8  12  1   
 23   8  34  1   
 24   9  13  1   
 25   9  14  1   
 26   9  35  1   
 27  10  36  1   
 28  10  37  1   
 29  11  38  1   
 30  11  39  1   
 31  12  40  1   
 32  12  41  1   
 33  13  15  1   
 34  13  42  1   
 35  14  43  1   
 36  14  44  1   
 37  14  45  1   
 38  15  16  ar  
 39  15  17  ar  
 40  16  18  ar  
 41  17  19  ar  
 42  17  20  ar  
 43  18  21  ar  
 44  19  21  ar  
 45  19  22  ar  
 46  20  23  ar  
 47  20  46  1   
 48  21  24  1   
 49  22  25  ar  
 50  22  47  1   
 51  23  25  ar  
 52  23  48  1   
 53  24  49  1   
 54  24  50  1   
 55  24  51  1   
 56  25  52  1   
@<TRIPOS>SUBSTRUCTURE
  1 ****  13 GROUP 4 **** **** 0

# MOE 2024.06 (io_trps.svl 2023.06)
