@<TRIPOS>MOLECULE
NONAME
52 54 1 0 0 
SMALL
USER_CHARGES


@<TRIPOS>ATOM
  1 CL      -2.1640     0.0530    -2.0020 Cl    1 <1>  -0.1770 
  2 C       -2.3400    -1.0010    -0.6220 C.ar  1 <1>   0.1770 
  3 C       -2.4370    -2.3650    -0.8210 C.ar  1 <1>  -0.1500 
  4 C       -2.3820    -0.4540     0.6460 C.ar  1 <1>  -0.1500 
  5 C       -2.5800    -3.2070     0.2710 C.ar  1 <1>  -0.1440 
  6 C       -2.5230    -1.2940     1.7370 C.ar  1 <1>  -0.1500 
  7 C       -2.6210    -2.6630     1.5480 C.ar  1 <1>  -0.1500 
  8 C       -2.6960    -4.7100     0.0740 C.3   1 <1>  -0.0160 
  9 C       -4.1720    -5.1140    -0.0590 C.3   1 <1>  -0.0990 
 10 C       -4.3840    -6.6050    -0.2750 C.2   1 <1>   0.5690 
 11 O       -3.4620    -7.3620    -0.0810 O.2   1 <1>  -0.5700 
 12 N       -5.6100    -7.0890    -0.6590 N.am  1 <1>  -0.6600 
 13 C       -5.7840    -8.5340    -0.9750 C.3   1 <1>   0.1400 
 14 C       -6.8920    -6.3370    -0.5660 C.3   1 <1>   0.1400 
 15 C       -6.6260    -9.2010     0.1350 C.3   1 <1>   0.4230 
 16 C       -7.7390    -6.9750     0.5440 C.3   1 <1>  -0.1600 
 17 N       -6.7170   -10.7170     0.0150 N.4   1 <1>  -0.9590 
 18 C       -8.0020    -8.4950     0.3310 C.3   1 <1>   0.0000 
 19 C       -7.8350   -11.3280     0.8060 C.3   1 <1>   0.3430 
 20 C       -6.7270   -11.2570    -1.3850 C.3   1 <1>   0.2630 
 21 C       -8.6920    -9.0650     1.6050 C.3   1 <1>  -0.1600 
 22 C       -8.9030    -8.7170    -0.9190 C.3   1 <1>   0.1200 
 23 C       -8.1880   -10.4630     2.0150 C.3   1 <1>  -0.1600 
 24 O      -10.0420    -7.9320    -0.8750 O.3   1 <1>  -0.6800 
 25 H       -2.4000    -2.7550    -1.8220 H     1 <1>   0.1500 
 26 H       -2.3040     0.6110     0.7730 H     1 <1>   0.1500 
 27 H       -2.5550    -0.8840     2.7320 H     1 <1>   0.1500 
 28 H       -2.7290    -3.3070     2.4040 H     1 <1>   0.1500 
 29 H       -2.1570    -5.0060    -0.8100 H     1 <1>   0.0800 
 30 H       -2.2500    -5.2200     0.9110 H     1 <1>   0.0800 
 31 H       -4.5950    -4.5820    -0.8910 H     1 <1>   0.0800 
 32 H       -4.6940    -4.8210     0.8330 H     1 <1>   0.0800 
 33 H       -6.2600    -8.6170    -1.9340 H     1 <1>   0.0800 
 34 H       -4.8250    -9.0190    -1.0370 H     1 <1>   0.0800 
 35 H       -6.7230    -5.3000    -0.3340 H     1 <1>   0.0800 
 36 H       -7.4090    -6.3780    -1.5100 H     1 <1>   0.0800 
 37 H       -6.0810    -9.0060     1.0440 H     1 <1>   0.0800 
 38 H       -7.2180    -6.8200     1.4730 H     1 <1>   0.0800 
 39 H       -8.6680    -6.4360     0.6220 H     1 <1>   0.0800 
 40 H       -5.8460   -11.0560     0.4520 H     1 <1>   0.4500 
 41 H       -8.7120   -11.4200     0.1860 H     1 <1>   0.0800 
 42 H       -7.5550   -12.3170     1.1330 H     1 <1>   0.0800 
 43 H       -7.5940   -10.9040    -1.9200 H     1 <1>   0.0800 
 44 H       -6.7500   -12.3350    -1.3690 H     1 <1>   0.0800 
 45 H       -5.8420   -10.9470    -1.9170 H     1 <1>   0.0800 
 46 H       -8.5360    -8.4100     2.4470 H     1 <1>   0.0800 
 47 H       -9.7580    -9.1080     1.4600 H     1 <1>   0.0800 
 48 H       -9.2220    -9.7410    -1.0010 H     1 <1>   0.0800 
 49 H       -8.3900    -8.4490    -1.8250 H     1 <1>   0.0800 
 50 H       -8.9500   -10.9560     2.5930 H     1 <1>   0.0800 
 51 H       -7.3220   -10.3740     2.6490 H     1 <1>   0.0800 
 52 H      -10.6300    -8.1700    -0.1310 H     1 <1>   0.4000 
@<TRIPOS>BOND
  1   1   2  1   
  2   2   3  ar  
  3   2   4  ar  
  4   3   5  ar  
  5   3  25  1   
  6   4   6  ar  
  7   4  26  1   
  8   5   7  ar  
  9   5   8  1   
 10   6   7  ar  
 11   6  27  1   
 12   7  28  1   
 13   8   9  1   
 14   8  29  1   
 15   8  30  1   
 16   9  10  1   
 17   9  31  1   
 18   9  32  1   
 19  10  11  2   
 20  10  12  am  
 21  12  13  1   
 22  12  14  1   
 23  13  15  1   
 24  13  33  1   
 25  13  34  1   
 26  14  16  1   
 27  14  35  1   
 28  14  36  1   
 29  15  17  1   
 30  15  18  1   
 31  15  37  1   
 32  16  18  1   
 33  16  38  1   
 34  16  39  1   
 35  17  19  1   
 36  17  20  1   
 37  17  40  1   
 38  18  21  1   
 39  18  22  1   
 40  19  23  1   
 41  19  41  1   
 42  19  42  1   
 43  20  43  1   
 44  20  44  1   
 45  20  45  1   
 46  21  23  1   
 47  21  46  1   
 48  21  47  1   
 49  22  24  1   
 50  22  48  1   
 51  22  49  1   
 52  23  50  1   
 53  23  51  1   
 54  24  52  1   
@<TRIPOS>SUBSTRUCTURE
  1 ****  12 GROUP 4 **** **** 0

# MOE 2024.06 (io_trps.svl 2023.06)
