@<TRIPOS>MOLECULE
NONAME
48 49 1 0 0 
SMALL
USER_CHARGES


@<TRIPOS>ATOM
  1 S        1.1020    -0.3950    -0.9990 S.o2  1 <1>   1.3330 
  2 O        2.3590    -0.8340    -0.4350 O.2   1 <1>  -0.6500 
  3 O        0.8450    -0.5980    -2.4070 O.2   1 <1>  -0.6500 
  4 N       -0.1490    -1.1780    -0.1560 N.am  1 <1>  -0.8490 
  5 C        0.8480     1.3430    -0.6030 C.3   1 <1>  -0.0550 
  6 C        0.2050    -2.5530     0.2120 C.3   1 <1>   0.1160 
  7 C       -1.4290    -1.1750    -0.8750 C.3   1 <1>   0.1160 
  8 C        1.3650     1.8520     0.7620 C.3   1 <1>  -0.0800 
  9 C        2.8920     1.8500     0.8720 C.3   1 <1>   0.2200 
 10 C        0.9040     1.0930     2.0120 C.3   1 <1>   0.1200 
 11 N        3.3670     3.2390     1.0620 N.am  1 <1>  -0.7300 
 12 C        3.1490     1.0190     2.1270 C.3   1 <1>   0.1200 
 13 O        1.9870     1.1410     2.8820 O.3   1 <1>  -0.5600 
 14 C        3.6010     4.1240     0.0500 C.2   1 <1>   0.5440 
 15 O        3.4020     3.7510    -1.0900 O.2   1 <1>  -0.5700 
 16 C        4.0700     5.4720     0.3250 C.ar  1 <1>   0.0860 
 17 C        4.7900     6.1830    -0.6330 C.ar  1 <1>  -0.1500 
 18 C        3.8230     6.1090     1.5430 C.ar  1 <1>  -0.1500 
 19 C        5.2580     7.4700    -0.3930 C.ar  1 <1>   0.0820 
 20 C        4.2840     7.3870     1.7940 C.ar  1 <1>  -0.1500 
 21 O        5.9640     8.1810    -1.3120 O.3   1 <1>  -0.3620 
 22 C        5.0050     8.0760     0.8340 C.ar  1 <1>  -0.1440 
 23 C        6.2230     7.6740    -2.6030 C.3   1 <1>   0.0400 
 24 C        5.5080     9.4830     1.1240 C.3   1 <1>  -0.0970 
 25 H        1.3360     1.9280    -1.3600 H     1 <1>   0.0800 
 26 H       -0.1980     1.5620    -0.6750 H     1 <1>   0.0800 
 27 H       -0.6040    -3.0170     0.7500 H     1 <1>   0.0800 
 28 H        1.0740    -2.5520     0.8500 H     1 <1>   0.0800 
 29 H        0.4250    -3.1320    -0.6700 H     1 <1>   0.0800 
 30 H       -2.2020    -1.5960    -0.2550 H     1 <1>   0.0800 
 31 H       -1.3540    -1.7530    -1.7820 H     1 <1>   0.0800 
 32 H       -1.7110    -0.1690    -1.1320 H     1 <1>   0.0800 
 33 H        1.0090     2.8620     0.8660 H     1 <1>   0.0800 
 34 H        3.3850     1.4150     0.0180 H     1 <1>   0.0800 
 35 H        0.6980     0.0560     1.8240 H     1 <1>   0.0800 
 36 H        0.0540     1.5530     2.4840 H     1 <1>   0.0800 
 37 H        3.4630     3.5270     2.0370 H     1 <1>   0.3700 
 38 H        3.9940     1.3610     2.6960 H     1 <1>   0.0800 
 39 H        3.2720    -0.0210     1.8750 H     1 <1>   0.0800 
 40 H        4.9740     5.6970    -1.5720 H     1 <1>   0.1500 
 41 H        3.2570     5.6050     2.3050 H     1 <1>   0.1500 
 42 H        4.0770     7.8480     2.7450 H     1 <1>   0.1500 
 43 H        6.7720     8.4190    -3.1500 H     1 <1>   0.0800 
 44 H        5.2870     7.4760    -3.0940 H     1 <1>   0.0800 
 45 H        6.8110     6.7780    -2.5150 H     1 <1>   0.0800 
 46 H        5.2330     9.8000     2.1130 H     1 <1>   0.0800 
 47 H        5.0890    10.1710     0.4120 H     1 <1>   0.0800 
 48 H        6.5790     9.5100     1.0390 H     1 <1>   0.0800 
@<TRIPOS>BOND
  1   1   2  2   
  2   1   3  2   
  3   1   4  am  
  4   1   5  1   
  5   4   6  1   
  6   4   7  1   
  7   5   8  1   
  8   5  25  1   
  9   5  26  1   
 10   6  27  1   
 11   6  28  1   
 12   6  29  1   
 13   7  30  1   
 14   7  31  1   
 15   7  32  1   
 16   8   9  1   
 17   8  10  1   
 18   8  33  1   
 19   9  11  1   
 20   9  12  1   
 21   9  34  1   
 22  10  13  1   
 23  10  35  1   
 24  10  36  1   
 25  11  14  am  
 26  11  37  1   
 27  12  13  1   
 28  12  38  1   
 29  12  39  1   
 30  14  15  2   
 31  14  16  1   
 32  16  17  ar  
 33  16  18  ar  
 34  17  19  ar  
 35  17  40  1   
 36  18  20  ar  
 37  18  41  1   
 38  19  21  1   
 39  19  22  ar  
 40  20  22  ar  
 41  20  42  1   
 42  21  23  1   
 43  22  24  1   
 44  23  43  1   
 45  23  44  1   
 46  23  45  1   
 47  24  46  1   
 48  24  47  1   
 49  24  48  1   
@<TRIPOS>SUBSTRUCTURE
  1 ****  11 GROUP 4 **** **** 0

# MOE 2024.06 (io_trps.svl 2023.06)
