@<TRIPOS>MOLECULE
NONAME
47 51 1 0 0 
SMALL
USER_CHARGES


@<TRIPOS>ATOM
  1 S       -0.3700     0.5500     1.9660 S.3   1 <1>  -0.0800 
  2 C       -0.1100     1.8560     0.8290 C.2   1 <1>  -0.1400 
  3 C        1.2040     0.8440     2.6920 C.2   1 <1>  -0.1100 
  4 C        1.0820     2.4400     1.0010 C.2   1 <1>  -0.1810 
  5 C       -1.1330     2.2470    -0.2020 C.3   1 <1>   0.0200 
  6 C        1.8370     1.8620     2.0770 C.2   1 <1>  -0.1500 
  7 C        1.5280     3.5960     0.1050 C.3   1 <1>   0.4610 
  8 C       -0.7760     3.6650    -0.6760 C.3   1 <1>   0.1200 
  9 O        0.6020     3.7850    -0.9500 O.3   1 <1>  -0.5600 
 10 C        2.8640     3.2610    -0.5670 C.3   1 <1>  -0.1600 
 11 C        1.6370     4.9060     0.8980 C.3   1 <1>  -0.1600 
 12 C        3.3690     4.4350    -1.4010 C.3   1 <1>   0.2090 
 13 C        2.1730     6.0410     0.0260 C.3   1 <1>   0.2090 
 14 N        3.5100     5.6320    -0.5070 N.pl3 1 <1>  -0.8380 
 15 C        4.7080     6.1770    -0.1840 C.ar  1 <1>   0.4610 
 16 N        4.7550     7.3920     0.3610 N.ar  1 <1>  -0.1790 
 17 C        5.9520     5.5400    -0.3810 C.ar  1 <1>  -0.1500 
 18 C        5.9130     8.0620     0.7020 C.ar  1 <1>   0.3610 
 19 C        7.1570     6.1100    -0.0590 C.ar  1 <1>  -0.1790 
 20 C        7.1540     7.4390     0.4850 C.ar  1 <1>   0.0000 
 21 C        5.8500     9.3520     1.2420 C.ar  1 <1>  -0.1500 
 22 C        8.3700     5.3500    -0.2730 C.2   1 <1>   0.9790 
 23 C        8.3070     8.1750     0.8060 C.ar  1 <1>  -0.1500 
 24 C        6.9970    10.0390     1.5540 C.ar  1 <1>  -0.1500 
 25 O        9.2940     5.3690     0.5520 O.co2 1 <1>  -0.9000 
 26 O        8.4550     4.6260    -1.2760 O.co2 1 <1>  -0.9000 
 27 C        8.2330     9.4430     1.3300 C.ar  1 <1>  -0.1500 
 28 H        1.4910     0.2130     3.5140 H     1 <1>   0.1500 
 29 H       -2.1200     2.2420     0.2260 H     1 <1>   0.0800 
 30 H       -1.1080     1.5580    -1.0260 H     1 <1>   0.0800 
 31 H        2.8140     2.2290     2.3400 H     1 <1>   0.1500 
 32 H       -1.0400     4.3860     0.0780 H     1 <1>   0.0800 
 33 H       -1.3140     3.8990    -1.5780 H     1 <1>   0.0800 
 34 H        2.7360     2.3950    -1.1910 H     1 <1>   0.0800 
 35 H        3.6030     3.0200     0.1740 H     1 <1>   0.0800 
 36 H        2.3040     4.7600     1.7270 H     1 <1>   0.0800 
 37 H        0.6780     5.1670     1.3040 H     1 <1>   0.0800 
 38 H        2.6600     4.6550    -2.1820 H     1 <1>   0.0800 
 39 H        4.2930     4.1770    -1.8860 H     1 <1>   0.0800 
 40 H        2.2330     6.9370     0.6160 H     1 <1>   0.0800 
 41 H        1.4970     6.2250    -0.7950 H     1 <1>   0.0800 
 42 H        3.8730     7.8700     0.4720 H     1 <1>   0.4570 
 43 H        5.9700     4.5430    -0.7820 H     1 <1>   0.1500 
 44 H        4.8980     9.8210     1.4140 H     1 <1>   0.1500 
 45 H        9.2800     7.7400     0.6410 H     1 <1>   0.1500 
 46 H        6.9590    11.0330     1.9700 H     1 <1>   0.1500 
 47 H        9.1370     9.9790     1.5710 H     1 <1>   0.1500 
@<TRIPOS>BOND
  1   1   2  1   
  2   1   3  1   
  3   2   4  2   
  4   2   5  1   
  5   3   6  2   
  6   3  28  1   
  7   4   6  1   
  8   4   7  1   
  9   5   8  1   
 10   5  29  1   
 11   5  30  1   
 12   6  31  1   
 13   7   9  1   
 14   7  10  1   
 15   7  11  1   
 16   8   9  1   
 17   8  32  1   
 18   8  33  1   
 19  10  12  1   
 20  10  34  1   
 21  10  35  1   
 22  11  13  1   
 23  11  36  1   
 24  11  37  1   
 25  12  14  1   
 26  12  38  1   
 27  12  39  1   
 28  13  14  1   
 29  13  40  1   
 30  13  41  1   
 31  14  15  1   
 32  15  16  ar  
 33  15  17  ar  
 34  16  18  ar  
 35  16  42  1   
 36  17  19  ar  
 37  17  43  1   
 38  18  20  ar  
 39  18  21  ar  
 40  19  20  ar  
 41  19  22  1   
 42  20  23  ar  
 43  21  24  ar  
 44  21  44  1   
 45  22  25  ar  
 46  22  26  ar  
 47  23  27  ar  
 48  23  45  1   
 49  24  27  ar  
 50  24  46  1   
 51  27  47  1   
@<TRIPOS>SUBSTRUCTURE
  1 ****  14 GROUP 4 **** **** 0

# MOE 2024.06 (io_trps.svl 2023.06)
