@<TRIPOS>MOLECULE
NONAME
59 61 1 0 0 
SMALL
USER_CHARGES


@<TRIPOS>ATOM
  1 O       -1.9110    -0.7100    -0.7400 O.2   1 <1>  -0.5700 
  2 C       -1.2760    -1.5250    -0.0910 C.2   1 <1>   0.6900 
  3 N       -1.3810    -2.8580    -0.3970 N.am  1 <1>  -0.6600 
  4 N       -0.4750    -1.1030     0.9460 N.am  1 <1>  -0.6600 
  5 C       -1.6990    -3.8540     0.6560 C.3   1 <1>   0.1400 
  6 C       -1.7290    -3.2880    -1.7740 C.3   1 <1>   0.1400 
  7 C        0.7680    -1.8180     1.3410 C.3   1 <1>   0.0600 
  8 C       -0.6030     0.2720     1.4970 C.3   1 <1>   0.0600 
  9 C       -3.2020    -4.1430     0.6410 C.3   1 <1>  -0.1600 
 10 C       -3.2320    -3.5600    -1.8620 C.3   1 <1>  -0.1600 
 11 C       -3.6970    -4.5430    -0.7650 C.3   1 <1>  -0.0190 
 12 C       -5.1950    -4.8800    -0.7940 C.2   1 <1>   0.5690 
 13 O       -5.4590    -6.0610    -0.8440 O.2   1 <1>  -0.5700 
 14 N       -6.2090    -3.9450    -0.7570 N.am  1 <1>  -0.6600 
 15 C       -7.6230    -4.4230    -0.8610 C.3   1 <1>   0.1400 
 16 C       -6.0400    -2.4660    -0.6060 C.3   1 <1>   0.1400 
 17 C       -8.5500    -3.3080    -1.3490 C.3   1 <1>  -0.1600 
 18 C       -7.1700    -1.9040     0.2570 C.3   1 <1>  -0.1600 
 19 C       -8.5600    -2.0830    -0.4060 C.3   1 <1>   0.2800 
 20 O       -8.8240    -0.9950    -1.2520 O.3   1 <1>  -0.5600 
 21 C       -9.7020    -2.2210     0.6290 C.3   1 <1>  -0.1600 
 22 C       -9.1160     0.2620    -0.7080 C.3   1 <1>   0.1200 
 23 C      -10.1220    -0.9080     1.2950 C.3   1 <1>   0.2800 
 24 C      -10.3190     0.1700     0.2320 C.3   1 <1>  -0.1600 
 25 O       -9.1230    -0.5010     2.1440 O.3   1 <1>  -0.6800 
 26 C      -11.3690    -1.0820     2.1570 C.3   1 <1>  -0.2400 
 27 H       -1.4180    -3.4790     1.6240 H     1 <1>   0.0800 
 28 H       -1.1440    -4.7560     0.4660 H     1 <1>   0.0800 
 29 H       -1.1750    -4.1780    -2.0160 H     1 <1>   0.0800 
 30 H       -1.4530    -2.5190    -2.4770 H     1 <1>   0.0800 
 31 H        0.9460    -2.6580     0.6930 H     1 <1>   0.0800 
 32 H        0.6780    -2.1670     2.3550 H     1 <1>   0.0800 
 33 H        1.6100    -1.1520     1.2700 H     1 <1>   0.0800 
 34 H       -1.5820     0.6690     1.2880 H     1 <1>   0.0800 
 35 H        0.1330     0.9130     1.0440 H     1 <1>   0.0800 
 36 H       -0.4590     0.2550     2.5620 H     1 <1>   0.0800 
 37 H       -3.7150    -3.2720     1.0000 H     1 <1>   0.0800 
 38 H       -3.4120    -4.9420     1.3300 H     1 <1>   0.0800 
 39 H       -3.4630    -3.9670    -2.8300 H     1 <1>   0.0800 
 40 H       -3.7290    -2.6140    -1.7860 H     1 <1>   0.0800 
 41 H       -3.1950    -5.4690    -0.9910 H     1 <1>   0.0800 
 42 H       -7.9430    -4.7750     0.1050 H     1 <1>   0.0800 
 43 H       -7.6730    -5.2490    -1.5510 H     1 <1>   0.0800 
 44 H       -6.0610    -2.0020    -1.5780 H     1 <1>   0.0800 
 45 H       -5.1020    -2.2280    -0.1430 H     1 <1>   0.0800 
 46 H       -9.5390    -3.7060    -1.4740 H     1 <1>   0.0800 
 47 H       -8.2080    -3.0120    -2.3250 H     1 <1>   0.0800 
 48 H       -6.9560    -0.8760     0.4690 H     1 <1>   0.0800 
 49 H       -7.1440    -2.4310     1.1940 H     1 <1>   0.0800 
 50 H       -9.4460    -2.9470     1.3780 H     1 <1>   0.0800 
 51 H      -10.5690    -2.6000     0.1210 H     1 <1>   0.0800 
 52 H       -9.3420     0.9210    -1.5290 H     1 <1>   0.0800 
 53 H       -8.2490     0.6460    -0.2030 H     1 <1>   0.0800 
 54 H      -11.1860    -0.0650    -0.3590 H     1 <1>   0.0800 
 55 H      -10.4950     1.1220     0.7000 H     1 <1>   0.0800 
 56 H       -8.2930    -0.4240     1.6430 H     1 <1>   0.4000 
 57 H      -12.2010    -1.3950     1.5530 H     1 <1>   0.0800 
 58 H      -11.6260    -0.1530     2.6340 H     1 <1>   0.0800 
 59 H      -11.1980    -1.8280     2.9130 H     1 <1>   0.0800 
@<TRIPOS>BOND
  1   1   2  2   
  2   2   3  am  
  3   2   4  am  
  4   3   5  1   
  5   3   6  1   
  6   4   7  1   
  7   4   8  1   
  8   5   9  1   
  9   5  27  1   
 10   5  28  1   
 11   6  10  1   
 12   6  29  1   
 13   6  30  1   
 14   7  31  1   
 15   7  32  1   
 16   7  33  1   
 17   8  34  1   
 18   8  35  1   
 19   8  36  1   
 20   9  11  1   
 21   9  37  1   
 22   9  38  1   
 23  10  11  1   
 24  10  39  1   
 25  10  40  1   
 26  11  12  1   
 27  11  41  1   
 28  12  13  2   
 29  12  14  am  
 30  14  15  1   
 31  14  16  1   
 32  15  17  1   
 33  15  42  1   
 34  15  43  1   
 35  16  18  1   
 36  16  44  1   
 37  16  45  1   
 38  17  19  1   
 39  17  46  1   
 40  17  47  1   
 41  18  19  1   
 42  18  48  1   
 43  18  49  1   
 44  19  20  1   
 45  19  21  1   
 46  20  22  1   
 47  21  23  1   
 48  21  50  1   
 49  21  51  1   
 50  22  24  1   
 51  22  52  1   
 52  22  53  1   
 53  23  24  1   
 54  23  25  1   
 55  23  26  1   
 56  24  54  1   
 57  24  55  1   
 58  25  56  1   
 59  26  57  1   
 60  26  58  1   
 61  26  59  1   
@<TRIPOS>SUBSTRUCTURE
  1 ****  16 GROUP 4 **** **** 0

# MOE 2024.06 (io_trps.svl 2023.06)
