@<TRIPOS>MOLECULE
NONAME
52 55 1 0 0 
SMALL
USER_CHARGES


@<TRIPOS>ATOM
  1 O       -2.7560     1.3250    -3.0200 O.2   1 <1>  -0.5700 
  2 C       -2.3870     1.9840    -2.0890 C.2   1 <1>   0.6590 
  3 O       -3.1630     2.3490    -1.0900 O.3   1 <1>  -0.4300 
  4 C       -0.9770     2.4610    -1.8860 C.3   1 <1>  -0.0990 
  5 C       -2.4650     3.0050    -0.0580 C.3   1 <1>   0.2800 
  6 C       -1.1490     3.4600    -0.7350 C.3   1 <1>  -0.0190 
  7 C       -2.2020     1.9520     1.0400 C.3   1 <1>  -0.1600 
  8 C       -3.3640     4.1370     0.5040 C.3   1 <1>  -0.1600 
  9 C       -1.2190     4.8910    -1.2580 C.2   1 <1>   0.5690 
 10 C       -3.4930     1.3000     1.5800 C.3   1 <1>  -0.1600 
 11 C       -4.3340     3.7000     1.6220 C.3   1 <1>  -0.1600 
 12 O       -1.8890     5.1310    -2.2310 O.2   1 <1>  -0.5700 
 13 N       -0.4960     5.8450    -0.5950 N.am  1 <1>  -0.4940 
 14 C       -4.7230     2.2230     1.5110 C.3   1 <1>  -0.1600 
 15 C       -0.3450     7.2350    -0.7980 C.2   1 <1>  -0.0880 
 16 N       -1.2130     8.1260    -1.3530 N.pl3 1 <1>   0.3140 
 17 C        0.7480     7.9470    -0.4070 C.2   1 <1>  -0.0540 
 18 N       -0.7100     9.3800    -1.3250 N.2   1 <1>  -0.7070 
 19 C       -2.5710     7.9100    -1.8700 C.3   1 <1>   0.0160 
 20 C        1.9360     7.4480     0.2360 C.ar  1 <1>   0.0540 
 21 C        0.4500     9.2630    -0.7710 C.2   1 <1>   0.1080 
 22 C        2.2760     7.8420     1.5270 C.ar  1 <1>  -0.1500 
 23 C        2.7690     6.5440    -0.4150 C.ar  1 <1>  -0.1500 
 24 C        1.3610    10.4520    -0.5600 C.3   1 <1>  -0.0590 
 25 C        3.4070     7.3460     2.1490 C.ar  1 <1>  -0.1500 
 26 C        3.9010     6.0430     0.2010 C.ar  1 <1>  -0.1500 
 27 C        4.2220     6.4440     1.4870 C.ar  1 <1>  -0.1500 
 28 H       -0.5910     2.9060    -2.7850 H     1 <1>   0.0800 
 29 H       -0.3680     1.6260    -1.5960 H     1 <1>   0.0800 
 30 H       -0.3240     3.3850    -0.0490 H     1 <1>   0.0800 
 31 H       -1.7040     2.4420     1.8590 H     1 <1>   0.0800 
 32 H       -1.5400     1.1830     0.6830 H     1 <1>   0.0800 
 33 H       -3.9240     4.5660    -0.3090 H     1 <1>   0.0800 
 34 H       -2.7520     4.9180     0.9190 H     1 <1>   0.0800 
 35 H       -3.3270     0.9970     2.5990 H     1 <1>   0.0800 
 36 H       -3.7080     0.4110     1.0110 H     1 <1>   0.0800 
 37 H       -5.2190     4.3140     1.5910 H     1 <1>   0.0800 
 38 H       -3.8670     3.8560     2.5800 H     1 <1>   0.0800 
 39 H        0.1370     5.4880     0.1240 H     1 <1>   0.3700 
 40 H       -5.4170     1.9610     2.2910 H     1 <1>   0.0800 
 41 H       -5.2270     2.0720     0.5700 H     1 <1>   0.0800 
 42 H       -3.0860     7.2080    -1.2420 H     1 <1>   0.0800 
 43 H       -2.5080     7.5290    -2.8720 H     1 <1>   0.0800 
 44 H       -3.1000     8.8440    -1.8740 H     1 <1>   0.0800 
 45 H        1.6430     8.5420     2.0440 H     1 <1>   0.1500 
 46 H        2.5230     6.2390    -1.4180 H     1 <1>   0.1500 
 47 H        2.3900    10.1490    -0.6100 H     1 <1>   0.0800 
 48 H        1.1640    10.8900     0.4000 H     1 <1>   0.0800 
 49 H        1.1770    11.1860    -1.3230 H     1 <1>   0.0800 
 50 H        3.6560     7.6610     3.1480 H     1 <1>   0.1500 
 51 H        4.5370     5.3470    -0.3180 H     1 <1>   0.1500 
 52 H        5.1030     6.0580     1.9690 H     1 <1>   0.1500 
@<TRIPOS>BOND
  1   1   2  2   
  2   2   3  1   
  3   2   4  1   
  4   3   5  1   
  5   4   6  1   
  6   4  28  1   
  7   4  29  1   
  8   5   6  1   
  9   5   7  1   
 10   5   8  1   
 11   6   9  1   
 12   6  30  1   
 13   7  10  1   
 14   7  31  1   
 15   7  32  1   
 16   8  11  1   
 17   8  33  1   
 18   8  34  1   
 19   9  12  2   
 20   9  13  am  
 21  10  14  1   
 22  10  35  1   
 23  10  36  1   
 24  11  14  1   
 25  11  37  1   
 26  11  38  1   
 27  13  15  1   
 28  13  39  1   
 29  14  40  1   
 30  14  41  1   
 31  15  16  1   
 32  15  17  2   
 33  16  18  1   
 34  16  19  1   
 35  17  20  1   
 36  17  21  1   
 37  18  21  2   
 38  19  42  1   
 39  19  43  1   
 40  19  44  1   
 41  20  22  ar  
 42  20  23  ar  
 43  21  24  1   
 44  22  25  ar  
 45  22  45  1   
 46  23  26  ar  
 47  23  46  1   
 48  24  47  1   
 49  24  48  1   
 50  24  49  1   
 51  25  27  ar  
 52  25  50  1   
 53  26  27  ar  
 54  26  51  1   
 55  27  52  1   
@<TRIPOS>SUBSTRUCTURE
  1 ****  13 GROUP 4 **** **** 0

# MOE 2024.06 (io_trps.svl 2023.06)
