@<TRIPOS>MOLECULE
NONAME
45 47 1 0 0 
SMALL
USER_CHARGES


@<TRIPOS>ATOM
  1 O       -0.5830     0.8730     0.9030 O.2   1 <1>  -0.5700 
  2 C       -0.4340     2.0640     0.8050 C.2   1 <1>   0.5690 
  3 N       -1.4790     2.9050     0.9630 N.am  1 <1>  -0.7300 
  4 C        0.9430     2.6400     0.4580 C.3   1 <1>   0.1810 
  5 C       -1.3720     4.3800     0.8550 C.3   1 <1>   0.3640 
  6 O        1.0550     4.0210     0.7280 O.3   1 <1>  -0.5600 
  7 C       -2.5350     4.8970     0.0110 C.ar  1 <1>  -0.1440 
  8 C       -0.0170     4.8140     0.2380 C.3   1 <1>   0.2610 
  9 C       -3.2120     6.0420     0.4060 C.ar  1 <1>  -0.1500 
 10 C       -2.9260     4.2550    -1.1580 C.ar  1 <1>  -0.1500 
 11 C        0.2560     6.3110     0.4740 C.2   1 <1>   0.5690 
 12 C       -4.2610     6.5370    -0.3500 C.ar  1 <1>  -0.1500 
 13 C       -3.9740     4.7480    -1.9150 C.ar  1 <1>  -0.1500 
 14 O       -0.2650     6.8590     1.4210 O.2   1 <1>  -0.5700 
 15 N        1.0700     7.0220    -0.3810 N.am  1 <1>  -0.6600 
 16 C       -4.6430     5.8900    -1.5120 C.ar  1 <1>  -0.1500 
 17 C        1.1970     8.5030    -0.2500 C.3   1 <1>   0.1400 
 18 C        1.9030     6.4130    -1.4570 C.3   1 <1>   0.0600 
 19 C        2.2750     8.8620     0.7730 C.3   1 <1>   0.0210 
 20 C        2.5070    10.3570     0.7840 C.2   1 <1>   0.3350 
 21 N        2.2450    11.1350     1.7560 N.2   1 <1>  -0.4100 
 22 N        3.0240    10.9780    -0.2670 N.2   1 <1>  -0.5650 
 23 O        2.5830    12.3330     1.3880 O.3   1 <1>  -0.0190 
 24 C        3.0410    12.1700     0.1720 C.2   1 <1>   0.2980 
 25 C        3.5380    13.3800    -0.5860 C.3   1 <1>  -0.0600 
 26 H       -2.3970     2.5200     1.1920 H     1 <1>   0.3700 
 27 H        1.1420     2.4810    -0.5860 H     1 <1>   0.0800 
 28 H        1.6940     2.1320     1.0350 H     1 <1>   0.0800 
 29 H       -1.4510     4.7830     1.8510 H     1 <1>   0.0800 
 30 H       -0.0720     4.6560    -0.8220 H     1 <1>   0.0800 
 31 H       -2.9240     6.5630     1.3050 H     1 <1>   0.1500 
 32 H       -2.4200     3.3640    -1.4890 H     1 <1>   0.1500 
 33 H       -4.7770     7.4260    -0.0340 H     1 <1>   0.1500 
 34 H       -4.2720     4.2430    -2.8180 H     1 <1>   0.1500 
 35 H       -5.4580     6.2740    -2.0990 H     1 <1>   0.1500 
 36 H        1.4410     8.9300    -1.2080 H     1 <1>   0.0800 
 37 H        0.2550     8.9210     0.0660 H     1 <1>   0.0800 
 38 H        2.8410     6.9360    -1.5350 H     1 <1>   0.0800 
 39 H        1.3860     6.4820    -2.3980 H     1 <1>   0.0800 
 40 H        2.1160     5.3810    -1.2410 H     1 <1>   0.0800 
 41 H        3.1980     8.3750     0.5240 H     1 <1>   0.0800 
 42 H        1.9640     8.5430     1.7510 H     1 <1>   0.0800 
 43 H        3.8800    13.0860    -1.5610 H     1 <1>   0.0800 
 44 H        4.3510    13.8330    -0.0510 H     1 <1>   0.0800 
 45 H        2.7410    14.0920    -0.6920 H     1 <1>   0.0800 
@<TRIPOS>BOND
  1   1   2  2   
  2   2   3  am  
  3   2   4  1   
  4   3   5  1   
  5   3  26  1   
  6   4   6  1   
  7   4  27  1   
  8   4  28  1   
  9   5   7  1   
 10   5   8  1   
 11   5  29  1   
 12   6   8  1   
 13   7   9  ar  
 14   7  10  ar  
 15   8  11  1   
 16   8  30  1   
 17   9  12  ar  
 18   9  31  1   
 19  10  13  ar  
 20  10  32  1   
 21  11  14  2   
 22  11  15  am  
 23  12  16  ar  
 24  12  33  1   
 25  13  16  ar  
 26  13  34  1   
 27  15  17  1   
 28  15  18  1   
 29  16  35  1   
 30  17  19  1   
 31  17  36  1   
 32  17  37  1   
 33  18  38  1   
 34  18  39  1   
 35  18  40  1   
 36  19  20  1   
 37  19  41  1   
 38  19  42  1   
 39  20  21  2   
 40  20  22  1   
 41  21  23  1   
 42  22  24  2   
 43  23  24  1   
 44  24  25  1   
 45  25  43  1   
 46  25  44  1   
 47  25  45  1   
@<TRIPOS>SUBSTRUCTURE
  1 ****  11 GROUP 4 **** **** 0

# MOE 2024.06 (io_trps.svl 2023.06)
