@<TRIPOS>MOLECULE
NONAME
61 64 1 0 0 
SMALL
USER_CHARGES


@<TRIPOS>ATOM
  1 O       -1.3660     0.3260     0.3750 O.2   1 <1>  -0.5700 
  2 C       -2.1300     1.1160    -0.1530 C.2   1 <1>   0.5440 
  3 N       -3.2170     0.5910    -0.8170 N.am  1 <1>  -0.6600 
  4 C       -1.9020     2.5470    -0.0420 C.ar  1 <1>   0.0860 
  5 C       -3.1920    -0.8360    -1.2290 C.3   1 <1>   0.1400 
  6 C       -4.5870     1.1150    -0.5610 C.3   1 <1>   0.1400 
  7 C       -2.2690     3.4340    -1.0550 C.ar  1 <1>  -0.1500 
  8 C       -1.2970     3.0950     1.0890 C.ar  1 <1>  -0.1500 
  9 C       -3.7850    -1.6920    -0.0870 C.3   1 <1>   0.4230 
 10 C       -5.2150     0.2820     0.5660 C.3   1 <1>  -0.1600 
 11 C       -2.0480     4.7930    -0.9400 C.ar  1 <1>  -0.1500 
 12 C       -1.0760     4.4540     1.2040 C.ar  1 <1>  -0.1500 
 13 N       -3.6230    -3.1920    -0.2890 N.4   1 <1>  -0.9590 
 14 C       -5.2350    -1.2500     0.2800 C.3   1 <1>   0.0000 
 15 C       -1.4370     5.3380     0.1880 C.ar  1 <1>   0.0860 
 16 C       -4.5290    -4.0260     0.5670 C.3   1 <1>   0.3430 
 17 C       -3.6780    -3.6650    -1.7100 C.3   1 <1>   0.2630 
 18 C       -5.6850    -1.9920     1.5740 C.3   1 <1>  -0.1600 
 19 C       -6.2060    -1.5670    -0.8930 C.3   1 <1>   0.1200 
 20 C       -1.1960     6.7650     0.2900 C.2   1 <1>   0.5440 
 21 C       -4.9000    -3.2890     1.8520 C.3   1 <1>  -0.1600 
 22 O       -7.4560    -1.0060    -0.6920 O.3   1 <1>  -0.6800 
 23 O       -2.1070     7.5370     0.0600 O.2   1 <1>  -0.5700 
 24 N        0.0420     7.2730     0.6270 N.am  1 <1>  -0.6600 
 25 C        0.2520     8.7220     0.9280 C.3   1 <1>   0.1400 
 26 C        1.3220     6.5140     0.4890 C.3   1 <1>   0.1400 
 27 C        1.2820     9.3310    -0.0360 C.3   1 <1>   0.1200 
 28 C        2.2910     7.2550    -0.4480 C.3   1 <1>   0.1200 
 29 O        2.4640     8.5800    -0.0350 O.3   1 <1>  -0.5600 
 30 H       -3.7490    -0.9440    -2.1410 H     1 <1>   0.0800 
 31 H       -2.1740    -1.1320    -1.4150 H     1 <1>   0.0800 
 32 H       -4.5490     2.1490    -0.2640 H     1 <1>   0.0800 
 33 H       -5.1780     1.0510    -1.4600 H     1 <1>   0.0800 
 34 H       -2.7310     3.0510    -1.9480 H     1 <1>   0.1500 
 35 H       -0.9980     2.4380     1.8880 H     1 <1>   0.1500 
 36 H       -3.1890    -1.4420     0.7760 H     1 <1>   0.0800 
 37 H       -4.6470     0.4790     1.4590 H     1 <1>   0.0800 
 38 H       -6.2100     0.6490     0.7520 H     1 <1>   0.0800 
 39 H       -2.3490     5.4570    -1.7330 H     1 <1>   0.1500 
 40 H       -0.6160     4.8470     2.0940 H     1 <1>   0.1500 
 41 H       -2.6660    -3.3810     0.0480 H     1 <1>   0.4500 
 42 H       -5.4350    -4.2490     0.0280 H     1 <1>   0.0800 
 43 H       -4.0470    -4.9600     0.8070 H     1 <1>   0.0800 
 44 H       -4.6420    -3.4530    -2.1420 H     1 <1>   0.0800 
 45 H       -3.5090    -4.7290    -1.7560 H     1 <1>   0.0800 
 46 H       -2.9190    -3.1780    -2.3010 H     1 <1>   0.0800 
 47 H       -5.5680    -1.3570     2.4360 H     1 <1>   0.0800 
 48 H       -6.7340    -2.2250     1.5200 H     1 <1>   0.0800 
 49 H       -6.3450    -2.6260    -1.0150 H     1 <1>   0.0800 
 50 H       -5.8440    -1.1650    -1.8220 H     1 <1>   0.0800 
 51 H       -5.4980    -3.9360     2.4720 H     1 <1>   0.0800 
 52 H       -4.0020    -3.0670     2.4040 H     1 <1>   0.0800 
 53 H       -7.8960    -1.3580     0.1070 H     1 <1>   0.4000 
 54 H       -0.6720     9.2680     0.8530 H     1 <1>   0.0800 
 55 H        0.6100     8.8240     1.9370 H     1 <1>   0.0800 
 56 H        1.7780     6.4080     1.4570 H     1 <1>   0.0800 
 57 H        1.1450     5.5310     0.0920 H     1 <1>   0.0800 
 58 H        1.5280    10.3330     0.2680 H     1 <1>   0.0800 
 59 H        0.8880     9.3610    -1.0380 H     1 <1>   0.0800 
 60 H        1.9170     7.2540    -1.4570 H     1 <1>   0.0800 
 61 H        3.2560     6.7790    -0.4360 H     1 <1>   0.0800 
@<TRIPOS>BOND
  1   1   2  2   
  2   2   3  am  
  3   2   4  1   
  4   3   5  1   
  5   3   6  1   
  6   4   7  ar  
  7   4   8  ar  
  8   5   9  1   
  9   5  30  1   
 10   5  31  1   
 11   6  10  1   
 12   6  32  1   
 13   6  33  1   
 14   7  11  ar  
 15   7  34  1   
 16   8  12  ar  
 17   8  35  1   
 18   9  13  1   
 19   9  14  1   
 20   9  36  1   
 21  10  14  1   
 22  10  37  1   
 23  10  38  1   
 24  11  15  ar  
 25  11  39  1   
 26  12  15  ar  
 27  12  40  1   
 28  13  16  1   
 29  13  17  1   
 30  13  41  1   
 31  14  18  1   
 32  14  19  1   
 33  15  20  1   
 34  16  21  1   
 35  16  42  1   
 36  16  43  1   
 37  17  44  1   
 38  17  45  1   
 39  17  46  1   
 40  18  21  1   
 41  18  47  1   
 42  18  48  1   
 43  19  22  1   
 44  19  49  1   
 45  19  50  1   
 46  20  23  2   
 47  20  24  am  
 48  21  51  1   
 49  21  52  1   
 50  22  53  1   
 51  24  25  1   
 52  24  26  1   
 53  25  27  1   
 54  25  54  1   
 55  25  55  1   
 56  26  28  1   
 57  26  56  1   
 58  26  57  1   
 59  27  29  1   
 60  27  58  1   
 61  27  59  1   
 62  28  29  1   
 63  28  60  1   
 64  28  61  1   
@<TRIPOS>SUBSTRUCTURE
  1 ****   4 GROUP 4 **** **** 0

# MOE 2024.06 (io_trps.svl 2023.06)
