@<TRIPOS>MOLECULE
NONAME
46 49 1 0 0 
SMALL
USER_CHARGES


@<TRIPOS>ATOM
  1 O       -0.9620     0.8980    -2.0960 O.2   1 <1>  -0.5700 
  2 C       -1.0910     1.4690    -1.0290 C.2   1 <1>   0.5440 
  3 N       -1.9350     0.9170    -0.0840 N.am  1 <1>  -0.6600 
  4 C       -0.3680     2.7060    -0.8000 C.ar  1 <1>   0.0860 
  5 C       -2.4270    -0.4820    -0.2600 C.3   1 <1>   0.1400 
  6 C       -2.4970     1.6920     1.0620 C.3   1 <1>   0.1400 
  7 C        0.3500     2.9330     0.3650 C.ar  1 <1>  -0.1500 
  8 C       -0.3740     3.7180    -1.7850 C.ar  1 <1>  -0.1500 
  9 C       -3.6600    -0.5350    -1.1760 C.3   1 <1>   0.1400 
 10 C       -4.0110     1.5180     1.2430 C.3   1 <1>  -0.1600 
 11 C        1.0180     4.1400     0.5540 C.ar  1 <1>   0.2270 
 12 C        0.2870     4.9110    -1.6100 C.ar  1 <1>  -0.1500 
 13 N       -4.8890     0.0060    -0.5100 N.am  1 <1>  -0.6600 
 14 C       -4.7970     1.4270    -0.0690 C.3   1 <1>   0.1400 
 15 N        1.7560     4.5860     1.6010 N.2   1 <1>  -0.2270 
 16 C        0.9840     5.1070    -0.4150 C.ar  1 <1>  -0.1520 
 17 C       -6.0400    -0.7150    -0.2630 C.2   1 <1>   0.5690 
 18 N        2.1750     5.7630     1.3270 N.2   1 <1>  -0.4180 
 19 N        1.7250     6.1040     0.1100 N.pl3 1 <1>   0.3000 
 20 O       -6.8650    -0.2950     0.5220 O.2   1 <1>  -0.5700 
 21 C       -6.2890    -2.0920    -0.9300 C.3   1 <1>   0.2610 
 22 O       -7.6260    -2.2790    -1.3190 O.3   1 <1>  -0.5600 
 23 C       -5.9660    -3.2680     0.0020 C.3   1 <1>  -0.1600 
 24 C       -8.3030    -3.0130    -0.3570 C.3   1 <1>   0.1200 
 25 C       -7.2800    -4.0230     0.1330 C.3   1 <1>  -0.1600 
 26 H       -1.6430    -1.0670    -0.7090 H     1 <1>   0.0800 
 27 H       -2.6540    -0.9240     0.6940 H     1 <1>   0.0800 
 28 H       -1.9930     1.4000     1.9680 H     1 <1>   0.0800 
 29 H       -2.3080     2.7400     0.9060 H     1 <1>   0.0800 
 30 H        0.4080     2.1860     1.1350 H     1 <1>   0.1500 
 31 H       -0.9170     3.5290    -2.6960 H     1 <1>   0.1500 
 32 H       -3.8020    -1.5600    -1.4560 H     1 <1>   0.0800 
 33 H       -3.4630     0.0210    -2.0770 H     1 <1>   0.0800 
 34 H       -4.3700     2.3690     1.7920 H     1 <1>   0.0800 
 35 H       -4.2190     0.6540     1.8500 H     1 <1>   0.0800 
 36 H        0.2740     5.6750    -2.3690 H     1 <1>   0.1500 
 37 H       -4.3340     2.0230    -0.8370 H     1 <1>   0.0800 
 38 H       -5.7890     1.8160     0.0870 H     1 <1>   0.0800 
 39 H        1.9380     7.0040    -0.3300 H     1 <1>   0.2700 
 40 H       -5.7190    -2.1620    -1.8360 H     1 <1>   0.0800 
 41 H       -5.1910    -3.8890    -0.4100 H     1 <1>   0.0800 
 42 H       -5.6450    -2.9020     0.9620 H     1 <1>   0.0800 
 43 H       -8.5990    -2.3380     0.4300 H     1 <1>   0.0800 
 44 H       -9.1680    -3.4720    -0.8020 H     1 <1>   0.0800 
 45 H       -7.4820    -4.3370     1.1420 H     1 <1>   0.0800 
 46 H       -7.2910    -4.8800    -0.5180 H     1 <1>   0.0800 
@<TRIPOS>BOND
  1   1   2  2   
  2   2   3  am  
  3   2   4  1   
  4   3   5  1   
  5   3   6  1   
  6   4   7  ar  
  7   4   8  ar  
  8   5   9  1   
  9   5  26  1   
 10   5  27  1   
 11   6  10  1   
 12   6  28  1   
 13   6  29  1   
 14   7  11  ar  
 15   7  30  1   
 16   8  12  ar  
 17   8  31  1   
 18   9  13  1   
 19   9  32  1   
 20   9  33  1   
 21  10  14  1   
 22  10  34  1   
 23  10  35  1   
 24  11  15  1   
 25  11  16  ar  
 26  12  16  ar  
 27  12  36  1   
 28  13  14  1   
 29  13  17  am  
 30  14  37  1   
 31  14  38  1   
 32  15  18  2   
 33  16  19  1   
 34  17  20  2   
 35  17  21  1   
 36  18  19  1   
 37  19  39  1   
 38  21  22  1   
 39  21  23  1   
 40  21  40  1   
 41  22  24  1   
 42  23  25  1   
 43  23  41  1   
 44  23  42  1   
 45  24  25  1   
 46  24  43  1   
 47  24  44  1   
 48  25  45  1   
 49  25  46  1   
@<TRIPOS>SUBSTRUCTURE
  1 ****   3 GROUP 4 **** **** 0

# MOE 2024.06 (io_trps.svl 2023.06)
