@<TRIPOS>MOLECULE
NONAME
38 40 1 0 0 
SMALL
USER_CHARGES


@<TRIPOS>ATOM
  1 F       -0.6790    -0.4380    -1.1050 F     1 <1>  -0.1900 
  2 C       -1.6460    -0.9960    -0.4270 C.ar  1 <1>   0.1900 
  3 C       -2.6540    -0.2060     0.0980 C.ar  1 <1>   0.1600 
  4 C       -1.6420    -2.3590    -0.2520 C.ar  1 <1>  -0.1500 
  5 N       -3.6690    -0.6940     0.8010 N.ar  1 <1>  -0.6200 
  6 C       -2.6990    -2.8970     0.4700 C.ar  1 <1>   0.0860 
  7 C       -3.6540    -2.0100     0.9730 C.ar  1 <1>   0.1600 
  8 C       -2.8080    -4.3180     0.7070 C.2   1 <1>   0.5440 
  9 O       -1.8610    -4.9200     1.1710 O.2   1 <1>  -0.5700 
 10 N       -3.9540    -5.0180     0.4060 N.am  1 <1>  -0.6600 
 11 C       -5.0100    -4.5650    -0.5410 C.3   1 <1>   0.1400 
 12 C       -4.0640    -6.4860     0.6240 C.3   1 <1>   0.1400 
 13 C       -6.0090    -5.7210    -0.5880 C.3   1 <1>   0.2000 
 14 C       -5.1400    -6.9620    -0.3590 C.3   1 <1>  -0.0800 
 15 O       -6.8920    -5.5700     0.4710 O.3   1 <1>  -0.6800 
 16 C       -5.9060    -8.2140     0.1100 C.3   1 <1>   0.0200 
 17 C       -5.0300    -9.4530     0.1920 C.2   1 <1>  -0.0400 
 18 O       -5.5370   -10.5430     0.7050 O.3   1 <1>  -0.0190 
 19 C       -3.7640    -9.7220    -0.1650 C.2   1 <1>  -0.1500 
 20 N       -4.6790   -11.5230     0.7140 N.2   1 <1>  -0.4100 
 21 C       -3.6010   -11.0570     0.1960 C.2   1 <1>   0.1080 
 22 C       -2.3320   -11.8580     0.0090 C.3   1 <1>  -0.0590 
 23 H       -2.6190     0.8580    -0.0650 H     1 <1>   0.1500 
 24 H       -0.8580    -2.9790    -0.6510 H     1 <1>   0.1500 
 25 H       -4.4580    -2.4250     1.5580 H     1 <1>   0.1500 
 26 H       -5.4850    -3.6540    -0.2220 H     1 <1>   0.0800 
 27 H       -4.5710    -4.4230    -1.5130 H     1 <1>   0.0800 
 28 H       -3.1210    -6.9740     0.4440 H     1 <1>   0.0800 
 29 H       -4.3630    -6.6660     1.6420 H     1 <1>   0.0800 
 30 H       -6.5750    -5.7550    -1.5030 H     1 <1>   0.0800 
 31 H       -4.6540    -7.1910    -1.2910 H     1 <1>   0.0800 
 32 H       -6.3840    -5.4200     1.2930 H     1 <1>   0.4000 
 33 H       -6.7140    -8.4140    -0.5720 H     1 <1>   0.0800 
 34 H       -6.3380    -8.0410     1.0800 H     1 <1>   0.0800 
 35 H       -3.0170    -9.1000    -0.6210 H     1 <1>   0.1500 
 36 H       -2.0700   -11.8890    -1.0320 H     1 <1>   0.0800 
 37 H       -2.4770   -12.8630     0.3620 H     1 <1>   0.0800 
 38 H       -1.5310   -11.4060     0.5640 H     1 <1>   0.0800 
@<TRIPOS>BOND
  1   1   2  1   
  2   2   3  ar  
  3   2   4  ar  
  4   3   5  ar  
  5   3  23  1   
  6   4   6  ar  
  7   4  24  1   
  8   5   7  ar  
  9   6   7  ar  
 10   6   8  1   
 11   7  25  1   
 12   8   9  2   
 13   8  10  am  
 14  10  11  1   
 15  10  12  1   
 16  11  13  1   
 17  11  26  1   
 18  11  27  1   
 19  12  14  1   
 20  12  28  1   
 21  12  29  1   
 22  13  14  1   
 23  13  15  1   
 24  13  30  1   
 25  14  16  1   
 26  14  31  1   
 27  15  32  1   
 28  16  17  1   
 29  16  33  1   
 30  16  34  1   
 31  17  18  1   
 32  17  19  2   
 33  18  20  1   
 34  19  21  1   
 35  19  35  1   
 36  20  21  2   
 37  21  22  1   
 38  22  36  1   
 39  22  37  1   
 40  22  38  1   
@<TRIPOS>SUBSTRUCTURE
  1 ****  10 GROUP 4 **** **** 0

# MOE 2024.06 (io_trps.svl 2023.06)
