@<TRIPOS>MOLECULE
NONAME
40 41 1 0 0 
SMALL
USER_CHARGES


@<TRIPOS>ATOM
  1 O        2.1180    -1.5770     0.7710 O.co2 1 <1>  -0.9000 
  2 C        2.1790    -0.4240     1.2280 C.2   1 <1>   0.9060 
  3 O        2.0730    -0.2190     2.4440 O.co2 1 <1>  -0.9000 
  4 C        2.3590     0.7710     0.2600 C.3   1 <1>  -0.1060 
  5 C        3.2860     0.3560    -0.9160 C.3   1 <1>   0.2000 
  6 C        3.0570     1.9550     0.9930 C.3   1 <1>  -0.1600 
  7 C        0.9430     1.1990    -0.2250 C.3   1 <1>  -0.1600 
  8 O        2.7520    -0.7370    -1.5820 O.3   1 <1>  -0.6800 
  9 C        4.7090     0.0150    -0.4370 C.3   1 <1>   0.2090 
 10 C        4.4650     1.5850     1.4770 C.3   1 <1>   0.2090 
 11 C        0.8830     2.3320    -1.2660 C.3   1 <1>  -0.1600 
 12 N        5.2920     1.1840     0.3020 N.pl3 1 <1>  -0.8380 
 13 C       -0.5670     2.6490    -1.6400 C.3   1 <1>  -0.2400 
 14 C        6.3140     1.9590    -0.2070 C.ar  1 <1>   0.7200 
 15 N        6.4820     3.1760     0.3140 N.ar  1 <1>  -0.6200 
 16 N        7.0530     1.4310    -1.1840 N.ar  1 <1>  -0.6200 
 17 C        7.4510     3.9050    -0.1750 C.ar  1 <1>   0.1670 
 18 C        8.0170     2.1790    -1.6580 C.ar  1 <1>   0.1600 
 19 C        8.2640     3.4430    -1.1820 C.ar  1 <1>  -0.1500 
 20 C        7.6380     5.2840     0.4190 C.3   1 <1>  -0.0970 
 21 H        3.3690     1.1530    -1.6320 H     1 <1>   0.0800 
 22 H        2.4680     2.2490     1.8430 H     1 <1>   0.0800 
 23 H        3.1510     2.8070     0.3470 H     1 <1>   0.0800 
 24 H        0.4580     0.3310    -0.6400 H     1 <1>   0.0800 
 25 H        0.3690     1.4870     0.6400 H     1 <1>   0.0800 
 26 H        2.4270    -1.3450    -0.8500 H     1 <1>   0.4000 
 27 H        5.3070    -0.2480    -1.2900 H     1 <1>   0.0800 
 28 H        4.6770    -0.8340     0.2250 H     1 <1>   0.0800 
 29 H        4.4160     0.7640     2.1720 H     1 <1>   0.0800 
 30 H        4.9000     2.4190     1.9980 H     1 <1>   0.0800 
 31 H        1.3420     3.2230    -0.8790 H     1 <1>   0.0800 
 32 H        1.4110     2.0380    -2.1570 H     1 <1>   0.0800 
 33 H       -1.1170     2.9630    -0.7700 H     1 <1>   0.0800 
 34 H       -1.0430     1.7780    -2.0550 H     1 <1>   0.0800 
 35 H       -0.5950     3.4380    -2.3700 H     1 <1>   0.0800 
 36 H        8.6260     1.7720    -2.4460 H     1 <1>   0.1500 
 37 H        9.0590     4.0390    -1.5850 H     1 <1>   0.1500 
 38 H        8.4550     5.8010    -0.0500 H     1 <1>   0.0800 
 39 H        7.8370     5.1960     1.4710 H     1 <1>   0.0800 
 40 H        6.7380     5.8560     0.2850 H     1 <1>   0.0800 
@<TRIPOS>BOND
  1   1   2  ar  
  2   2   3  ar  
  3   2   4  1   
  4   4   5  1   
  5   4   6  1   
  6   4   7  1   
  7   5   8  1   
  8   5   9  1   
  9   5  21  1   
 10   6  10  1   
 11   6  22  1   
 12   6  23  1   
 13   7  11  1   
 14   7  24  1   
 15   7  25  1   
 16   8  26  1   
 17   9  12  1   
 18   9  27  1   
 19   9  28  1   
 20  10  12  1   
 21  10  29  1   
 22  10  30  1   
 23  11  13  1   
 24  11  31  1   
 25  11  32  1   
 26  12  14  1   
 27  13  33  1   
 28  13  34  1   
 29  13  35  1   
 30  14  15  ar  
 31  14  16  ar  
 32  15  17  ar  
 33  16  18  ar  
 34  17  19  ar  
 35  17  20  1   
 36  18  19  ar  
 37  18  36  1   
 38  19  37  1   
 39  20  38  1   
 40  20  39  1   
 41  20  40  1   
@<TRIPOS>SUBSTRUCTURE
  1 ****  12 GROUP 4 **** **** 0

# MOE 2024.06 (io_trps.svl 2023.06)
