@<TRIPOS>MOLECULE
NONAME
53 54 1 0 0 
SMALL
USER_CHARGES


@<TRIPOS>ATOM
  1 S        1.8660     1.7280    -0.1850 S.o2  1 <1>   1.3330 
  2 O        2.6630     2.1310     0.9510 O.2   1 <1>  -0.6500 
  3 O        2.0100     2.4260    -1.4430 O.2   1 <1>  -0.6500 
  4 N        2.1720     0.0810    -0.4650 N.am  1 <1>  -0.8490 
  5 C        0.1230     1.7230     0.2500 C.3   1 <1>  -0.0550 
  6 C        2.4780    -0.6730     0.7570 C.3   1 <1>   0.1160 
  7 C        3.2330    -0.1310    -1.4550 C.3   1 <1>   0.1160 
  8 C       -0.5290     3.0830     0.5880 C.3   1 <1>  -0.0800 
  9 C       -0.3800     4.1410    -0.5170 C.3   1 <1>   0.2000 
 10 C        0.0380     3.7380     1.8580 C.3   1 <1>   0.1400 
 11 O       -1.5480     4.8860    -0.5340 O.3   1 <1>  -0.6800 
 12 C        0.7530     5.0570    -0.0540 C.3   1 <1>   0.1400 
 13 N        0.6770     5.0040     1.4250 N.am  1 <1>  -0.6600 
 14 C        0.8230     6.0870     2.2610 C.2   1 <1>   0.5440 
 15 O        0.3600     6.0180     3.3840 O.2   1 <1>  -0.5700 
 16 C        1.4720     7.3100     1.8280 C.ar  1 <1>   0.0860 
 17 C        2.7300     7.3090     1.2260 C.ar  1 <1>  -0.1500 
 18 C        0.8460     8.5410     2.0130 C.ar  1 <1>  -0.1500 
 19 C        3.3460     8.4800     0.8110 C.ar  1 <1>   0.0730 
 20 C        1.4400     9.7180     1.6010 C.ar  1 <1>  -0.1500 
 21 C        4.6430     8.4700     0.2040 C.1   1 <1>  -0.0730 
 22 C        2.6840     9.6850     1.0010 C.ar  1 <1>  -0.1500 
 23 C        5.7250     8.5180    -0.2920 C.1   1 <1>  -0.2000 
 24 C        7.0780     8.6070    -0.9070 C.3   1 <1>   0.4800 
 25 O        7.1720     9.8220    -1.5330 O.3   1 <1>  -0.6800 
 26 C        8.1700     8.5630     0.1560 C.3   1 <1>  -0.2400 
 27 C        7.2690     7.5310    -1.9690 C.3   1 <1>  -0.2400 
 28 H       -0.4180     1.2960    -0.5720 H     1 <1>   0.0800 
 29 H       -0.0190     1.0700     1.0880 H     1 <1>   0.0800 
 30 H        2.5690    -1.7210     0.5310 H     1 <1>   0.0800 
 31 H        1.6890    -0.5490     1.4790 H     1 <1>   0.0800 
 32 H        3.4020    -0.3260     1.1920 H     1 <1>   0.0800 
 33 H        3.3880    -1.1830    -1.6180 H     1 <1>   0.0800 
 34 H        4.1540     0.3170    -1.1190 H     1 <1>   0.0800 
 35 H        2.9540     0.3160    -2.3960 H     1 <1>   0.0800 
 36 H       -1.5740     2.8790     0.7490 H     1 <1>   0.0800 
 37 H       -0.2250     3.7370    -1.5040 H     1 <1>   0.0800 
 38 H        0.7660     3.1160     2.3510 H     1 <1>   0.0800 
 39 H       -0.7570     3.9530     2.5520 H     1 <1>   0.0800 
 40 H       -1.6240     5.3640     0.3170 H     1 <1>   0.4000 
 41 H        0.6300     6.0570    -0.4360 H     1 <1>   0.0800 
 42 H        1.7070     4.6750    -0.3700 H     1 <1>   0.0800 
 43 H        3.2390     6.3710     1.0860 H     1 <1>   0.1500 
 44 H       -0.1190     8.5660     2.4910 H     1 <1>   0.1500 
 45 H        0.9380    10.6590     1.7500 H     1 <1>   0.1500 
 46 H        3.1520    10.5990     0.6780 H     1 <1>   0.1500 
 47 H        8.0530     9.9040    -1.9350 H     1 <1>   0.4000 
 48 H        8.1210     7.6290     0.6850 H     1 <1>   0.0800 
 49 H        8.0240     9.3580     0.8660 H     1 <1>   0.0800 
 50 H        9.1440     8.6520    -0.2890 H     1 <1>   0.0800 
 51 H        7.1810     6.5590    -1.5190 H     1 <1>   0.0800 
 52 H        8.2380     7.6090    -2.4260 H     1 <1>   0.0800 
 53 H        6.5070     7.6210    -2.7240 H     1 <1>   0.0800 
@<TRIPOS>BOND
  1   1   2  2   
  2   1   3  2   
  3   1   4  am  
  4   1   5  1   
  5   4   6  1   
  6   4   7  1   
  7   5   8  1   
  8   5  28  1   
  9   5  29  1   
 10   6  30  1   
 11   6  31  1   
 12   6  32  1   
 13   7  33  1   
 14   7  34  1   
 15   7  35  1   
 16   8   9  1   
 17   8  10  1   
 18   8  36  1   
 19   9  11  1   
 20   9  12  1   
 21   9  37  1   
 22  10  13  1   
 23  10  38  1   
 24  10  39  1   
 25  11  40  1   
 26  12  13  1   
 27  12  41  1   
 28  12  42  1   
 29  13  14  am  
 30  14  15  2   
 31  14  16  1   
 32  16  17  ar  
 33  16  18  ar  
 34  17  19  ar  
 35  17  43  1   
 36  18  20  ar  
 37  18  44  1   
 38  19  21  1   
 39  19  22  ar  
 40  20  22  ar  
 41  20  45  1   
 42  21  23  3   
 43  22  46  1   
 44  23  24  1   
 45  24  25  1   
 46  24  26  1   
 47  24  27  1   
 48  25  47  1   
 49  26  48  1   
 50  26  49  1   
 51  26  50  1   
 52  27  51  1   
 53  27  52  1   
 54  27  53  1   
@<TRIPOS>SUBSTRUCTURE
  1 ****  12 GROUP 4 **** **** 0

# MOE 2024.06 (io_trps.svl 2023.06)
