@<TRIPOS>MOLECULE
NONAME
57 60 1 0 0 
SMALL
USER_CHARGES


@<TRIPOS>ATOM
  1 O        0.8190    -0.4150    -1.0640 O.2   1 <1>  -0.5700 
  2 C        0.6090    -1.6100    -1.0520 C.2   1 <1>   0.5440 
  3 N        0.0420    -2.1150    -2.1700 N.am  1 <1>  -0.8000 
  4 C        0.9660    -2.4320     0.0850 C.ar  1 <1>   0.0860 
  5 C        0.3380    -3.6630     0.3870 C.ar  1 <1>   0.4100 
  6 C        1.9850    -2.0130     0.9330 C.ar  1 <1>  -0.1500 
  7 N        0.6910    -4.4410     1.4110 N.ar  1 <1>  -0.6200 
  8 N       -0.7340    -4.1510    -0.3450 N.pl3 1 <1>  -0.8380 
  9 C        2.3380    -2.8140     1.9930 C.ar  1 <1>  -0.1500 
 10 C        1.6680    -4.0080     2.1810 C.ar  1 <1>   0.1600 
 11 C       -2.0790    -3.5500    -0.0690 C.3   1 <1>   0.2090 
 12 C       -0.7850    -5.6140    -0.6890 C.3   1 <1>   0.2090 
 13 C       -2.8990    -4.4000     0.9220 C.3   1 <1>   0.2090 
 14 C       -1.6550    -6.4290     0.2890 C.3   1 <1>   0.2090 
 15 N       -3.0260    -5.8210     0.4500 N.pl3 1 <1>  -0.8380 
 16 C       -4.1800    -6.5230     0.2720 C.ar  1 <1>   0.4100 
 17 N       -4.0900    -7.8390     0.2360 N.ar  1 <1>  -0.6200 
 18 C       -5.4280    -5.8850     0.1270 C.ar  1 <1>  -0.1500 
 19 C       -5.1910    -8.5580     0.0870 C.ar  1 <1>   0.7710 
 20 C       -6.5490    -6.6320    -0.0180 C.ar  1 <1>   0.2180 
 21 N       -6.3970    -7.9760    -0.0280 N.ar  1 <1>  -0.1790 
 22 N       -5.1040    -9.9150     0.0550 N.pl3 1 <1>  -0.8380 
 23 C       -7.9460    -6.0430    -0.1710 C.3   1 <1>  -0.0170 
 24 C       -3.8240   -10.6370     0.4090 C.3   1 <1>   0.2090 
 25 C       -6.1680   -10.8950    -0.3620 C.3   1 <1>   0.2090 
 26 C       -8.8690    -6.4320     0.9910 C.3   1 <1>  -0.2400 
 27 C       -3.4200   -11.6260    -0.6970 C.3   1 <1>   0.1200 
 28 C       -5.6350   -11.8710    -1.4290 C.3   1 <1>   0.1200 
 29 O       -4.4730   -12.5020    -0.9790 O.3   1 <1>  -0.5600 
 30 H       -0.2230    -1.5000    -2.9370 H     1 <1>   0.3700 
 31 H       -0.3260    -3.0730    -2.1550 H     1 <1>   0.3700 
 32 H        2.4890    -1.0770     0.7560 H     1 <1>   0.1500 
 33 H        3.1240    -2.5210     2.6660 H     1 <1>   0.1500 
 34 H        1.9530    -4.6340     3.0100 H     1 <1>   0.1500 
 35 H       -2.6220    -3.4600    -0.9930 H     1 <1>   0.0800 
 36 H       -1.9550    -2.5610     0.3380 H     1 <1>   0.0800 
 37 H        0.2120    -6.0180    -0.6910 H     1 <1>   0.0800 
 38 H       -1.1840    -5.7260    -1.6820 H     1 <1>   0.0800 
 39 H       -3.8570    -3.9450     1.0790 H     1 <1>   0.0800 
 40 H       -2.3880    -4.3960     1.8700 H     1 <1>   0.0800 
 41 H       -1.1670    -6.4570     1.2480 H     1 <1>   0.0800 
 42 H       -1.7120    -7.4390    -0.0730 H     1 <1>   0.0800 
 43 H       -5.4760    -4.8150     0.1250 H     1 <1>   0.1500 
 44 H       -7.1880    -8.6010    -0.0860 H     1 <1>   0.4570 
 45 H       -8.3780    -6.3680    -1.1030 H     1 <1>   0.0800 
 46 H       -7.8780    -4.9680    -0.2100 H     1 <1>   0.0800 
 47 H       -3.9690   -11.1860     1.3240 H     1 <1>   0.0800 
 48 H       -3.0070    -9.9570     0.5740 H     1 <1>   0.0800 
 49 H       -7.0290   -10.3960    -0.7660 H     1 <1>   0.0800 
 50 H       -6.4830   -11.4660     0.4960 H     1 <1>   0.0800 
 51 H       -9.0360    -7.4940     1.0280 H     1 <1>   0.0800 
 52 H       -9.8250    -5.9490     0.8730 H     1 <1>   0.0800 
 53 H       -8.4490    -6.1120     1.9300 H     1 <1>   0.0800 
 54 H       -2.5790   -12.2170    -0.3760 H     1 <1>   0.0800 
 55 H       -3.1500   -11.1030    -1.5970 H     1 <1>   0.0800 
 56 H       -5.4120   -11.3560    -2.3470 H     1 <1>   0.0800 
 57 H       -6.3620   -12.6380    -1.6310 H     1 <1>   0.0800 
@<TRIPOS>BOND
  1   1   2  2   
  2   2   3  am  
  3   2   4  1   
  4   3  30  1   
  5   3  31  1   
  6   4   5  ar  
  7   4   6  ar  
  8   5   7  ar  
  9   5   8  1   
 10   6   9  ar  
 11   6  32  1   
 12   7  10  ar  
 13   8  11  1   
 14   8  12  1   
 15   9  10  ar  
 16   9  33  1   
 17  10  34  1   
 18  11  13  1   
 19  11  35  1   
 20  11  36  1   
 21  12  14  1   
 22  12  37  1   
 23  12  38  1   
 24  13  15  1   
 25  13  39  1   
 26  13  40  1   
 27  14  15  1   
 28  14  41  1   
 29  14  42  1   
 30  15  16  1   
 31  16  17  ar  
 32  16  18  ar  
 33  17  19  ar  
 34  18  20  ar  
 35  18  43  1   
 36  19  21  ar  
 37  19  22  1   
 38  20  21  ar  
 39  20  23  1   
 40  21  44  1   
 41  22  24  1   
 42  22  25  1   
 43  23  26  1   
 44  23  45  1   
 45  23  46  1   
 46  24  27  1   
 47  24  47  1   
 48  24  48  1   
 49  25  28  1   
 50  25  49  1   
 51  25  50  1   
 52  26  51  1   
 53  26  52  1   
 54  26  53  1   
 55  27  29  1   
 56  27  54  1   
 57  27  55  1   
 58  28  29  1   
 59  28  56  1   
 60  28  57  1   
@<TRIPOS>SUBSTRUCTURE
  1 ****  15 GROUP 4 **** **** 0

# MOE 2024.06 (io_trps.svl 2023.06)
