@<TRIPOS>MOLECULE
NONAME
47 49 1 0 0 
SMALL
USER_CHARGES


@<TRIPOS>ATOM
  1 O       -1.1770    -0.1960     0.3490 O.2   1 <1>  -0.5700 
  2 C       -1.8260     0.7280    -0.1130 C.2   1 <1>   0.5440 
  3 N       -3.0560     0.4230    -0.6530 N.am  1 <1>  -0.6600 
  4 C       -1.3240     2.0910    -0.0510 C.ar  1 <1>   0.0860 
  5 C       -3.3430    -0.9610    -1.0770 C.3   1 <1>   0.1400 
  6 C       -4.2870     1.1060    -0.1780 C.3   1 <1>   0.1400 
  7 C       -1.7050     3.0620    -0.9800 C.ar  1 <1>  -0.1500 
  8 C       -0.4270     2.4860     0.9410 C.ar  1 <1>  -0.1500 
  9 C       -3.9730    -1.6290     0.1580 C.3   1 <1>   0.4230 
 10 C       -5.0360     0.2210     0.8540 C.3   1 <1>  -0.1600 
 11 C       -1.2250     4.3570    -0.9120 C.ar  1 <1>  -0.1500 
 12 C        0.0550     3.7810     1.0110 C.ar  1 <1>  -0.1500 
 13 N       -3.5510    -3.0610     0.3860 N.4   1 <1>  -0.9590 
 14 C       -5.5190    -1.2200     0.2750 C.3   1 <1>   0.0000 
 15 C       -0.3370     4.7410     0.0860 C.ar  1 <1>   0.0730 
 16 C       -3.8640    -3.9280    -0.7630 C.3   1 <1>   0.3430 
 17 C       -2.1000    -3.1330     0.7580 C.3   1 <1>   0.2630 
 18 C       -6.0400    -2.6120    -0.3680 C.3   1 <1>  -0.1600 
 19 C       -7.0470    -0.7840     0.4770 C.3   1 <1>   0.1200 
 20 C        0.1620     6.0860     0.1570 C.1   1 <1>   0.4840 
 21 C       -5.1960    -3.4780    -1.3360 C.3   1 <1>  -0.1600 
 22 O       -7.4290     0.0460    -0.5750 O.3   1 <1>  -0.6800 
 23 N        0.5550     7.1550     0.2130 N.1   1 <1>  -0.5570 
 24 H       -4.0270    -0.9430    -1.9070 H     1 <1>   0.0800 
 25 H       -2.4320    -1.4450    -1.3780 H     1 <1>   0.0800 
 26 H       -4.0340     2.0500     0.2750 H     1 <1>   0.0800 
 27 H       -4.9300     1.3050    -1.0200 H     1 <1>   0.0800 
 28 H       -2.3840     2.7940    -1.7720 H     1 <1>   0.1500 
 29 H       -0.1010     1.7610     1.6680 H     1 <1>   0.1500 
 30 H       -3.4500    -1.1530     0.9680 H     1 <1>   0.0800 
 31 H       -4.4430     0.1220     1.7500 H     1 <1>   0.0800 
 32 H       -5.7820     0.9210     1.1940 H     1 <1>   0.0800 
 33 H       -1.5420     5.0800    -1.6460 H     1 <1>   0.1500 
 34 H        0.7470     4.0480     1.7930 H     1 <1>   0.1500 
 35 H       -4.1060    -3.3910     1.1850 H     1 <1>   0.4500 
 36 H       -3.0990    -3.8490    -1.5190 H     1 <1>   0.0800 
 37 H       -3.9240    -4.9550    -0.4390 H     1 <1>   0.0800 
 38 H       -1.4830    -2.7860    -0.0560 H     1 <1>   0.0800 
 39 H       -1.8190    -4.1450     0.9980 H     1 <1>   0.0800 
 40 H       -1.9010    -2.5070     1.6130 H     1 <1>   0.0800 
 41 H       -6.3550    -3.2570     0.4380 H     1 <1>   0.0800 
 42 H       -6.9030    -2.4640    -1.0040 H     1 <1>   0.0800 
 43 H       -7.2480    -0.2810     1.4080 H     1 <1>   0.0800 
 44 H       -7.7800    -1.5760     0.5300 H     1 <1>   0.0800 
 45 H       -5.0210    -2.9360    -2.2490 H     1 <1>   0.0800 
 46 H       -5.7560    -4.3550    -1.6160 H     1 <1>   0.0800 
 47 H       -8.3680     0.3140    -0.4920 H     1 <1>   0.4000 
@<TRIPOS>BOND
  1   1   2  2   
  2   2   3  am  
  3   2   4  1   
  4   3   5  1   
  5   3   6  1   
  6   4   7  ar  
  7   4   8  ar  
  8   5   9  1   
  9   5  24  1   
 10   5  25  1   
 11   6  10  1   
 12   6  26  1   
 13   6  27  1   
 14   7  11  ar  
 15   7  28  1   
 16   8  12  ar  
 17   8  29  1   
 18   9  13  1   
 19   9  14  1   
 20   9  30  1   
 21  10  14  1   
 22  10  31  1   
 23  10  32  1   
 24  11  15  ar  
 25  11  33  1   
 26  12  15  ar  
 27  12  34  1   
 28  13  16  1   
 29  13  17  1   
 30  13  35  1   
 31  14  18  1   
 32  14  19  1   
 33  15  20  1   
 34  16  21  1   
 35  16  36  1   
 36  16  37  1   
 37  17  38  1   
 38  17  39  1   
 39  17  40  1   
 40  18  21  1   
 41  18  41  1   
 42  18  42  1   
 43  19  22  1   
 44  19  43  1   
 45  19  44  1   
 46  20  23  3   
 47  21  45  1   
 48  21  46  1   
 49  22  47  1   
@<TRIPOS>SUBSTRUCTURE
  1 ****   3 GROUP 4 **** **** 0

# MOE 2024.06 (io_trps.svl 2023.06)
