@<TRIPOS>MOLECULE
NONAME
49 51 1 0 0 
SMALL
USER_CHARGES


@<TRIPOS>ATOM
  1 F        0.5820    -0.0440    -0.7100 F     1 <1>  -0.1900 
  2 C        1.4920    -0.9310    -0.4070 C.ar  1 <1>   0.1900 
  3 C        1.1410    -2.2650    -0.3890 C.ar  1 <1>  -0.1500 
  4 C        2.7690    -0.4940    -0.1150 C.ar  1 <1>  -0.1500 
  5 C        2.1030    -3.2180    -0.0650 C.ar  1 <1>   0.1170 
  6 C        3.7290    -1.4380     0.2100 C.ar  1 <1>  -0.1500 
  7 N        1.8290    -4.5930    -0.0090 N.am  1 <1>  -0.5470 
  8 C        3.3930    -2.7820     0.2340 C.ar  1 <1>  -0.1500 
  9 C        0.8170    -5.3280    -0.5610 C.2   1 <1>   0.5690 
 10 O       -0.0490    -4.8740    -1.2640 O.2   1 <1>  -0.5700 
 11 C        0.7750    -6.8080    -0.2610 C.3   1 <1>  -0.0990 
 12 C       -0.0940    -7.0910     0.9730 C.3   1 <1>  -0.0990 
 13 C       -0.2280    -8.5820     1.2090 C.2   1 <1>   0.5690 
 14 O        0.5870    -9.1090     1.9260 O.2   1 <1>  -0.5700 
 15 N       -1.2210    -9.2990     0.6030 N.am  1 <1>  -0.6600 
 16 C       -2.2520    -8.7960    -0.3440 C.3   1 <1>   0.1400 
 17 C       -1.3440   -10.7690     0.7650 C.3   1 <1>   0.1400 
 18 C       -3.2650    -9.9360    -0.4410 C.3   1 <1>   0.2000 
 19 C       -2.4150   -11.1960    -0.2460 C.3   1 <1>  -0.0800 
 20 O       -4.1570    -9.8100     0.6130 O.3   1 <1>  -0.6800 
 21 C       -3.2030   -12.4530     0.1710 C.3   1 <1>   0.0200 
 22 C       -2.3470   -13.7080     0.2130 C.2   1 <1>  -0.0400 
 23 O       -2.8740   -14.8090     0.6790 O.3   1 <1>  -0.0190 
 24 C       -1.0820   -13.9820    -0.1460 C.2   1 <1>  -0.1500 
 25 N       -2.0320   -15.8010     0.6560 N.2   1 <1>  -0.4100 
 26 C       -0.9430   -15.3320     0.1640 C.2   1 <1>   0.1080 
 27 C        0.3150   -16.1450    -0.0440 C.3   1 <1>  -0.0590 
 28 H        0.1310    -2.5440    -0.6210 H     1 <1>   0.1500 
 29 H        3.0010     0.5560    -0.1410 H     1 <1>   0.1500 
 30 H        4.7330    -1.1250     0.4420 H     1 <1>   0.1500 
 31 H        2.5130    -5.1360     0.5150 H     1 <1>   0.3700 
 32 H        4.1490    -3.5030     0.4850 H     1 <1>   0.1500 
 33 H        0.3660    -7.3150    -1.1160 H     1 <1>   0.0800 
 34 H        1.7700    -7.1830    -0.1030 H     1 <1>   0.0800 
 35 H       -1.0630    -6.6450     0.8570 H     1 <1>   0.0800 
 36 H        0.3600    -6.6490     1.8420 H     1 <1>   0.0800 
 37 H       -2.7170    -7.8880    -0.0010 H     1 <1>   0.0800 
 38 H       -1.7960    -8.6300    -1.3040 H     1 <1>   0.0800 
 39 H       -0.3990   -11.2510     0.5780 H     1 <1>   0.0800 
 40 H       -1.6550   -10.9850     1.7740 H     1 <1>   0.0800 
 41 H       -3.8220    -9.9310    -1.3630 H     1 <1>   0.0800 
 42 H       -1.9220   -11.3990    -1.1800 H     1 <1>   0.0800 
 43 H       -3.6540    -9.6670     1.4400 H     1 <1>   0.4000 
 44 H       -4.0090   -12.6150    -0.5220 H     1 <1>   0.0800 
 45 H       -3.6390   -12.3080     1.1450 H     1 <1>   0.0800 
 46 H       -0.3240   -13.3540    -0.5720 H     1 <1>   0.1500 
 47 H        1.1250   -15.7140     0.5150 H     1 <1>   0.0800 
 48 H        0.5710   -16.1600    -1.0880 H     1 <1>   0.0800 
 49 H        0.1590   -17.1540     0.2910 H     1 <1>   0.0800 
@<TRIPOS>BOND
  1   1   2  1   
  2   2   3  ar  
  3   2   4  ar  
  4   3   5  ar  
  5   3  28  1   
  6   4   6  ar  
  7   4  29  1   
  8   5   7  1   
  9   5   8  ar  
 10   6   8  ar  
 11   6  30  1   
 12   7   9  am  
 13   7  31  1   
 14   8  32  1   
 15   9  10  2   
 16   9  11  1   
 17  11  12  1   
 18  11  33  1   
 19  11  34  1   
 20  12  13  1   
 21  12  35  1   
 22  12  36  1   
 23  13  14  2   
 24  13  15  am  
 25  15  16  1   
 26  15  17  1   
 27  16  18  1   
 28  16  37  1   
 29  16  38  1   
 30  17  19  1   
 31  17  39  1   
 32  17  40  1   
 33  18  19  1   
 34  18  20  1   
 35  18  41  1   
 36  19  21  1   
 37  19  42  1   
 38  20  43  1   
 39  21  22  1   
 40  21  44  1   
 41  21  45  1   
 42  22  23  1   
 43  22  24  2   
 44  23  25  1   
 45  24  26  1   
 46  24  46  1   
 47  25  26  2   
 48  26  27  1   
 49  27  47  1   
 50  27  48  1   
 51  27  49  1   
@<TRIPOS>SUBSTRUCTURE
  1 ****  13 GROUP 4 **** **** 0

# MOE 2024.06 (io_trps.svl 2023.06)
