@<TRIPOS>MOLECULE
NONAME
47 49 1 0 0 
SMALL
USER_CHARGES


@<TRIPOS>ATOM
  1 O       -1.6470     0.7710     0.1680 O.2   1 <1>  -0.5700 
  2 C       -1.1040     1.8140     0.4270 C.2   1 <1>   0.5690 
  3 N       -1.8130     2.9640     0.4760 N.am  1 <1>  -0.7300 
  4 C        0.4110     1.8520     0.6680 C.3   1 <1>   0.1810 
  5 C       -1.2120     4.2730     0.8240 C.3   1 <1>   0.3640 
  6 O        0.8580     3.0480     1.2710 O.3   1 <1>  -0.5600 
  7 C       -1.7860     5.3560    -0.0880 C.ar  1 <1>  -0.1440 
  8 C        0.3290     4.2330     0.6980 C.3   1 <1>   0.2610 
  9 C       -1.9570     5.1460    -1.4510 C.ar  1 <1>  -0.1500 
 10 C       -2.1270     6.5890     0.4490 C.ar  1 <1>  -0.1500 
 11 C        0.9390     5.4960     1.3310 C.2   1 <1>   0.5690 
 12 C       -2.4610     6.1500    -2.2590 C.ar  1 <1>  -0.1500 
 13 C       -2.6300     7.5940    -0.3570 C.ar  1 <1>  -0.1500 
 14 O        0.4830     5.8730     2.3890 O.2   1 <1>  -0.5700 
 15 N        1.9450     6.2020     0.7110 N.am  1 <1>  -0.6600 
 16 C       -2.7980     7.3750    -1.7130 C.ar  1 <1>  -0.1500 
 17 C        2.3820     7.5190     1.2640 C.3   1 <1>   0.3200 
 18 C        2.6450     5.8030    -0.5390 C.3   1 <1>   0.1400 
 19 C        1.7940     8.6660     0.4550 C.2   1 <1>  -0.0400 
 20 C        3.7120     4.7620    -0.2130 C.3   1 <1>  -0.2400 
 21 O        2.2830     9.8770     0.6400 O.3   1 <1>  -0.2800 
 22 C        0.8110     8.6950    -0.4730 C.2   1 <1>  -0.1500 
 23 C        1.6310    10.7000    -0.1560 C.2   1 <1>  -0.0400 
 24 C        0.7050    10.0310    -0.8740 C.2   1 <1>  -0.1500 
 25 C        2.0000    12.1670    -0.1400 C.3   1 <1>  -0.0600 
 26 H       -2.8230     2.9350     0.3360 H     1 <1>   0.3700 
 27 H        0.9220     1.7360    -0.2700 H     1 <1>   0.0800 
 28 H        0.6870     1.0390     1.3140 H     1 <1>   0.0800 
 29 H       -1.4760     4.4940     1.8440 H     1 <1>   0.0800 
 30 H        0.5670     4.2100    -0.3450 H     1 <1>   0.0800 
 31 H       -1.7020     4.1980    -1.8940 H     1 <1>   0.1500 
 32 H       -1.9940     6.7810     1.5020 H     1 <1>   0.1500 
 33 H       -2.5930     5.9780    -3.3130 H     1 <1>   0.1500 
 34 H       -2.8880     8.5470     0.0720 H     1 <1>   0.1500 
 35 H       -3.1900     8.1570    -2.3400 H     1 <1>   0.1500 
 36 H        2.0830     7.6280     2.2920 H     1 <1>   0.0800 
 37 H        3.4550     7.5770     1.2310 H     1 <1>   0.0800 
 38 H        1.9450     5.4180    -1.2590 H     1 <1>   0.0800 
 39 H        3.1120     6.6660    -0.9850 H     1 <1>   0.0800 
 40 H        3.2680     3.8810     0.2120 H     1 <1>   0.0800 
 41 H        4.4270     5.1670     0.4810 H     1 <1>   0.0800 
 42 H        4.2320     4.4820    -1.1110 H     1 <1>   0.0800 
 43 H        0.2120     7.8830    -0.8440 H     1 <1>   0.1500 
 44 H        0.0130    10.4090    -1.6050 H     1 <1>   0.1500 
 45 H        1.3880    12.7120    -0.8350 H     1 <1>   0.0800 
 46 H        3.0320    12.2840    -0.4120 H     1 <1>   0.0800 
 47 H        1.8510    12.5660     0.8470 H     1 <1>   0.0800 
@<TRIPOS>BOND
  1   1   2  2   
  2   2   3  am  
  3   2   4  1   
  4   3   5  1   
  5   3  26  1   
  6   4   6  1   
  7   4  27  1   
  8   4  28  1   
  9   5   7  1   
 10   5   8  1   
 11   5  29  1   
 12   6   8  1   
 13   7   9  ar  
 14   7  10  ar  
 15   8  11  1   
 16   8  30  1   
 17   9  12  ar  
 18   9  31  1   
 19  10  13  ar  
 20  10  32  1   
 21  11  14  2   
 22  11  15  am  
 23  12  16  ar  
 24  12  33  1   
 25  13  16  ar  
 26  13  34  1   
 27  15  17  1   
 28  15  18  1   
 29  16  35  1   
 30  17  19  1   
 31  17  36  1   
 32  17  37  1   
 33  18  20  1   
 34  18  38  1   
 35  18  39  1   
 36  19  21  1   
 37  19  22  2   
 38  20  40  1   
 39  20  41  1   
 40  20  42  1   
 41  21  23  1   
 42  22  24  1   
 43  22  43  1   
 44  23  24  2   
 45  23  25  1   
 46  24  44  1   
 47  25  45  1   
 48  25  46  1   
 49  25  47  1   
@<TRIPOS>SUBSTRUCTURE
  1 ****  11 GROUP 4 **** **** 0

# MOE 2024.06 (io_trps.svl 2023.06)
