@<TRIPOS>MOLECULE
NONAME
39 40 1 0 0 
SMALL
USER_CHARGES


@<TRIPOS>ATOM
  1 S       -0.8850    -0.4560     0.9560 S.3   1 <1>  -0.0800 
  2 C       -0.8120     1.0780     0.1740 C.2   1 <1>   0.4340 
  3 C       -1.5340    -1.0650    -0.5350 C.2   1 <1>   0.4420 
  4 S       -0.1780     2.4430     1.1360 S.3   1 <1>  -0.2860 
  5 N       -1.2240     1.0830    -1.0270 N.2   1 <1>  -0.3380 
  6 N       -1.6410    -0.1550    -1.4380 N.2   1 <1>  -0.3380 
  7 N       -1.8450    -2.4100    -0.5610 N.am  1 <1>  -0.4940 
  8 C       -0.2640     3.8640    -0.0430 C.3   1 <1>   0.0700 
  9 C       -2.3880    -3.1520    -1.5690 C.2   1 <1>   0.5690 
 10 C        0.2560     5.1070     0.6740 C.3   1 <1>   0.1200 
 11 O       -2.6760    -2.7070    -2.6490 O.2   1 <1>  -0.5700 
 12 C       -2.6390    -4.6250    -1.3060 C.3   1 <1>  -0.0990 
 13 O        0.1920     6.1790    -0.2110 O.3   1 <1>  -0.5600 
 14 C       -3.6680    -4.8770    -0.1860 C.3   1 <1>  -0.0800 
 15 C        0.6420     7.3800     0.3260 C.3   1 <1>   0.0400 
 16 C       -3.8470    -6.3850     0.0500 C.3   1 <1>   0.1200 
 17 C       -5.0300    -4.2340    -0.5060 C.3   1 <1>  -0.1600 
 18 O       -4.7750    -6.5850     1.0720 O.3   1 <1>  -0.5600 
 19 C       -6.0580    -4.6330     0.5600 C.3   1 <1>  -0.1600 
 20 C       -6.0670    -6.1510     0.7760 C.3   1 <1>   0.1200 
 21 H       -1.6630    -2.9090     0.3050 H     1 <1>   0.3700 
 22 H       -1.2920     3.9790    -0.3340 H     1 <1>   0.0800 
 23 H        0.3470     3.6150    -0.8920 H     1 <1>   0.0800 
 24 H        1.2800     4.9650     0.9740 H     1 <1>   0.0800 
 25 H       -0.3570     5.3280     1.5310 H     1 <1>   0.0800 
 26 H       -1.7030    -5.0880    -1.0540 H     1 <1>   0.0800 
 27 H       -2.9870    -5.0760    -2.2180 H     1 <1>   0.0800 
 28 H       -3.2940    -4.4550     0.7310 H     1 <1>   0.0800 
 29 H        0.5520     8.1390    -0.4320 H     1 <1>   0.0800 
 30 H        1.6730     7.2780     0.6160 H     1 <1>   0.0800 
 31 H        0.0320     7.6410     1.1740 H     1 <1>   0.0800 
 32 H       -2.9210    -6.8350     0.3630 H     1 <1>   0.0800 
 33 H       -4.1980    -6.8860    -0.8360 H     1 <1>   0.0800 
 34 H       -5.3710    -4.5730    -1.4700 H     1 <1>   0.0800 
 35 H       -4.9490    -3.1610    -0.5430 H     1 <1>   0.0800 
 36 H       -7.0390    -4.3070     0.2620 H     1 <1>   0.0800 
 37 H       -5.8220    -4.1550     1.4940 H     1 <1>   0.0800 
 38 H       -6.7000    -6.4110     1.6070 H     1 <1>   0.0800 
 39 H       -6.4120    -6.6700    -0.1030 H     1 <1>   0.0800 
@<TRIPOS>BOND
  1   1   2  1   
  2   1   3  1   
  3   2   4  1   
  4   2   5  2   
  5   3   6  2   
  6   3   7  1   
  7   4   8  1   
  8   5   6  1   
  9   7   9  am  
 10   7  21  1   
 11   8  10  1   
 12   8  22  1   
 13   8  23  1   
 14   9  11  2   
 15   9  12  1   
 16  10  13  1   
 17  10  24  1   
 18  10  25  1   
 19  12  14  1   
 20  12  26  1   
 21  12  27  1   
 22  13  15  1   
 23  14  16  1   
 24  14  17  1   
 25  14  28  1   
 26  15  29  1   
 27  15  30  1   
 28  15  31  1   
 29  16  18  1   
 30  16  32  1   
 31  16  33  1   
 32  17  19  1   
 33  17  34  1   
 34  17  35  1   
 35  18  20  1   
 36  19  20  1   
 37  19  36  1   
 38  19  37  1   
 39  20  38  1   
 40  20  39  1   
@<TRIPOS>SUBSTRUCTURE
  1 ****   3 GROUP 4 **** **** 0

# MOE 2024.06 (io_trps.svl 2023.06)
