@<TRIPOS>MOLECULE
NONAME
53 55 1 0 0 
SMALL
USER_CHARGES


@<TRIPOS>ATOM
  1 F       -0.5860    -1.3870     1.5250 F     1 <1>  -0.1900 
  2 C       -1.7890    -1.7610     1.1400 C.ar  1 <1>   0.1900 
  3 C       -2.6480    -0.9010     0.4550 C.ar  1 <1>   0.4100 
  4 C       -2.2070    -3.0290     1.4350 C.ar  1 <1>   0.1600 
  5 N       -3.8520    -1.3280     0.1180 N.ar  1 <1>  -0.6200 
  6 N       -2.3250     0.4030     0.0890 N.pl3 1 <1>  -0.8380 
  7 N       -3.4070    -3.4650     1.0890 N.ar  1 <1>  -0.6200 
  8 C       -4.1540    -2.5640     0.4580 C.ar  1 <1>   0.7200 
  9 C       -0.9820     0.7600    -0.4470 C.3   1 <1>   0.1290 
 10 C       -3.3800     1.4380    -0.1080 C.3   1 <1>   0.1290 
 11 N       -5.3970    -2.9340     0.0750 N.pl3 1 <1>  -0.8690 
 12 C       -6.2940    -3.7400     0.9630 C.3   1 <1>   0.2090 
 13 C       -6.7760    -5.1050     0.3570 C.3   1 <1>   0.5030 
 14 N       -5.6390    -6.0210    -0.0290 N.4   1 <1>  -0.9590 
 15 C       -7.6270    -5.8640     1.4060 C.3   1 <1>  -0.1600 
 16 C       -7.6460    -4.8660    -0.9030 C.3   1 <1>  -0.1600 
 17 C       -4.7230    -6.3990     1.1090 C.3   1 <1>   0.3430 
 18 C       -4.7950    -5.5640    -1.1920 C.3   1 <1>   0.3430 
 19 C       -8.9880    -5.2130     1.7070 C.3   1 <1>  -0.1600 
 20 C       -9.0100    -4.2140    -0.6150 C.3   1 <1>  -0.1600 
 21 C       -3.4890    -7.1960     0.6320 C.3   1 <1>   0.1200 
 22 C       -3.8050    -6.6660    -1.6320 C.3   1 <1>   0.1200 
 23 C       -9.8000    -5.0130     0.4250 C.3   1 <1>  -0.1600 
 24 O       -3.6920    -7.6800    -0.6670 O.3   1 <1>  -0.5600 
 25 H       -1.5450    -3.6920     1.9640 H     1 <1>   0.1500 
 26 H       -0.4240    -0.1270    -0.6910 H     1 <1>   0.0800 
 27 H       -0.4390     1.3260     0.2890 H     1 <1>   0.0800 
 28 H       -1.0860     1.3510    -1.3410 H     1 <1>   0.0800 
 29 H       -4.2400     1.2140     0.4980 H     1 <1>   0.0800 
 30 H       -3.6770     1.4610    -1.1420 H     1 <1>   0.0800 
 31 H       -3.0030     2.4040     0.1770 H     1 <1>   0.0800 
 32 H       -5.8530    -2.1160    -0.3410 H     1 <1>   0.4000 
 33 H       -7.1520    -3.1350     1.1940 H     1 <1>   0.0800 
 34 H       -5.8020    -3.9250     1.9010 H     1 <1>   0.0800 
 35 H       -6.0480    -6.9070    -0.3460 H     1 <1>   0.4500 
 36 H       -7.0920    -5.9430     2.3360 H     1 <1>   0.0800 
 37 H       -7.8190    -6.8610     1.0490 H     1 <1>   0.0800 
 38 H       -7.8330    -5.8080    -1.3870 H     1 <1>   0.0800 
 39 H       -7.1280    -4.2310    -1.5990 H     1 <1>   0.0800 
 40 H       -5.2610    -7.0030     1.8200 H     1 <1>   0.0800 
 41 H       -4.3840    -5.5200     1.6280 H     1 <1>   0.0800 
 42 H       -4.2270    -4.6950    -0.9130 H     1 <1>   0.0800 
 43 H       -5.4090    -5.2910    -2.0330 H     1 <1>   0.0800 
 44 H       -8.8550    -4.2650     2.2000 H     1 <1>   0.0800 
 45 H       -9.5460    -5.8440     2.3800 H     1 <1>   0.0800 
 46 H       -9.5810    -4.1630    -1.5270 H     1 <1>   0.0800 
 47 H       -8.8780    -3.2030    -0.2680 H     1 <1>   0.0800 
 48 H       -3.3110    -8.0370     1.2800 H     1 <1>   0.0800 
 49 H       -2.6110    -6.5730     0.6340 H     1 <1>   0.0800 
 50 H       -2.8300    -6.2460    -1.8070 H     1 <1>   0.0800 
 51 H       -4.1430    -7.1250    -2.5450 H     1 <1>   0.0800 
 52 H      -10.7180    -4.4980     0.6550 H     1 <1>   0.0800 
 53 H      -10.0640    -5.9740     0.0140 H     1 <1>   0.0800 
@<TRIPOS>BOND
  1   1   2  1   
  2   2   3  ar  
  3   2   4  ar  
  4   3   5  ar  
  5   3   6  1   
  6   4   7  ar  
  7   4  25  1   
  8   5   8  ar  
  9   6   9  1   
 10   6  10  1   
 11   7   8  ar  
 12   8  11  1   
 13   9  26  1   
 14   9  27  1   
 15   9  28  1   
 16  10  29  1   
 17  10  30  1   
 18  10  31  1   
 19  11  12  1   
 20  11  32  1   
 21  12  13  1   
 22  12  33  1   
 23  12  34  1   
 24  13  14  1   
 25  13  15  1   
 26  13  16  1   
 27  14  17  1   
 28  14  18  1   
 29  14  35  1   
 30  15  19  1   
 31  15  36  1   
 32  15  37  1   
 33  16  20  1   
 34  16  38  1   
 35  16  39  1   
 36  17  21  1   
 37  17  40  1   
 38  17  41  1   
 39  18  22  1   
 40  18  42  1   
 41  18  43  1   
 42  19  23  1   
 43  19  44  1   
 44  19  45  1   
 45  20  23  1   
 46  20  46  1   
 47  20  47  1   
 48  21  24  1   
 49  21  48  1   
 50  21  49  1   
 51  22  24  1   
 52  22  50  1   
 53  22  51  1   
 54  23  52  1   
 55  23  53  1   
@<TRIPOS>SUBSTRUCTURE
  1 ****  11 GROUP 4 **** **** 0

# MOE 2024.06 (io_trps.svl 2023.06)
