@<TRIPOS>MOLECULE
NONAME
38 41 1 0 0 
SMALL
USER_CHARGES


@<TRIPOS>ATOM
  1 O        0.2790     0.6560     0.2300 O.2   1 <1>  -0.5700 
  2 C       -0.0720     1.8100     0.4500 C.2   1 <1>   0.6160 
  3 N        0.8520     2.6710     1.0410 N.am  1 <1>  -0.4690 
  4 C       -1.3960     2.2960     0.1290 C.2   1 <1>   0.0140 
  5 C        0.5040     3.9600     1.3690 C.2   1 <1>  -0.0410 
  6 C        2.2260     2.1860     1.3610 C.3   1 <1>   0.1400 
  7 C       -1.6910     3.6080     0.4700 C.2   1 <1>   0.0770 
  8 C       -2.4390     1.5370    -0.5120 C.2   1 <1>  -0.1380 
  9 C       -0.7360     4.4340     1.0950 C.2   1 <1>  -0.1500 
 10 C        3.1250     2.1640     0.1060 C.3   1 <1>  -0.0800 
 11 O       -2.8880     4.1570     0.2270 O.3   1 <1>  -0.2270 
 12 C       -3.6340     2.1380    -0.7370 C.2   1 <1>  -0.1360 
 13 C       -2.2440     0.0880    -0.9450 C.3   1 <1>  -0.1020 
 14 C        4.6570     1.6120     0.4210 C.3   1 <1>   0.0580 
 15 C        3.3120     3.6880    -0.6440 C.3   1 <1>  -0.1600 
 16 C       -3.8790     3.4850    -0.3610 C.2   1 <1>   0.7060 
 17 C        6.1970     1.9750     0.0960 C.2   1 <1>  -0.2880 
 18 C        4.6720     2.8140    -0.1560 C.3   1 <1>  -0.1600 
 19 C        4.9370     3.9600    -0.7790 C.3   1 <1>   0.0580 
 20 O       -4.9370     4.0540    -0.5440 O.2   1 <1>  -0.5700 
 21 C        6.3440     3.2060    -0.5300 C.2   1 <1>  -0.2880 
 22 H        1.2460     4.5790     1.8470 H     1 <1>   0.1500 
 23 H        2.1620     1.1930     1.7730 H     1 <1>   0.0800 
 24 H        2.6640     2.8220     2.1090 H     1 <1>   0.0800 
 25 H       -1.0200     5.4410     1.3450 H     1 <1>   0.1500 
 26 H        2.6660     1.4810    -0.5960 H     1 <1>   0.0800 
 27 H       -4.4570     1.6370    -1.2090 H     1 <1>   0.1500 
 28 H       -1.4300     0.0160    -1.6450 H     1 <1>   0.0800 
 29 H       -3.1270    -0.3020    -1.4170 H     1 <1>   0.0800 
 30 H       -2.0200    -0.5280    -0.0910 H     1 <1>   0.0800 
 31 H        4.6750     1.5160     1.4980 H     1 <1>   0.0800 
 32 H        2.8440     4.4720    -0.0680 H     1 <1>   0.0800 
 33 H        2.8450     3.6840    -1.6180 H     1 <1>   0.0800 
 34 H        6.9600     1.2680     0.3760 H     1 <1>   0.1500 
 35 H        4.7510     3.3350     0.8860 H     1 <1>   0.0800 
 36 H        4.6710     2.2650    -1.2450 H     1 <1>   0.0800 
 37 H        5.0690     4.8770    -0.2210 H     1 <1>   0.0800 
 38 H        7.2500     3.6910    -0.8540 H     1 <1>   0.1500 
@<TRIPOS>BOND
  1   1   2  2   
  2   2   3  am  
  3   2   4  1   
  4   3   5  1   
  5   3   6  1   
  6   4   7  2   
  7   4   8  1   
  8   5   9  2   
  9   5  22  1   
 10   6  10  1   
 11   6  23  1   
 12   6  24  1   
 13   7   9  1   
 14   7  11  1   
 15   8  12  2   
 16   8  13  1   
 17   9  25  1   
 18  10  14  1   
 19  10  15  1   
 20  10  26  1   
 21  11  16  1   
 22  12  16  1   
 23  12  27  1   
 24  13  28  1   
 25  13  29  1   
 26  13  30  1   
 27  14  17  1   
 28  14  18  1   
 29  14  31  1   
 30  15  19  1   
 31  15  32  1   
 32  15  33  1   
 33  16  20  2   
 34  17  21  2   
 35  17  34  1   
 36  18  19  1   
 37  18  35  1   
 38  18  36  1   
 39  19  21  1   
 40  19  37  1   
 41  21  38  1   
@<TRIPOS>SUBSTRUCTURE
  1 ****   3 GROUP 4 **** **** 0

# MOE 2024.06 (io_trps.svl 2023.06)
