@<TRIPOS>MOLECULE
NONAME
43 44 1 0 0 
SMALL
USER_CHARGES


@<TRIPOS>ATOM
  1 CL      -0.0950    -0.1870     1.5740 Cl    1 <1>  -0.1770 
  2 C        1.3260    -0.8610     0.8160 C.ar  1 <1>   0.1770 
  3 C        2.5710    -0.3470     1.1310 C.ar  1 <1>  -0.1500 
  4 C        1.1820    -1.8940    -0.0910 C.ar  1 <1>  -0.1500 
  5 C        3.7100    -0.8700     0.5330 C.ar  1 <1>  -0.1440 
  6 C        2.3130    -2.4280    -0.6830 C.ar  1 <1>  -0.1500 
  7 C        3.5690    -1.9320    -0.3610 C.ar  1 <1>   0.0830 
  8 C        5.0830    -0.2900     0.8520 C.3   1 <1>   0.3530 
  9 O        4.6470    -2.4940    -0.9490 O.3   1 <1>  -0.3630 
 10 N        5.0110     1.1830     0.8940 N.pl3 1 <1>  -0.8690 
 11 C        5.3560    -3.4670    -0.2140 C.3   1 <1>   0.2000 
 12 C        6.1900     1.9130     0.8740 C.ar  1 <1>   0.4100 
 13 C        6.8090    -3.4220    -0.6810 C.3   1 <1>  -0.2400 
 14 C        4.7300    -4.8380    -0.4730 C.3   1 <1>  -0.2400 
 15 N        7.2100     1.3990     1.5360 N.ar  1 <1>  -0.6200 
 16 C        6.2530     3.1490     0.1500 C.ar  1 <1>   0.4100 
 17 C        8.2910     2.1650     1.4570 C.ar  1 <1>   0.1600 
 18 N        7.3470     3.8900     0.0830 N.ar  1 <1>  -0.6200 
 19 N        5.1260     3.6420    -0.5280 N.pl3 1 <1>  -0.8380 
 20 C        8.3570     3.3580     0.7600 C.ar  1 <1>   0.1600 
 21 C        4.1080     4.3020     0.3290 C.3   1 <1>   0.1290 
 22 C        5.3500     4.3360    -1.8260 C.3   1 <1>   0.1290 
 23 H        2.6430     0.4600     1.8390 H     1 <1>   0.1500 
 24 H        0.2030    -2.2700    -0.3260 H     1 <1>   0.1500 
 25 H        2.2300    -3.2290    -1.3950 H     1 <1>   0.1500 
 26 H        5.8010    -0.5790     0.1050 H     1 <1>   0.0800 
 27 H        5.4180    -0.6560     1.8070 H     1 <1>   0.0800 
 28 H        4.3860     1.5480     0.1660 H     1 <1>   0.4000 
 29 H        5.3000    -3.2220     0.8340 H     1 <1>   0.0800 
 30 H        6.8700    -3.6390    -1.7330 H     1 <1>   0.0800 
 31 H        7.3910    -4.1490    -0.1450 H     1 <1>   0.0800 
 32 H        7.2270    -2.4500    -0.4950 H     1 <1>   0.0800 
 33 H        4.7220    -5.0520    -1.5270 H     1 <1>   0.0800 
 34 H        3.7250    -4.8670    -0.0930 H     1 <1>   0.0800 
 35 H        5.2970    -5.6010     0.0280 H     1 <1>   0.0800 
 36 H        9.1670     1.8180     1.9750 H     1 <1>   0.1500 
 37 H        9.2820     3.9070     0.7550 H     1 <1>   0.1500 
 38 H        4.0460     3.8070     1.2830 H     1 <1>   0.0800 
 39 H        3.1450     4.2590    -0.1480 H     1 <1>   0.0800 
 40 H        4.3800     5.3310     0.4920 H     1 <1>   0.0800 
 41 H        6.1100     3.8210    -2.3880 H     1 <1>   0.0800 
 42 H        5.6740     5.3470    -1.6500 H     1 <1>   0.0800 
 43 H        4.4400     4.3450    -2.4000 H     1 <1>   0.0800 
@<TRIPOS>BOND
  1   1   2  1   
  2   2   3  ar  
  3   2   4  ar  
  4   3   5  ar  
  5   3  23  1   
  6   4   6  ar  
  7   4  24  1   
  8   5   7  ar  
  9   5   8  1   
 10   6   7  ar  
 11   6  25  1   
 12   7   9  1   
 13   8  10  1   
 14   8  26  1   
 15   8  27  1   
 16   9  11  1   
 17  10  12  1   
 18  10  28  1   
 19  11  13  1   
 20  11  14  1   
 21  11  29  1   
 22  12  15  ar  
 23  12  16  ar  
 24  13  30  1   
 25  13  31  1   
 26  13  32  1   
 27  14  33  1   
 28  14  34  1   
 29  14  35  1   
 30  15  17  ar  
 31  16  18  ar  
 32  16  19  1   
 33  17  20  ar  
 34  17  36  1   
 35  18  20  ar  
 36  19  21  1   
 37  19  22  1   
 38  20  37  1   
 39  21  38  1   
 40  21  39  1   
 41  21  40  1   
 42  22  41  1   
 43  22  42  1   
 44  22  43  1   
@<TRIPOS>SUBSTRUCTURE
  1 ****   8 GROUP 4 **** **** 0

# MOE 2024.06 (io_trps.svl 2023.06)
