@<TRIPOS>MOLECULE
NONAME
49 50 1 0 0 
SMALL
USER_CHARGES


@<TRIPOS>ATOM
  1 O        0.1470    -0.0400     0.5900 O.2   1 <1>  -0.5700 
  2 C        1.0820    -0.7070     0.2260 C.2   1 <1>   0.5690 
  3 N        2.2080    -0.1850    -0.3250 N.am  1 <1>  -0.7300 
  4 C        0.9850    -2.2030     0.3620 C.3   1 <1>  -0.0990 
  5 C        2.5090     1.2410    -0.5940 C.3   1 <1>   0.2200 
  6 C        0.0840    -2.7490    -0.7460 C.3   1 <1>   0.0960 
  7 C        2.3860     2.0920     0.6790 C.3   1 <1>   0.0210 
  8 C        1.6090     1.7310    -1.7310 C.3   1 <1>  -0.2400 
  9 N        0.0550    -4.2220    -0.6920 N.pl3 1 <1>   0.3140 
 10 C        2.9530     3.4790     0.4550 C.2   1 <1>   0.1080 
 11 N        1.0690    -4.9210    -1.2150 N.2   1 <1>  -0.7070 
 12 C       -0.8750    -5.0310    -0.1470 C.2   1 <1>  -0.3320 
 13 N        4.1990     3.6920     0.1620 N.2   1 <1>  -0.7070 
 14 C        2.2230     4.6600     0.5320 C.2   1 <1>  -0.1500 
 15 C        0.7700    -6.1590    -1.0020 C.2   1 <1>   0.1080 
 16 C       -0.4430    -6.3220    -0.3150 C.2   1 <1>  -0.0860 
 17 C       -2.1530    -4.4980     0.4920 C.3   1 <1>  -0.0600 
 18 N        4.2970     5.0300     0.0470 N.pl3 1 <1>   0.3000 
 19 C        3.1130     5.6390     0.2650 C.2   1 <1>  -0.3320 
 20 C        1.6840    -7.2740    -1.4660 C.3   1 <1>  -0.0590 
 21 C       -0.9950    -7.5950     0.0820 C.2   1 <1>   0.5950 
 22 C        2.9000     7.1400     0.2050 C.3   1 <1>  -0.0600 
 23 O       -0.8040    -8.6250    -0.5130 O.2   1 <1>  -0.5700 
 24 C       -1.8400    -7.6950     1.3320 C.3   1 <1>  -0.1790 
 25 H        2.9450    -0.8240    -0.6270 H     1 <1>   0.3700 
 26 H        0.5670    -2.4370     1.3240 H     1 <1>   0.0800 
 27 H        1.9640    -2.6410     0.2910 H     1 <1>   0.0800 
 28 H        3.5320     1.3000    -0.9260 H     1 <1>   0.0800 
 29 H        0.4680    -2.4610    -1.7080 H     1 <1>   0.0800 
 30 H       -0.9110    -2.3600    -0.6470 H     1 <1>   0.0800 
 31 H        2.9420     1.6290     1.4720 H     1 <1>   0.0800 
 32 H        1.3590     2.1740     0.9790 H     1 <1>   0.0800 
 33 H        0.5780     1.7260    -1.4270 H     1 <1>   0.0800 
 34 H        1.7300     1.1040    -2.5960 H     1 <1>   0.0800 
 35 H        1.8790     2.7350    -2.0030 H     1 <1>   0.0800 
 36 H        1.1740     4.7420     0.7590 H     1 <1>   0.1500 
 37 H       -2.6370    -3.8010    -0.1690 H     1 <1>   0.0800 
 38 H       -1.9260    -3.9990     1.4170 H     1 <1>   0.0800 
 39 H       -2.8540    -5.2860     0.6880 H     1 <1>   0.0800 
 40 H        5.1840     5.4950    -0.1800 H     1 <1>   0.2700 
 41 H        2.5950    -6.8640    -1.8610 H     1 <1>   0.0800 
 42 H        1.1970    -7.8440    -2.2350 H     1 <1>   0.0800 
 43 H        1.9220    -7.9220    -0.6430 H     1 <1>   0.0800 
 44 H        1.8720     7.3760     0.4140 H     1 <1>   0.0800 
 45 H        3.1440     7.5120    -0.7750 H     1 <1>   0.0800 
 46 H        3.5200     7.6330     0.9330 H     1 <1>   0.0800 
 47 H       -1.5900    -6.9070     2.0180 H     1 <1>   0.0800 
 48 H       -1.6560    -8.6380     1.8130 H     1 <1>   0.0800 
 49 H       -2.8790    -7.6380     1.0690 H     1 <1>   0.0800 
@<TRIPOS>BOND
  1   1   2  2   
  2   2   3  am  
  3   2   4  1   
  4   3   5  1   
  5   3  25  1   
  6   4   6  1   
  7   4  26  1   
  8   4  27  1   
  9   5   7  1   
 10   5   8  1   
 11   5  28  1   
 12   6   9  1   
 13   6  29  1   
 14   6  30  1   
 15   7  10  1   
 16   7  31  1   
 17   7  32  1   
 18   8  33  1   
 19   8  34  1   
 20   8  35  1   
 21   9  11  1   
 22   9  12  1   
 23  10  13  2   
 24  10  14  1   
 25  11  15  2   
 26  12  16  2   
 27  12  17  1   
 28  13  18  1   
 29  14  19  2   
 30  14  36  1   
 31  15  16  1   
 32  15  20  1   
 33  16  21  1   
 34  17  37  1   
 35  17  38  1   
 36  17  39  1   
 37  18  19  1   
 38  18  40  1   
 39  19  22  1   
 40  20  41  1   
 41  20  42  1   
 42  20  43  1   
 43  21  23  2   
 44  21  24  1   
 45  22  44  1   
 46  22  45  1   
 47  22  46  1   
 48  24  47  1   
 49  24  48  1   
 50  24  49  1   
@<TRIPOS>SUBSTRUCTURE
  1 ****   2 GROUP 4 **** **** 0

# MOE 2024.06 (io_trps.svl 2023.06)
