@<TRIPOS>MOLECULE
NONAME
49 51 1 0 0 
SMALL
USER_CHARGES


@<TRIPOS>ATOM
  1 S       -2.7880    -2.2060     2.7940 S.3   1 <1>  -0.0800 
  2 C       -4.2400    -3.1880     2.7830 C.2   1 <1>  -0.1100 
  3 C       -2.3150    -2.8120     1.2190 C.2   1 <1>  -0.1100 
  4 C       -4.3300    -3.9010     1.6430 C.2   1 <1>  -0.1810 
  5 C       -3.2220    -3.6900     0.7540 C.2   1 <1>  -0.1500 
  6 C       -5.4630    -4.8450     1.2960 C.3   1 <1>   0.5240 
  7 N       -6.5690    -4.0420     0.7190 N.4   1 <1>  -0.9590 
  8 C       -7.8330    -4.8550     0.7380 C.3   1 <1>   0.3430 
  9 C       -6.2410    -3.5790    -0.6630 C.3   1 <1>   0.3430 
 10 C       -9.1160    -4.0660     0.3970 C.3   1 <1>   0.1400 
 11 C       -6.7710    -2.1650    -0.9200 C.3   1 <1>  -0.1600 
 12 N       -8.9840    -3.2650    -0.8600 N.am  1 <1>  -0.6600 
 13 C       -8.2760    -1.9720    -0.6940 C.3   1 <1>   0.1400 
 14 C       -9.3120    -3.7270    -2.1190 C.2   1 <1>   0.5690 
 15 O       -9.1410    -3.0390    -3.0970 O.2   1 <1>  -0.5700 
 16 C       -9.8500    -5.1450    -2.3310 C.3   1 <1>   0.1810 
 17 O       -8.9540    -6.0850    -1.7890 O.3   1 <1>  -0.5600 
 18 C       -9.4510    -7.3670    -1.5620 C.3   1 <1>   0.2630 
 19 C       -8.8670    -7.7970    -0.2270 C.ar  1 <1>  -0.1430 
 20 C       -9.6290    -7.7320     0.9310 C.ar  1 <1>  -0.1500 
 21 C       -7.5500    -8.2250    -0.1520 C.ar  1 <1>  -0.1500 
 22 C       -9.0740    -8.0810     2.1510 C.ar  1 <1>  -0.1500 
 23 C       -6.9960    -8.5760     1.0670 C.ar  1 <1>  -0.1500 
 24 C       -7.7580    -8.5000     2.2200 C.ar  1 <1>  -0.1500 
 25 H       -4.8720    -3.1150     3.6520 H     1 <1>   0.1500 
 26 H       -1.3900    -2.4440     0.8070 H     1 <1>   0.1500 
 27 H       -3.1380    -4.2030    -0.1890 H     1 <1>   0.1500 
 28 H       -5.7980    -5.3310     2.1980 H     1 <1>   0.0800 
 29 H       -5.1330    -5.6010     0.6020 H     1 <1>   0.0800 
 30 H       -6.6720    -3.2110     1.3100 H     1 <1>   0.4500 
 31 H       -7.9650    -5.3030     1.7090 H     1 <1>   0.0800 
 32 H       -7.7320    -5.6610     0.0340 H     1 <1>   0.0800 
 33 H       -6.6680    -4.2580    -1.3850 H     1 <1>   0.0800 
 34 H       -5.1740    -3.5690    -0.8110 H     1 <1>   0.0800 
 35 H       -9.3630    -3.4120     1.2150 H     1 <1>   0.0800 
 36 H       -9.9320    -4.7600     0.3020 H     1 <1>   0.0800 
 37 H       -6.5700    -1.9330    -1.9510 H     1 <1>   0.0800 
 38 H       -6.2210    -1.4500    -0.3350 H     1 <1>   0.0800 
 39 H       -8.6600    -1.2500    -1.3970 H     1 <1>   0.0800 
 40 H       -8.4570    -1.5840     0.2940 H     1 <1>   0.0800 
 41 H       -9.9580    -5.3450    -3.3820 H     1 <1>   0.0800 
 42 H      -10.8060    -5.2320    -1.8470 H     1 <1>   0.0800 
 43 H       -9.1220    -8.0080    -2.3620 H     1 <1>   0.0800 
 44 H      -10.5270    -7.3570    -1.5260 H     1 <1>   0.0800 
 45 H      -10.6570    -7.4160     0.8900 H     1 <1>   0.1500 
 46 H       -6.9540    -8.2890    -1.0470 H     1 <1>   0.1500 
 47 H       -9.6720    -8.0380     3.0470 H     1 <1>   0.1500 
 48 H       -5.9770    -8.9220     1.1170 H     1 <1>   0.1500 
 49 H       -7.3320    -8.7840     3.1680 H     1 <1>   0.1500 
@<TRIPOS>BOND
  1   1   2  1   
  2   1   3  1   
  3   2   4  2   
  4   2  25  1   
  5   3   5  2   
  6   3  26  1   
  7   4   5  1   
  8   4   6  1   
  9   5  27  1   
 10   6   7  1   
 11   6  28  1   
 12   6  29  1   
 13   7   8  1   
 14   7   9  1   
 15   7  30  1   
 16   8  10  1   
 17   8  31  1   
 18   8  32  1   
 19   9  11  1   
 20   9  33  1   
 21   9  34  1   
 22  10  12  1   
 23  10  35  1   
 24  10  36  1   
 25  11  13  1   
 26  11  37  1   
 27  11  38  1   
 28  12  13  1   
 29  12  14  am  
 30  13  39  1   
 31  13  40  1   
 32  14  15  2   
 33  14  16  1   
 34  16  17  1   
 35  16  41  1   
 36  16  42  1   
 37  17  18  1   
 38  18  19  1   
 39  18  43  1   
 40  18  44  1   
 41  19  20  ar  
 42  19  21  ar  
 43  20  22  ar  
 44  20  45  1   
 45  21  23  ar  
 46  21  46  1   
 47  22  24  ar  
 48  22  47  1   
 49  23  24  ar  
 50  23  48  1   
 51  24  49  1   
@<TRIPOS>SUBSTRUCTURE
  1 ****   8 GROUP 4 **** **** 0

# MOE 2024.06 (io_trps.svl 2023.06)
