@<TRIPOS>MOLECULE
NONAME
46 48 1 0 0 
SMALL
USER_CHARGES


@<TRIPOS>ATOM
  1 O        0.5950     0.1960     1.7430 O.2   1 <1>  -0.5700 
  2 C        1.2560    -0.4600     0.9680 C.2   1 <1>   0.5690 
  3 N        2.0590     0.0900     0.0040 N.am  1 <1>  -0.4940 
  4 C        1.2420    -1.9910     1.0800 C.3   1 <1>   0.4050 
  5 C        2.2650     1.4440    -0.3550 C.2   1 <1>  -0.0880 
  6 O        2.4450    -2.5260     0.5560 O.3   1 <1>  -0.5600 
  7 C        0.0430    -2.5920     0.3400 C.ar  1 <1>  -0.1440 
  8 N        3.4810     1.9870    -0.6410 N.pl3 1 <1>   0.3140 
  9 C        1.3580     2.4410    -0.4900 C.2   1 <1>  -0.1810 
 10 C        2.6630    -3.8720     0.8550 C.3   1 <1>   0.0400 
 11 C       -1.0690    -3.0130     1.0550 C.ar  1 <1>  -0.1500 
 12 C        0.0440    -2.7190    -1.0430 C.ar  1 <1>  -0.1500 
 13 N        3.3680     3.3020    -0.9590 N.2   1 <1>  -0.7070 
 14 C        4.7850     1.2590    -0.5840 C.3   1 <1>   0.1760 
 15 C        2.1010     3.5560    -0.8580 C.2   1 <1>   0.1390 
 16 C       -0.1460     2.4040    -0.3000 C.3   1 <1>  -0.0590 
 17 C       -2.1590    -3.5590     0.4000 C.ar  1 <1>  -0.1500 
 18 C       -1.0450    -3.2650    -1.6990 C.ar  1 <1>  -0.1500 
 19 C        5.2300     0.9700     0.8520 C.3   1 <1>  -0.1600 
 20 C        5.9740     2.0080    -1.1910 C.3   1 <1>  -0.1600 
 21 C       -2.1480    -3.6860    -0.9780 C.ar  1 <1>  -0.1500 
 22 C        6.7590     0.8450     0.8040 C.3   1 <1>  -0.1600 
 23 C        7.1950     1.3160    -0.5880 C.3   1 <1>  -0.1600 
 24 H        2.6440    -0.6130    -0.4570 H     1 <1>   0.3700 
 25 H        1.1970    -2.2400     2.1250 H     1 <1>   0.0800 
 26 H        3.6120    -4.1610     0.4370 H     1 <1>   0.0800 
 27 H        1.8830    -4.4720     0.4170 H     1 <1>   0.0800 
 28 H        2.6840    -4.0040     1.9230 H     1 <1>   0.0800 
 29 H       -1.0980    -2.9140     2.1270 H     1 <1>   0.1500 
 30 H        0.8960    -2.3950    -1.6160 H     1 <1>   0.1500 
 31 H        4.6710     0.3280    -1.1080 H     1 <1>   0.0800 
 32 H        1.6800     4.5300    -1.0440 H     1 <1>   0.1500 
 33 H       -0.5180     1.4100    -0.4690 H     1 <1>   0.0800 
 34 H       -0.6270     3.0730    -0.9890 H     1 <1>   0.0800 
 35 H       -0.3910     2.6960     0.7060 H     1 <1>   0.0800 
 36 H       -3.0180    -3.8830     0.9610 H     1 <1>   0.1500 
 37 H       -1.0360    -3.3600    -2.7710 H     1 <1>   0.1500 
 38 H        4.7720     0.0740     1.2330 H     1 <1>   0.0800 
 39 H        4.9640     1.8020     1.4820 H     1 <1>   0.0800 
 40 H        5.9660     3.0360    -0.8710 H     1 <1>   0.0800 
 41 H        5.9710     1.9640    -2.2660 H     1 <1>   0.0800 
 42 H       -2.9960    -4.1100    -1.4870 H     1 <1>   0.1500 
 43 H        7.0670    -0.1740     0.9670 H     1 <1>   0.0800 
 44 H        7.2000     1.4650     1.5660 H     1 <1>   0.0800 
 45 H        8.0420     1.9790    -0.5400 H     1 <1>   0.0800 
 46 H        7.4560     0.4610    -1.1900 H     1 <1>   0.0800 
@<TRIPOS>BOND
  1   1   2  2   
  2   2   3  am  
  3   2   4  1   
  4   3   5  1   
  5   3  24  1   
  6   4   6  1   
  7   4   7  1   
  8   4  25  1   
  9   5   8  1   
 10   5   9  2   
 11   6  10  1   
 12   7  11  ar  
 13   7  12  ar  
 14   8  13  1   
 15   8  14  1   
 16   9  15  1   
 17   9  16  1   
 18  10  26  1   
 19  10  27  1   
 20  10  28  1   
 21  11  17  ar  
 22  11  29  1   
 23  12  18  ar  
 24  12  30  1   
 25  13  15  2   
 26  14  19  1   
 27  14  20  1   
 28  14  31  1   
 29  15  32  1   
 30  16  33  1   
 31  16  34  1   
 32  16  35  1   
 33  17  21  ar  
 34  17  36  1   
 35  18  21  ar  
 36  18  37  1   
 37  19  22  1   
 38  19  38  1   
 39  19  39  1   
 40  20  23  1   
 41  20  40  1   
 42  20  41  1   
 43  21  42  1   
 44  22  23  1   
 45  22  43  1   
 46  22  44  1   
 47  23  45  1   
 48  23  46  1   
@<TRIPOS>SUBSTRUCTURE
  1 ****   3 GROUP 4 **** **** 0

# MOE 2024.06 (io_trps.svl 2023.06)
