@<TRIPOS>MOLECULE
NONAME
54 57 1 0 0 
SMALL
USER_CHARGES


@<TRIPOS>ATOM
  1 O        0.4050    -0.4330     1.7820 O.2   1 <1>  -0.5700 
  2 C        1.2940    -1.1260     1.3260 C.2   1 <1>   0.5440 
  3 N        2.4240    -0.5260     0.8070 N.am  1 <1>  -0.6600 
  4 C        1.1250    -2.5650     1.3380 C.ar  1 <1>   0.0860 
  5 C        3.3680    -1.2020    -0.1270 C.3   1 <1>   0.1400 
  6 C        2.6860     0.9310     0.9890 C.3   1 <1>   0.1400 
  7 C        0.0050    -3.1750     0.8090 C.ar  1 <1>  -0.1500 
  8 C        2.0620    -3.4290     1.8890 C.ar  1 <1>  -0.1500 
  9 C        3.3320    -0.5070    -1.4920 C.3   1 <1>  -0.1600 
 10 C        2.6380     1.6400    -0.3680 C.3   1 <1>  -0.1600 
 11 C       -0.1320    -4.5550     0.8270 C.ar  1 <1>   0.4100 
 12 C        1.8440    -4.7910     1.8620 C.ar  1 <1>   0.1600 
 13 C        3.6050     0.9990    -1.3740 C.3   1 <1>  -0.1600 
 14 N        0.7790    -5.3700     1.3400 N.ar  1 <1>  -0.6200 
 15 N       -1.2620    -5.1240     0.2840 N.pl3 1 <1>  -0.8690 
 16 C       -1.6770    -6.5190     0.5930 C.3   1 <1>   0.2090 
 17 C       -1.0810    -7.4830    -0.4300 C.3   1 <1>   0.0210 
 18 C       -1.5530    -8.8930    -0.1540 C.2   1 <1>   0.3350 
 19 N       -0.8020    -9.8690     0.1650 N.2   1 <1>  -0.4100 
 20 N       -2.8360    -9.2160    -0.2310 N.2   1 <1>  -0.5650 
 21 O       -1.5670   -10.9060     0.3170 O.3   1 <1>  -0.0190 
 22 C       -2.7720   -10.4540     0.0650 C.2   1 <1>   0.2980 
 23 C       -3.9340   -11.4380     0.1580 C.3   1 <1>   0.1000 
 24 C       -3.8210   -12.5980    -0.8320 C.3   1 <1>  -0.1600 
 25 C       -5.3120   -10.8500    -0.1540 C.3   1 <1>  -0.1600 
 26 C       -5.2410   -13.1570    -0.9740 C.3   1 <1>  -0.1600 
 27 C       -6.1920   -12.0590    -0.4790 C.3   1 <1>  -0.1600 
 28 H        3.1110    -2.2380    -0.2570 H     1 <1>   0.0800 
 29 H        4.3620    -1.1500     0.2830 H     1 <1>   0.0800 
 30 H        3.6580     1.0570     1.4340 H     1 <1>   0.0800 
 31 H        1.9600     1.3700     1.6530 H     1 <1>   0.0800 
 32 H       -0.7690    -2.5700     0.3780 H     1 <1>   0.1500 
 33 H        2.9530    -3.0300     2.3380 H     1 <1>   0.1500 
 34 H        2.3640    -0.6650    -1.9350 H     1 <1>   0.0800 
 35 H        4.0650    -0.9560    -2.1400 H     1 <1>   0.0800 
 36 H        2.8870     2.6770    -0.2350 H     1 <1>   0.0800 
 37 H        1.6320     1.5900    -0.7460 H     1 <1>   0.0800 
 38 H        2.5850    -5.4440     2.2920 H     1 <1>   0.1500 
 39 H        3.4910     1.4670    -2.3360 H     1 <1>   0.0800 
 40 H        4.6180     1.1550    -1.0450 H     1 <1>   0.0800 
 41 H       -2.0460    -4.4850     0.1410 H     1 <1>   0.4000 
 42 H       -2.7510    -6.5830     0.5660 H     1 <1>   0.0800 
 43 H       -1.3500    -6.7930     1.5830 H     1 <1>   0.0800 
 44 H       -0.0080    -7.4490    -0.3740 H     1 <1>   0.0800 
 45 H       -1.3880    -7.2000    -1.4190 H     1 <1>   0.0800 
 46 H       -3.9570   -11.8400     1.1560 H     1 <1>   0.0800 
 47 H       -3.1240   -13.3450    -0.4940 H     1 <1>   0.0800 
 48 H       -3.4930   -12.2190    -1.7850 H     1 <1>   0.0800 
 49 H       -5.2460   -10.2200    -1.0240 H     1 <1>   0.0800 
 50 H       -5.6980   -10.2730     0.6680 H     1 <1>   0.0800 
 51 H       -5.3570   -14.0380    -0.3660 H     1 <1>   0.0800 
 52 H       -5.4450   -13.4140    -1.9990 H     1 <1>   0.0800 
 53 H       -6.9320   -11.8120    -1.2200 H     1 <1>   0.0800 
 54 H       -6.6930   -12.3940     0.4140 H     1 <1>   0.0800 
@<TRIPOS>BOND
  1   1   2  2   
  2   2   3  am  
  3   2   4  1   
  4   3   5  1   
  5   3   6  1   
  6   4   7  ar  
  7   4   8  ar  
  8   5   9  1   
  9   5  28  1   
 10   5  29  1   
 11   6  10  1   
 12   6  30  1   
 13   6  31  1   
 14   7  11  ar  
 15   7  32  1   
 16   8  12  ar  
 17   8  33  1   
 18   9  13  1   
 19   9  34  1   
 20   9  35  1   
 21  10  13  1   
 22  10  36  1   
 23  10  37  1   
 24  11  14  ar  
 25  11  15  1   
 26  12  14  ar  
 27  12  38  1   
 28  13  39  1   
 29  13  40  1   
 30  15  16  1   
 31  15  41  1   
 32  16  17  1   
 33  16  42  1   
 34  16  43  1   
 35  17  18  1   
 36  17  44  1   
 37  17  45  1   
 38  18  19  2   
 39  18  20  1   
 40  19  21  1   
 41  20  22  2   
 42  21  22  1   
 43  22  23  1   
 44  23  24  1   
 45  23  25  1   
 46  23  46  1   
 47  24  26  1   
 48  24  47  1   
 49  24  48  1   
 50  25  27  1   
 51  25  49  1   
 52  25  50  1   
 53  26  27  1   
 54  26  51  1   
 55  26  52  1   
 56  27  53  1   
 57  27  54  1   
@<TRIPOS>SUBSTRUCTURE
  1 ****  15 GROUP 4 **** **** 0

# MOE 2024.06 (io_trps.svl 2023.06)
