@<TRIPOS>MOLECULE
NONAME
51 53 1 0 0 
SMALL
USER_CHARGES


@<TRIPOS>ATOM
  1 O       -0.6130     0.5150    -1.6520 O.co2 1 <1>  -0.9000 
  2 C       -0.9660     0.7430    -0.4910 C.2   1 <1>   0.9060 
  3 O       -1.4230    -0.1240     0.2570 O.co2 1 <1>  -0.9000 
  4 C       -0.9080     2.1650     0.0230 C.3   1 <1>  -0.1060 
  5 C       -2.3720     2.5130     0.3940 C.3   1 <1>   0.2000 
  6 C       -0.5080     3.0370    -1.1710 C.3   1 <1>   0.3430 
  7 C        0.1130     2.2340     1.2100 C.3   1 <1>  -0.0170 
  8 O       -2.5930     2.2050     1.7190 O.3   1 <1>  -0.6800 
  9 C       -2.7630     3.9800     0.1650 C.3   1 <1>  -0.1600 
 10 N       -0.6030     4.5240    -0.9200 N.4   1 <1>  -0.9590 
 11 C        1.5840     2.4380     0.8370 C.ar  1 <1>  -0.1440 
 12 C       -1.5430     4.8880     0.1890 C.3   1 <1>   0.3430 
 13 C        0.7640     5.0550    -0.6560 C.3   1 <1>   0.3430 
 14 C        2.2070     1.6740    -0.1410 C.ar  1 <1>  -0.1500 
 15 C        2.3260     3.4120     1.4940 C.ar  1 <1>  -0.1500 
 16 C        0.9180     6.5190    -1.0590 C.3   1 <1>  -0.0170 
 17 C        3.5220     1.9170    -0.4940 C.ar  1 <1>  -0.1500 
 18 C        3.6400     3.6610     1.1390 C.ar  1 <1>  -0.1500 
 19 C        2.2850     6.9850    -0.5920 C.ar  1 <1>  -0.1440 
 20 C        4.2380     2.9170     0.1390 C.ar  1 <1>  -0.1500 
 21 C        3.4260     6.5440    -1.2480 C.ar  1 <1>  -0.1500 
 22 C        2.4080     7.8300     0.5030 C.ar  1 <1>  -0.1500 
 23 C        4.6780     6.9330    -0.8070 C.ar  1 <1>  -0.1500 
 24 C        3.6590     8.2230     0.9450 C.ar  1 <1>  -0.1500 
 25 C        4.7910     7.7680     0.2890 C.ar  1 <1>   0.0820 
 26 O        6.0110     8.1330     0.7080 O.3   1 <1>  -0.5330 
 27 H       -3.0540     1.9000    -0.1760 H     1 <1>   0.0800 
 28 H       -1.1700     2.7810    -1.9830 H     1 <1>   0.0800 
 29 H        0.4840     2.7680    -1.4950 H     1 <1>   0.0800 
 30 H       -0.1730     3.0300     1.8710 H     1 <1>   0.0800 
 31 H        0.0420     1.3310     1.7930 H     1 <1>   0.0800 
 32 H       -2.4360     1.2310     1.8110 H     1 <1>   0.4000 
 33 H       -3.2430     4.0730    -0.7920 H     1 <1>   0.0800 
 34 H       -3.4730     4.2930     0.9110 H     1 <1>   0.0800 
 35 H       -0.9450     4.9310    -1.7980 H     1 <1>   0.4500 
 36 H       -1.0510     4.7710     1.1400 H     1 <1>   0.0800 
 37 H       -1.8490     5.9170     0.0920 H     1 <1>   0.0800 
 38 H        0.9800     4.9670     0.3930 H     1 <1>   0.0800 
 39 H        1.4980     4.4690    -1.1870 H     1 <1>   0.0800 
 40 H        1.6800     0.8760    -0.6390 H     1 <1>   0.1500 
 41 H        1.8860     3.9900     2.2880 H     1 <1>   0.1500 
 42 H        0.8510     6.6200    -2.1280 H     1 <1>   0.0800 
 43 H        0.1530     7.1200    -0.6010 H     1 <1>   0.0800 
 44 H        3.9870     1.3190    -1.2590 H     1 <1>   0.1500 
 45 H        4.2010     4.4310     1.6410 H     1 <1>   0.1500 
 46 H        5.2610     3.1090    -0.1380 H     1 <1>   0.1500 
 47 H        3.3560     5.8930    -2.1020 H     1 <1>   0.1500 
 48 H        1.5360     8.1880     1.0220 H     1 <1>   0.1500 
 49 H        5.5680     6.5960    -1.3070 H     1 <1>   0.1500 
 50 H        3.7480     8.8770     1.7940 H     1 <1>   0.1500 
 51 H        5.9930     8.7480     1.4620 H     1 <1>   0.4500 
@<TRIPOS>BOND
  1   1   2  ar  
  2   2   3  ar  
  3   2   4  1   
  4   4   5  1   
  5   4   6  1   
  6   4   7  1   
  7   5   8  1   
  8   5   9  1   
  9   5  27  1   
 10   6  10  1   
 11   6  28  1   
 12   6  29  1   
 13   7  11  1   
 14   7  30  1   
 15   7  31  1   
 16   8  32  1   
 17   9  12  1   
 18   9  33  1   
 19   9  34  1   
 20  10  12  1   
 21  10  13  1   
 22  10  35  1   
 23  11  14  ar  
 24  11  15  ar  
 25  12  36  1   
 26  12  37  1   
 27  13  16  1   
 28  13  38  1   
 29  13  39  1   
 30  14  17  ar  
 31  14  40  1   
 32  15  18  ar  
 33  15  41  1   
 34  16  19  1   
 35  16  42  1   
 36  16  43  1   
 37  17  20  ar  
 38  17  44  1   
 39  18  20  ar  
 40  18  45  1   
 41  19  21  ar  
 42  19  22  ar  
 43  20  46  1   
 44  21  23  ar  
 45  21  47  1   
 46  22  24  ar  
 47  22  48  1   
 48  23  25  ar  
 49  23  49  1   
 50  24  25  ar  
 51  24  50  1   
 52  25  26  1   
 53  26  51  1   
@<TRIPOS>SUBSTRUCTURE
  1 ****  13 GROUP 4 **** **** 0

# MOE 2024.06 (io_trps.svl 2023.06)
