@<TRIPOS>MOLECULE
NONAME
42 44 1 0 0 
SMALL
USER_CHARGES


@<TRIPOS>ATOM
  1 S        1.2880     0.4350     1.6170 S.3   1 <1>  -0.0800 
  2 C        2.0320    -0.8350     0.6390 C.2   1 <1>  -0.0450 
  3 C        0.0770    -0.6530     2.2560 C.2   1 <1>  -0.1100 
  4 C        3.1730    -0.5200    -0.1740 C.2   1 <1>   0.5940 
  5 C        1.3400    -1.9870     0.8410 C.2   1 <1>  -0.1500 
  6 C        0.2390    -1.8870     1.7420 C.2   1 <1>  -0.1810 
  7 O        3.6600     0.5780    -0.2630 O.2   1 <1>  -0.5700 
  8 C        3.8100    -1.6330    -0.9780 C.3   1 <1>  -0.1790 
  9 C       -0.6000    -3.1180     2.0290 C.3   1 <1>   0.5240 
 10 N       -1.8750    -3.0890     1.2350 N.4   1 <1>  -0.9590 
 11 C       -2.4890    -4.4610     1.2670 C.3   1 <1>   0.3430 
 12 C       -1.6310    -2.7720    -0.2140 C.3   1 <1>   0.3430 
 13 C       -2.1430    -5.1070    -0.0650 C.3   1 <1>   0.0370 
 14 C       -2.2690    -3.9030    -1.0080 C.3   1 <1>  -0.1600 
 15 C       -3.1240    -6.2380    -0.4280 C.ar  1 <1>  -0.1430 
 16 C       -0.6780    -5.5250     0.1360 C.2   1 <1>   0.9060 
 17 C       -2.6650    -7.5180    -0.7200 C.ar  1 <1>  -0.1500 
 18 C       -4.4950    -6.0040    -0.4690 C.ar  1 <1>  -0.1500 
 19 O       -0.3800    -6.1380     1.1660 O.co2 1 <1>  -0.9000 
 20 O        0.2060    -5.0290    -0.5750 O.co2 1 <1>  -0.9000 
 21 C       -3.5490    -8.5320    -1.0440 C.ar  1 <1>  -0.1500 
 22 C       -5.3800    -7.0180    -0.7930 C.ar  1 <1>  -0.1500 
 23 C       -4.9080    -8.2840    -1.0810 C.ar  1 <1>  -0.1500 
 24 H       -0.6290    -0.2400     2.9560 H     1 <1>   0.1500 
 25 H        1.5770    -2.9330     0.3700 H     1 <1>   0.1500 
 26 H        3.0880    -2.0590    -1.6490 H     1 <1>   0.0800 
 27 H        4.1740    -2.3960    -0.3160 H     1 <1>   0.0800 
 28 H        4.6330    -1.2470    -1.5510 H     1 <1>   0.0800 
 29 H       -0.8280    -3.1650     3.0810 H     1 <1>   0.0800 
 30 H       -0.0140    -3.9890     1.7850 H     1 <1>   0.0800 
 31 H       -2.5010    -2.3930     1.6470 H     1 <1>   0.4500 
 32 H       -3.5590    -4.3780     1.3500 H     1 <1>   0.0800 
 33 H       -2.1230    -5.0530     2.0910 H     1 <1>   0.0800 
 34 H       -0.5740    -2.7780    -0.4230 H     1 <1>   0.0800 
 35 H       -2.0390    -1.8130    -0.4880 H     1 <1>   0.0800 
 36 H       -1.7540    -4.0680    -1.9390 H     1 <1>   0.0800 
 37 H       -3.2930    -3.6600    -1.2200 H     1 <1>   0.0800 
 38 H       -1.6130    -7.7500    -0.6970 H     1 <1>   0.1500 
 39 H       -4.8970    -5.0320    -0.2550 H     1 <1>   0.1500 
 40 H       -3.1720    -9.5150    -1.2650 H     1 <1>   0.1500 
 41 H       -6.4380    -6.8230    -0.8230 H     1 <1>   0.1500 
 42 H       -5.5930    -9.0750    -1.3330 H     1 <1>   0.1500 
@<TRIPOS>BOND
  1   1   2  1   
  2   1   3  1   
  3   2   4  1   
  4   2   5  2   
  5   3   6  2   
  6   3  24  1   
  7   4   7  2   
  8   4   8  1   
  9   5   6  1   
 10   5  25  1   
 11   6   9  1   
 12   8  26  1   
 13   8  27  1   
 14   8  28  1   
 15   9  10  1   
 16   9  29  1   
 17   9  30  1   
 18  10  11  1   
 19  10  12  1   
 20  10  31  1   
 21  11  13  1   
 22  11  32  1   
 23  11  33  1   
 24  12  14  1   
 25  12  34  1   
 26  12  35  1   
 27  13  14  1   
 28  13  15  1   
 29  13  16  1   
 30  14  36  1   
 31  14  37  1   
 32  15  17  ar  
 33  15  18  ar  
 34  16  19  ar  
 35  16  20  ar  
 36  17  21  ar  
 37  17  38  1   
 38  18  22  ar  
 39  18  39  1   
 40  21  23  ar  
 41  21  40  1   
 42  22  23  ar  
 43  22  41  1   
 44  23  42  1   
@<TRIPOS>SUBSTRUCTURE
  1 ****  12 GROUP 4 **** **** 0

# MOE 2024.06 (io_trps.svl 2023.06)
