@<TRIPOS>MOLECULE
NONAME
54 56 1 0 0 
SMALL
USER_CHARGES


@<TRIPOS>ATOM
  1 O       -0.2340     1.0950    -1.0160 O.2   1 <1>  -0.5700 
  2 C       -0.4150     2.2900    -1.0250 C.2   1 <1>   0.5690 
  3 N       -1.1760     2.9520    -0.0920 N.am  1 <1>  -0.6600 
  4 C        0.2510     3.0880    -2.1440 C.3   1 <1>   0.1810 
  5 C       -1.3170     4.4470    -0.1450 C.3   1 <1>   0.3640 
  6 C       -1.7810     2.3110     1.1110 C.3   1 <1>   0.2200 
  7 O        0.5830     4.3880    -1.7330 O.3   1 <1>  -0.5600 
  8 C       -2.7920     4.8400    -0.2320 C.ar  1 <1>  -0.1440 
  9 C       -0.5360     5.1370    -1.2930 C.3   1 <1>   0.2610 
 10 C       -0.6830     1.7930     2.0390 C.3   1 <1>  -0.2400 
 11 C       -2.7700     1.2100     0.7250 C.3   1 <1>  -0.2400 
 12 C       -3.6580     4.1990    -1.1080 C.ar  1 <1>  -0.1500 
 13 C       -3.2790     5.8640     0.5680 C.ar  1 <1>  -0.1500 
 14 C       -0.1340     6.5500    -0.8520 C.2   1 <1>   0.5690 
 15 C       -4.9890     4.5700    -1.1780 C.ar  1 <1>  -0.1500 
 16 C       -4.6100     6.2370     0.4980 C.ar  1 <1>  -0.1500 
 17 O       -0.7260     7.4700    -1.3690 O.2   1 <1>  -0.5700 
 18 N        0.8330     6.7830     0.1030 N.am  1 <1>  -0.6600 
 19 C       -5.4660     5.5890    -0.3740 C.ar  1 <1>  -0.1500 
 20 C        1.3180     8.1690     0.3930 C.3   1 <1>   0.1400 
 21 C        1.7290     5.7630     0.7250 C.3   1 <1>   0.1400 
 22 C        2.8050     8.3470    -0.0100 C.3   1 <1>   0.2800 
 23 C        3.1780     5.9960     0.2740 C.3   1 <1>   0.1200 
 24 O        3.5840     7.3160     0.5360 O.3   1 <1>  -0.5600 
 25 C        3.3630     9.6380     0.5880 C.3   1 <1>  -0.2400 
 26 C        2.9960     8.3700    -1.5330 C.3   1 <1>  -0.2400 
 27 H       -0.4040     3.1470    -2.9940 H     1 <1>   0.0800 
 28 H        1.1610     2.5960    -2.4390 H     1 <1>   0.0800 
 29 H       -0.9330     4.8260     0.7850 H     1 <1>   0.0800 
 30 H       -2.3380     3.0560     1.6560 H     1 <1>   0.0800 
 31 H       -1.1890     5.2420    -2.1410 H     1 <1>   0.0800 
 32 H       -0.1350     0.9940     1.5740 H     1 <1>   0.0800 
 33 H       -1.1210     1.4140     2.9440 H     1 <1>   0.0800 
 34 H       -0.0060     2.5870     2.2950 H     1 <1>   0.0800 
 35 H       -2.2700     0.3800     0.2610 H     1 <1>   0.0800 
 36 H       -3.5150     1.5960     0.0550 H     1 <1>   0.0800 
 37 H       -3.2670     0.8470     1.6060 H     1 <1>   0.0800 
 38 H       -3.3020     3.4030    -1.7390 H     1 <1>   0.1500 
 39 H       -2.6280     6.3870     1.2470 H     1 <1>   0.1500 
 40 H       -5.6540     4.0660    -1.8580 H     1 <1>   0.1500 
 41 H       -4.9790     7.0340     1.1200 H     1 <1>   0.1500 
 42 H       -6.5010     5.8800    -0.4290 H     1 <1>   0.1500 
 43 H        0.7230     8.9000    -0.1250 H     1 <1>   0.0800 
 44 H        1.2130     8.3580     1.4460 H     1 <1>   0.0800 
 45 H        1.6790     5.8550     1.7960 H     1 <1>   0.0800 
 46 H        1.4350     4.7620     0.4730 H     1 <1>   0.0800 
 47 H        3.2850     5.7940    -0.7770 H     1 <1>   0.0800 
 48 H        3.8400     5.3420     0.8120 H     1 <1>   0.0800 
 49 H        2.8180    10.4880     0.2200 H     1 <1>   0.0800 
 50 H        4.3980     9.7540     0.3190 H     1 <1>   0.0800 
 51 H        3.2830     9.6170     1.6600 H     1 <1>   0.0800 
 52 H        2.5210     9.2400    -1.9480 H     1 <1>   0.0800 
 53 H        2.5470     7.5100    -1.9960 H     1 <1>   0.0800 
 54 H        4.0420     8.4020    -1.7780 H     1 <1>   0.0800 
@<TRIPOS>BOND
  1   1   2  2   
  2   2   3  am  
  3   2   4  1   
  4   3   5  1   
  5   3   6  1   
  6   4   7  1   
  7   4  27  1   
  8   4  28  1   
  9   5   8  1   
 10   5   9  1   
 11   5  29  1   
 12   6  10  1   
 13   6  11  1   
 14   6  30  1   
 15   7   9  1   
 16   8  12  ar  
 17   8  13  ar  
 18   9  14  1   
 19   9  31  1   
 20  10  32  1   
 21  10  33  1   
 22  10  34  1   
 23  11  35  1   
 24  11  36  1   
 25  11  37  1   
 26  12  15  ar  
 27  12  38  1   
 28  13  16  ar  
 29  13  39  1   
 30  14  17  2   
 31  14  18  am  
 32  15  19  ar  
 33  15  40  1   
 34  16  19  ar  
 35  16  41  1   
 36  18  20  1   
 37  18  21  1   
 38  19  42  1   
 39  20  22  1   
 40  20  43  1   
 41  20  44  1   
 42  21  23  1   
 43  21  45  1   
 44  21  46  1   
 45  22  24  1   
 46  22  25  1   
 47  22  26  1   
 48  23  24  1   
 49  23  47  1   
 50  23  48  1   
 51  25  49  1   
 52  25  50  1   
 53  25  51  1   
 54  26  52  1   
 55  26  53  1   
 56  26  54  1   
@<TRIPOS>SUBSTRUCTURE
  1 ****   9 GROUP 4 **** **** 0

# MOE 2024.06 (io_trps.svl 2023.06)
