@<TRIPOS>MOLECULE
NONAME
52 54 1 0 0 
SMALL
USER_CHARGES


@<TRIPOS>ATOM
  1 F       -0.6140    -2.9630     0.8850 F     1 <1>  -0.3400 
  2 C       -1.0430    -4.1990     0.6640 C.3   1 <1>   1.1640 
  3 F       -0.7010    -4.4870    -0.5880 F     1 <1>  -0.3400 
  4 F       -0.3070    -4.9860     1.4400 F     1 <1>  -0.3400 
  5 C       -2.5500    -4.3310     0.9340 C.ar  1 <1>  -0.1440 
  6 C       -3.4710    -4.3270    -0.1070 C.ar  1 <1>  -0.1500 
  7 C       -3.0230    -4.4560     2.2360 C.ar  1 <1>  -0.1500 
  8 C       -4.8390    -4.4700     0.1160 C.ar  1 <1>   0.0860 
  9 C       -4.3790    -4.5730     2.4840 C.ar  1 <1>  -0.1500 
 10 C       -5.7650    -4.5330    -0.9980 C.2   1 <1>   0.5440 
 11 C       -5.2760    -4.5770     1.4340 C.ar  1 <1>  -0.1500 
 12 O       -6.0200    -3.5130    -1.6080 O.2   1 <1>  -0.5700 
 13 N       -6.3600    -5.7140    -1.3940 N.am  1 <1>  -0.6600 
 14 C       -6.0430    -7.0350    -0.7340 C.3   1 <1>   0.3640 
 15 C       -7.4500    -5.6740    -2.4160 C.3   1 <1>   0.1400 
 16 C       -4.5380    -7.3000    -0.8490 C.ar  1 <1>  -0.1430 
 17 C       -6.8110    -8.2820    -1.2780 C.3   1 <1>   0.2000 
 18 C       -7.7120    -7.0390    -3.0490 C.3   1 <1>   0.1200 
 19 C       -3.8010    -7.6220     0.2800 C.ar  1 <1>  -0.1500 
 20 C       -3.8810    -7.2040    -2.0650 C.ar  1 <1>  -0.1500 
 21 O       -7.9440    -7.9670    -2.0410 O.3   1 <1>  -0.5600 
 22 C       -7.3000    -9.2100    -0.1550 C.3   1 <1>   0.1200 
 23 C       -2.4340    -7.8340     0.2250 C.ar  1 <1>   0.0830 
 24 C       -2.5170    -7.4140    -2.1460 C.ar  1 <1>  -0.1500 
 25 O       -6.2710    -9.5470     0.7200 O.3   1 <1>  -0.6800 
 26 O       -1.8740    -8.1250     1.4360 O.3   1 <1>  -0.3630 
 27 C       -1.7710    -7.7220    -1.0100 C.ar  1 <1>   0.0830 
 28 C       -0.5240    -8.4930     1.6030 C.3   1 <1>   0.0400 
 29 O       -0.4220    -7.9030    -1.0970 O.3   1 <1>  -0.3630 
 30 C        0.3270    -7.4140    -2.1890 C.3   1 <1>   0.0400 
 31 H       -3.1420    -4.2290    -1.1280 H     1 <1>   0.1500 
 32 H       -2.3350    -4.4640     3.0660 H     1 <1>   0.1500 
 33 H       -4.7330    -4.6640     3.4970 H     1 <1>   0.1500 
 34 H       -6.3310    -4.6690     1.6290 H     1 <1>   0.1500 
 35 H       -6.2900    -6.9340     0.3080 H     1 <1>   0.0800 
 36 H       -8.3530    -5.3250    -1.9470 H     1 <1>   0.0800 
 37 H       -7.1920    -4.9750    -3.1930 H     1 <1>   0.0800 
 38 H       -6.1590    -8.8470    -1.9210 H     1 <1>   0.0800 
 39 H       -6.8780    -7.3600    -3.6490 H     1 <1>   0.0800 
 40 H       -8.5910    -6.9960    -3.6670 H     1 <1>   0.0800 
 41 H       -4.2870    -7.7040     1.2370 H     1 <1>   0.1500 
 42 H       -4.4310    -6.9510    -2.9560 H     1 <1>   0.1500 
 43 H       -7.7020   -10.1190    -0.5670 H     1 <1>   0.0800 
 44 H       -8.0620    -8.7140     0.4220 H     1 <1>   0.0800 
 45 H       -2.0530    -7.3320    -3.1100 H     1 <1>   0.1500 
 46 H       -5.5730   -10.0640     0.2680 H     1 <1>   0.4000 
 47 H       -0.3690    -8.7390     2.6380 H     1 <1>   0.0800 
 48 H        0.1010    -7.6620     1.3290 H     1 <1>   0.0800 
 49 H       -0.3170    -9.3490     0.9870 H     1 <1>   0.0800 
 50 H        1.3700    -7.5110    -1.9480 H     1 <1>   0.0800 
 51 H        0.0830    -6.3780    -2.3470 H     1 <1>   0.0800 
 52 H        0.1000    -8.0020    -3.0600 H     1 <1>   0.0800 
@<TRIPOS>BOND
  1   1   2  1   
  2   2   3  1   
  3   2   4  1   
  4   2   5  1   
  5   5   6  ar  
  6   5   7  ar  
  7   6   8  ar  
  8   6  31  1   
  9   7   9  ar  
 10   7  32  1   
 11   8  10  1   
 12   8  11  ar  
 13   9  11  ar  
 14   9  33  1   
 15  10  12  2   
 16  10  13  am  
 17  11  34  1   
 18  13  14  1   
 19  13  15  1   
 20  14  16  1   
 21  14  17  1   
 22  14  35  1   
 23  15  18  1   
 24  15  36  1   
 25  15  37  1   
 26  16  19  ar  
 27  16  20  ar  
 28  17  21  1   
 29  17  22  1   
 30  17  38  1   
 31  18  21  1   
 32  18  39  1   
 33  18  40  1   
 34  19  23  ar  
 35  19  41  1   
 36  20  24  ar  
 37  20  42  1   
 38  22  25  1   
 39  22  43  1   
 40  22  44  1   
 41  23  26  1   
 42  23  27  ar  
 43  24  27  ar  
 44  24  45  1   
 45  25  46  1   
 46  26  28  1   
 47  27  29  1   
 48  28  47  1   
 49  28  48  1   
 50  28  49  1   
 51  29  30  1   
 52  30  50  1   
 53  30  51  1   
 54  30  52  1   
@<TRIPOS>SUBSTRUCTURE
  1 ****  16 GROUP 4 **** **** 0

# MOE 2024.06 (io_trps.svl 2023.06)
