@<TRIPOS>MOLECULE
NONAME
9 8 1 0 0 
SMALL
USER_CHARGES


@<TRIPOS>ATOM
  1 F       -0.5960    -0.9710    -1.3300 F     1 <1>  -0.3400 
  2 C       -0.1340    -1.3800    -0.1560 C.3   1 <1>   1.0200 
  3 F        0.9960    -0.7190     0.0580 F     1 <1>  -0.3400 
  4 F       -0.9990    -0.9530     0.7570 F     1 <1>  -0.3400 
  5 C        0.0690    -2.9140    -0.0830 C.3   1 <1>   0.1200 
  6 O       -1.1080    -3.6820    -0.2070 O.3   1 <1>  -0.6800 
  7 H        0.5200    -3.1590     0.8610 H     1 <1>   0.0800 
  8 H        0.7360    -3.2140    -0.8710 H     1 <1>   0.0800 
  9 H       -1.7860    -3.4050     0.4450 H     1 <1>   0.4000 
@<TRIPOS>BOND
  1   1   2  1   
  2   2   3  1   
  3   2   4  1   
  4   2   5  1   
  5   5   6  1   
  6   5   7  1   
  7   5   8  1   
  8   6   9  1   
@<TRIPOS>SUBSTRUCTURE
  1 ****   2 GROUP 4 **** **** 0

# MOE 2024.06 (io_trps.svl 2023.06)
