@<TRIPOS>MOLECULE
NONAME
56 60 1 0 0 
SMALL
USER_CHARGES


@<TRIPOS>ATOM
  1 O       -1.3760     1.2830     1.7220 O.3   1 <1>  -0.3630 
  2 C       -1.8100     2.4240     1.1330 C.ar  1 <1>   0.0830 
  3 C       -0.4870     0.4090     1.0630 C.3   1 <1>   0.0400 
  4 C       -1.5050     2.7880    -0.1750 C.ar  1 <1>  -0.1500 
  5 C       -2.6010     3.2590     1.9060 C.ar  1 <1>  -0.1500 
  6 C       -2.0010     3.9690    -0.6980 C.ar  1 <1>  -0.1500 
  7 C       -3.0950     4.4400     1.3840 C.ar  1 <1>  -0.1500 
  8 C       -2.8080     4.7990     0.0710 C.ar  1 <1>  -0.0230 
  9 N       -3.3570     5.9790    -0.4810 N.pl3 1 <1>   0.3260 
 10 C       -4.5950     6.1360    -1.0180 C.2   1 <1>   0.0060 
 11 C       -2.7990     7.2010    -0.6000 C.2   1 <1>  -0.3020 
 12 N       -4.8480     7.3350    -1.4490 N.2   1 <1>  -0.5650 
 13 C       -5.5710     4.9730    -1.0940 C.3   1 <1>   0.5230 
 14 C       -3.7090     8.0080    -1.1840 C.2   1 <1>   0.0770 
 15 N       -6.9170     5.5420    -1.3580 N.4   1 <1>  -0.9590 
 16 C       -7.5250     6.0890    -0.1010 C.3   1 <1>   0.3430 
 17 C       -7.8320     4.6210    -2.0830 C.3   1 <1>   0.3430 
 18 C       -8.8210     6.8620    -0.3870 C.3   1 <1>   0.1430 
 19 C       -9.1270     5.3600    -2.4350 C.3   1 <1>  -0.1600 
 20 C       -9.4350     7.2540     0.9350 C.ar  1 <1>   0.1670 
 21 C       -9.8000     5.9860    -1.1990 C.3   1 <1>  -0.1600 
 22 C       -8.5650     8.2380    -1.0610 C.3   1 <1>  -0.1600 
 23 N       -9.6000     6.4370     1.9460 N.ar  1 <1>  -0.6200 
 24 C       -9.7810     8.5710     0.9650 C.ar  1 <1>  -0.1430 
 25 C       -9.4600     9.2630    -0.3360 C.3   1 <1>  -0.0170 
 26 C      -10.1380     7.0140     3.0120 C.ar  1 <1>   0.7200 
 27 C      -10.3400     9.0540     2.1240 C.ar  1 <1>   0.1600 
 28 N      -10.5260     8.2720     3.1640 N.ar  1 <1>  -0.6200 
 29 N      -10.3300     6.2220     4.0670 N.pl3 1 <1>  -0.9000 
 30 H       -0.2540    -0.3990     1.7330 H     1 <1>   0.0800 
 31 H        0.4110     0.9470     0.8140 H     1 <1>   0.0800 
 32 H       -0.9640     0.0230     0.1800 H     1 <1>   0.0800 
 33 H       -0.8850     2.1660    -0.7940 H     1 <1>   0.1500 
 34 H       -2.8190     2.9740     2.9200 H     1 <1>   0.1500 
 35 H       -1.7540     4.2430    -1.7110 H     1 <1>   0.1500 
 36 H       -3.6980     5.0800     2.0060 H     1 <1>   0.1500 
 37 H       -1.8010     7.4150    -0.2630 H     1 <1>   0.1500 
 38 H       -5.5690     4.4110    -0.1740 H     1 <1>   0.0800 
 39 H       -5.2750     4.3240    -1.9010 H     1 <1>   0.0800 
 40 H       -3.6000     9.0530    -1.4320 H     1 <1>   0.1500 
 41 H       -6.7020     6.3650    -1.9490 H     1 <1>   0.4500 
 42 H       -6.8290     6.7490     0.3910 H     1 <1>   0.0800 
 43 H       -7.7510     5.2800     0.5750 H     1 <1>   0.0800 
 44 H       -8.0630     3.7720    -1.4590 H     1 <1>   0.0800 
 45 H       -7.3640     4.2650    -2.9870 H     1 <1>   0.0800 
 46 H       -9.8100     4.6640    -2.8920 H     1 <1>   0.0800 
 47 H       -8.9130     6.1170    -3.1690 H     1 <1>   0.0800 
 48 H      -10.6560     6.5680    -1.4980 H     1 <1>   0.0800 
 49 H      -10.1620     5.1940    -0.5650 H     1 <1>   0.0800 
 50 H       -8.7630     8.2340    -2.1180 H     1 <1>   0.0800 
 51 H       -7.5390     8.5300    -0.9110 H     1 <1>   0.0800 
 52 H      -10.3690     9.4360    -0.8870 H     1 <1>   0.0800 
 53 H       -8.9480    10.1960    -0.1770 H     1 <1>   0.0800 
 54 H      -10.6360    10.0870     2.2010 H     1 <1>   0.1500 
 55 H      -10.9560     6.6040     4.7720 H     1 <1>   0.4000 
 56 H      -10.4260     5.2310     3.8710 H     1 <1>   0.4000 
@<TRIPOS>BOND
  1   1   2  1   
  2   1   3  1   
  3   2   4  ar  
  4   2   5  ar  
  5   3  30  1   
  6   3  31  1   
  7   3  32  1   
  8   4   6  ar  
  9   4  33  1   
 10   5   7  ar  
 11   5  34  1   
 12   6   8  ar  
 13   6  35  1   
 14   7   8  ar  
 15   7  36  1   
 16   8   9  1   
 17   9  10  1   
 18   9  11  1   
 19  10  12  2   
 20  10  13  1   
 21  11  14  2   
 22  11  37  1   
 23  12  14  1   
 24  13  15  1   
 25  13  38  1   
 26  13  39  1   
 27  14  40  1   
 28  15  16  1   
 29  15  17  1   
 30  15  41  1   
 31  16  18  1   
 32  16  42  1   
 33  16  43  1   
 34  17  19  1   
 35  17  44  1   
 36  17  45  1   
 37  18  20  1   
 38  18  21  1   
 39  18  22  1   
 40  19  21  1   
 41  19  46  1   
 42  19  47  1   
 43  20  23  ar  
 44  20  24  ar  
 45  21  48  1   
 46  21  49  1   
 47  22  25  1   
 48  22  50  1   
 49  22  51  1   
 50  23  26  ar  
 51  24  25  1   
 52  24  27  ar  
 53  25  52  1   
 54  25  53  1   
 55  26  28  ar  
 56  26  29  1   
 57  27  28  ar  
 58  27  54  1   
 59  29  55  1   
 60  29  56  1   
@<TRIPOS>SUBSTRUCTURE
  1 ****  16 GROUP 4 **** **** 0

# MOE 2024.06 (io_trps.svl 2023.06)
