@<TRIPOS>MOLECULE
NONAME
47 48 1 0 0 
SMALL
USER_CHARGES


@<TRIPOS>ATOM
  1 O       -0.9910     0.7400    -2.0650 O.co2 1 <1>  -0.9000 
  2 C       -1.3540     0.7440    -0.8850 C.2   1 <1>   0.9060 
  3 O       -2.1080    -0.1110    -0.4120 O.co2 1 <1>  -0.9000 
  4 C       -0.8880     1.8720     0.0140 C.3   1 <1>  -0.1060 
  5 C       -2.1240     2.4540     0.7220 C.3   1 <1>   0.2000 
  6 C       -0.3660     2.9530    -0.9310 C.3   1 <1>   0.3430 
  7 C        0.1910     1.3310     1.0040 C.3   1 <1>  -0.0170 
  8 O       -2.5910     1.5550     1.6510 O.3   1 <1>  -0.6800 
  9 C       -1.8330     3.7740     1.4420 C.3   1 <1>  -0.1600 
 10 N       -0.0100     4.1910    -0.1830 N.4   1 <1>  -0.9590 
 11 C        1.6280     1.6510     0.6090 C.ar  1 <1>  -0.1440 
 12 C       -1.1930     4.7870     0.4950 C.3   1 <1>   0.3430 
 13 C        0.7110     5.1230    -1.0760 C.3   1 <1>   0.4810 
 14 C        2.4040     2.4910     1.3950 C.ar  1 <1>  -0.1500 
 15 C        2.1720     1.1030    -0.5420 C.ar  1 <1>  -0.1500 
 16 C        1.1310     6.3450    -0.2750 C.2   1 <1>  -0.2760 
 17 C        3.7020     2.7940     1.0210 C.ar  1 <1>  -0.1500 
 18 C        3.4670     1.4100    -0.9190 C.ar  1 <1>  -0.1500 
 19 C        2.1150     6.2800     0.6330 C.2   1 <1>  -0.2880 
 20 C        0.3340     7.5950    -0.6480 C.3   1 <1>  -0.1020 
 21 C        4.2320     2.2590    -0.1390 C.ar  1 <1>  -0.1500 
 22 C        2.6800     7.3810     1.5190 C.3   1 <1>  -0.1020 
 23 H       -2.9140     2.6000     0.0020 H     1 <1>   0.0800 
 24 H       -1.1250     3.1690    -1.6650 H     1 <1>   0.0800 
 25 H        0.4900     2.5720    -1.4630 H     1 <1>   0.0800 
 26 H        0.0150     1.7120     1.9930 H     1 <1>   0.0800 
 27 H        0.0910     0.2610     1.0900 H     1 <1>   0.0800 
 28 H       -2.6670     0.6800     1.1750 H     1 <1>   0.4000 
 29 H       -2.7560     4.1800     1.8150 H     1 <1>   0.0800 
 30 H       -1.1820     3.6130     2.2810 H     1 <1>   0.0800 
 31 H        0.6730     3.9030     0.5310 H     1 <1>   0.4500 
 32 H       -0.8960     5.6590     1.0540 H     1 <1>   0.0800 
 33 H       -1.9160     5.0880    -0.2460 H     1 <1>   0.0800 
 34 H        1.5910     4.6330    -1.4630 H     1 <1>   0.0800 
 35 H        0.0880     5.4110    -1.9070 H     1 <1>   0.0800 
 36 H        2.0110     2.9020     2.3090 H     1 <1>   0.1500 
 37 H        1.5840     0.4330    -1.1540 H     1 <1>   0.1500 
 38 H        4.3060     3.4400     1.6360 H     1 <1>   0.1500 
 39 H        3.8780     0.9820    -1.8170 H     1 <1>   0.1500 
 40 H        2.6390     5.3560     0.8180 H     1 <1>   0.1500 
 41 H       -0.7170     7.4420    -0.4850 H     1 <1>   0.0800 
 42 H        0.4870     7.8300    -1.6870 H     1 <1>   0.0800 
 43 H        0.6300     8.4530    -0.0770 H     1 <1>   0.0800 
 44 H        5.2410     2.4930    -0.4310 H     1 <1>   0.1500 
 45 H        3.7270     7.5120     1.3100 H     1 <1>   0.0800 
 46 H        2.5750     7.1050     2.5540 H     1 <1>   0.0800 
 47 H        2.1920     8.3250     1.3750 H     1 <1>   0.0800 
@<TRIPOS>BOND
  1   1   2  ar  
  2   2   3  ar  
  3   2   4  1   
  4   4   5  1   
  5   4   6  1   
  6   4   7  1   
  7   5   8  1   
  8   5   9  1   
  9   5  23  1   
 10   6  10  1   
 11   6  24  1   
 12   6  25  1   
 13   7  11  1   
 14   7  26  1   
 15   7  27  1   
 16   8  28  1   
 17   9  12  1   
 18   9  29  1   
 19   9  30  1   
 20  10  12  1   
 21  10  13  1   
 22  10  31  1   
 23  11  14  ar  
 24  11  15  ar  
 25  12  32  1   
 26  12  33  1   
 27  13  16  1   
 28  13  34  1   
 29  13  35  1   
 30  14  17  ar  
 31  14  36  1   
 32  15  18  ar  
 33  15  37  1   
 34  16  19  2   
 35  16  20  1   
 36  17  21  ar  
 37  17  38  1   
 38  18  21  ar  
 39  18  39  1   
 40  19  22  1   
 41  19  40  1   
 42  20  41  1   
 43  20  42  1   
 44  20  43  1   
 45  21  44  1   
 46  22  45  1   
 47  22  46  1   
 48  22  47  1   
@<TRIPOS>SUBSTRUCTURE
  1 ****  10 GROUP 4 **** **** 0

# MOE 2024.06 (io_trps.svl 2023.06)
