@<TRIPOS>MOLECULE
NONAME
50 52 1 0 0 
SMALL
USER_CHARGES


@<TRIPOS>ATOM
  1 O        0.7040    -0.6410     0.4050 O.3   1 <1>  -0.5650 
  2 C        1.7640    -1.4330    -0.0720 C.3   1 <1>   0.1930 
  3 C       -0.4490    -0.5960    -0.3810 C.3   1 <1>   0.1130 
  4 C        1.7210    -2.8230     0.6120 C.3   1 <1>   0.3370 
  5 C        3.0870    -0.6940     0.2430 C.3   1 <1>   0.1600 
  6 C       -1.0960    -1.9760    -0.5430 C.3   1 <1>  -0.1670 
  7 N        0.4980    -3.6490     0.3330 N.4   1 <1>  -0.9610 
  8 N        2.8580     0.7750     0.2780 N.pl3 1 <1>  -0.7180 
  9 C       -0.7950    -2.9490     0.5940 C.3   1 <1>   0.3370 
 10 C        0.5510    -4.9290     1.0890 C.3   1 <1>   0.4810 
 11 C        3.7030     1.8010     0.1030 C.cat 1 <1>   1.0690 
 12 C       -0.4580    -5.8790     0.4790 C.ar  1 <1>  -0.1510 
 13 N        4.9860     1.6960    -0.1530 N.pl3 1 <1>  -0.7040 
 14 N        3.4160     3.1000     0.1550 N.pl3 1 <1>  -0.4620 
 15 C       -0.2090    -6.4690    -0.7520 C.ar  1 <1>  -0.1570 
 16 C       -1.6420    -6.1610     1.1450 C.ar  1 <1>  -0.1570 
 17 C        5.4630     2.9680    -0.2540 C.2   1 <1>   0.4800 
 18 N        4.5440     3.8380    -0.0740 N.2   1 <1>  -0.2670 
 19 C        2.1290     3.7890     0.4210 C.3   1 <1>   0.2680 
 20 C       -1.1440    -7.3190    -1.3170 C.ar  1 <1>  -0.1570 
 21 C       -2.5750    -7.0110     0.5780 C.ar  1 <1>  -0.1570 
 22 C        6.9190     3.2600    -0.5460 C.3   1 <1>  -0.0800 
 23 C       -2.3270    -7.5880    -0.6540 C.ar  1 <1>  -0.1570 
 24 H        1.6760    -1.5410    -1.1410 H     1 <1>   0.0720 
 25 H       -0.2100    -0.1660    -1.3400 H     1 <1>   0.0720 
 26 H       -1.1390     0.0630     0.1200 H     1 <1>   0.0720 
 27 H        1.8040    -2.6700     1.6760 H     1 <1>   0.0720 
 28 H        2.5880    -3.3810     0.2990 H     1 <1>   0.0720 
 29 H        3.8320    -0.9470    -0.4930 H     1 <1>   0.0720 
 30 H        3.4500    -1.0050     1.2080 H     1 <1>   0.0720 
 31 H       -0.8260    -2.4080    -1.4900 H     1 <1>   0.0720 
 32 H       -2.1610    -1.8240    -0.5790 H     1 <1>   0.0720 
 33 H        0.4720    -3.9300    -0.6550 H     1 <1>   0.4450 
 34 H        1.8730     0.9740     0.4910 H     1 <1>   0.4450 
 35 H       -1.5930    -3.6740     0.6300 H     1 <1>   0.0720 
 36 H       -0.7670    -2.4300     1.5390 H     1 <1>   0.0720 
 37 H        0.3260    -4.7620     2.1300 H     1 <1>   0.0720 
 38 H        1.5330    -5.3670     1.0140 H     1 <1>   0.0720 
 39 H        5.5280     0.8460    -0.2500 H     1 <1>   0.4450 
 40 H        0.7070    -6.2860    -1.2860 H     1 <1>   0.1430 
 41 H       -1.8550    -5.7270     2.1080 H     1 <1>   0.1430 
 42 H        1.3330     3.0800     0.5620 H     1 <1>   0.0720 
 43 H        1.8850     4.4280    -0.4110 H     1 <1>   0.0720 
 44 H        2.2210     4.3950     1.3060 H     1 <1>   0.0720 
 45 H       -0.9530    -7.7780    -2.2730 H     1 <1>   0.1430 
 46 H       -3.4940    -7.2290     1.0950 H     1 <1>   0.1430 
 47 H        7.1990     2.8370    -1.4930 H     1 <1>   0.0720 
 48 H        7.5410     2.8450     0.2260 H     1 <1>   0.0720 
 49 H        7.0800     4.3230    -0.5830 H     1 <1>   0.0720 
 50 H       -3.0530    -8.2500    -1.0940 H     1 <1>   0.1430 
@<TRIPOS>BOND
  1   1   2  1   
  2   1   3  1   
  3   2   4  1   
  4   2   5  1   
  5   2  24  1   
  6   3   6  1   
  7   3  25  1   
  8   3  26  1   
  9   4   7  1   
 10   4  27  1   
 11   4  28  1   
 12   5   8  1   
 13   5  29  1   
 14   5  30  1   
 15   6   9  1   
 16   6  31  1   
 17   6  32  1   
 18   7   9  1   
 19   7  10  1   
 20   7  33  1   
 21   8  11  ar  
 22   8  34  1   
 23   9  35  1   
 24   9  36  1   
 25  10  12  1   
 26  10  37  1   
 27  10  38  1   
 28  11  13  ar  
 29  11  14  ar  
 30  12  15  ar  
 31  12  16  ar  
 32  13  17  1   
 33  13  39  1   
 34  14  18  1   
 35  14  19  1   
 36  15  20  ar  
 37  15  40  1   
 38  16  21  ar  
 39  16  41  1   
 40  17  18  2   
 41  17  22  1   
 42  19  42  1   
 43  19  43  1   
 44  19  44  1   
 45  20  23  ar  
 46  20  45  1   
 47  21  23  ar  
 48  21  46  1   
 49  22  47  1   
 50  22  48  1   
 51  22  49  1   
 52  23  50  1   
@<TRIPOS>SUBSTRUCTURE
  1 ****   2 GROUP 4 **** **** 0

# MOE 2024.06 (io_trps.svl 2023.06)
