@<TRIPOS>MOLECULE
NONAME
58 61 1 0 0 
SMALL
USER_CHARGES


@<TRIPOS>ATOM
  1 F        0.8450     1.1360    -0.5970 F     1 <1>  -0.1900 
  2 C        1.7520     1.8480     0.0190 C.ar  1 <1>   0.1900 
  3 C        3.0880     1.6880    -0.3180 C.ar  1 <1>  -0.1440 
  4 C        1.3320     2.7390     0.9880 C.ar  1 <1>  -0.1500 
  5 C        4.0220     2.4610     0.3560 C.ar  1 <1>  -0.1500 
  6 C        3.5230     0.6990    -1.3890 C.3   1 <1>  -0.0960 
  7 C        2.2790     3.5010     1.6490 C.ar  1 <1>  -0.1500 
  8 C        3.6250     3.3640     1.3360 C.ar  1 <1>  -0.1440 
  9 C        4.6710     4.1990     2.0510 C.3   1 <1>   0.2840 
 10 N        5.1230     5.2460     1.1210 N.am  1 <1>  -0.7300 
 11 C        6.4000     5.6990     1.0260 C.2   1 <1>   0.5690 
 12 O        7.2490     5.2920     1.7840 O.2   1 <1>  -0.5700 
 13 C        6.7880     6.6720    -0.1040 C.3   1 <1>   0.0610 
 14 C        7.8890     7.6710     0.3490 C.3   1 <1>   0.2200 
 15 C        5.6480     7.6610    -0.5120 C.3   1 <1>  -0.1600 
 16 C        7.2270     5.7730    -1.3010 C.3   1 <1>  -0.1600 
 17 N        7.6520     8.7880    -0.5610 N.am  1 <1>  -0.6600 
 18 C        7.5210     8.3860     1.6650 C.3   1 <1>  -0.1600 
 19 C        6.2570     9.0490    -0.2630 C.3   1 <1>   0.2200 
 20 C        7.8140     6.4510    -2.5510 C.3   1 <1>  -0.2400 
 21 C        8.5930     9.5280    -1.2160 C.2   1 <1>   0.5690 
 22 C        6.3460     9.2920     1.2480 C.3   1 <1>  -0.1600 
 23 O        9.7620     9.2270    -1.1930 O.2   1 <1>  -0.5700 
 24 C        8.1890    10.7650    -2.0030 C.3   1 <1>   0.0440 
 25 C        7.6720    11.8930    -1.1160 C.ar  1 <1>  -0.1430 
 26 C        8.3220    12.2200     0.0670 C.ar  1 <1>   0.1600 
 27 C        6.5470    12.6100    -1.4750 C.ar  1 <1>  -0.1500 
 28 N        7.9400    13.1730     0.9030 N.ar  1 <1>  -0.6200 
 29 C        6.1400    13.6090    -0.6180 C.ar  1 <1>  -0.1500 
 30 C        6.8600    13.8450     0.5400 C.ar  1 <1>   0.1600 
 31 H        0.2850     2.8280     1.2160 H     1 <1>   0.1500 
 32 H        5.0680     2.3640     0.1210 H     1 <1>   0.1500 
 33 H        4.5860     0.7400    -1.5450 H     1 <1>   0.0800 
 34 H        3.0320     0.9260    -2.3190 H     1 <1>   0.0800 
 35 H        3.2560    -0.2990    -1.0930 H     1 <1>   0.0800 
 36 H        1.9620     4.1990     2.4050 H     1 <1>   0.1500 
 37 H        5.5020     3.5790     2.3470 H     1 <1>   0.0800 
 38 H        4.2570     4.6570     2.9330 H     1 <1>   0.0800 
 39 H        4.4320     5.5000     0.4150 H     1 <1>   0.3700 
 40 H        8.8930     7.2810     0.3200 H     1 <1>   0.0800 
 41 H        4.7500     7.5510     0.0650 H     1 <1>   0.0800 
 42 H        5.3890     7.5640    -1.5500 H     1 <1>   0.0800 
 43 H        7.9680     5.0790    -0.9400 H     1 <1>   0.0800 
 44 H        6.3800     5.1850    -1.6090 H     1 <1>   0.0800 
 45 H        7.2650     7.7200     2.4680 H     1 <1>   0.0800 
 46 H        8.3570     8.9850     1.9830 H     1 <1>   0.0800 
 47 H        5.8090     9.8510    -0.8250 H     1 <1>   0.0800 
 48 H        8.7560     6.9160    -2.3180 H     1 <1>   0.0800 
 49 H        7.1490     7.1940    -2.9500 H     1 <1>   0.0800 
 50 H        7.9930     5.7140    -3.3130 H     1 <1>   0.0800 
 51 H        6.5750    10.3250     1.4470 H     1 <1>   0.0800 
 52 H        5.4320     9.0340     1.7520 H     1 <1>   0.0800 
 53 H        9.0440    11.1180    -2.5500 H     1 <1>   0.0800 
 54 H        7.4420    10.4770    -2.7180 H     1 <1>   0.0800 
 55 H        9.2040    11.6660     0.3460 H     1 <1>   0.1500 
 56 H        6.0070    12.4060    -2.3830 H     1 <1>   0.1500 
 57 H        5.2730    14.2040    -0.8420 H     1 <1>   0.1500 
 58 H        6.5320    14.6290     1.2020 H     1 <1>   0.1500 
@<TRIPOS>BOND
  1   1   2  1   
  2   2   3  ar  
  3   2   4  ar  
  4   3   5  ar  
  5   3   6  1   
  6   4   7  ar  
  7   4  31  1   
  8   5   8  ar  
  9   5  32  1   
 10   6  33  1   
 11   6  34  1   
 12   6  35  1   
 13   7   8  ar  
 14   7  36  1   
 15   8   9  1   
 16   9  10  1   
 17   9  37  1   
 18   9  38  1   
 19  10  11  am  
 20  10  39  1   
 21  11  12  2   
 22  11  13  1   
 23  13  14  1   
 24  13  15  1   
 25  13  16  1   
 26  14  17  1   
 27  14  18  1   
 28  14  40  1   
 29  15  19  1   
 30  15  41  1   
 31  15  42  1   
 32  16  20  1   
 33  16  43  1   
 34  16  44  1   
 35  17  19  1   
 36  17  21  am  
 37  18  22  1   
 38  18  45  1   
 39  18  46  1   
 40  19  22  1   
 41  19  47  1   
 42  20  48  1   
 43  20  49  1   
 44  20  50  1   
 45  21  23  2   
 46  21  24  1   
 47  22  51  1   
 48  22  52  1   
 49  24  25  1   
 50  24  53  1   
 51  24  54  1   
 52  25  26  ar  
 53  25  27  ar  
 54  26  28  ar  
 55  26  55  1   
 56  27  29  ar  
 57  27  56  1   
 58  28  30  ar  
 59  29  30  ar  
 60  29  57  1   
 61  30  58  1   
@<TRIPOS>SUBSTRUCTURE
  1 ****  15 GROUP 4 **** **** 0

# MOE 2024.06 (io_trps.svl 2023.06)
