@<TRIPOS>MOLECULE
NONAME
43 43 1 0 0 
SMALL
USER_CHARGES


@<TRIPOS>ATOM
  1 O       -0.2130     1.3480     1.1190 O.2   1 <1>  -0.5700 
  2 C        0.0510     2.2070     0.3170 C.2   1 <1>   0.4230 
  3 C        1.3930     2.6860     0.0930 C.ar  1 <1>   0.0860 
  4 C       -1.1170     2.7770    -0.4650 C.3   1 <1>  -0.1790 
  5 C        1.7070     3.6820    -0.8360 C.ar  1 <1>   0.1600 
  6 C        2.4680     2.1660     0.8110 C.ar  1 <1>  -0.1500 
  7 N        2.9060     4.1670    -1.0910 N.ar  1 <1>  -0.6200 
  8 C        3.7240     2.6590     0.5620 C.ar  1 <1>  -0.1500 
  9 C        3.9160     3.6590    -0.3900 C.ar  1 <1>   0.4100 
 10 N        5.1860     4.1420    -0.6350 N.pl3 1 <1>  -0.8380 
 11 C        5.3940     5.5480    -1.1250 C.3   1 <1>   0.2090 
 12 C        6.2540     3.1610    -0.9780 C.3   1 <1>   0.1290 
 13 C        6.1340     6.5200    -0.1580 C.3   1 <1>   0.0000 
 14 C        6.3960     7.8220    -0.9630 C.3   1 <1>   0.1200 
 15 C        5.2560     6.8900     1.0780 C.3   1 <1>  -0.1600 
 16 C        7.5100     5.9230     0.2540 C.3   1 <1>  -0.1600 
 17 O        5.2170     8.4270    -1.3900 O.3   1 <1>  -0.6800 
 18 C        5.1660     5.8640     2.2210 C.3   1 <1>  -0.2400 
 19 C        8.4250     6.8390     1.0870 C.3   1 <1>  -0.2400 
 20 H       -1.2120     3.8300    -0.2740 H     1 <1>   0.0800 
 21 H       -2.0290     2.2940    -0.1620 H     1 <1>   0.0800 
 22 H       -0.9770     2.6070    -1.5170 H     1 <1>   0.0800 
 23 H        0.9090     4.1120    -1.4140 H     1 <1>   0.1500 
 24 H        2.3070     1.3950     1.5460 H     1 <1>   0.1500 
 25 H        4.5740     2.2910     1.1020 H     1 <1>   0.1500 
 26 H        4.4410     5.9850    -1.3590 H     1 <1>   0.0800 
 27 H        5.9360     5.5010    -2.0540 H     1 <1>   0.0800 
 28 H        5.8140     2.2250    -1.2770 H     1 <1>   0.0800 
 29 H        6.8810     2.9900    -0.1200 H     1 <1>   0.0800 
 30 H        6.8590     3.5240    -1.7890 H     1 <1>   0.0800 
 31 H        6.9970     7.6180    -1.8330 H     1 <1>   0.0800 
 32 H        6.9100     8.5480    -0.3590 H     1 <1>   0.0800 
 33 H        4.2550     7.0940     0.7390 H     1 <1>   0.0800 
 34 H        5.6240     7.8070     1.5030 H     1 <1>   0.0800 
 35 H        8.0460     5.6350    -0.6330 H     1 <1>   0.0800 
 36 H        7.3460     5.0250     0.8210 H     1 <1>   0.0800 
 37 H        4.6530     7.8010    -1.8830 H     1 <1>   0.4000 
 38 H        4.7970     4.9230     1.8670 H     1 <1>   0.0800 
 39 H        4.4870     6.2240     2.9730 H     1 <1>   0.0800 
 40 H        6.1220     5.7100     2.6840 H     1 <1>   0.0800 
 41 H        8.7590     7.6850     0.5140 H     1 <1>   0.0800 
 42 H        9.2960     6.2900     1.3990 H     1 <1>   0.0800 
 43 H        7.9220     7.1930     1.9690 H     1 <1>   0.0800 
@<TRIPOS>BOND
  1   1   2  2   
  2   2   3  1   
  3   2   4  1   
  4   3   5  ar  
  5   3   6  ar  
  6   4  20  1   
  7   4  21  1   
  8   4  22  1   
  9   5   7  ar  
 10   5  23  1   
 11   6   8  ar  
 12   6  24  1   
 13   7   9  ar  
 14   8   9  ar  
 15   8  25  1   
 16   9  10  1   
 17  10  11  1   
 18  10  12  1   
 19  11  13  1   
 20  11  26  1   
 21  11  27  1   
 22  12  28  1   
 23  12  29  1   
 24  12  30  1   
 25  13  14  1   
 26  13  15  1   
 27  13  16  1   
 28  14  17  1   
 29  14  31  1   
 30  14  32  1   
 31  15  18  1   
 32  15  33  1   
 33  15  34  1   
 34  16  19  1   
 35  16  35  1   
 36  16  36  1   
 37  17  37  1   
 38  18  38  1   
 39  18  39  1   
 40  18  40  1   
 41  19  41  1   
 42  19  42  1   
 43  19  43  1   
@<TRIPOS>SUBSTRUCTURE
  1 ****   9 GROUP 4 **** **** 0

# MOE 2024.06 (io_trps.svl 2023.06)
