@<TRIPOS>MOLECULE
NONAME
48 50 1 0 0 
SMALL
USER_CHARGES


@<TRIPOS>ATOM
  1 F        0.9090     1.3970     2.2590 F     1 <1>  -0.3400 
  2 C        0.4650     2.5500     1.7660 C.3   1 <1>   1.1640 
  3 F        0.2950     3.3350     2.8240 F     1 <1>  -0.3400 
  4 F       -0.7410     2.2780     1.2810 F     1 <1>  -0.3400 
  5 C        1.4290     3.1360     0.7260 C.ar  1 <1>  -0.1440 
  6 C        1.1010     4.3670     0.1170 C.ar  1 <1>   0.3100 
  7 C        2.5940     2.4840     0.3860 C.ar  1 <1>  -0.1500 
  8 N       -0.0550     4.9900     0.4570 N.ar  1 <1>  -0.6200 
  9 C        1.9930     4.9230    -0.8340 C.ar  1 <1>   0.0000 
 10 C        3.4670     3.0240    -0.5570 C.ar  1 <1>  -0.1500 
 11 C       -0.3480     6.1120    -0.1290 C.ar  1 <1>   0.1600 
 12 C        1.6670     6.1750    -1.4140 C.ar  1 <1>   0.1000 
 13 C        3.1710     4.2170    -1.1530 C.ar  1 <1>  -0.1500 
 14 C        0.4710     6.7390    -1.0590 C.ar  1 <1>  -0.1500 
 15 N        2.5210     6.8200    -2.2940 N.pl3 1 <1>  -0.8690 
 16 C        2.9780     8.2190    -2.1060 C.3   1 <1>   0.2090 
 17 C        3.2570     8.4940    -0.6120 C.3   1 <1>   0.3430 
 18 N        3.9500     9.8030    -0.3330 N.4   1 <1>  -0.9590 
 19 C        4.3060     9.9640     1.1270 C.3   1 <1>   0.4230 
 20 C        3.1190    10.9570    -0.8030 C.3   1 <1>   0.3430 
 21 C        5.1030    11.2710     1.3010 C.3   1 <1>  -0.1600 
 22 C        5.1010     8.7590     1.6960 C.3   1 <1>   0.1200 
 23 C        3.9070    12.2590    -0.6770 C.3   1 <1>  -0.1600 
 24 C        4.3540    12.4960     0.7670 C.3   1 <1>  -0.1600 
 25 O        5.3290     8.9460     3.0520 O.3   1 <1>  -0.6800 
 26 H        2.8680     1.5410     0.8330 H     1 <1>   0.1500 
 27 H        4.3670     2.4870    -0.8070 H     1 <1>   0.1500 
 28 H       -1.2840     6.5800     0.1280 H     1 <1>   0.1500 
 29 H        3.8500     4.6200    -1.8800 H     1 <1>   0.1500 
 30 H        0.1440     7.6610    -1.5000 H     1 <1>   0.1500 
 31 H        3.1190     6.2300    -2.8910 H     1 <1>   0.4000 
 32 H        2.2150     8.8810    -2.4780 H     1 <1>   0.0800 
 33 H        3.8780     8.3640    -2.6780 H     1 <1>   0.0800 
 34 H        3.8690     7.6840    -0.2570 H     1 <1>   0.0800 
 35 H        2.3230     8.4600    -0.0760 H     1 <1>   0.0800 
 36 H        4.8380     9.8370    -0.8490 H     1 <1>   0.4500 
 37 H        3.3930    10.0430     1.6940 H     1 <1>   0.0800 
 38 H        2.2190    11.0240    -0.2120 H     1 <1>   0.0800 
 39 H        2.8370    10.8210    -1.8340 H     1 <1>   0.0800 
 40 H        6.0560    11.1820     0.8090 H     1 <1>   0.0800 
 41 H        5.3030    11.4290     2.3470 H     1 <1>   0.0800 
 42 H        6.0570     8.6660     1.2100 H     1 <1>   0.0800 
 43 H        4.5470     7.8420     1.6020 H     1 <1>   0.0800 
 44 H        3.2850    13.0790    -0.9940 H     1 <1>   0.0800 
 45 H        4.7610    12.2310    -1.3300 H     1 <1>   0.0800 
 46 H        4.9900    13.3650     0.8170 H     1 <1>   0.0800 
 47 H        3.4920    12.6870     1.3860 H     1 <1>   0.0800 
 48 H        5.8350     8.2040     3.4460 H     1 <1>   0.4000 
@<TRIPOS>BOND
  1   1   2  1   
  2   2   3  1   
  3   2   4  1   
  4   2   5  1   
  5   5   6  ar  
  6   5   7  ar  
  7   6   8  ar  
  8   6   9  ar  
  9   7  10  ar  
 10   7  26  1   
 11   8  11  ar  
 12   9  12  ar  
 13   9  13  ar  
 14  10  13  ar  
 15  10  27  1   
 16  11  14  ar  
 17  11  28  1   
 18  12  14  ar  
 19  12  15  1   
 20  13  29  1   
 21  14  30  1   
 22  15  16  1   
 23  15  31  1   
 24  16  17  1   
 25  16  32  1   
 26  16  33  1   
 27  17  18  1   
 28  17  34  1   
 29  17  35  1   
 30  18  19  1   
 31  18  20  1   
 32  18  36  1   
 33  19  21  1   
 34  19  22  1   
 35  19  37  1   
 36  20  23  1   
 37  20  38  1   
 38  20  39  1   
 39  21  24  1   
 40  21  40  1   
 41  21  41  1   
 42  22  25  1   
 43  22  42  1   
 44  22  43  1   
 45  23  24  1   
 46  23  44  1   
 47  23  45  1   
 48  24  46  1   
 49  24  47  1   
 50  25  48  1   
@<TRIPOS>SUBSTRUCTURE
  1 ****  12 GROUP 4 **** **** 0

# MOE 2024.06 (io_trps.svl 2023.06)
