@<TRIPOS>MOLECULE
NONAME
54 57 1 0 0 
SMALL
USER_CHARGES


@<TRIPOS>ATOM
  1 CL      -1.5820     1.3520    -1.7720 Cl    1 <1>  -0.1770 
  2 C       -1.4130     2.3470    -0.3330 C.ar  1 <1>   0.1770 
  3 C       -0.6080     3.4770    -0.3790 C.ar  1 <1>   0.0830 
  4 C       -2.1020     1.9770     0.8120 C.ar  1 <1>  -0.1440 
  5 O        0.0000     3.7450    -1.5710 O.3   1 <1>  -0.3630 
  6 C       -0.4910     4.2700     0.7720 C.ar  1 <1>   0.0830 
  7 C       -1.9660     2.7550     1.9510 C.ar  1 <1>  -0.1500 
  8 C       -3.0000     0.7540     0.8150 C.3   1 <1>   0.4860 
  9 C        1.3270     4.2270    -1.6120 C.3   1 <1>   0.0400 
 10 O        0.2610     5.4070     0.7320 O.3   1 <1>  -0.3630 
 11 C       -1.1680     3.8870     1.9290 C.ar  1 <1>  -0.1500 
 12 N       -4.1290     0.9840    -0.1260 N.4   1 <1>  -0.9590 
 13 C        0.3520     6.2980     1.8220 C.3   1 <1>   0.0400 
 14 C       -4.9610     2.1740     0.2640 C.3   1 <1>   0.3430 
 15 C       -4.9680    -0.2300    -0.3170 C.3   1 <1>   0.3430 
 16 C       -5.9920     2.5170    -0.8230 C.3   1 <1>   0.1440 
 17 C       -5.9910     0.0300    -1.4280 C.3   1 <1>  -0.1600 
 18 C       -6.8610     3.6410    -0.3140 C.ar  1 <1>   0.1670 
 19 C       -6.8520     1.2770    -1.1520 C.3   1 <1>  -0.1600 
 20 C       -5.3440     3.1380    -2.0910 C.3   1 <1>  -0.1600 
 21 N       -7.4210     3.6680     0.8730 N.ar  1 <1>  -0.6200 
 22 C       -6.9860     4.6410    -1.2280 C.ar  1 <1>  -0.1430 
 23 C       -6.2200     4.3410    -2.4930 C.3   1 <1>  -0.0170 
 24 C       -8.1430     4.7580     1.1040 C.ar  1 <1>   0.4770 
 25 C       -7.7500     5.7270    -0.8810 C.ar  1 <1>   0.1600 
 26 N       -8.3380     5.7910     0.2960 N.ar  1 <1>  -0.6200 
 27 C       -8.8210     4.8400     2.4500 C.3   1 <1>  -0.0970 
 28 H       -2.4750     2.4970     2.8650 H     1 <1>   0.1500 
 29 H       -3.3760     0.5740     1.8090 H     1 <1>   0.0800 
 30 H       -2.4290    -0.1050     0.5030 H     1 <1>   0.0800 
 31 H        1.7450     3.9770    -2.5710 H     1 <1>   0.0800 
 32 H        1.8990     3.7620    -0.8280 H     1 <1>   0.0800 
 33 H        1.3150     5.2950    -1.4920 H     1 <1>   0.0800 
 34 H       -1.0910     4.4640     2.8320 H     1 <1>   0.1500 
 35 H       -3.6900     1.2040    -1.0330 H     1 <1>   0.4500 
 36 H        0.9720     7.1250     1.5250 H     1 <1>   0.0800 
 37 H        0.8010     5.7890     2.6560 H     1 <1>   0.0800 
 38 H       -0.6330     6.6540     2.0680 H     1 <1>   0.0800 
 39 H       -4.3360     3.0360     0.4290 H     1 <1>   0.0800 
 40 H       -5.4870     1.9660     1.1820 H     1 <1>   0.0800 
 41 H       -5.4850    -0.4660     0.5990 H     1 <1>   0.0800 
 42 H       -4.3500    -1.0720    -0.5880 H     1 <1>   0.0800 
 43 H       -6.6350    -0.8280    -1.5150 H     1 <1>   0.0800 
 44 H       -5.4760     0.1320    -2.3680 H     1 <1>   0.0800 
 45 H       -7.4900     1.4830    -1.9950 H     1 <1>   0.0800 
 46 H       -7.4960     1.0720    -0.3120 H     1 <1>   0.0800 
 47 H       -5.2530     2.4400    -2.9040 H     1 <1>   0.0800 
 48 H       -4.3610     3.5110    -1.8530 H     1 <1>   0.0800 
 49 H       -6.9080     4.0700    -3.2750 H     1 <1>   0.0800 
 50 H       -5.6240     5.1810    -2.8070 H     1 <1>   0.0800 
 51 H       -7.8840     6.5470    -1.5650 H     1 <1>   0.1500 
 52 H       -8.9400     3.8600     2.8720 H     1 <1>   0.0800 
 53 H       -9.7910     5.2900     2.3420 H     1 <1>   0.0800 
 54 H       -8.2280     5.4420     3.1110 H     1 <1>   0.0800 
@<TRIPOS>BOND
  1   1   2  1   
  2   2   3  ar  
  3   2   4  ar  
  4   3   5  1   
  5   3   6  ar  
  6   4   7  ar  
  7   4   8  1   
  8   5   9  1   
  9   6  10  1   
 10   6  11  ar  
 11   7  11  ar  
 12   7  28  1   
 13   8  12  1   
 14   8  29  1   
 15   8  30  1   
 16   9  31  1   
 17   9  32  1   
 18   9  33  1   
 19  10  13  1   
 20  11  34  1   
 21  12  14  1   
 22  12  15  1   
 23  12  35  1   
 24  13  36  1   
 25  13  37  1   
 26  13  38  1   
 27  14  16  1   
 28  14  39  1   
 29  14  40  1   
 30  15  17  1   
 31  15  41  1   
 32  15  42  1   
 33  16  18  1   
 34  16  19  1   
 35  16  20  1   
 36  17  19  1   
 37  17  43  1   
 38  17  44  1   
 39  18  21  ar  
 40  18  22  ar  
 41  19  45  1   
 42  19  46  1   
 43  20  23  1   
 44  20  47  1   
 45  20  48  1   
 46  21  24  ar  
 47  22  23  1   
 48  22  25  ar  
 49  23  49  1   
 50  23  50  1   
 51  24  26  ar  
 52  24  27  1   
 53  25  26  ar  
 54  25  51  1   
 55  27  52  1   
 56  27  53  1   
 57  27  54  1   
@<TRIPOS>SUBSTRUCTURE
  1 ****  14 GROUP 4 **** **** 0

# MOE 2024.06 (io_trps.svl 2023.06)
